data_PCOD9451778
_publ_section_title
;
Structure prediction by ZEFSAII (Michael W. Deem and Ramdas Pophale) SiO2 
 PCOD9451778
Probable space group: P M M N
;
_chemical_formula_sum "Si O2"
_cell_formula_units_Z 64
_cell_length_a 9.276913
_cell_length_b 22.948923
_cell_length_c 15.553944
_cell_angle_alpha 90.000000
_cell_angle_beta 90.000000
_cell_angle_gamma 90.000000
_cell_volume 3311.359429
_symmetry_space_group_name_H-M "P M M N"
_symmetry_group_IT_number 59
_space_group.IT_coordinate_system_code '2'
_symmetry_cell_setting 'orthorhombic'
loop_
_space_group_symop_operation_xyz
x,y,z
1/2-x,1/2-y,z
1/2+x,-y,-z
-x,1/2+y,-z
-x,-y,-z
1/2+x,1/2+y,-z
1/2-x,y,z
x,1/2-y,z
loop_
_atom_site_type_symbol
_atom_site_label
_atom_site_fract_x
_atom_site_fract_y
_atom_site_fract_z
Si Si1 0.910521 0.819265 0.962107
Si Si2 0.077000 0.890782 0.626694
Si Si3 0.078758 0.363798 0.706531
Si Si4 0.576538 0.182396 0.537921
Si Si5 0.087614 0.853968 0.124204
Si Si6 0.422309 0.500786 0.735093
Si Si7 0.079423 0.180589 0.228008
Si Si8 0.415648 0.507471 0.090492
O O1 0.750000 0.842173 0.983866
O O2 0.897571 0.750000 0.952105
O O3 0.021377 0.830531 0.036767
O O4 0.955303 0.841272 0.868269
O O5 0.250000 0.888348 0.626180
O O6 0.029580 0.863148 0.536158
O O7 0.035903 0.955837 0.657409
O O8 0.014646 0.850201 0.701065
O O9 0.250000 0.355073 0.703299
O O10 0.049747 0.433665 0.709371
O O11 0.001591 0.334548 0.625843
O O12 0.012779 0.339739 0.795096
O O13 0.750000 0.177850 0.548445
O O14 0.545236 0.250000 0.514125
O O15 0.250000 0.833561 0.139493
O O16 0.089737 0.923560 0.110355
O O17 0.250000 0.506097 0.750181
O O18 0.503739 0.516368 0.824181
O O19 0.250000 0.170084 0.241401
O O20 0.056346 0.250000 0.232392
O O21 0.250000 0.486138 0.083535
O O22 0.500000 0.500000 0.000000
#
# Coordination Sequence:
#
# PCOD9451778 Si02
#       8
#     8   8   8   8   8   8   8   8
#     4   9  19  35  53  76 109 148 187 228 280 338
#     4  10  21  37  59  85 115 149 188 234 284 343
#     4  10  21  39  61  83 112 149 188 234 288 342
#     4  10  22  40  61  86 115 148 187 234 290 346
#     4  10  21  36  55  80 109 143 185 233 279 328
#     4   9  20  38  57  83 117 150 189 235 285 338
#     4   9  19  35  53  77 112 150 188 234 284 336
#     4  10  21  35  53  79 112 150 191 232 275 327
#
# _framework density 19.32741
#
# number of rings (size 3 to 8) (size 9 to 14) (size 15 to 20)
#    0.000    2.375    0.000    2.250    1.750    5.750 
#    0.000    1.250    0.000    0.000    0.000    0.000 
#    0.000    0.000    0.000    0.000    0.000    0.000 
#
# Total GULP energy -357090.207493 kJ/mol
# GULP energy per Si atom -5579.534492 kJ/mol
# Density = 1.928342 g / cm^3
# Si number density = 19.327410 Si / 1000 Ang^3
#
#
#
# Elastic Constant Matrix: (Units=GPa)
#
#
# Indices 1 2 3 4 5 6 
#
# 1 35.1302 11.2045 24.1858 0.0000 0.0000 0.0000
# 2 11.2045 21.3233 -1.7279 0.0000 0.0000 0.0000
# 3 24.1858 -1.7279 76.6610 0.0000 0.0000 0.0000
# 4 0.0000 0.0000 0.0000 31.7082 0.0000 0.0000
# 5 0.0000 0.0000 0.0000 0.0000 36.6954 0.0000
# 6 0.0000 0.0000 0.0000 0.0000 0.0000 23.5153
#
#
#
# Elastic Compliance Matrix: (Units=1/GPa)
#
#
# Indices 1 2 3 4 5 6 
#
# 1 0.047588 -0.026270 -0.015606 0.000000 0.000000 0.000000
# 2 -0.026270 0.061485 0.009674 0.000000 0.000000 0.000000
# 3 -0.015606 0.009674 0.018186 0.000000 0.000000 0.000000
# 4 0.000000 0.000000 0.000000 0.031538 0.000000 0.000000
# 5 0.000000 0.000000 0.000000 0.000000 0.027251 0.000000
# 6 0.000000 0.000000 0.000000 0.000000 0.000000 0.042525
#
#
# Mechanical properties :
#
#
# Convention : Reuss Voigt Hill
#
# Bulk Modulus (GPa) = 15.90968 22.27103 19.09036
# Shear Modulus (GPa) = 15.92716 25.01393 20.47054
#
# Velocity S-wave (km/s) = 2.87378 3.60143 3.25798
# Velocity P-wave (km/s) = 4.38874 5.37045 4.90422
#
# Compressibility (1/GPa) = 0.06285482
#
# Stress axis : x y z
#
# Youngs Moduli (GPa) = 21.01361 16.26417 54.98751
#
# Poissons Ratio (x) = 0.42726 0.85812
# Poissons Ratio (y) = 0.55203 -0.53194
# Poissons Ratio (z) = 0.32793 -0.15734
#
# Static dielectric constant tensor:
#      x y z
#    x 1.662150 0.000000 0.000000 
#    y 0.000000 1.710980 0.000000 
#    z 0.000000 0.000000 1.662430 
# 
# From -- ./inp_files/21464.got.cif
#   From: 2010.05.17/outbox.cif.g08.bks.cpg/sg59_11_cif.got.tgz:21464.got - 2010.06.03 14:40:33.
