data_PCOD9451304
_publ_section_title
;
Structure prediction by ZEFSAII (Michael W. Deem and Ramdas Pophale) SiO2 
 PCOD9451304
Probable space group: P M M N
;
_chemical_formula_sum "Si O2"
_cell_formula_units_Z 48
_cell_length_a 7.874437
_cell_length_b 17.417773
_cell_length_c 16.660733
_cell_angle_alpha 90.000000
_cell_angle_beta 90.000000
_cell_angle_gamma 90.000000
_cell_volume 2285.105437
_symmetry_space_group_name_H-M "P M M N"
_symmetry_group_IT_number 59
_space_group.IT_coordinate_system_code '2'
_symmetry_cell_setting 'orthorhombic'
loop_
_space_group_symop_operation_xyz
x,y,z
1/2-x,1/2-y,z
1/2+x,-y,-z
-x,1/2+y,-z
-x,-y,-z
1/2+x,1/2+y,-z
1/2-x,y,z
x,1/2-y,z
loop_
_atom_site_type_symbol
_atom_site_label
_atom_site_fract_x
_atom_site_fract_y
_atom_site_fract_z
Si Si1 0.550415 0.096005 0.794146
Si Si2 0.556154 0.917770 0.537701
Si Si3 0.047010 0.250000 0.706699
Si Si4 0.955770 0.750000 0.482412
Si Si5 0.457593 0.663494 0.862735
Si Si6 0.052654 0.558408 0.716608
Si Si7 0.545787 0.086230 0.975684
O O1 0.750000 0.076016 0.797761
O O2 0.526849 0.175440 0.749198
O O3 0.483815 0.101572 0.885588
O O4 0.460310 0.029310 0.744459
O O5 0.750000 0.911783 0.511074
O O6 0.479078 0.833367 0.515144
O O7 0.540359 0.926835 0.633378
O O8 0.500000 0.000000 0.500000
O O9 0.250000 0.250000 0.716411
O O10 0.010428 0.250000 0.612372
O O11 0.750000 0.750000 0.496538
O O12 0.250000 0.659586 0.864098
O O13 0.507602 0.750000 0.844906
O O14 0.514452 0.607341 0.792021
O O15 0.517173 0.638616 0.951111
O O16 0.250000 0.578582 0.703539
O O17 0.750000 0.094682 0.973472
O O18 0.500000 0.000000 0.000000
#
# Coordination Sequence:
#
# PCOD9451304 Si02
#       7
#     8   8   4   4   8   8   8
#     4  11  23  38  60  91 125 162 207 255 305 363
#     4  11  23  42  66  93 124 160 203 254 315 380
#     4  11  23  41  65  90 121 158 204 252 306 373
#     4   9  22  43  65  88 119 160 198 246 312 373
#     4   9  19  35  57  84 117 158 202 249 300 354
#     4  11  22  38  62  90 122 161 204 250 305 369
#     4  10  20  36  59  83 115 158 203 249 299 353
#
# _framework density 21.005595
#
# number of rings (size 3 to 8) (size 9 to 14) (size 15 to 20)
#    0.000    1.667    1.667    2.750    2.333    2.000 
#    0.000    3.750    0.000    2.000    0.000    0.000 
#    0.000    0.000    0.000    0.000    0.000    0.000 
#
# Total GULP energy -267999.238056 kJ/mol
# GULP energy per Si atom -5583.317460 kJ/mol
# Density = 2.095779 g / cm^3
# Si number density = 21.005595 Si / 1000 Ang^3
#
#
#
# Elastic Constant Matrix: (Units=GPa)
#
#
# Indices 1 2 3 4 5 6 
#
# 1 27.2081 -3.7890 -2.7934 0.0000 0.0000 0.0000
# 2 -3.7890 165.6355 59.0028 0.0000 0.0000 0.0000
# 3 -2.7934 59.0028 109.8969 0.0000 0.0000 0.0000
# 4 0.0000 0.0000 0.0000 15.5036 0.0000 0.0000
# 5 0.0000 0.0000 0.0000 0.0000 15.8324 0.0000
# 6 0.0000 0.0000 0.0000 0.0000 0.0000 22.0635
#
#
#
# Elastic Compliance Matrix: (Units=1/GPa)
#
#
# Indices 1 2 3 4 5 6 
#
# 1 0.036903 0.000631 0.000599 0.000000 0.000000 0.000000
# 2 0.000631 0.007476 -0.003998 0.000000 0.000000 0.000000
# 3 0.000599 -0.003998 0.011261 0.000000 0.000000 0.000000
# 4 0.000000 0.000000 0.000000 0.064501 0.000000 0.000000
# 5 0.000000 0.000000 0.000000 0.000000 0.063162 0.000000
# 6 0.000000 0.000000 0.000000 0.000000 0.000000 0.045324
#
#
# Mechanical properties :
#
#
# Convention : Reuss Voigt Hill
#
# Bulk Modulus (GPa) = 19.95821 45.28683 32.62252
# Shear Modulus (GPa) = 19.93117 27.36790 23.64953
#
# Velocity S-wave (km/s) = 3.08368 3.61347 3.35904
# Velocity P-wave (km/s) = 4.71177 6.24626 5.53247
#
# Compressibility (1/GPa) = 0.05010469
#
# Stress axis : x y z
#
# Youngs Moduli (GPa) = 27.09800 133.76421 88.80200
#
# Poissons Ratio (x) = -0.08436 -0.05323
# Poissons Ratio (y) = -0.01709 0.35500
# Poissons Ratio (z) = -0.01624 0.53475
#
# Static dielectric constant tensor:
#      x y z
#    x 1.701530 0.000000 0.000000 
#    y 0.000000 1.714560 0.000000 
#    z 0.000000 0.000000 1.727350 
# 
# From -- ./inp_files/20566.got.cif
#   From: 2010.05.17/outbox.cif.g08.bks.cpg/sg59_11_cif.got.tgz:20566.got - 2010.06.03 14:40:33.
