data_PCOD9451675
_publ_section_title
;
Structure prediction by ZEFSAII (Michael W. Deem and Ramdas Pophale) SiO2 
 PCOD9451675
Probable space group: P M M N
;
_chemical_formula_sum "Si O2"
_cell_formula_units_Z 56
_cell_length_a 14.374161
_cell_length_b 9.618441
_cell_length_c 21.844276
_cell_angle_alpha 90.000000
_cell_angle_beta 90.000000
_cell_angle_gamma 90.000000
_cell_volume 3020.124493
_symmetry_space_group_name_H-M "P M M N"
_symmetry_group_IT_number 59
_space_group.IT_coordinate_system_code '2'
_symmetry_cell_setting 'orthorhombic'
loop_
_space_group_symop_operation_xyz
x,y,z
1/2-x,1/2-y,z
1/2+x,-y,-z
-x,1/2+y,-z
-x,-y,-z
1/2+x,1/2+y,-z
1/2-x,y,z
x,1/2-y,z
loop_
_atom_site_type_symbol
_atom_site_label
_atom_site_fract_x
_atom_site_fract_y
_atom_site_fract_z
Si Si1 0.638349 0.089563 0.032200
Si Si2 0.637846 0.910777 0.403436
Si Si3 0.136380 0.590641 0.481156
Si Si4 0.463180 0.584142 0.841718
Si Si5 0.142906 0.084256 0.087365
Si Si6 0.538411 0.917214 0.277640
Si Si7 0.144661 0.918935 0.344762
O O1 0.750000 0.084293 0.038168
O O2 0.611137 0.250000 0.019848
O O3 0.593430 0.048944 0.096660
O O4 0.613565 0.993870 0.974675
O O5 0.750000 0.917917 0.401155
O O6 0.610497 0.750000 0.412281
O O7 0.597643 0.954689 0.337912
O O8 0.605540 0.999236 0.461640
O O9 0.250000 0.592338 0.481701
O O10 0.105107 0.750000 0.487738
O O11 0.113200 0.537274 0.413070
O O12 0.453573 0.750000 0.831206
O O13 0.570402 0.552356 0.859072
O O14 0.432694 0.497730 0.783012
O O15 0.250000 0.046470 0.101237
O O16 0.138775 0.250000 0.076807
O O17 0.544602 0.750000 0.269289
O O18 0.432244 0.955938 0.295193
O O19 0.250000 0.967146 0.332749
O O20 0.147194 0.750000 0.347520
#
# Coordination Sequence:
#
# PCOD9451675 Si02
#       7
#     8   8   8   8   8   8   8
#     4   9  18  33  53  76  99 123 155 195 235 273
#     4   9  18  32  47  66  96 126 152 192 241 282
#     4   8  14  27  49  72  90 115 154 196 239 285
#     4  10  21  35  49  69 100 131 157 192 235 274
#     4   9  18  33  53  76 100 125 153 188 234 283
#     4  10  21  34  48  68  93 127 167 195 225 277
#     4   8  15  30  50  70  93 119 152 199 244 278
#
# _framework density 18.542280999999999
#
# number of rings (size 3 to 8) (size 9 to 14) (size 15 to 20)
#    0.000    3.000    0.000    1.286    0.000    3.429 
#    0.000    0.714    0.000    0.857    0.000    0.000 
#    0.000    0.000    0.000    0.000    0.000    0.000 
#
# Total GULP energy -312271.132207 kJ/mol
# GULP energy per Si atom -5576.270218 kJ/mol
# Density = 1.850008 g / cm^3
# Si number density = 18.542281 Si / 1000 Ang^3
#
#
#
# Elastic Constant Matrix: (Units=GPa)
#
#
# Indices 1 2 3 4 5 6 
#
# 1 22.6371 2.3836 -0.9144 0.0000 0.0000 0.0000
# 2 2.3836 20.0381 25.9654 0.0000 0.0000 0.0000
# 3 -0.9144 25.9654 70.6783 0.0000 0.0000 0.0000
# 4 0.0000 0.0000 0.0000 19.4285 0.0000 0.0000
# 5 0.0000 0.0000 0.0000 0.0000 20.8235 0.0000
# 6 0.0000 0.0000 0.0000 0.0000 0.0000 14.7020
#
#
#
# Elastic Compliance Matrix: (Units=1/GPa)
#
#
# Indices 1 2 3 4 5 6 
#
# 1 0.045619 -0.011817 0.004931 0.000000 0.000000 0.000000
# 2 -0.011817 0.098307 -0.036268 0.000000 0.000000 0.000000
# 3 0.004931 -0.036268 0.027537 0.000000 0.000000 0.000000
# 4 0.000000 0.000000 0.000000 0.051471 0.000000 0.000000
# 5 0.000000 0.000000 0.000000 0.000000 0.048023 0.000000
# 6 0.000000 0.000000 0.000000 0.000000 0.000000 0.068018
#
#
# Mechanical properties :
#
#
# Convention : Reuss Voigt Hill
#
# Bulk Modulus (GPa) = 11.74328 18.69141 15.21734
# Shear Modulus (GPa) = 11.02131 16.71873 13.87002
#
# Velocity S-wave (km/s) = 2.44065 3.00601 2.73796
# Velocity P-wave (km/s) = 3.78013 4.70643 4.26848
#
# Compressibility (1/GPa) = 0.08515510
#
# Stress axis : x y z
#
# Youngs Moduli (GPa) = 21.92078 10.17218 36.31543
#
# Poissons Ratio (x) = 0.12020 -0.17908
# Poissons Ratio (y) = 0.25903 1.31710
# Poissons Ratio (z) = -0.10810 0.36893
#
# Static dielectric constant tensor:
#      x y z
#    x 1.692170 0.000000 0.000000 
#    y 0.000000 1.618520 0.000000 
#    z 0.000000 0.000000 1.604410 
# 
# From -- ./inp_files/29147.got.cif
#   From: 2010.05.17/outbox.cif.g08.bks.cpg/sg59_15_cif.got.tgz:29147.got - 2010.06.03 14:40:33.
