data_PCOD9451942
_publ_section_title
;
Structure prediction by ZEFSAII (Michael W. Deem and Ramdas Pophale) SiO2 
 PCOD9451942
Probable space group: P M M N
;
_chemical_formula_sum "Si O2"
_cell_formula_units_Z 64
_cell_length_a 14.788549
_cell_length_b 8.861094
_cell_length_c 26.909075
_cell_angle_alpha 90.000000
_cell_angle_beta 90.000000
_cell_angle_gamma 90.000000
_cell_volume 3526.238456
_symmetry_space_group_name_H-M "P M M N"
_symmetry_group_IT_number 59
_space_group.IT_coordinate_system_code '2'
_symmetry_cell_setting 'orthorhombic'
loop_
_space_group_symop_operation_xyz
x,y,z
1/2-x,1/2-y,z
1/2+x,-y,-z
-x,1/2+y,-z
-x,-y,-z
1/2+x,1/2+y,-z
1/2-x,y,z
x,1/2-y,z
loop_
_atom_site_type_symbol
_atom_site_label
_atom_site_fract_x
_atom_site_fract_y
_atom_site_fract_z
Si Si1 0.357778 0.070893 0.374039
Si Si2 0.647203 0.566479 0.738575
Si Si3 0.858338 0.573646 0.265230
Si Si4 0.355375 0.431893 0.005484
Si Si5 0.499985 0.430644 0.921509
Si Si6 0.502324 0.929250 0.445437
Si Si7 0.857681 0.428437 0.370864
Si Si8 0.510661 0.068763 0.187519
O O1 0.250000 0.053142 0.380324
O O2 0.378160 0.250000 0.378444
O O3 0.379795 0.021730 0.317458
O O4 0.415004 0.981240 0.414072
O O5 0.750000 0.516030 0.747975
O O6 0.648348 0.750000 0.737944
O O7 0.577272 0.519636 0.780593
O O8 0.750000 0.562800 0.261007
O O9 0.883284 0.750000 0.265798
O O10 0.884286 0.496743 0.317436
O O11 0.905450 0.490492 0.219641
O O12 0.250000 0.477003 0.003193
O O13 0.358379 0.250000 0.011233
O O14 0.411567 0.506287 0.050260
O O15 0.412971 0.469617 0.955944
O O16 0.505173 0.250000 0.918411
O O17 0.491086 0.500962 0.867268
O O18 0.506448 0.750000 0.448865
O O19 0.500000 0.000000 0.500000
O O20 0.587184 0.991897 0.414272
O O21 0.750000 0.450525 0.376856
O O22 0.876495 0.250000 0.370989
O O23 0.511749 0.250000 0.184965
#
# Coordination Sequence:
#
# PCOD9451942 Si02
#       8
#     8   8   8   8   8   8   8   8
#     4   9  18  36  61  84 108 141 182 228 277 329
#     4   8  16  32  54  79 106 140 180 217 258 313
#     4  10  21  37  57  82 113 149 187 227 276 331
#     4   9  19  38  61  79 100 139 188 233 280 335
#     4  10  21  36  54  81 114 144 180 228 282 334
#     4  12  25  39  57  81 111 145 183 229 280 335
#     4  10  21  39  62  85 111 144 184 231 281 336
#     4  11  21  33  54  83 116 152 187 227 271 319
#
# _framework density 18.149652
#
# number of rings (size 3 to 8) (size 9 to 14) (size 15 to 20)
#    0.000    2.125    0.000    4.125    0.000    5.000 
#    0.000    3.125    0.000    2.625    0.000    0.000 
#    0.000    0.000    0.000    0.000    0.000    0.000 
#
# Total GULP energy -357421.044782 kJ/mol
# GULP energy per Si atom -5584.703825 kJ/mol
# Density = 1.810834 g / cm^3
# Si number density = 18.149652 Si / 1000 Ang^3
#
#
#
# Elastic Constant Matrix: (Units=GPa)
#
#
# Indices 1 2 3 4 5 6 
#
# 1 102.4487 56.7929 79.1258 0.0000 0.0000 0.0000
# 2 56.7929 85.7939 80.1199 0.0000 0.0000 0.0000
# 3 79.1258 80.1199 188.5090 0.0000 0.0000 0.0000
# 4 0.0000 0.0000 0.0000 36.5455 0.0000 0.0000
# 5 0.0000 0.0000 0.0000 0.0000 45.8757 0.0000
# 6 0.0000 0.0000 0.0000 0.0000 0.0000 28.5857
#
#
#
# Elastic Compliance Matrix: (Units=1/GPa)
#
#
# Indices 1 2 3 4 5 6 
#
# 1 0.016988 -0.007605 -0.003898 0.000000 0.000000 0.000000
# 2 -0.007605 0.022731 -0.006469 0.000000 0.000000 0.000000
# 3 -0.003898 -0.006469 0.009691 0.000000 0.000000 0.000000
# 4 0.000000 0.000000 0.000000 0.027363 0.000000 0.000000
# 5 0.000000 0.000000 0.000000 0.000000 0.021798 0.000000
# 6 0.000000 0.000000 0.000000 0.000000 0.000000 0.034983
#
#
# Mechanical properties :
#
#
# Convention : Reuss Voigt Hill
#
# Bulk Modulus (GPa) = 74.26657 89.86988 82.06822
# Shear Modulus (GPa) = 28.73796 32.91556 30.82676
#
# Velocity S-wave (km/s) = 3.98350 4.26322 4.12573
# Velocity P-wave (km/s) = 7.88451 8.59400 8.24689
#
# Compressibility (1/GPa) = 0.01346501
#
# Stress axis : x y z
#
# Youngs Moduli (GPa) = 58.86672 43.99218 103.19284
#
# Poissons Ratio (x) = 0.33455 0.40227
# Poissons Ratio (y) = 0.44767 0.66757
# Poissons Ratio (z) = 0.22948 0.28459
#
# Static dielectric constant tensor:
#      x y z
#    x 1.627870 0.000000 0.000000 
#    y 0.000000 1.612540 0.000000 
#    z 0.000000 0.000000 1.585870 
# 
# From -- ./inp_files/32228.got.cif
#   From: 2010.05.17/outbox.cif.g08.bks.cpg/sg59_17_cif.got.tgz:32228.got - 2010.06.03 14:40:33.
