data_PCOD9451297
_publ_section_title
;
Structure prediction by ZEFSAII (Michael W. Deem and Ramdas Pophale) SiO2 
 PCOD9451297
Probable space group: P M M N
;
_chemical_formula_sum "Si O2"
_cell_formula_units_Z 64
_cell_length_a 23.632730
_cell_length_b 8.906768
_cell_length_c 16.029889
_cell_angle_alpha 90.000000
_cell_angle_beta 90.000000
_cell_angle_gamma 90.000000
_cell_volume 3374.151266
_symmetry_space_group_name_H-M "P M M N"
_symmetry_group_IT_number 59
_space_group.IT_coordinate_system_code '2'
_symmetry_cell_setting 'orthorhombic'
loop_
_space_group_symop_operation_xyz
x,y,z
1/2-x,1/2-y,z
1/2+x,-y,-z
-x,1/2+y,-z
-x,-y,-z
1/2+x,1/2+y,-z
1/2-x,y,z
x,1/2-y,z
loop_
_atom_site_type_symbol
_atom_site_label
_atom_site_fract_x
_atom_site_fract_y
_atom_site_fract_z
Si Si1 0.683400 0.077268 0.999438
Si Si2 0.531790 0.923595 0.620874
Si Si3 0.183875 0.566873 0.666701
Si Si4 0.410313 0.926647 0.534166
Si Si5 0.815730 0.574539 0.822135
Si Si6 0.000302 0.070746 0.091718
Si Si7 0.421874 0.924488 0.220420
Si Si8 0.118633 0.567464 0.834287
O O1 0.750000 0.081138 0.018690
O O2 0.665297 0.250000 0.981026
O O3 0.651450 0.023524 0.081531
O O4 0.676056 0.977256 0.917925
O O5 0.542368 0.750000 0.643080
O O6 0.466667 0.935632 0.591611
O O7 0.572878 0.975754 0.545989
O O8 0.543043 0.028017 0.699150
O O9 0.250000 0.519218 0.664069
O O10 0.184306 0.750000 0.668643
O O11 0.144640 0.525783 0.587357
O O12 0.150854 0.515876 0.750825
O O13 0.404013 0.750000 0.510978
O O14 0.750000 0.549534 0.802175
O O15 0.828522 0.750000 0.812968
O O16 0.857430 0.475448 0.767274
O O17 0.998875 0.250000 0.084024
O O18 0.946061 0.023050 0.147946
O O19 0.054510 0.016491 0.142115
O O20 0.000000 0.000000 0.000000
O O21 0.426203 0.750000 0.203345
O O22 0.119514 0.750000 0.830400
#
# Coordination Sequence:
#
# PCOD9451297 Si02
#       8
#     8   8   8   8   8   8   8   8
#     4   9  16  28  49  76 105 139 182 227 267 313
#     4  10  20  36  59  83 108 140 178 224 276 330
#     4   9  16  28  50  80 112 144 179 222 272 327
#     4   9  18  34  56  83 111 139 176 222 274 333
#     4  10  21  37  56  77 103 136 174 219 273 328
#     4  11  22  36  54  79 114 153 192 236 285 334
#     4  12  24  38  57  81 109 141 181 226 273 328
#     4   9  17  29  47  74 108 145 184 225 269 319
#
# _framework density 18.967734
#
# number of rings (size 3 to 8) (size 9 to 14) (size 15 to 20)
#    0.000    2.125    0.000    4.125    0.000    5.750 
#    0.000    1.250    0.000    3.375    0.000    0.000 
#    0.000    0.000    0.000    0.000    0.000    0.000 
#
# Total GULP energy -357177.967597 kJ/mol
# GULP energy per Si atom -5580.905744 kJ/mol
# Density = 1.892456 g / cm^3
# Si number density = 18.967734 Si / 1000 Ang^3
#
#
#
# Elastic Constant Matrix: (Units=GPa)
#
#
# Indices 1 2 3 4 5 6 
#
# 1 95.4357 27.7891 26.2474 0.0000 0.0000 0.0000
# 2 27.7891 36.9874 13.2533 0.0000 0.0000 0.0000
# 3 26.2474 13.2533 35.7907 0.0000 0.0000 0.0000
# 4 0.0000 0.0000 0.0000 24.2907 0.0000 0.0000
# 5 0.0000 0.0000 0.0000 0.0000 28.9347 0.0000
# 6 0.0000 0.0000 0.0000 0.0000 0.0000 19.7067
#
#
#
# Elastic Compliance Matrix: (Units=1/GPa)
#
#
# Indices 1 2 3 4 5 6 
#
# 1 0.015149 -0.008533 -0.007950 0.000000 0.000000 0.000000
# 2 -0.008533 0.035979 -0.007065 0.000000 0.000000 0.000000
# 3 -0.007950 -0.007065 0.036387 0.000000 0.000000 0.000000
# 4 0.000000 0.000000 0.000000 0.041168 0.000000 0.000000
# 5 0.000000 0.000000 0.000000 0.000000 0.034561 0.000000
# 6 0.000000 0.000000 0.000000 0.000000 0.000000 0.050744
#
#
# Mechanical properties :
#
#
# Convention : Reuss Voigt Hill
#
# Bulk Modulus (GPa) = 24.74131 33.64370 29.19250
# Shear Modulus (GPa) = 18.21112 21.31471 19.76291
#
# Velocity S-wave (km/s) = 3.10193 3.35585 3.23138
# Velocity P-wave (km/s) = 5.08935 5.72639 5.41724
#
# Compressibility (1/GPa) = 0.04041823
#
# Stress axis : x y z
#
# Youngs Moduli (GPa) = 66.00883 27.79401 27.48257
#
# Poissons Ratio (x) = 0.23718 0.21849
# Poissons Ratio (y) = 0.56327 0.19417
# Poissons Ratio (z) = 0.52478 0.19637
#
# Static dielectric constant tensor:
#      x y z
#    x 1.695320 0.000000 0.000000 
#    y 0.000000 1.641040 0.000000 
#    z 0.000000 0.000000 1.646280 
# 
# From -- ./inp_files/24769.got.cif
#   From: 2010.05.17/outbox.cif.g08.bks.cpg/sg59_13_cif.got.tgz:24769.got - 2010.06.03 14:40:33.
