data_PCOD9451464
_publ_section_title
;
Structure prediction by ZEFSAII (Michael W. Deem and Ramdas Pophale) SiO2 
 PCOD9451464
Probable space group: P M M N
;
_chemical_formula_sum "Si O2"
_cell_formula_units_Z 64
_cell_length_a 11.092764
_cell_length_b 32.857671
_cell_length_c 9.182392
_cell_angle_alpha 90.000000
_cell_angle_beta 90.000000
_cell_angle_gamma 90.000000
_cell_volume 3346.820182
_symmetry_space_group_name_H-M "P M M N"
_symmetry_group_IT_number 59
_space_group.IT_coordinate_system_code '2'
_symmetry_cell_setting 'orthorhombic'
loop_
_space_group_symop_operation_xyz
x,y,z
1/2-x,1/2-y,z
1/2+x,-y,-z
-x,1/2+y,-z
-x,-y,-z
1/2+x,1/2+y,-z
1/2-x,y,z
x,1/2-y,z
loop_
_atom_site_type_symbol
_atom_site_label
_atom_site_fract_x
_atom_site_fract_y
_atom_site_fract_z
Si Si1 0.052461 0.295532 0.069223
Si Si2 0.114378 0.600310 0.710319
Si Si3 0.612278 0.795338 0.614011
Si Si4 0.886080 0.614775 0.921477
Si Si5 0.108081 0.794432 0.203140
Si Si6 0.888780 0.006875 0.389227
Si Si7 0.109980 0.074660 0.771044
Si Si8 0.985771 0.139804 0.571475
O O1 0.106543 0.250000 0.045034
O O2 0.029667 0.297276 0.242320
O O3 0.120495 0.337456 0.036176
O O4 0.940743 0.298194 0.960445
O O5 0.250000 0.608254 0.771116
O O6 0.106426 0.552481 0.671697
O O7 0.099554 0.624990 0.559183
O O8 0.997812 0.610146 0.810230
O O9 0.750000 0.798675 0.668213
O O10 0.599301 0.750000 0.549652
O O11 0.585445 0.831893 0.506460
O O12 0.750000 0.603400 0.868296
O O13 0.916591 0.588460 0.064631
O O14 0.250000 0.794025 0.200178
O O15 0.064849 0.750000 0.257892
O O16 0.068922 0.830652 0.307289
O O17 0.750000 0.001044 0.448484
O O18 0.904444 0.972876 0.263812
O O19 0.000000 0.000000 0.500000
O O20 0.250000 0.085131 0.747969
O O21 0.035671 0.100618 0.654595
#
# Coordination Sequence:
#
# PCOD9451464 Si02
#       8
#     8   8   8   8   8   8   8   8
#     4  10  20  37  59  85 116 155 202 254 302 353
#     4  11  25  41  62  93 125 160 204 256 308 365
#     4  10  21  36  55  84 120 155 197 250 303 354
#     4  11  23  42  64  90 122 163 208 252 304 364
#     4  10  22  39  57  81 118 162 204 249 301 362
#     4  10  21  41  64  93 129 160 198 250 309 370
#     4  10  22  39  63  92 122 156 201 256 308 364
#     4  12  20  37  61  87 118 158 202 249 303 365
#
# _framework density 19.122627999999999
#
# number of rings (size 3 to 8) (size 9 to 14) (size 15 to 20)
#    0.000    1.500    3.750    1.500    0.000    2.750 
#    0.000    0.625    0.000    0.000    0.000    0.000 
#    0.000    0.000    0.000    0.000    0.000    0.000 
#
# Total GULP energy -356521.924610 kJ/mol
# GULP energy per Si atom -5570.655072 kJ/mol
# Density = 1.907910 g / cm^3
# Si number density = 19.122628 Si / 1000 Ang^3
#
#
#
# Elastic Constant Matrix: (Units=GPa)
#
#
# Indices 1 2 3 4 5 6 
#
# 1 71.4961 18.6091 44.2214 0.0000 0.0000 0.0000
# 2 18.6091 98.4638 14.7104 0.0000 0.0000 0.0000
# 3 44.2214 14.7104 67.1482 0.0000 0.0000 0.0000
# 4 0.0000 0.0000 0.0000 29.1943 0.0000 0.0000
# 5 0.0000 0.0000 0.0000 0.0000 22.9275 0.0000
# 6 0.0000 0.0000 0.0000 0.0000 0.0000 20.7601
#
#
#
# Elastic Compliance Matrix: (Units=1/GPa)
#
#
# Indices 1 2 3 4 5 6 
#
# 1 0.024074 -0.002255 -0.015361 0.000000 0.000000 0.000000
# 2 -0.002255 0.010711 -0.000861 0.000000 0.000000 0.000000
# 3 -0.015361 -0.000861 0.025197 0.000000 0.000000 0.000000
# 4 0.000000 0.000000 0.000000 0.034253 0.000000 0.000000
# 5 0.000000 0.000000 0.000000 0.000000 0.043616 0.000000
# 6 0.000000 0.000000 0.000000 0.000000 0.000000 0.048169
#
#
# Mechanical properties :
#
#
# Convention : Reuss Voigt Hill
#
# Bulk Modulus (GPa) = 43.42462 43.57667 43.50064
# Shear Modulus (GPa) = 21.67778 25.21419 23.44598
#
# Velocity S-wave (km/s) = 3.37058 3.63513 3.50535
# Velocity P-wave (km/s) = 6.15675 6.36053 6.25947
#
# Compressibility (1/GPa) = 0.02302841
#
# Stress axis : x y z
#
# Youngs Moduli (GPa) = 41.53779 93.36288 39.68719
#
# Poissons Ratio (x) = 0.21054 0.60962
# Poissons Ratio (y) = 0.09367 0.03419
# Poissons Ratio (z) = 0.63804 0.08042
#
# Static dielectric constant tensor:
#      x y z
#    x 1.673850 0.000000 0.000000 
#    y 0.000000 1.697600 0.000000 
#    z 0.000000 0.000000 1.660460 
# 
# From -- ./inp_files/8006.got.cif
#   From: 2010.05.17/outbox.cif.g08.bks.cpg/sg59_5_cif.got.tgz:8006.got - 2010.06.03 14:40:33.
