data_PCOD9451735
_publ_section_title
;
Structure prediction by ZEFSAII (Michael W. Deem and Ramdas Pophale) SiO2 
 PCOD9451735
Probable space group: P M M N
;
_chemical_formula_sum "Si O2"
_cell_formula_units_Z 64
_cell_length_a 9.269536
_cell_length_b 22.593199
_cell_length_c 15.639854
_cell_angle_alpha 90.000000
_cell_angle_beta 90.000000
_cell_angle_gamma 90.000000
_cell_volume 3275.430717
_symmetry_space_group_name_H-M "P M M N"
_symmetry_group_IT_number 59
_space_group.IT_coordinate_system_code '2'
_symmetry_cell_setting 'orthorhombic'
loop_
_space_group_symop_operation_xyz
x,y,z
1/2-x,1/2-y,z
1/2+x,-y,-z
-x,1/2+y,-z
-x,-y,-z
1/2+x,1/2+y,-z
1/2-x,y,z
x,1/2-y,z
loop_
_atom_site_type_symbol
_atom_site_label
_atom_site_fract_x
_atom_site_fract_y
_atom_site_fract_z
Si Si1 0.424598 0.108966 0.373079
Si Si2 0.409164 0.680362 0.956190
Si Si3 0.077825 0.000035 0.263074
Si Si4 0.076744 0.181241 0.536994
Si Si5 0.414257 0.348941 0.877909
Si Si6 0.078717 0.639493 0.292433
Si Si7 0.083017 0.321277 0.205100
Si Si8 0.083814 0.490104 0.910610
O O1 0.250000 0.108645 0.378699
O O2 0.474262 0.136426 0.462472
O O3 0.463691 0.152643 0.295505
O O4 0.468562 0.044250 0.339217
O O5 0.250000 0.654907 0.970939
O O6 0.394568 0.750000 0.939327
O O7 0.487345 0.655425 0.872781
O O8 0.507294 0.674986 0.038825
O O9 0.250000 0.007636 0.249323
O O10 0.054225 0.931720 0.288783
O O11 0.997427 0.014134 0.173950
O O12 0.250000 0.174182 0.548805
O O13 0.052771 0.250000 0.512169
O O14 0.995351 0.166436 0.624271
O O15 0.250000 0.328129 0.870362
O O16 0.504342 0.335610 0.792975
O O17 0.412579 0.419672 0.892694
O O18 0.250000 0.650073 0.291707
O O19 0.250000 0.338215 0.190133
O O20 0.078117 0.250000 0.208386
O O21 0.250000 0.510725 0.916689
O O22 0.000000 0.500000 0.000000
#
# Coordination Sequence:
#
# PCOD9451735 Si02
#       8
#     8   8   8   8   8   8   8   8
#     4   9  18  34  58  84 111 144 186 234 279 330
#     4  10  21  35  51  76 111 147 182 225 281 338
#     4   9  19  36  56  81 113 149 189 231 280 335
#     4  10  21  38  61  87 112 144 188 234 282 338
#     4  10  21  37  57  79 105 142 187 232 274 324
#     4  10  21  38  58  81 113 148 183 230 288 341
#     4   9  17  31  52  77 107 144 185 229 275 330
#     4  10  21  35  53  79 111 147 187 231 275 324
#
# _framework density 19.539415000000002
#
# number of rings (size 3 to 8) (size 9 to 14) (size 15 to 20)
#    0.000    2.375    0.000    1.875    1.750    5.500 
#    0.000    1.250    0.000    1.500    0.000    0.000 
#    0.000    0.000    0.000    0.000    0.000    0.000 
#
# Total GULP energy -357161.403027 kJ/mol
# GULP energy per Si atom -5580.646922 kJ/mol
# Density = 1.949494 g / cm^3
# Si number density = 19.539415 Si / 1000 Ang^3
#
#
#
# Elastic Constant Matrix: (Units=GPa)
#
#
# Indices 1 2 3 4 5 6 
#
# 1 74.1716 13.8149 31.4246 0.0000 0.0000 0.0000
# 2 13.8149 27.8907 -5.5312 0.0000 0.0000 0.0000
# 3 31.4246 -5.5312 90.6497 0.0000 0.0000 0.0000
# 4 0.0000 0.0000 0.0000 32.7892 0.0000 0.0000
# 5 0.0000 0.0000 0.0000 0.0000 7.5200 0.0000
# 6 0.0000 0.0000 0.0000 0.0000 0.0000 12.8916
#
#
#
# Elastic Compliance Matrix: (Units=1/GPa)
#
#
# Indices 1 2 3 4 5 6 
#
# 1 0.018418 -0.010516 -0.007026 0.000000 0.000000 0.000000
# 2 -0.010516 0.042298 0.006226 0.000000 0.000000 0.000000
# 3 -0.007026 0.006226 0.013847 0.000000 0.000000 0.000000
# 4 0.000000 0.000000 0.000000 0.030498 0.000000 0.000000
# 5 0.000000 0.000000 0.000000 0.000000 0.132978 0.000000
# 6 0.000000 0.000000 0.000000 0.000000 0.000000 0.077570
#
#
# Mechanical properties :
#
#
# Convention : Reuss Voigt Hill
#
# Bulk Modulus (GPa) = 19.25645 30.23651 24.74648
# Shear Modulus (GPa) = 14.06267 20.84043 17.45155
#
# Velocity S-wave (km/s) = 2.68565 3.26940 2.99180
# Velocity P-wave (km/s) = 4.41515 5.45529 4.96255
#
# Compressibility (1/GPa) = 0.05193064
#
# Stress axis : x y z
#
# Youngs Moduli (GPa) = 54.29507 23.64179 72.21696
#
# Poissons Ratio (x) = 0.24862 0.50743
# Poissons Ratio (y) = 0.57098 -0.44966
# Poissons Ratio (z) = 0.38150 -0.14721
#
# Static dielectric constant tensor:
#      x y z
#    x 1.674910 0.000000 0.000000 
#    y 0.000000 1.727130 0.000000 
#    z 0.000000 0.000000 1.642280 
# 
# From -- ./inp_files/21590.got.cif
#   From: 2010.05.17/outbox.cif.g08.bks.cpg/sg59_11_cif.got.tgz:21590.got - 2010.06.03 14:40:33.
