data_PCOD9451654
_publ_section_title
;
Structure prediction by ZEFSAII (Michael W. Deem and Ramdas Pophale) SiO2 
 PCOD9451654
Probable space group: P M M N
;
_chemical_formula_sum "Si O2"
_cell_formula_units_Z 32
_cell_length_a 15.908899
_cell_length_b 15.544776
_cell_length_c 5.301794
_cell_angle_alpha 90.000000
_cell_angle_beta 90.000000
_cell_angle_gamma 90.000000
_cell_volume 1311.135095
_symmetry_space_group_name_H-M "P M M N"
_symmetry_group_IT_number 59
_space_group.IT_coordinate_system_code '2'
_symmetry_cell_setting 'orthorhombic'
loop_
_space_group_symop_operation_xyz
x,y,z
1/2-x,1/2-y,z
1/2+x,-y,-z
-x,1/2+y,-z
-x,-y,-z
1/2+x,1/2+y,-z
1/2-x,y,z
x,1/2-y,z
loop_
_atom_site_type_symbol
_atom_site_label
_atom_site_fract_x
_atom_site_fract_y
_atom_site_fract_z
Si Si1 0.001973 0.345373 0.293354
Si Si2 0.106819 0.511803 0.932394
Si Si3 0.158736 0.603592 0.440528
Si Si4 0.153425 0.151209 0.671388
O O1 0.999865 0.250000 0.170012
O O2 0.088185 0.358309 0.442160
O O3 0.977168 0.431386 0.135931
O O4 0.926095 0.343535 0.502324
O O5 0.161065 0.546611 0.692872
O O6 0.121081 0.411165 0.889664
O O7 0.141469 0.547082 0.194008
O O8 0.250000 0.646919 0.412499
O O9 0.250000 0.133781 0.600366
O O10 0.149605 0.250000 0.755021
#
# Coordination Sequence:
#
# PCOD9451654 Si02
#       4
#     8   8   8   8
#     4   9  22  40  62  96 130 165 212 260 314 377
#     4  10  22  41  65  93 128 166 208 259 313 373
#     4  10  21  38  64  92 126 165 205 255 313 374
#     4  10  20  40  67  94 127 168 214 264 316 373
#
# _framework density 24.406333
#
# number of rings (size 3 to 8) (size 9 to 14) (size 15 to 20)
#    1.500    0.750    0.000    3.000    0.000    2.500 
#    0.000    1.250    0.000    4.500    0.000    0.000 
#    0.000    0.000    0.000    0.000    0.000    0.000 
#
# Total GULP energy -178482.159795 kJ/mol
# GULP energy per Si atom -5577.567494 kJ/mol
# Density = 2.435078 g / cm^3
# Si number density = 24.406333 Si / 1000 Ang^3
#
#
#
# Elastic Constant Matrix: (Units=GPa)
#
#
# Indices 1 2 3 4 5 6 
#
# 1 213.5903 52.6264 15.9839 0.0000 0.0000 0.0000
# 2 52.6264 157.7508 37.8314 0.0000 0.0000 0.0000
# 3 15.9839 37.8314 86.7515 0.0000 0.0000 0.0000
# 4 0.0000 0.0000 0.0000 111.9431 0.0000 0.0000
# 5 0.0000 0.0000 0.0000 0.0000 841.1069 0.0000
# 6 0.0000 0.0000 0.0000 0.0000 0.0000 33.9229
#
#
#
# Elastic Compliance Matrix: (Units=1/GPa)
#
#
# Indices 1 2 3 4 5 6 
#
# 1 0.005105 -0.001650 -0.000221 0.000000 0.000000 0.000000
# 2 -0.001650 0.007613 -0.003016 0.000000 0.000000 0.000000
# 3 -0.000221 -0.003016 0.012883 0.000000 0.000000 0.000000
# 4 0.000000 0.000000 0.000000 0.008933 0.000000 0.000000
# 5 0.000000 0.000000 0.000000 0.000000 0.001189 0.000000
# 6 0.000000 0.000000 0.000000 0.000000 0.000000 0.029479
#
#
# Mechanical properties :
#
#
# Convention : Reuss Voigt Hill
#
# Bulk Modulus (GPa) = 63.18300 74.55288 68.86794
# Shear Modulus (GPa) = 62.30454 220.83799 141.57126
#
# Velocity S-wave (km/s) = 5.05801 9.52262 7.62443
# Velocity P-wave (km/s) = 7.74954 12.30934 10.28531
#
# Compressibility (1/GPa) = 0.01582704
#
# Stress axis : x y z
#
# Youngs Moduli (GPa) = 195.88827 131.35730 77.62119
#
# Poissons Ratio (x) = 0.21674 0.01716
# Poissons Ratio (y) = 0.32322 0.23409
# Poissons Ratio (z) = 0.04330 0.39615
#
# Static dielectric constant tensor:
#      x y z
#    x 1.987670 0.000000 0.000000 
#    y 0.000000 2.007120 0.000000 
#    z 0.000000 0.000000 1.899280 
# 
# From -- ./inp_files/1814.got.cif
#   From: 2010.05.17/outbox.cif.g08.bks.cpg/sg59_1_cif.got.tgz:1814.got - 2010.06.03 14:40:33.
