data_PCOD9451673
_publ_section_title
;
Structure prediction by ZEFSAII (Michael W. Deem and Ramdas Pophale) SiO2 
 PCOD9451673
Probable space group: P M M N
;
_chemical_formula_sum "Si O2"
_cell_formula_units_Z 48
_cell_length_a 18.080537
_cell_length_b 21.314034
_cell_length_c 5.367321
_cell_angle_alpha 90.000000
_cell_angle_beta 90.000000
_cell_angle_gamma 90.000000
_cell_volume 2068.400094
_symmetry_space_group_name_H-M "P M M N"
_symmetry_group_IT_number 59
_space_group.IT_coordinate_system_code '2'
_symmetry_cell_setting 'orthorhombic'
loop_
_space_group_symop_operation_xyz
x,y,z
1/2-x,1/2-y,z
1/2+x,-y,-z
-x,1/2+y,-z
-x,-y,-z
1/2+x,1/2+y,-z
1/2-x,y,z
x,1/2-y,z
loop_
_atom_site_type_symbol
_atom_site_label
_atom_site_fract_x
_atom_site_fract_y
_atom_site_fract_z
Si Si1 0.835371 0.826616 0.290893
Si Si2 0.334026 0.682311 0.441530
Si Si3 0.035347 0.028531 0.743926
Si Si4 0.921610 0.825329 0.787327
Si Si5 0.835440 0.442499 0.216275
Si Si6 0.555481 0.133515 0.916088
O O1 0.750000 0.846598 0.305022
O O2 0.836313 0.750000 0.294256
O O3 0.871651 0.844378 0.026153
O O4 0.880514 0.846745 0.537062
O O5 0.250000 0.680167 0.334193
O O6 0.337982 0.750000 0.582634
O O7 0.341654 0.617447 0.595640
O O8 0.399417 0.683509 0.240573
O O9 0.004922 0.098602 0.749603
O O10 0.119988 0.006123 0.724745
O O11 0.000000 0.000000 0.500000
O O12 0.000000 0.000000 0.000000
O O13 0.924075 0.750000 0.780766
O O14 0.005797 0.846565 0.847152
O O15 0.750000 0.454544 0.173804
O O16 0.879564 0.414859 0.982707
#
# Coordination Sequence:
#
# PCOD9451673 Si02
#       6
#     8   8   8   8   8   8
#     4   9  18  35  55  77 111 157 205 250 303 367
#     4  10  21  36  58  90 127 168 214 260 314 383
#     4  10  21  40  65  91 117 159 209 260 315 372
#     4  10  21  33  55  88 120 160 203 249 309 375
#     4  10  22  41  63  89 124 170 213 265 325 386
#     4  11  22  37  61  87 128 163 214 261 325 375
#
# _framework density 23.206344000000001
#
# number of rings (size 3 to 8) (size 9 to 14) (size 15 to 20)
#    0.000    2.000    1.667    1.500    2.333    3.333 
#    0.000    3.333    0.000    0.000    0.000    0.000 
#    0.000    0.000    0.000    0.000    0.000    0.000 
#
# Total GULP energy -267637.847405 kJ/mol
# GULP energy per Si atom -5575.788488 kJ/mol
# Density = 2.315352 g / cm^3
# Si number density = 23.206344 Si / 1000 Ang^3
#
#
#
# Elastic Constant Matrix: (Units=GPa)
#
#
# Indices 1 2 3 4 5 6 
#
# 1 222.9983 61.3646 69.8273 0.0000 0.0000 0.0000
# 2 61.3646 60.0601 15.3010 0.0000 0.0000 0.0000
# 3 69.8273 15.3010 116.0443 0.0000 0.0000 0.0000
# 4 0.0000 0.0000 0.0000 19.4982 0.0000 0.0000
# 5 0.0000 0.0000 0.0000 0.0000 38.2201 0.0000
# 6 0.0000 0.0000 0.0000 0.0000 0.0000 17.9848
#
#
#
# Elastic Compliance Matrix: (Units=1/GPa)
#
#
# Indices 1 2 3 4 5 6 
#
# 1 0.007456 -0.006700 -0.003603 0.000000 0.000000 0.000000
# 2 -0.006700 0.023250 0.000966 0.000000 0.000000 0.000000
# 3 -0.003603 0.000966 0.010658 0.000000 0.000000 0.000000
# 4 0.000000 0.000000 0.000000 0.051287 0.000000 0.000000
# 5 0.000000 0.000000 0.000000 0.000000 0.026164 0.000000
# 6 0.000000 0.000000 0.000000 0.000000 0.000000 0.055602
#
#
# Mechanical properties :
#
#
# Convention : Reuss Voigt Hill
#
# Bulk Modulus (GPa) = 44.07323 76.89872 60.48598
# Shear Modulus (GPa) = 24.91827 31.98129 28.44978
#
# Velocity S-wave (km/s) = 3.28040 3.71634 3.50515
# Velocity P-wave (km/s) = 5.77764 7.18497 6.51939
#
# Compressibility (1/GPa) = 0.02268951
#
# Stress axis : x y z
#
# Youngs Moduli (GPa) = 134.11197 43.01118 93.82446
#
# Poissons Ratio (x) = 0.28819 0.33808
# Poissons Ratio (y) = 0.89861 -0.09066
# Poissons Ratio (z) = 0.48324 -0.04156
#
# Static dielectric constant tensor:
#      x y z
#    x 1.853790 0.000000 0.000000 
#    y 0.000000 1.887070 0.000000 
#    z 0.000000 0.000000 1.891220 
# 
# From -- ./inp_files/2869.got.cif
#   From: 2010.05.17/outbox.cif.g08.bks.cpg/sg59_2_cif.got.tgz:2869.got - 2010.06.03 14:40:33.
