data_PCOD9451259
_publ_section_title
;
Structure prediction by ZEFSAII (Michael W. Deem and Ramdas Pophale) SiO2 
 PCOD9451259
Probable space group: P M M N
;
_chemical_formula_sum "Si O2"
_cell_formula_units_Z 56
_cell_length_a 13.439578
_cell_length_b 14.917845
_cell_length_c 14.468880
_cell_angle_alpha 90.000000
_cell_angle_beta 90.000000
_cell_angle_gamma 90.000000
_cell_volume 2900.859117
_symmetry_space_group_name_H-M "P M M N"
_symmetry_group_IT_number 59
_space_group.IT_coordinate_system_code '2'
_symmetry_cell_setting 'orthorhombic'
loop_
_space_group_symop_operation_xyz
x,y,z
1/2-x,1/2-y,z
1/2+x,-y,-z
-x,1/2+y,-z
-x,-y,-z
1/2+x,1/2+y,-z
1/2-x,y,z
x,1/2-y,z
loop_
_atom_site_type_symbol
_atom_site_label
_atom_site_fract_x
_atom_site_fract_y
_atom_site_fract_z
Si Si1 0.027258 0.642413 0.130933
Si Si2 0.634881 0.858310 0.277452
Si Si3 0.638765 0.358366 0.048199
Si Si4 0.967295 0.142086 0.234975
Si Si5 0.860155 0.146028 0.420708
Si Si6 0.364102 0.003142 0.246325
Si Si7 0.029037 0.931809 0.419509
O O1 0.040955 0.750000 0.140641
O O2 0.052781 0.617273 0.025308
O O3 0.106323 0.585162 0.188870
O O4 0.921729 0.620860 0.180189
O O5 0.750000 0.888575 0.280448
O O6 0.635034 0.750000 0.286502
O O7 0.563832 0.896986 0.358564
O O8 0.750000 0.392086 0.024842
O O9 0.643601 0.250000 0.045032
O O10 0.608125 0.380882 0.152365
O O11 0.983618 0.250000 0.235341
O O12 0.922603 0.110598 0.333342
O O13 0.066833 0.086234 0.218016
O O14 0.750000 0.104546 0.425946
O O15 0.849156 0.250000 0.396951
O O16 0.914793 0.141630 0.518752
O O17 0.250000 0.025051 0.235962
O O18 0.393237 0.977558 0.350617
O O19 0.000000 0.000000 0.500000
#
# Coordination Sequence:
#
# PCOD9451259 Si02
#       7
#     8   8   8   8   8   8   8
#     4   9  19  37  60  87 117 144 182 237 293 346
#     4   9  19  36  57  81 111 147 184 223 276 343
#     4   9  17  33  60  89 115 149 191 238 291 341
#     4  10  21  38  56  81 117 155 197 237 275 334
#     4  10  20  36  58  82 110 145 186 237 292 338
#     4  11  23  38  56  82 114 151 192 237 288 341
#     4  11  21  37  54  79 110 141 184 238 280 334
#
# _framework density 19.304625999999999
#
# number of rings (size 3 to 8) (size 9 to 14) (size 15 to 20)
#    0.000    2.143    1.429    1.714    0.000    5.143 
#    0.000    1.429    0.000    2.571    0.000    0.000 
#    0.000    0.000    0.000    0.000    0.000    0.000 
#
# Total GULP energy -312063.965234 kJ/mol
# GULP energy per Si atom -5572.570808 kJ/mol
# Density = 1.926069 g / cm^3
# Si number density = 19.304626 Si / 1000 Ang^3
#
#
#
# Elastic Constant Matrix: (Units=GPa)
#
#
# Indices 1 2 3 4 5 6 
#
# 1 151.2908 22.6244 38.2380 0.0000 0.0000 0.0000
# 2 22.6244 40.0326 9.5227 0.0000 0.0000 0.0000
# 3 38.2380 9.5227 94.9350 0.0000 0.0000 0.0000
# 4 0.0000 0.0000 0.0000 19.6712 0.0000 0.0000
# 5 0.0000 0.0000 0.0000 0.0000 17.1427 0.0000
# 6 0.0000 0.0000 0.0000 0.0000 0.0000 23.5995
#
#
#
# Elastic Compliance Matrix: (Units=1/GPa)
#
#
# Indices 1 2 3 4 5 6 
#
# 1 0.007883 -0.003790 -0.002795 0.000000 0.000000 0.000000
# 2 -0.003790 0.027413 -0.001223 0.000000 0.000000 0.000000
# 3 -0.002795 -0.001223 0.011782 0.000000 0.000000 0.000000
# 4 0.000000 0.000000 0.000000 0.050836 0.000000 0.000000
# 5 0.000000 0.000000 0.000000 0.000000 0.058334 0.000000
# 6 0.000000 0.000000 0.000000 0.000000 0.000000 0.042374
#
#
# Mechanical properties :
#
#
# Convention : Reuss Voigt Hill
#
# Bulk Modulus (GPa) = 31.78524 47.44761 39.61643
# Shear Modulus (GPa) = 22.24948 26.47424 24.36186
#
# Velocity S-wave (km/s) = 3.39860 3.70725 3.55628
# Velocity P-wave (km/s) = 5.64814 6.55413 6.11793
#
# Compressibility (1/GPa) = 0.03146114
#
# Stress axis : x y z
#
# Youngs Moduli (GPa) = 126.85534 36.47952 84.87560
#
# Poissons Ratio (x) = 0.13827 0.23722
# Poissons Ratio (y) = 0.48081 0.10381
# Poissons Ratio (z) = 0.35455 0.04462
#
# Static dielectric constant tensor:
#      x y z
#    x 1.695210 0.000000 0.000000 
#    y 0.000000 1.723880 0.000000 
#    z 0.000000 0.000000 1.682360 
# 
# From -- ./inp_files/22512.got.cif
#   From: 2010.05.17/outbox.cif.g08.bks.cpg/sg59_12_cif.got.tgz:22512.got - 2010.06.03 14:40:33.
