data_PCOD9451927
_publ_section_title
;
Structure prediction by ZEFSAII (Michael W. Deem and Ramdas Pophale) SiO2 
 PCOD9451927
Probable space group: P M M N
;
_chemical_formula_sum "Si O2"
_cell_formula_units_Z 64
_cell_length_a 15.072120
_cell_length_b 9.053464
_cell_length_c 23.999634
_cell_angle_alpha 90.000000
_cell_angle_beta 90.000000
_cell_angle_gamma 90.000000
_cell_volume 3274.867557
_symmetry_space_group_name_H-M "P M M N"
_symmetry_group_IT_number 59
_space_group.IT_coordinate_system_code '2'
_symmetry_cell_setting 'orthorhombic'
loop_
_space_group_symop_operation_xyz
x,y,z
1/2-x,1/2-y,z
1/2+x,-y,-z
-x,1/2+y,-z
-x,-y,-z
1/2+x,1/2+y,-z
1/2-x,y,z
x,1/2-y,z
loop_
_atom_site_type_symbol
_atom_site_label
_atom_site_fract_x
_atom_site_fract_y
_atom_site_fract_z
Si Si1 0.644996 0.072786 0.016415
Si Si2 0.488527 0.573705 0.084998
Si Si3 0.148525 0.579624 0.286957
Si Si4 0.614406 0.420051 0.373345
Si Si5 0.146600 0.920418 0.500513
Si Si6 0.014701 0.425512 0.203387
Si Si7 0.649630 0.922685 0.259679
Si Si8 0.406845 0.417687 0.393489
O O1 0.750000 0.030599 0.016063
O O2 0.641535 0.250000 0.026115
O O3 0.581111 0.991701 0.060870
O O4 0.592227 0.044318 0.958366
O O5 0.496951 0.750000 0.090793
O O6 0.468334 0.499187 0.143795
O O7 0.250000 0.571451 0.267711
O O8 0.119044 0.750000 0.285192
O O9 0.086076 0.482131 0.248179
O O10 0.143639 0.521180 0.350116
O O11 0.645282 0.250000 0.365838
O O12 0.640525 0.469556 0.435382
O O13 0.646398 0.521769 0.323468
O O14 0.508078 0.417607 0.373047
O O15 0.250000 0.921524 0.484447
O O16 0.114343 0.750000 0.498836
O O17 0.096821 0.019513 0.455807
O O18 0.016550 0.250000 0.199635
O O19 0.919710 0.481302 0.225366
O O20 0.750000 0.939908 0.238887
O O21 0.625345 0.750000 0.256938
O O22 0.372917 0.250000 0.392129
#
# Coordination Sequence:
#
# PCOD9451927 Si02
#       8
#     8   8   8   8   8   8   8   8
#     4   9  19  38  64  94 129 169 210 251 300 356
#     4  10  21  38  62  93 129 168 209 255 304 355
#     4  11  24  42  64  88 118 159 203 251 310 370
#     4  10  21  38  59  83 112 151 195 244 306 369
#     4  10  21  36  54  78 110 150 195 242 298 367
#     4  12  25  42  64  91 125 165 209 257 307 359
#     4  11  24  41  63  90 119 156 203 254 309 369
#     4  11  22  36  57  85 114 149 195 247 304 365
#
# _framework density 19.542774000000001
#
# number of rings (size 3 to 8) (size 9 to 14) (size 15 to 20)
#    0.000    1.500    1.250    3.750    0.000    7.000 
#    0.000    1.250    0.000    0.000    0.000    0.000 
#    0.000    0.000    0.000    0.000    0.000    0.000 
#
# Total GULP energy -357645.293644 kJ/mol
# GULP energy per Si atom -5588.207713 kJ/mol
# Density = 1.949829 g / cm^3
# Si number density = 19.542774 Si / 1000 Ang^3
#
#
#
# Elastic Constant Matrix: (Units=GPa)
#
#
# Indices 1 2 3 4 5 6 
#
# 1 73.7092 18.8064 -3.9690 0.0000 0.0000 0.0000
# 2 18.8064 71.2177 27.9438 0.0000 0.0000 0.0000
# 3 -3.9690 27.9438 66.9964 0.0000 0.0000 0.0000
# 4 0.0000 0.0000 0.0000 37.4352 0.0000 0.0000
# 5 0.0000 0.0000 0.0000 0.0000 43.8276 0.0000
# 6 0.0000 0.0000 0.0000 0.0000 0.0000 5341.8665
#
#
#
# Elastic Compliance Matrix: (Units=1/GPa)
#
#
# Indices 1 2 3 4 5 6 
#
# 1 0.015050 -0.005170 0.003048 0.000000 0.000000 0.000000
# 2 -0.005170 0.018565 -0.008050 0.000000 0.000000 0.000000
# 3 0.003048 -0.008050 0.018464 0.000000 0.000000 0.000000
# 4 0.000000 0.000000 0.000000 0.026713 0.000000 0.000000
# 5 0.000000 0.000000 0.000000 0.000000 0.022817 0.000000
# 6 0.000000 0.000000 0.000000 0.000000 0.000000 0.000187
#
#
# Mechanical properties :
#
#
# Convention : Reuss Voigt Hill
#
# Bulk Modulus (GPa) = 31.51019 33.05396 32.28208
# Shear Modulus (GPa) = 37.67366 1095.90200 566.78783
#
# Velocity S-wave (km/s) = 4.39538 23.70629 17.04857
# Velocity P-wave (km/s) = 6.47440 27.68155 20.10206
#
# Compressibility (1/GPa) = 0.03173577
#
# Stress axis : x y z
#
# Youngs Moduli (GPa) = 66.44472 53.86410 54.15874
#
# Poissons Ratio (x) = 0.27849 -0.16508
# Poissons Ratio (y) = 0.34353 0.43596
# Poissons Ratio (z) = -0.20253 0.43359
#
# Static dielectric constant tensor:
#      x y z
#    x 1.699480 0.000000 0.000000 
#    y 0.000000 1.666150 0.000000 
#    z 0.000000 0.000000 1.666080 
# 
# From -- ./inp_files/32193.got.cif
#   From: 2010.05.17/outbox.cif.g08.bks.cpg/sg59_17_cif.got.tgz:32193.got - 2010.06.03 14:40:33.
