data_PCOD9451826
_publ_section_title
;
Structure prediction by ZEFSAII (Michael W. Deem and Ramdas Pophale) SiO2 
 PCOD9451826
Probable space group: P M M N
;
_chemical_formula_sum "Si O2"
_cell_formula_units_Z 56
_cell_length_a 13.216859
_cell_length_b 9.155110
_cell_length_c 20.846637
_cell_angle_alpha 90.000000
_cell_angle_beta 90.000000
_cell_angle_gamma 90.000000
_cell_volume 2522.480559
_symmetry_space_group_name_H-M "P M M N"
_symmetry_group_IT_number 59
_space_group.IT_coordinate_system_code '2'
_symmetry_cell_setting 'orthorhombic'
loop_
_space_group_symop_operation_xyz
x,y,z
1/2-x,1/2-y,z
1/2+x,-y,-z
-x,1/2+y,-z
-x,-y,-z
1/2+x,1/2+y,-z
1/2-x,y,z
x,1/2-y,z
loop_
_atom_site_type_symbol
_atom_site_label
_atom_site_fract_x
_atom_site_fract_y
_atom_site_fract_z
Si Si1 0.093930 0.087824 0.921433
Si Si2 0.861321 0.033661 0.941810
Si Si3 0.634944 0.588377 0.808050
Si Si4 0.629059 0.917576 0.473619
Si Si5 0.870054 0.077440 0.605912
Si Si6 0.554813 0.423843 0.345509
Si Si7 0.064312 0.424498 0.781870
O O1 0.135919 0.250000 0.922420
O O2 0.111323 0.026675 0.850117
O O3 0.134557 0.007142 0.983558
O O4 0.971998 0.100860 0.930160
O O5 0.750000 0.101589 0.930815
O O6 0.863457 0.911399 0.886012
O O7 0.750000 0.559592 0.786771
O O8 0.603042 0.750000 0.785669
O O9 0.554374 0.466652 0.788886
O O10 0.750000 0.907028 0.475235
O O11 0.589953 0.750000 0.479621
O O12 0.603195 0.019935 0.534294
O O13 0.600784 0.994398 0.407146
O O14 0.750000 0.058809 0.615430
O O15 0.893289 0.250000 0.613551
O O16 0.937576 0.976263 0.651420
O O17 0.564546 0.250000 0.349837
O O18 0.601189 0.489307 0.280368
O O19 0.076283 0.250000 0.775098
#
# Coordination Sequence:
#
# PCOD9451826 Si02
#       7
#     8   8   8   8   8   8   8
#     4   9  18  32  50  73 103 137 174 221 272 323
#     4   9  17  30  51  78 104 132 170 217 270 328
#     4   9  17  30  50  76 104 135 174 220 273 334
#     4  10  21  39  63  89 117 148 185 230 276 323
#     4  10  21  38  61  90 122 151 182 224 273 326
#     4  12  24  38  59  83 112 151 192 233 276 328
#     4  10  21  36  51  71 104 144 185 226 271 325
#
# _framework density 22.200368000000001
#
# number of rings (size 3 to 8) (size 9 to 14) (size 15 to 20)
#    0.000    2.143    0.000    3.429    0.000    3.714 
#    0.000    4.286    0.000    0.857    0.000    0.000 
#    0.000    0.000    0.000    0.000    0.000    0.000 
#
# Total GULP energy -312236.633721 kJ/mol
# GULP energy per Si atom -5575.654174 kJ/mol
# Density = 2.214984 g / cm^3
# Si number density = 22.200368 Si / 1000 Ang^3
#
#
#
# Elastic Constant Matrix: (Units=GPa)
#
#
# Indices 1 2 3 4 5 6 
#
# 1 52.2421 -0.6785 -12.2928 0.0000 0.0000 0.0000
# 2 -0.6785 111.5284 30.4135 0.0000 0.0000 0.0000
# 3 -12.2928 30.4135 137.0261 0.0000 0.0000 0.0000
# 4 0.0000 0.0000 0.0000 -28.6543 0.0000 0.0000
# 5 0.0000 0.0000 0.0000 0.0000 17.1864 0.0000
# 6 0.0000 0.0000 0.0000 0.0000 0.0000 1.8371
#
#
#
# Elastic Compliance Matrix: (Units=1/GPa)
#
#
# Indices 1 2 3 4 5 6 
#
# 1 0.019570 -0.000383 0.001841 0.000000 0.000000 0.000000
# 2 -0.000383 0.009551 -0.002154 0.000000 0.000000 0.000000
# 3 0.001841 -0.002154 0.007941 0.000000 0.000000 0.000000
# 4 0.000000 0.000000 0.000000 -0.034899 0.000000 0.000000
# 5 0.000000 0.000000 0.000000 0.000000 0.058186 0.000000
# 6 0.000000 0.000000 0.000000 0.000000 0.000000 0.544337
#
#
# Mechanical properties :
#
#
# Convention : Reuss Voigt Hill
#
# Bulk Modulus (GPa) = 28.03534 37.29787 32.66661
# Shear Modulus (GPa) = 8.09102 16.96412 12.52757
#
# Velocity S-wave (km/s) = 1.91114 2.76730 2.37807
# Velocity P-wave (km/s) = 4.18637 5.20074 4.72088
#
# Compressibility (1/GPa) = 0.03566926
#
# Stress axis : x y z
#
# Youngs Moduli (GPa) = 51.09913 104.69581 125.92606
#
# Poissons Ratio (x) = 0.04009 -0.23178
# Poissons Ratio (y) = 0.01956 0.27129
# Poissons Ratio (z) = -0.09405 0.22555
#
# Static dielectric constant tensor:
#      x y z
#    x 1.870610 0.000000 0.000000 
#    y 0.000000 1.800500 0.000000 
#    z 0.000000 0.000000 1.851010 
# 
# From -- ./inp_files/30373.got.cif
#   From: 2010.05.17/outbox.cif.g08.bks.cpg/sg59_16_cif.got.tgz:30373.got - 2010.06.03 14:40:33.
