data_PCOD9451160
_publ_section_title
;
Structure prediction by ZEFSAII (Michael W. Deem and Ramdas Pophale) SiO2 
 PCOD9451160
Probable space group: P M M N
;
_chemical_formula_sum "Si O2"
_cell_formula_units_Z 48
_cell_length_a 28.707601
_cell_length_b 9.604010
_cell_length_c 10.157551
_cell_angle_alpha 90.000000
_cell_angle_beta 90.000000
_cell_angle_gamma 90.000000
_cell_volume 2800.518956
_symmetry_space_group_name_H-M "P M M N"
_symmetry_group_IT_number 59
_space_group.IT_coordinate_system_code '2'
_symmetry_cell_setting 'orthorhombic'
loop_
_space_group_symop_operation_xyz
x,y,z
1/2-x,1/2-y,z
1/2+x,-y,-z
-x,1/2+y,-z
-x,-y,-z
1/2+x,1/2+y,-z
1/2-x,y,z
x,1/2-y,z
loop_
_atom_site_type_symbol
_atom_site_label
_atom_site_fract_x
_atom_site_fract_y
_atom_site_fract_z
Si Si1 0.132524 0.914719 0.491891
Si Si2 0.805716 0.411891 0.265643
Si Si3 0.982378 0.583591 0.874507
Si Si4 0.695331 0.583803 0.007052
Si Si5 0.377542 0.083195 0.222843
Si Si6 0.970233 0.086967 0.397409
O O1 0.138366 0.750000 0.461761
O O2 0.171534 0.957921 0.597293
O O3 0.083590 0.931843 0.567724
O O4 0.131285 0.001958 0.358172
O O5 0.750000 0.418246 0.276370
O O6 0.819400 0.250000 0.244752
O O7 0.819135 0.502929 0.139212
O O8 0.984744 0.750000 0.898365
O O9 0.929098 0.550326 0.833273
O O10 0.015162 0.548966 0.750126
O O11 0.000000 0.500000 0.000000
O O12 0.750000 0.551472 0.979858
O O13 0.692001 0.750000 0.028788
O O14 0.661675 0.548461 0.885676
O O15 0.376119 0.250000 0.246167
O O16 0.981756 0.250000 0.413270
O O17 0.000000 0.000000 0.500000
#
# Coordination Sequence:
#
# PCOD9451160 Si02
#       6
#     8   8   8   8   8   8
#     4  10  21  35  54  80 106 137 176 216 259 310
#     4   9  19  36  56  79 107 137 172 216 263 312
#     4  10  22  37  53  77 107 139 175 217 260 308
#     4   9  19  36  56  78 105 137 174 216 261 311
#     4  10  21  37  54  77 108 139 175 217 261 310
#     4  10  20  36  55  76 105 140 175 213 257 306
#
# _framework density 17.139679999999998
#
# number of rings (size 3 to 8) (size 9 to 14) (size 15 to 20)
#    0.000    2.333    1.667    0.000    2.333    3.333 
#    0.000    0.000    0.000    0.000    0.000    0.000 
#    0.000    0.000    0.000    0.000    0.000    0.000 
#
# Total GULP energy -267762.047259 kJ/mol
# GULP energy per Si atom -5578.375985 kJ/mol
# Density = 1.710067 g / cm^3
# Si number density = 17.139680 Si / 1000 Ang^3
#
#
#
# Elastic Constant Matrix: (Units=GPa)
#
#
# Indices 1 2 3 4 5 6 
#
# 1 59.1616 43.7259 80.8178 0.0000 0.0000 0.0000
# 2 43.7259 43.8116 83.5242 0.0000 0.0000 0.0000
# 3 80.8178 83.5242 198.0064 0.0000 0.0000 0.0000
# 4 0.0000 0.0000 0.0000 41.4165 0.0000 0.0000
# 5 0.0000 0.0000 0.0000 0.0000 37.5693 0.0000
# 6 0.0000 0.0000 0.0000 0.0000 0.0000 19.6599
#
#
#
# Elastic Compliance Matrix: (Units=1/GPa)
#
#
# Indices 1 2 3 4 5 6 
#
# 1 0.065128 -0.073144 0.004272 0.000000 0.000000 0.000000
# 2 -0.073144 0.198712 -0.053968 0.000000 0.000000 0.000000
# 3 0.004272 -0.053968 0.026072 0.000000 0.000000 0.000000
# 4 0.000000 0.000000 0.000000 0.024145 0.000000 0.000000
# 5 0.000000 0.000000 0.000000 0.000000 0.026617 0.000000
# 6 0.000000 0.000000 0.000000 0.000000 0.000000 0.050865
#
#
# Mechanical properties :
#
#
# Convention : Reuss Voigt Hill
#
# Bulk Modulus (GPa) = 22.60824 79.67949 51.14386
# Shear Modulus (GPa) = 7.66914 25.92325 16.79620
#
# Velocity S-wave (km/s) = 2.11760 3.89327 3.13383
# Velocity P-wave (km/s) = 4.38157 8.17308 6.55734
#
# Compressibility (1/GPa) = 0.04423167
#
# Stress axis : x y z
#
# Youngs Moduli (GPa) = 15.35441 5.03240 38.35562
#
# Poissons Ratio (x) = 0.36809 -0.16384
# Poissons Ratio (y) = 1.12309 2.06996
# Poissons Ratio (z) = -0.06559 0.27159
#
# Static dielectric constant tensor:
#      x y z
#    x 1.612540 0.000000 0.000000 
#    y 0.000000 1.573020 0.000000 
#    z 0.000000 0.000000 1.549650 
# 
# From -- ./inp_files/6204.got.cif
#   From: 2010.05.17/outbox.cif.g08.bks.cpg/sg59_4_cif.got.tgz:6204.got - 2010.06.03 14:40:33.
