data_PCOD9451521
_publ_section_title
;
Structure prediction by ZEFSAII (Michael W. Deem and Ramdas Pophale) SiO2 
 PCOD9451521
Probable space group: P M M N
;
_chemical_formula_sum "Si O2"
_cell_formula_units_Z 40
_cell_length_a 7.860428
_cell_length_b 8.926350
_cell_length_c 29.984886
_cell_angle_alpha 90.000000
_cell_angle_beta 90.000000
_cell_angle_gamma 90.000000
_cell_volume 2103.887472
_symmetry_space_group_name_H-M "P M M N"
_symmetry_group_IT_number 59
_space_group.IT_coordinate_system_code '2'
_symmetry_cell_setting 'orthorhombic'
loop_
_space_group_symop_operation_xyz
x,y,z
1/2-x,1/2-y,z
1/2+x,-y,-z
-x,1/2+y,-z
-x,-y,-z
1/2+x,1/2+y,-z
1/2-x,y,z
x,1/2-y,z
loop_
_atom_site_type_symbol
_atom_site_label
_atom_site_fract_x
_atom_site_fract_y
_atom_site_fract_z
Si Si1 0.750000 0.432418 0.300635
Si Si2 0.250000 0.569215 0.802774
Si Si3 0.061264 0.430348 0.361836
Si Si4 0.453984 0.080309 0.045922
Si Si5 0.048561 0.570574 0.139032
Si Si6 0.546543 0.577111 0.453519
O O1 0.750000 0.250000 0.301061
O O2 0.750000 0.476589 0.249173
O O3 0.584419 0.482687 0.328068
O O4 0.250000 0.750000 0.805829
O O5 0.418823 0.505342 0.826597
O O6 0.250000 0.469609 0.345851
O O7 0.049780 0.250000 0.365047
O O8 0.032838 0.495825 0.410943
O O9 0.250000 0.088579 0.047213
O O10 0.522408 0.250000 0.047437
O O11 0.503271 0.987908 0.089841
O O12 0.500000 0.000000 0.000000
O O13 0.250000 0.533014 0.146332
O O14 0.033127 0.750000 0.140880
O O15 0.500000 0.500000 0.500000
O O16 0.750000 0.571139 0.448304
O O17 0.492333 0.750000 0.454614
#
# Coordination Sequence:
#
# PCOD9451521 Si02
#       6
#     4   4   8   8   8   8
#     4   9  20  39  61  89 121 153 195 247 302 355
#     4  11  23  39  65  95 121 159 205 255 314 371
#     4  10  20  37  62  88 116 153 195 241 295 352
#     4  10  21  36  56  84 118 157 200 245 297 359
#     4  10  22  41  62  86 121 162 205 254 306 363
#     4  11  23  37  55  83 118 157 198 240 290 349
#
# _framework density 19.012425
#
# number of rings (size 3 to 8) (size 9 to 14) (size 15 to 20)
#    0.000    1.800    1.000    2.700    1.400    7.200 
#    0.000    4.000    0.000    0.000    0.000    0.000 
#    0.000    0.000    0.000    0.000    0.000    0.000 
#
# Total GULP energy -223440.535997 kJ/mol
# GULP energy per Si atom -5586.013400 kJ/mol
# Density = 1.896915 g / cm^3
# Si number density = 19.012425 Si / 1000 Ang^3
#
#
#
# Elastic Constant Matrix: (Units=GPa)
#
#
# Indices 1 2 3 4 5 6 
#
# 1 122.0756 53.8401 89.0585 0.0000 0.0000 0.0000
# 2 53.8401 72.1772 51.1826 0.0000 0.0000 0.0000
# 3 89.0585 51.1826 179.8941 0.0000 0.0000 0.0000
# 4 0.0000 0.0000 0.0000 28.8218 0.0000 0.0000
# 5 0.0000 0.0000 0.0000 0.0000 31.1287 0.0000
# 6 0.0000 0.0000 0.0000 0.0000 0.0000 26.4419
#
#
#
# Elastic Compliance Matrix: (Units=1/GPa)
#
#
# Indices 1 2 3 4 5 6 
#
# 1 0.015653 -0.007743 -0.005546 0.000000 0.000000 0.000000
# 2 -0.007743 0.021187 -0.002195 0.000000 0.000000 0.000000
# 3 -0.005546 -0.002195 0.008929 0.000000 0.000000 0.000000
# 4 0.000000 0.000000 0.000000 0.034696 0.000000 0.000000
# 5 0.000000 0.000000 0.000000 0.000000 0.032125 0.000000
# 6 0.000000 0.000000 0.000000 0.000000 0.000000 0.037819
#
#
# Mechanical properties :
#
#
# Convention : Reuss Voigt Hill
#
# Bulk Modulus (GPa) = 67.56358 84.70100 76.13229
# Shear Modulus (GPa) = 26.83706 29.28286 28.05996
#
# Velocity S-wave (km/s) = 3.76114 3.92879 3.84588
# Velocity P-wave (km/s) = 7.38074 8.07636 7.73637
#
# Compressibility (1/GPa) = 0.01480087
#
# Stress axis : x y z
#
# Youngs Moduli (GPa) = 63.88673 47.19847 111.99673
#
# Poissons Ratio (x) = 0.36547 0.62113
# Poissons Ratio (y) = 0.49469 0.24580
# Poissons Ratio (z) = 0.35431 0.10359
#
# Static dielectric constant tensor:
#      x y z
#    x 1.645770 0.000000 0.000000 
#    y 0.000000 1.651790 0.000000 
#    z 0.000000 0.000000 1.616600 
# 
# From -- ./inp_files/32383.got.cif
#   From: 2010.05.17/outbox.cif.g08.bks.cpg/sg59_17_cif.got.tgz:32383.got - 2010.06.03 14:40:33.
