data_PCOD9451905
_publ_section_title
;
Structure prediction by ZEFSAII (Michael W. Deem and Ramdas Pophale) SiO2 
 PCOD9451905
Probable space group: P M M N
;
_chemical_formula_sum "Si O2"
_cell_formula_units_Z 56
_cell_length_a 7.849539
_cell_length_b 14.295683
_cell_length_c 21.534443
_cell_angle_alpha 90.000000
_cell_angle_beta 90.000000
_cell_angle_gamma 90.000000
_cell_volume 2416.477211
_symmetry_space_group_name_H-M "P M M N"
_symmetry_group_IT_number 59
_space_group.IT_coordinate_system_code '2'
_symmetry_cell_setting 'orthorhombic'
loop_
_space_group_symop_operation_xyz
x,y,z
1/2-x,1/2-y,z
1/2+x,-y,-z
-x,1/2+y,-z
-x,-y,-z
1/2+x,1/2+y,-z
1/2-x,y,z
x,1/2-y,z
loop_
_atom_site_type_symbol
_atom_site_label
_atom_site_fract_x
_atom_site_fract_y
_atom_site_fract_z
Si Si1 0.953548 0.938990 0.150022
Si Si2 0.043221 0.150529 0.116601
Si Si3 0.547781 0.144498 0.591013
Si Si4 0.553765 0.549925 0.283099
Si Si5 0.545740 0.605472 0.018169
Si Si6 0.053903 0.863658 0.540727
Si Si7 0.446878 0.143828 0.322252
O O1 0.750000 0.923430 0.151605
O O2 0.023584 0.915049 0.218064
O O3 0.020201 0.885032 0.088748
O O4 0.979579 0.050792 0.140885
O O5 0.250000 0.145689 0.118604
O O6 0.993036 0.250000 0.147039
O O7 0.987809 0.155967 0.044189
O O8 0.750000 0.150537 0.579851
O O9 0.480454 0.250000 0.600044
O O10 0.523855 0.088215 0.653709
O O11 0.480619 0.103170 0.525641
O O12 0.750000 0.577857 0.284670
O O13 0.540631 0.437478 0.285659
O O14 0.750000 0.618887 0.021088
O O15 0.500000 0.500000 0.000000
O O16 0.250000 0.894030 0.550407
O O17 0.055161 0.750000 0.534374
O O18 0.956606 0.881901 0.604462
O O19 0.250000 0.143112 0.302710
O O20 0.513279 0.250000 0.315860
#
# Coordination Sequence:
#
# PCOD9451905 Si02
#       7
#     8   8   8   8   8   8   8
#     4   9  19  34  49  68  97 134 171 203 242 293
#     4   9  17  29  49  77 101 123 157 201 250 301
#     4   9  19  37  59  80 103 133 171 218 270 319
#     4  11  23  36  52  76 106 143 183 217 255 308
#     4   8  14  28  48  67  90 119 152 192 235 280
#     4   8  15  31  55  79 102 130 166 213 269 320
#     4  10  21  36  54  77 105 138 177 220 265 314
#
# _framework density 23.174230999999999
#
# number of rings (size 3 to 8) (size 9 to 14) (size 15 to 20)
#    0.000    2.857    0.000    1.714    0.000    4.286 
#    0.000    5.000    0.000    2.571    0.000    0.000 
#    0.000    0.000    0.000    0.000    0.000    0.000 
#
# Total GULP energy -312177.545892 kJ/mol
# GULP energy per Si atom -5574.599034 kJ/mol
# Density = 2.312149 g / cm^3
# Si number density = 23.174231 Si / 1000 Ang^3
#
#
#
# Elastic Constant Matrix: (Units=GPa)
#
#
# Indices 1 2 3 4 5 6 
#
# 1 28.9708 -7.2555 -1.9270 0.0000 0.0000 0.0000
# 2 -7.2555 38.0808 2.5091 0.0000 0.0000 0.0000
# 3 -1.9270 2.5091 115.8609 0.0000 0.0000 0.0000
# 4 0.0000 0.0000 0.0000 9.0993 0.0000 0.0000
# 5 0.0000 0.0000 0.0000 0.0000 13.4983 0.0000
# 6 0.0000 0.0000 0.0000 0.0000 0.0000 8.9892
#
#
#
# Elastic Compliance Matrix: (Units=1/GPa)
#
#
# Indices 1 2 3 4 5 6 
#
# 1 0.036271 0.006881 0.000454 0.000000 0.000000 0.000000
# 2 0.006881 0.027603 -0.000483 0.000000 0.000000 0.000000
# 3 0.000454 -0.000483 0.008649 0.000000 0.000000 0.000000
# 4 0.000000 0.000000 0.000000 0.109898 0.000000 0.000000
# 5 0.000000 0.000000 0.000000 0.000000 0.074083 0.000000
# 6 0.000000 0.000000 0.000000 0.000000 0.000000 0.111245
#
#
# Mechanical properties :
#
#
# Convention : Reuss Voigt Hill
#
# Bulk Modulus (GPa) = 11.59739 18.84061 15.21900
# Shear Modulus (GPa) = 13.06206 18.95643 16.00925
#
# Velocity S-wave (km/s) = 2.37670 2.86317 2.63120
# Velocity P-wave (km/s) = 3.54216 4.36783 3.97648
#
# Compressibility (1/GPa) = 0.08622626
#
# Stress axis : x y z
#
# Youngs Moduli (GPa) = 27.57024 36.22825 115.61946
#
# Poissons Ratio (x) = -0.24928 -0.05252
# Poissons Ratio (y) = -0.18970 0.05588
# Poissons Ratio (z) = -0.01252 0.01751
#
# Static dielectric constant tensor:
#      x y z
#    x 1.825290 0.000000 0.000000 
#    y 0.000000 1.906560 0.000000 
#    z 0.000000 0.000000 1.950320 
# 
# From -- ./inp_files/28973.got.cif
#   From: 2010.05.17/outbox.cif.g08.bks.cpg/sg59_15_cif.got.tgz:28973.got - 2010.06.03 14:40:33.
