data_PCOD9451248
_publ_section_title
;
Structure prediction by ZEFSAII (Michael W. Deem and Ramdas Pophale) SiO2 
 PCOD9451248
Probable space group: P M M N
;
_chemical_formula_sum "Si O2"
_cell_formula_units_Z 48
_cell_length_a 8.804850
_cell_length_b 9.980637
_cell_length_c 29.138981
_cell_angle_alpha 90.000000
_cell_angle_beta 90.000000
_cell_angle_gamma 90.000000
_cell_volume 2560.675713
_symmetry_space_group_name_H-M "P M M N"
_symmetry_group_IT_number 59
_space_group.IT_coordinate_system_code '2'
_symmetry_cell_setting 'orthorhombic'
loop_
_space_group_symop_operation_xyz
x,y,z
1/2-x,1/2-y,z
1/2+x,-y,-z
-x,1/2+y,-z
-x,-y,-z
1/2+x,1/2+y,-z
1/2-x,y,z
x,1/2-y,z
loop_
_atom_site_type_symbol
_atom_site_label
_atom_site_fract_x
_atom_site_fract_y
_atom_site_fract_z
Si Si1 0.568485 0.405305 0.117911
Si Si2 0.067374 0.250000 0.432340
Si Si3 0.932610 0.091870 0.959350
Si Si4 0.429529 0.404183 0.706719
Si Si5 0.428160 0.405795 0.217582
Si Si6 0.432014 0.750000 0.466474
Si Si7 0.066758 0.968750 0.391686
O O1 0.750000 0.415291 0.112755
O O2 0.525196 0.250000 0.105769
O O3 0.488855 0.515997 0.086376
O O4 0.520424 0.426644 0.170611
O O5 0.250000 0.250000 0.435383
O O6 0.021369 0.118507 0.404731
O O7 0.005025 0.250000 0.483786
O O8 0.750000 0.088886 0.961879
O O9 0.978536 0.250000 0.961604
O O10 0.000000 0.000000 0.000000
O O11 0.250000 0.431284 0.707699
O O12 0.454736 0.250000 0.720331
O O13 0.514024 0.501044 0.741811
O O14 0.490803 0.422887 0.655226
O O15 0.250000 0.429135 0.208517
O O16 0.446678 0.250000 0.230841
O O17 0.250000 0.750000 0.471977
O O18 0.474618 0.623426 0.435045
O O19 0.250000 0.960528 0.386198
#
# Coordination Sequence:
#
# PCOD9451248 Si02
#       7
#     8   4   8   8   8   4   8
#     4  10  21  39  63  91 123 158 199 248 300 355
#     4  10  22  36  56  84 112 144 184 232 283 340
#     4  11  24  40  60  89 124 164 210 256 304 358
#     4  11  24  40  59  85 116 152 193 240 293 347
#     4  10  22  40  64  91 119 155 196 241 295 354
#     4  10  20  36  58  80 110 150 188 228 281 338
#     4  10  21  38  57  81 113 148 187 233 284 342
#
# _framework density 18.745052999999999
#
# number of rings (size 3 to 8) (size 9 to 14) (size 15 to 20)
#    0.000    1.667    0.833    3.000    1.167    8.333 
#    0.000    0.000    0.000    0.000    0.000    0.000 
#    0.000    0.000    0.000    0.000    0.000    0.000 
#
# Total GULP energy -268172.497278 kJ/mol
# GULP energy per Si atom -5586.927027 kJ/mol
# Density = 1.870239 g / cm^3
# Si number density = 18.745053 Si / 1000 Ang^3
#
#
#
# Elastic Constant Matrix: (Units=GPa)
#
#
# Indices 1 2 3 4 5 6 
#
# 1 47.3238 43.5845 25.5413 0.0000 0.0000 0.0000
# 2 43.5845 101.2934 33.6950 0.0000 0.0000 0.0000
# 3 25.5413 33.6950 66.7521 0.0000 0.0000 0.0000
# 4 0.0000 0.0000 0.0000 34.8033 0.0000 0.0000
# 5 0.0000 0.0000 0.0000 0.0000 40.2649 0.0000
# 6 0.0000 0.0000 0.0000 0.0000 0.0000 10.8207
#
#
#
# Elastic Compliance Matrix: (Units=1/GPa)
#
#
# Indices 1 2 3 4 5 6 
#
# 1 0.037915 -0.013807 -0.007538 0.000000 0.000000 0.000000
# 2 -0.013807 0.016892 -0.003244 0.000000 0.000000 0.000000
# 3 -0.007538 -0.003244 0.019503 0.000000 0.000000 0.000000
# 4 0.000000 0.000000 0.000000 0.028733 0.000000 0.000000
# 5 0.000000 0.000000 0.000000 0.000000 0.024836 0.000000
# 6 0.000000 0.000000 0.000000 0.000000 0.000000 0.092415
#
#
# Mechanical properties :
#
#
# Convention : Reuss Voigt Hill
#
# Bulk Modulus (GPa) = 39.78924 46.77898 43.28411
# Shear Modulus (GPa) = 17.99541 24.68102 21.33821
#
# Velocity S-wave (km/s) = 3.10176 3.63253 3.37759
# Velocity P-wave (km/s) = 5.83956 6.52712 6.19289
#
# Compressibility (1/GPa) = 0.02513242
#
# Stress axis : x y z
#
# Youngs Moduli (GPa) = 26.37464 59.19923 51.27513
#
# Poissons Ratio (x) = 0.81734 0.38652
# Poissons Ratio (y) = 0.36414 0.16633
# Poissons Ratio (z) = 0.19882 0.19204
#
# Static dielectric constant tensor:
#      x y z
#    x 1.633510 0.000000 0.000000 
#    y 0.000000 1.680710 0.000000 
#    z 0.000000 0.000000 1.604980 
# 
# From -- ./inp_files/33060.got.cif
#   From: 2010.05.17/outbox.cif.g08.bks.cpg/sg59_17_cif.got.tgz:33060.got - 2010.06.03 14:40:33.
