data_PCOD9451832
_publ_section_title
;
Structure prediction by ZEFSAII (Michael W. Deem and Ramdas Pophale) SiO2 
 PCOD9451832
Probable space group: P M M N
;
_chemical_formula_sum "Si O2"
_cell_formula_units_Z 56
_cell_length_a 8.860215
_cell_length_b 14.470793
_cell_length_c 21.894375
_cell_angle_alpha 90.000000
_cell_angle_beta 90.000000
_cell_angle_gamma 90.000000
_cell_volume 2807.172779
_symmetry_space_group_name_H-M "P M M N"
_symmetry_group_IT_number 59
_space_group.IT_coordinate_system_code '2'
_symmetry_cell_setting 'orthorhombic'
loop_
_space_group_symop_operation_xyz
x,y,z
1/2-x,1/2-y,z
1/2+x,-y,-z
-x,1/2+y,-z
-x,-y,-z
1/2+x,1/2+y,-z
1/2-x,y,z
x,1/2-y,z
loop_
_atom_site_type_symbol
_atom_site_label
_atom_site_fract_x
_atom_site_fract_y
_atom_site_fract_z
Si Si1 0.932314 0.035619 0.224079
Si Si2 0.570381 0.858163 0.404471
Si Si3 0.925302 0.139375 0.464639
Si Si4 0.076261 0.362984 0.976444
Si Si5 0.430583 0.641873 0.898326
Si Si6 0.434013 0.145267 0.841561
Si Si7 0.570908 0.966697 0.648855
O O1 0.750000 0.042252 0.230465
O O2 0.978630 0.091478 0.163510
O O3 0.009748 0.067331 0.286020
O O4 0.973524 0.929516 0.208890
O O5 0.750000 0.871256 0.398985
O O6 0.536520 0.750000 0.393294
O O7 0.516397 0.880668 0.473356
O O8 0.484626 0.928057 0.360466
O O9 0.750000 0.112038 0.472379
O O10 0.930659 0.250000 0.455755
O O11 0.996383 0.089647 0.406583
O O12 0.250000 0.392851 0.979832
O O13 0.074170 0.250000 0.976596
O O14 0.014574 0.386632 0.909226
O O15 0.992996 0.394846 0.037339
O O16 0.250000 0.634916 0.901008
O O17 0.472028 0.750000 0.894006
O O18 0.250000 0.146930 0.845054
O O19 0.484299 0.250000 0.829702
O O20 0.750000 0.960432 0.645525
#
# Coordination Sequence:
#
# PCOD9451832 Si02
#       7
#     8   8   8   8   8   8   8
#     4  10  21  36  52  72 100 139 186 224 262 320
#     4  10  21  39  64  91 117 147 185 227 272 324
#     4  10  21  39  64  91 117 146 183 228 276 325
#     4   8  14  27  49  74  97 125 165 213 266 322
#     4   9  18  32  49  71 101 134 168 213 268 322
#     4   8  15  30  52  75  98 127 168 220 272 321
#     4  12  25  39  56  81 117 154 188 230 277 328
#
# _framework density 19.948896000000001
#
# number of rings (size 3 to 8) (size 9 to 14) (size 15 to 20)
#    0.000    2.429    0.000    3.429    0.000    4.000 
#    0.000    3.571    0.000    0.857    0.000    0.000 
#    0.000    0.000    0.000    0.000    0.000    0.000 
#
# Total GULP energy -312707.733789 kJ/mol
# GULP energy per Si atom -5584.066675 kJ/mol
# Density = 1.990349 g / cm^3
# Si number density = 19.948896 Si / 1000 Ang^3
#
#
#
# Elastic Constant Matrix: (Units=GPa)
#
#
# Indices 1 2 3 4 5 6 
#
# 1 36.8143 9.1941 7.9517 0.0000 0.0000 0.0000
# 2 9.1941 27.9418 7.4698 0.0000 0.0000 0.0000
# 3 7.9517 7.4698 63.5662 0.0000 0.0000 0.0000
# 4 0.0000 0.0000 0.0000 19.9905 0.0000 0.0000
# 5 0.0000 0.0000 0.0000 0.0000 26.8830 0.0000
# 6 0.0000 0.0000 0.0000 0.0000 0.0000 18.7342
#
#
#
# Elastic Compliance Matrix: (Units=1/GPa)
#
#
# Indices 1 2 3 4 5 6 
#
# 1 0.030031 -0.009165 -0.002680 0.000000 0.000000 0.000000
# 2 -0.009165 0.039747 -0.003524 0.000000 0.000000 0.000000
# 3 -0.002680 -0.003524 0.016481 0.000000 0.000000 0.000000
# 4 0.000000 0.000000 0.000000 0.050024 0.000000 0.000000
# 5 0.000000 0.000000 0.000000 0.000000 0.037198 0.000000
# 6 0.000000 0.000000 0.000000 0.000000 0.000000 0.053378
#
#
# Mechanical properties :
#
#
# Convention : Reuss Voigt Hill
#
# Bulk Modulus (GPa) = 18.01136 19.72818 18.86977
# Shear Modulus (GPa) = 18.10911 20.03532 19.07221
#
# Velocity S-wave (km/s) = 3.01620 3.17256 3.09537
# Velocity P-wave (km/s) = 4.60199 4.83022 4.71748
#
# Compressibility (1/GPa) = 0.05552051
#
# Stress axis : x y z
#
# Youngs Moduli (GPa) = 33.29876 25.15934 60.67604
#
# Poissons Ratio (x) = 0.23059 0.16259
# Poissons Ratio (y) = 0.30519 0.21384
# Poissons Ratio (z) = 0.08923 0.08867
#
# Static dielectric constant tensor:
#      x y z
#    x 1.668300 0.000000 0.000000 
#    y 0.000000 1.745450 0.000000 
#    z 0.000000 0.000000 1.684680 
# 
# From -- ./inp_files/29069.got.cif
#   From: 2010.05.17/outbox.cif.g08.bks.cpg/sg59_15_cif.got.tgz:29069.got - 2010.06.03 14:40:33.
