data_PCOD9451974
_publ_section_title
;
Structure prediction by ZEFSAII (Michael W. Deem and Ramdas Pophale) SiO2 
 PCOD9451974
Probable space group: P M M N
;
_chemical_formula_sum "Si O2"
_cell_formula_units_Z 48
_cell_length_a 8.760100
_cell_length_b 31.447652
_cell_length_c 9.873522
_cell_angle_alpha 90.000000
_cell_angle_beta 90.000000
_cell_angle_gamma 90.000000
_cell_volume 2720.003025
_symmetry_space_group_name_H-M "P M M N"
_symmetry_group_IT_number 59
_space_group.IT_coordinate_system_code '2'
_symmetry_cell_setting 'orthorhombic'
loop_
_space_group_symop_operation_xyz
x,y,z
1/2-x,1/2-y,z
1/2+x,-y,-z
-x,1/2+y,-z
-x,-y,-z
1/2+x,1/2+y,-z
1/2-x,y,z
x,1/2-y,z
loop_
_atom_site_type_symbol
_atom_site_label
_atom_site_fract_x
_atom_site_fract_y
_atom_site_fract_z
Si Si1 0.933327 0.607803 0.195516
Si Si2 0.067585 0.142468 0.091679
Si Si3 0.433742 0.514724 0.144445
Si Si4 0.067408 0.871243 0.480500
Si Si5 0.567535 0.567856 0.695036
Si Si6 0.933860 0.201697 0.310222
O O1 0.750000 0.604955 0.195064
O O2 0.001663 0.560628 0.181542
O O3 0.991717 0.627975 0.334163
O O4 0.980884 0.634161 0.062041
O O5 0.250000 0.148436 0.094211
O O6 0.034665 0.100027 0.179995
O O7 0.990497 0.181180 0.170271
O O8 0.250000 0.515860 0.135816
O O9 0.475679 0.479098 0.256086
O O10 0.500000 0.500000 0.000000
O O11 0.250000 0.870692 0.467892
O O12 0.017377 0.830659 0.570746
O O13 0.016873 0.912756 0.565789
O O14 0.750000 0.569046 0.670999
O O15 0.750000 0.201717 0.310051
O O16 0.987370 0.250000 0.328614
#
# Coordination Sequence:
#
# PCOD9451974 Si02
#       6
#     8   8   8   8   8   8
#     4  11  22  37  54  78 112 148 182 226 274 319
#     4   9  18  34  55  79 107 138 177 220 265 317
#     4  11  21  34  54  80 110 146 189 232 272 317
#     4  10  21  36  55  81 109 144 183 222 273 329
#     4   9  18  35  54  75 105 144 184 225 267 311
#     4   9  19  37  60  84 108 135 173 221 272 329
#
# _framework density 17.647037999999998
#
# number of rings (size 3 to 8) (size 9 to 14) (size 15 to 20)
#    0.000    2.167    1.667    1.500    0.000    4.333 
#    0.000    0.833    0.000    3.000    0.000    0.000 
#    0.000    0.000    0.000    0.000    0.000    0.000 
#
# Total GULP energy -267909.871117 kJ/mol
# GULP energy per Si atom -5581.455648 kJ/mol
# Density = 1.760687 g / cm^3
# Si number density = 17.647038 Si / 1000 Ang^3
#
#
#
# Elastic Constant Matrix: (Units=GPa)
#
#
# Indices 1 2 3 4 5 6 
#
# 1 31.7771 25.4901 33.1411 0.0000 0.0000 0.0000
# 2 25.4901 111.4336 55.7934 0.0000 0.0000 0.0000
# 3 33.1411 55.7934 133.6452 0.0000 0.0000 0.0000
# 4 0.0000 0.0000 0.0000 15.6838 0.0000 0.0000
# 5 0.0000 0.0000 0.0000 0.0000 31.5802 0.0000
# 6 0.0000 0.0000 0.0000 0.0000 0.0000 24.8447
#
#
#
# Elastic Compliance Matrix: (Units=1/GPa)
#
#
# Indices 1 2 3 4 5 6 
#
# 1 0.045418 -0.006005 -0.008756 0.000000 0.000000 0.000000
# 2 -0.006005 0.012139 -0.003579 0.000000 0.000000 0.000000
# 3 -0.008756 -0.003579 0.011148 0.000000 0.000000 0.000000
# 4 0.000000 0.000000 0.000000 0.063760 0.000000 0.000000
# 5 0.000000 0.000000 0.000000 0.000000 0.031665 0.000000
# 6 0.000000 0.000000 0.000000 0.000000 0.000000 0.040250
#
#
# Mechanical properties :
#
#
# Convention : Reuss Voigt Hill
#
# Bulk Modulus (GPa) = 31.22495 56.18946 43.70721
# Shear Modulus (GPa) = 19.86216 25.25049 22.55633
#
# Velocity S-wave (km/s) = 3.35852 3.78678 3.57906
# Velocity P-wave (km/s) = 5.72470 7.14349 6.47308
#
# Compressibility (1/GPa) = 0.03202567
#
# Stress axis : x y z
#
# Youngs Moduli (GPa) = 22.01783 82.37577 89.70467
#
# Poissons Ratio (x) = 0.49470 0.78541
# Poissons Ratio (y) = 0.13223 0.32103
# Poissons Ratio (z) = 0.19278 0.29480
#
# Static dielectric constant tensor:
#      x y z
#    x 1.593270 0.000000 0.000000 
#    y 0.000000 1.590890 0.000000 
#    z 0.000000 0.000000 1.590780 
# 
# From -- ./inp_files/6179.got.cif
#   From: 2010.05.17/outbox.cif.g08.bks.cpg/sg59_4_cif.got.tgz:6179.got - 2010.06.03 14:40:33.
