data_PCOD9451125
_publ_section_title
;
Structure prediction by ZEFSAII (Michael W. Deem and Ramdas Pophale) SiO2 
 PCOD9451125
Probable space group: P M M N
;
_chemical_formula_sum "Si O2"
_cell_formula_units_Z 56
_cell_length_a 19.077971
_cell_length_b 13.245869
_cell_length_c 11.325025
_cell_angle_alpha 90.000000
_cell_angle_beta 90.000000
_cell_angle_gamma 90.000000
_cell_volume 2861.882568
_symmetry_space_group_name_H-M "P M M N"
_symmetry_group_IT_number 59
_space_group.IT_coordinate_system_code '2'
_symmetry_cell_setting 'orthorhombic'
loop_
_space_group_symop_operation_xyz
x,y,z
1/2-x,1/2-y,z
1/2+x,-y,-z
-x,1/2+y,-z
-x,-y,-z
1/2+x,1/2+y,-z
1/2-x,y,z
x,1/2-y,z
loop_
_atom_site_type_symbol
_atom_site_label
_atom_site_fract_x
_atom_site_fract_y
_atom_site_fract_z
Si Si1 0.673456 0.369230 0.464399
Si Si2 0.528326 0.368839 0.341852
Si Si3 0.329948 0.551384 0.272897
Si Si4 0.436767 0.014615 0.856036
Si Si5 0.331945 0.131618 0.686447
Si Si6 0.070873 0.869850 0.066195
Si Si7 0.623165 0.632160 0.578454
O O1 0.750000 0.410783 0.425570
O O2 0.676629 0.250000 0.444023
O O3 0.601511 0.399516 0.401579
O O4 0.666412 0.388309 0.603577
O O5 0.531399 0.250000 0.309515
O O6 0.519513 0.439934 0.229347
O O7 0.460987 0.380926 0.425466
O O8 0.250000 0.555372 0.229291
O O9 0.382499 0.598267 0.178548
O O10 0.348556 0.438580 0.317410
O O11 0.378439 0.068698 0.777138
O O12 0.490587 0.096528 0.908530
O O13 0.406715 0.941188 0.957047
O O14 0.250000 0.122293 0.713160
O O15 0.351852 0.250000 0.695420
O O16 0.344670 0.104712 0.548444
O O17 0.076334 0.750000 0.043966
O O18 0.638331 0.750000 0.600824
#
# Coordination Sequence:
#
# PCOD9451125 Si02
#       7
#     8   8   8   8   8   8   8
#     4   9  19  34  54  85 124 161 196 243 303 366
#     4  10  20  35  59  90 124 159 203 249 299 363
#     4  11  22  38  60  87 120 161 203 248 304 365
#     4  11  23  41  64  88 116 163 205 254 304 361
#     4  10  22  40  63  93 127 161 200 248 303 364
#     4  11  25  43  63  88 118 157 207 261 307 354
#     4  10  21  37  60  93 129 163 198 245 299 361
#
# _framework density 19.567539
#
# number of rings (size 3 to 8) (size 9 to 14) (size 15 to 20)
#    0.000    1.714    1.429    2.571    2.000    5.143 
#    0.000    0.714    0.000    2.571    0.000    0.000 
#    0.000    0.000    0.000    0.000    0.000    0.000 
#
# Total GULP energy -312663.005347 kJ/mol
# GULP energy per Si atom -5583.267953 kJ/mol
# Density = 1.952300 g / cm^3
# Si number density = 19.567539 Si / 1000 Ang^3
#
#
#
# Elastic Constant Matrix: (Units=GPa)
#
#
# Indices 1 2 3 4 5 6 
#
# 1 41.9258 24.0972 7.2363 0.0000 0.0000 0.0000
# 2 24.0972 111.1331 27.7846 0.0000 0.0000 0.0000
# 3 7.2363 27.7846 55.1024 0.0000 0.0000 0.0000
# 4 0.0000 0.0000 0.0000 31.1499 0.0000 0.0000
# 5 0.0000 0.0000 0.0000 0.0000 14.7340 0.0000
# 6 0.0000 0.0000 0.0000 0.0000 0.0000 19.6861
#
#
#
# Elastic Compliance Matrix: (Units=1/GPa)
#
#
# Indices 1 2 3 4 5 6 
#
# 1 0.027270 -0.005741 -0.000686 0.000000 0.000000 0.000000
# 2 -0.005741 0.011505 -0.005047 0.000000 0.000000 0.000000
# 3 -0.000686 -0.005047 0.020783 0.000000 0.000000 0.000000
# 4 0.000000 0.000000 0.000000 0.032103 0.000000 0.000000
# 5 0.000000 0.000000 0.000000 0.000000 0.067870 0.000000
# 6 0.000000 0.000000 0.000000 0.000000 0.000000 0.050797
#
#
# Mechanical properties :
#
#
# Convention : Reuss Voigt Hill
#
# Bulk Modulus (GPa) = 27.31610 36.26639 31.79124
# Shear Modulus (GPa) = 20.36818 23.05022 21.70920
#
# Velocity S-wave (km/s) = 3.22982 3.43590 3.33445
# Velocity P-wave (km/s) = 5.28197 5.85788 5.57736
#
# Compressibility (1/GPa) = 0.03660845
#
# Stress axis : x y z
#
# Youngs Moduli (GPa) = 36.67029 86.91859 48.11595
#
# Poissons Ratio (x) = 0.49904 0.03302
# Poissons Ratio (y) = 0.21054 0.24285
# Poissons Ratio (z) = 0.02516 0.43870
#
# Static dielectric constant tensor:
#      x y z
#    x 1.689730 0.000000 0.000000 
#    y 0.000000 1.724980 0.000000 
#    z 0.000000 0.000000 1.663250 
# 
# From -- ./inp_files/11421.got.cif
#   From: 2010.05.17/outbox.cif.g08.bks.cpg/sg59_6_cif.got.tgz:11421.got - 2010.06.03 14:40:33.
