data_PCOD9451872
_publ_section_title
;
Structure prediction by ZEFSAII (Michael W. Deem and Ramdas Pophale) SiO2 
 PCOD9451872
Probable space group: P M M N
;
_chemical_formula_sum "Si O2"
_cell_formula_units_Z 64
_cell_length_a 8.049353
_cell_length_b 21.016324
_cell_length_c 19.179473
_cell_angle_alpha 90.000000
_cell_angle_beta 90.000000
_cell_angle_gamma 90.000000
_cell_volume 3244.549457
_symmetry_space_group_name_H-M "P M M N"
_symmetry_group_IT_number 59
_space_group.IT_coordinate_system_code '2'
_symmetry_cell_setting 'orthorhombic'
loop_
_space_group_symop_operation_xyz
x,y,z
1/2-x,1/2-y,z
1/2+x,-y,-z
-x,1/2+y,-z
-x,-y,-z
1/2+x,1/2+y,-z
1/2-x,y,z
x,1/2-y,z
loop_
_atom_site_type_symbol
_atom_site_label
_atom_site_fract_x
_atom_site_fract_y
_atom_site_fract_z
Si Si1 0.049079 0.061243 0.455260
Si Si2 0.550402 0.940019 0.703501
Si Si3 0.049669 0.177924 0.046384
Si Si4 0.948486 0.560825 0.045065
Si Si5 0.549296 0.822088 0.451330
Si Si6 0.051197 0.677684 0.795813
Si Si7 0.049696 0.821748 0.292975
Si Si8 0.450284 0.558865 0.205122
O O1 0.250000 0.063878 0.453161
O O2 0.987613 0.057166 0.375788
O O3 0.989672 0.124862 0.494682
O O4 0.000000 0.000000 0.500000
O O5 0.750000 0.946016 0.700415
O O6 0.510981 0.873721 0.740931
O O7 0.487166 0.998277 0.750928
O O8 0.250000 0.179344 0.042169
O O9 0.988177 0.250000 0.033286
O O10 0.004195 0.160410 0.125733
O O11 0.987241 0.124961 0.992663
O O12 0.750000 0.563985 0.045066
O O13 0.006108 0.554929 0.124309
O O14 0.000000 0.500000 0.000000
O O15 0.750000 0.821607 0.453108
O O16 0.491375 0.750000 0.466536
O O17 0.496139 0.838086 0.372533
O O18 0.250000 0.678117 0.794348
O O19 0.991232 0.750000 0.782096
O O20 0.250000 0.820202 0.288636
O O21 0.987743 0.750000 0.278543
O O22 0.988247 0.875864 0.240603
O O23 0.250000 0.558867 0.210281
#
# Coordination Sequence:
#
# PCOD9451872 Si02
#       8
#     8   8   8   8   8   8   8   8
#     4  10  21  36  55  79 106 138 177 220 265 312
#     4  10  21  36  54  76 104 142 182 216 256 312
#     4   9  19  37  58  78 103 137 174 210 253 310
#     4  11  23  37  55  79 106 137 174 216 262 311
#     4   9  18  33  53  78 107 137 172 216 262 308
#     4  10  21  36  55  81 109 135 169 216 265 310
#     4   9  18  34  56  80 107 141 177 212 256 310
#     4  10  21  36  53  76 107 139 175 218 259 305
#
# _framework density 19.725390000000001
#
# number of rings (size 3 to 8) (size 9 to 14) (size 15 to 20)
#    0.000    2.250    0.000    2.250    0.000    8.750 
#    0.000    1.250    0.000    1.500    0.000    0.000 
#    0.000    0.000    0.000    0.000    0.000    0.000 
#
# Total GULP energy -357382.514164 kJ/mol
# GULP energy per Si atom -5584.101784 kJ/mol
# Density = 1.968049 g / cm^3
# Si number density = 19.725390 Si / 1000 Ang^3
#
#
#
# Elastic Constant Matrix: (Units=GPa)
#
#
# Indices 1 2 3 4 5 6 
#
# 1 10.8996 8.9762 5.6951 0.0000 0.0000 0.0000
# 2 8.9762 147.8229 136.5497 0.0000 0.0000 0.0000
# 3 5.6951 136.5497 195.7628 0.0000 0.0000 0.0000
# 4 0.0000 0.0000 0.0000 44.0728 0.0000 0.0000
# 5 0.0000 0.0000 0.0000 0.0000 26.9136 0.0000
# 6 0.0000 0.0000 0.0000 0.0000 0.0000 19.9484
#
#
#
# Elastic Compliance Matrix: (Units=1/GPa)
#
#
# Indices 1 2 3 4 5 6 
#
# 1 0.097487 -0.009278 0.003636 0.000000 0.000000 0.000000
# 2 -0.009278 0.019903 -0.013613 0.000000 0.000000 0.000000
# 3 0.003636 -0.013613 0.014498 0.000000 0.000000 0.000000
# 4 0.000000 0.000000 0.000000 0.022690 0.000000 0.000000
# 5 0.000000 0.000000 0.000000 0.000000 0.037156 0.000000
# 6 0.000000 0.000000 0.000000 0.000000 0.000000 0.050129
#
#
# Mechanical properties :
#
#
# Convention : Reuss Voigt Hill
#
# Bulk Modulus (GPa) = 10.70924 72.99192 41.85058
# Shear Modulus (GPa) = 16.05136 31.73792 23.89464
#
# Velocity S-wave (km/s) = 2.85571 4.01557 3.48424
# Velocity P-wave (km/s) = 4.03911 7.65403 6.11958
#
# Compressibility (1/GPa) = 0.09337735
#
# Stress axis : x y z
#
# Youngs Moduli (GPa) = 10.25775 50.24333 68.97547
#
# Poissons Ratio (x) = 0.46616 -0.25077
# Poissons Ratio (y) = 0.09517 0.93897
# Poissons Ratio (z) = -0.03729 0.68396
#
# Static dielectric constant tensor:
#      x y z
#    x 1.705820 0.000000 0.000000 
#    y 0.000000 1.707090 0.000000 
#    z 0.000000 0.000000 1.636530 
# 
# From -- ./inp_files/26186.got.cif
#   From: 2010.05.17/outbox.cif.g08.bks.cpg/sg59_14_cif.got.tgz:26186.got - 2010.06.03 14:40:33.
