data_PCOD9451443
_publ_section_title
;
Structure prediction by ZEFSAII (Michael W. Deem and Ramdas Pophale) SiO2 
 PCOD9451443
Probable space group: P M M N
;
_chemical_formula_sum "Si O2"
_cell_formula_units_Z 48
_cell_length_a 32.102345
_cell_length_b 8.423740
_cell_length_c 9.549053
_cell_angle_alpha 90.000000
_cell_angle_beta 90.000000
_cell_angle_gamma 90.000000
_cell_volume 2582.272174
_symmetry_space_group_name_H-M "P M M N"
_symmetry_group_IT_number 59
_space_group.IT_coordinate_system_code '2'
_symmetry_cell_setting 'orthorhombic'
loop_
_space_group_symop_operation_xyz
x,y,z
1/2-x,1/2-y,z
1/2+x,-y,-z
-x,1/2+y,-z
-x,-y,-z
1/2+x,1/2+y,-z
1/2-x,y,z
x,1/2-y,z
loop_
_atom_site_type_symbol
_atom_site_label
_atom_site_fract_x
_atom_site_fract_y
_atom_site_fract_z
Si Si1 0.169911 0.070549 0.005835
Si Si2 0.453431 0.938832 0.988434
Si Si3 0.655957 0.562574 0.507272
Si Si4 0.750000 0.059517 0.473015
Si Si5 0.750000 0.060278 0.142873
Si Si6 0.613841 0.061810 0.226125
Si Si7 0.613363 0.066004 0.779148
O O1 0.171421 0.250000 0.060124
O O2 0.211764 0.013654 0.937368
O O3 0.138491 0.052923 0.877400
O O4 0.153808 0.951060 0.122770
O O5 0.453771 0.750000 0.005315
O O6 0.432854 0.966466 0.834282
O O7 0.423681 0.996161 0.117796
O O8 0.500000 0.000000 0.000000
O O9 0.658126 0.750000 0.479983
O O10 0.704343 0.502793 0.525636
O O11 0.631794 0.477104 0.378676
O O12 0.626746 0.528025 0.641376
O O13 0.750000 0.250000 0.490284
O O14 0.750000 0.019549 0.307081
O O15 0.750000 0.250000 0.134220
O O16 0.622692 0.250000 0.199143
O O17 0.605387 0.250000 0.743892
#
# Coordination Sequence:
#
# PCOD9451443 Si02
#       7
#     8   8   8   4   4   8   8
#     4  11  21  34  55  83 111 143 190 245 287 327
#     4   9  20  38  64  91 116 148 191 240 291 353
#     4  12  24  38  59  89 120 154 200 251 293 337
#     4  11  23  38  59  82 116 163 201 237 286 350
#     4  11  21  34  55  80 110 151 197 237 284 344
#     4  10  20  37  58  83 115 156 194 229 286 355
#     4  10  22  41  60  82 117 157 191 231 293 360
#
# _framework density 18.588280000000001
#
# number of rings (size 3 to 8) (size 9 to 14) (size 15 to 20)
#    0.000    1.500    1.667    5.500    0.000    5.333 
#    0.000    4.167    0.000    0.000    0.000    0.000 
#    0.000    0.000    0.000    0.000    0.000    0.000 
#
# Total GULP energy -267284.967196 kJ/mol
# GULP energy per Si atom -5568.436817 kJ/mol
# Density = 1.854597 g / cm^3
# Si number density = 18.588280 Si / 1000 Ang^3
#
#
#
# Elastic Constant Matrix: (Units=GPa)
#
#
# Indices 1 2 3 4 5 6 
#
# 1 121.4143 32.4099 33.9425 0.0000 0.0000 0.0000
# 2 32.4099 59.9711 10.9202 0.0000 0.0000 0.0000
# 3 33.9425 10.9202 69.4138 0.0000 0.0000 0.0000
# 4 0.0000 0.0000 0.0000 25.3151 0.0000 0.0000
# 5 0.0000 0.0000 0.0000 0.0000 49.8158 0.0000
# 6 0.0000 0.0000 0.0000 0.0000 0.0000 28.7418
#
#
#
# Elastic Compliance Matrix: (Units=1/GPa)
#
#
# Indices 1 2 3 4 5 6 
#
# 1 0.010842 -0.005038 -0.004509 0.000000 0.000000 0.000000
# 2 -0.005038 0.019508 -0.000605 0.000000 0.000000 0.000000
# 3 -0.004509 -0.000605 0.016706 0.000000 0.000000 0.000000
# 4 0.000000 0.000000 0.000000 0.039502 0.000000 0.000000
# 5 0.000000 0.000000 0.000000 0.000000 0.020074 0.000000
# 6 0.000000 0.000000 0.000000 0.000000 0.000000 0.034793
#
#
# Mechanical properties :
#
#
# Convention : Reuss Voigt Hill
#
# Bulk Modulus (GPa) = 37.38173 45.03825 41.20999
# Shear Modulus (GPa) = 29.30048 32.34298 30.82173
#
# Velocity S-wave (km/s) = 3.97456 4.17582 4.07643
# Velocity P-wave (km/s) = 6.42003 6.89434 6.66141
#
# Compressibility (1/GPa) = 0.02675104
#
# Stress axis : x y z
#
# Youngs Moduli (GPa) = 92.23747 51.26202 59.85749
#
# Poissons Ratio (x) = 0.25826 0.26989
# Poissons Ratio (y) = 0.46470 0.03624
# Poissons Ratio (z) = 0.41588 0.03103
#
# Static dielectric constant tensor:
#      x y z
#    x 1.632040 0.000000 0.000000 
#    y 0.000000 1.633010 0.000000 
#    z 0.000000 0.000000 1.670720 
# 
# From -- ./inp_files/6398.got.cif
#   From: 2010.05.17/outbox.cif.g08.bks.cpg/sg59_4_cif.got.tgz:6398.got - 2010.06.03 14:40:33.
