data_PCOD9451115
_publ_section_title
;
Structure prediction by ZEFSAII (Michael W. Deem and Ramdas Pophale) SiO2 
 PCOD9451115
Probable space group: P M M N
;
_chemical_formula_sum "Si O2"
_cell_formula_units_Z 56
_cell_length_a 8.699529
_cell_length_b 23.163999
_cell_length_c 15.080014
_cell_angle_alpha 90.000000
_cell_angle_beta 90.000000
_cell_angle_gamma 90.000000
_cell_volume 3038.862308
_symmetry_space_group_name_H-M "P M M N"
_symmetry_group_IT_number 59
_space_group.IT_coordinate_system_code '2'
_symmetry_cell_setting 'orthorhombic'
loop_
_space_group_symop_operation_xyz
x,y,z
1/2-x,1/2-y,z
1/2+x,-y,-z
-x,1/2+y,-z
-x,-y,-z
1/2+x,1/2+y,-z
1/2-x,y,z
x,1/2-y,z
loop_
_atom_site_type_symbol
_atom_site_label
_atom_site_fract_x
_atom_site_fract_y
_atom_site_fract_z
Si Si1 0.066201 0.084127 0.204758
Si Si2 0.065898 0.184840 0.068640
Si Si3 0.435385 0.314104 0.697395
Si Si4 0.433624 0.554606 0.614504
Si Si5 0.564321 0.576802 0.421596
Si Si6 0.067172 0.854002 0.118626
Si Si7 0.433104 0.019664 0.905382
O O1 0.250000 0.076672 0.199010
O O2 0.022432 0.138210 0.142854
O O3 0.014614 0.088468 0.306111
O O4 0.981870 0.028593 0.164501
O O5 0.250000 0.179909 0.055317
O O6 0.031035 0.250000 0.097154
O O7 0.987446 0.172159 0.974761
O O8 0.250000 0.316725 0.701659
O O9 0.478215 0.250000 0.663579
O O10 0.485574 0.368414 0.637122
O O11 0.499468 0.321756 0.796263
O O12 0.250000 0.559563 0.621400
O O13 0.490006 0.576188 0.518814
O O14 0.473767 0.485973 0.620177
O O15 0.750000 0.578791 0.430269
O O16 0.250000 0.853638 0.122624
O O17 0.004140 0.919175 0.120301
O O18 0.250000 0.024705 0.911161
O O19 0.500000 0.000000 0.000000
#
# Coordination Sequence:
#
# PCOD9451115 Si02
#       7
#     8   8   8   8   8   8   8
#     4  11  22  37  59  86 116 151 192 237 285 344
#     4  10  22  40  59  78 108 153 199 241 284 334
#     4  10  21  38  60  85 116 156 198 242 295 355
#     4  10  20  35  59  87 115 148 186 235 295 351
#     4   9  19  37  59  84 112 145 187 236 290 351
#     4  12  24  37  57  85 117 155 195 238 289 346
#     4  12  23  37  57  84 117 151 189 237 290 343
#
# _framework density 18.427948000000001
#
# number of rings (size 3 to 8) (size 9 to 14) (size 15 to 20)
#    0.000    1.429    1.429    4.714    0.000    5.143 
#    0.000    0.714    0.000    4.286    0.000    0.000 
#    0.000    0.000    0.000    0.000    0.000    0.000 
#
# Total GULP energy -312977.709436 kJ/mol
# GULP energy per Si atom -5588.887669 kJ/mol
# Density = 1.838601 g / cm^3
# Si number density = 18.427948 Si / 1000 Ang^3
#
#
#
# Elastic Constant Matrix: (Units=GPa)
#
#
# Indices 1 2 3 4 5 6 
#
# 1 9.0677 23.2368 17.6580 0.0000 0.0000 0.0000
# 2 23.2368 109.0871 49.7353 0.0000 0.0000 0.0000
# 3 17.6580 49.7353 105.5799 0.0000 0.0000 0.0000
# 4 0.0000 0.0000 0.0000 18.8503 0.0000 0.0000
# 5 0.0000 0.0000 0.0000 0.0000 32.4642 0.0000
# 6 0.0000 0.0000 0.0000 0.0000 0.0000 20.8654
#
#
#
# Elastic Compliance Matrix: (Units=1/GPa)
#
#
# Indices 1 2 3 4 5 6 
#
# 1 0.284408 -0.049534 -0.024233 0.000000 0.000000 0.000000
# 2 -0.049534 0.020301 -0.001279 0.000000 0.000000 0.000000
# 3 -0.024233 -0.001279 0.014127 0.000000 0.000000 0.000000
# 4 0.000000 0.000000 0.000000 0.053050 0.000000 0.000000
# 5 0.000000 0.000000 0.000000 0.000000 0.030803 0.000000
# 6 0.000000 0.000000 0.000000 0.000000 0.000000 0.047926
#
#
# Mechanical properties :
#
#
# Convention : Reuss Voigt Hill
#
# Bulk Modulus (GPa) = 5.92611 44.99943 25.46277
# Shear Modulus (GPa) = 7.61088 23.30962 15.46025
#
# Velocity S-wave (km/s) = 2.03446 3.56041 2.89962
# Velocity P-wave (km/s) = 2.95661 6.43227 5.00578
#
# Compressibility (1/GPa) = 0.16874483
#
# Stress axis : x y z
#
# Youngs Moduli (GPa) = 3.51608 49.25791 70.78733
#
# Poissons Ratio (x) = 2.43993 1.71538
# Poissons Ratio (y) = 0.17416 0.09053
# Poissons Ratio (z) = 0.08520 0.06299
#
# Static dielectric constant tensor:
#      x y z
#    x 1.609990 0.000000 0.000000 
#    y 0.000000 1.632330 0.000000 
#    z 0.000000 0.000000 1.624570 
# 
# From -- ./inp_files/20930.got.cif
#   From: 2010.05.17/outbox.cif.g08.bks.cpg/sg59_11_cif.got.tgz:20930.got - 2010.06.03 14:40:33.
