data_PCOD9451161
_publ_section_title
;
Structure prediction by ZEFSAII (Michael W. Deem and Ramdas Pophale) SiO2 
 PCOD9451161
Probable space group: P M M N
;
_chemical_formula_sum "Si O2"
_cell_formula_units_Z 48
_cell_length_a 26.011191
_cell_length_b 8.450119
_cell_length_c 12.195869
_cell_angle_alpha 90.000000
_cell_angle_beta 90.000000
_cell_angle_gamma 90.000000
_cell_volume 2680.623459
_symmetry_space_group_name_H-M "P M M N"
_symmetry_group_IT_number 59
_space_group.IT_coordinate_system_code '2'
_symmetry_cell_setting 'orthorhombic'
loop_
_space_group_symop_operation_xyz
x,y,z
1/2-x,1/2-y,z
1/2+x,-y,-z
-x,1/2+y,-z
-x,-y,-z
1/2+x,1/2+y,-z
1/2-x,y,z
x,1/2-y,z
loop_
_atom_site_type_symbol
_atom_site_label
_atom_site_fract_x
_atom_site_fract_y
_atom_site_fract_z
Si Si1 0.097134 0.557031 0.765439
Si Si2 0.309005 0.439340 0.377155
Si Si3 0.497847 0.439919 0.376092
Si Si4 0.058672 0.558425 0.000989
Si Si5 0.191267 0.558737 0.619185
Si Si6 0.901482 0.060458 0.763370
O O1 0.097990 0.750000 0.766118
O O2 0.048573 0.509024 0.691001
O O3 0.149827 0.503687 0.708348
O O4 0.087028 0.505121 0.889926
O O5 0.250000 0.490555 0.356885
O O6 0.310295 0.250000 0.380912
O O7 0.324007 0.503711 0.497356
O O8 0.348388 0.498900 0.286390
O O9 0.500000 0.500000 0.500000
O O10 0.496448 0.250000 0.376140
O O11 0.447750 0.502806 0.313985
O O12 0.057716 0.750000 0.000476
O O13 0.086245 0.506047 0.112852
O O14 0.000000 0.500000 0.000000
O O15 0.250000 0.505052 0.639504
O O16 0.191297 0.750000 0.619593
O O17 0.900674 0.250000 0.762664
#
# Coordination Sequence:
#
# PCOD9451161 Si02
#       6
#     8   8   8   8   8   8
#     4   9  18  33  52  76 106 139 176 219 268 318
#     4  10  21  37  57  80 108 143 181 222 272 327
#     4  11  21  33  52  77 110 144 177 224 276 328
#     4  10  20  36  55  76 105 143 186 226 268 323
#     4   9  17  32  56  82 108 139 175 219 273 329
#     4  11  22  35  54  80 109 141 183 227 272 328
#
# _framework density 17.906282999999998
#
# number of rings (size 3 to 8) (size 9 to 14) (size 15 to 20)
#    0.000    2.000    1.667    2.500    0.000    3.000 
#    0.000    2.500    0.000    3.000    0.000    2.333 
#    0.000    0.000    0.000    0.000    0.000    0.000 
#
# Total GULP energy -267991.091916 kJ/mol
# GULP energy per Si atom -5583.147748 kJ/mol
# Density = 1.786553 g / cm^3
# Si number density = 17.906283 Si / 1000 Ang^3
#
#
#
# Elastic Constant Matrix: (Units=GPa)
#
#
# Indices 1 2 3 4 5 6 
#
# 1 123.2141 17.4964 104.1675 0.0000 0.0000 0.0000
# 2 17.4964 17.0052 20.7548 0.0000 0.0000 0.0000
# 3 104.1675 20.7548 194.0839 0.0000 0.0000 0.0000
# 4 0.0000 0.0000 0.0000 17.4935 0.0000 0.0000
# 5 0.0000 0.0000 0.0000 0.0000 25.3662 0.0000
# 6 0.0000 0.0000 0.0000 0.0000 0.0000 16.6431
#
#
#
# Elastic Compliance Matrix: (Units=1/GPa)
#
#
# Indices 1 2 3 4 5 6 
#
# 1 0.015486 -0.006658 -0.007600 0.000000 0.000000 0.000000
# 2 -0.006658 0.070496 -0.003965 0.000000 0.000000 0.000000
# 3 -0.007600 -0.003965 0.009655 0.000000 0.000000 0.000000
# 4 0.000000 0.000000 0.000000 0.057164 0.000000 0.000000
# 5 0.000000 0.000000 0.000000 0.000000 0.039422 0.000000
# 6 0.000000 0.000000 0.000000 0.000000 0.000000 0.060085
#
#
# Mechanical properties :
#
#
# Convention : Reuss Voigt Hill
#
# Bulk Modulus (GPa) = 16.89442 68.79339 42.84391
# Shear Modulus (GPa) = 16.20823 24.69286 20.45055
#
# Velocity S-wave (km/s) = 3.01187 3.71753 3.38315
# Velocity P-wave (km/s) = 4.64225 7.54511 6.26415
#
# Compressibility (1/GPa) = 0.05919115
#
# Stress axis : x y z
#
# Youngs Moduli (GPa) = 64.57281 14.18530 103.57008
#
# Poissons Ratio (x) = 0.09445 0.78711
# Poissons Ratio (y) = 0.42994 0.41066
# Poissons Ratio (z) = 0.49074 0.05624
#
# Static dielectric constant tensor:
#      x y z
#    x 1.600330 0.000000 0.000000 
#    y 0.000000 1.614400 0.000000 
#    z 0.000000 0.000000 1.596730 
# 
# From -- ./inp_files/14317.got.cif
#   From: 2010.05.17/outbox.cif.g08.bks.cpg/sg59_8_cif.got.tgz:14317.got - 2010.06.03 14:40:33.
