data_PCOD9451361
_publ_section_title
;
Structure prediction by ZEFSAII (Michael W. Deem and Ramdas Pophale) SiO2 
 PCOD9451361
Probable space group: P M M N
;
_chemical_formula_sum "Si O2"
_cell_formula_units_Z 48
_cell_length_a 14.287644
_cell_length_b 14.116498
_cell_length_c 12.470988
_cell_angle_alpha 90.000000
_cell_angle_beta 90.000000
_cell_angle_gamma 90.000000
_cell_volume 2515.292251
_symmetry_space_group_name_H-M "P M M N"
_symmetry_group_IT_number 59
_space_group.IT_coordinate_system_code '2'
_symmetry_cell_setting 'orthorhombic'
loop_
_space_group_symop_operation_xyz
x,y,z
1/2-x,1/2-y,z
1/2+x,-y,-z
-x,1/2+y,-z
-x,-y,-z
1/2+x,1/2+y,-z
1/2-x,y,z
x,1/2-y,z
loop_
_atom_site_type_symbol
_atom_site_label
_atom_site_fract_x
_atom_site_fract_y
_atom_site_fract_z
Si Si1 0.647356 0.513689 0.695646
Si Si2 0.048667 0.636740 0.159259
Si Si3 0.895161 0.490601 0.457248
Si Si4 0.039019 0.862472 0.718168
Si Si5 0.854780 0.637766 0.270530
Si Si6 0.357911 0.634811 0.937204
O O1 0.750000 0.544485 0.735179
O O2 0.612331 0.420402 0.757342
O O3 0.656263 0.491212 0.569631
O O4 0.563276 0.589052 0.711573
O O5 0.062672 0.750000 0.168854
O O6 0.940451 0.617431 0.190012
O O7 0.081478 0.606879 0.040816
O O8 0.897700 0.399429 0.380564
O O9 0.869332 0.576739 0.378252
O O10 0.000000 0.500000 0.500000
O O11 0.029606 0.750000 0.715576
O O12 0.091130 0.892448 0.827300
O O13 0.750000 0.617920 0.228458
O O14 0.859714 0.750000 0.295411
O O15 0.250000 0.601883 0.943247
O O16 0.355030 0.750000 0.937215
#
# Coordination Sequence:
#
# PCOD9451361 Si02
#       6
#     8   8   8   8   8   8
#     4  11  23  39  58  87 121 154 194 240 297 353
#     4  10  20  38  61  87 118 148 191 246 296 347
#     4  10  20  38  56  84 117 153 190 242 284 342
#     4  10  22  40  60  85 118 157 201 243 286 342
#     4  10  20  36  60  87 116 152 191 235 296 359
#     4   9  19  37  61  86 115 155 198 240 288 346
#
# _framework density 19.083271
#
# number of rings (size 3 to 8) (size 9 to 14) (size 15 to 20)
#    0.000    2.000    3.333    1.000    0.000    6.667 
#    0.000    0.833    0.000    3.000    0.000    0.000 
#    0.000    0.000    0.000    0.000    0.000    0.000 
#
# Total GULP energy -267599.140821 kJ/mol
# GULP energy per Si atom -5574.982100 kJ/mol
# Density = 1.903984 g / cm^3
# Si number density = 19.083271 Si / 1000 Ang^3
#
#
#
# Elastic Constant Matrix: (Units=GPa)
#
#
# Indices 1 2 3 4 5 6 
#
# 1 148.2021 31.8542 73.4246 0.0000 0.0000 0.0000
# 2 31.8542 81.0404 45.5203 0.0000 0.0000 0.0000
# 3 73.4246 45.5203 153.5241 0.0000 0.0000 0.0000
# 4 0.0000 0.0000 0.0000 31.0982 0.0000 0.0000
# 5 0.0000 0.0000 0.0000 0.0000 -6.0629 0.0000
# 6 0.0000 0.0000 0.0000 0.0000 0.0000 7.9911
#
#
#
# Elastic Compliance Matrix: (Units=1/GPa)
#
#
# Indices 1 2 3 4 5 6 
#
# 1 0.008962 -0.001338 -0.003890 0.000000 0.000000 0.000000
# 2 -0.001338 0.015005 -0.003809 0.000000 0.000000 0.000000
# 3 -0.003890 -0.003809 0.009503 0.000000 0.000000 0.000000
# 4 0.000000 0.000000 0.000000 0.032156 0.000000 0.000000
# 5 0.000000 0.000000 0.000000 0.000000 -0.164937 0.000000
# 6 0.000000 0.000000 0.000000 0.000000 0.000000 0.125140
#
#
# Mechanical properties :
#
#
# Convention : Reuss Voigt Hill
#
# Bulk Modulus (GPa) = 64.94703 76.04053 70.49378
# Shear Modulus (GPa) = 101.96849 22.06977 62.01913
#
# Velocity S-wave (km/s) = 7.31775 3.40442 5.70699
# Velocity P-wave (km/s) = 10.27164 7.44222 8.96921
#
# Compressibility (1/GPa) = 0.01539716
#
# Stress axis : x y z
#
# Youngs Moduli (GPa) = 111.58051 66.64440 105.22697
#
# Poissons Ratio (x) = 0.08917 0.40928
# Poissons Ratio (y) = 0.14929 0.40082
# Poissons Ratio (z) = 0.43400 0.25386
#
# Static dielectric constant tensor:
#      x y z
#    x 1.683630 0.000000 0.000000 
#    y 0.000000 1.663840 0.000000 
#    z 0.000000 0.000000 1.665140 
# 
# From -- ./inp_files/16855.got.cif
#   From: 2010.05.17/outbox.cif.g08.bks.cpg/sg59_9_cif.got.tgz:16855.got - 2010.06.03 14:40:33.
