data_PCOD9451941
_publ_section_title
;
Structure prediction by ZEFSAII (Michael W. Deem and Ramdas Pophale) SiO2 
 PCOD9451941
Probable space group: P M M N
;
_chemical_formula_sum "Si O2"
_cell_formula_units_Z 48
_cell_length_a 8.895707
_cell_length_b 15.890746
_cell_length_c 17.129036
_cell_angle_alpha 90.000000
_cell_angle_beta 90.000000
_cell_angle_gamma 90.000000
_cell_volume 2421.350601
_symmetry_space_group_name_H-M "P M M N"
_symmetry_group_IT_number 59
_space_group.IT_coordinate_system_code '2'
_symmetry_cell_setting 'orthorhombic'
loop_
_space_group_symop_operation_xyz
x,y,z
1/2-x,1/2-y,z
1/2+x,-y,-z
-x,1/2+y,-z
-x,-y,-z
1/2+x,1/2+y,-z
1/2-x,y,z
x,1/2-y,z
loop_
_atom_site_type_symbol
_atom_site_label
_atom_site_fract_x
_atom_site_fract_y
_atom_site_fract_z
Si Si1 0.423241 0.594567 0.164717
Si Si2 0.428842 0.154437 0.681471
Si Si3 0.074433 0.105146 0.167345
Si Si4 0.429444 0.998953 0.414148
Si Si5 0.424617 0.350670 0.992355
Si Si6 0.071578 0.655463 0.675936
O O1 0.250000 0.621025 0.173341
O O2 0.523947 0.641480 0.228442
O O3 0.432195 0.494926 0.180455
O O4 0.479319 0.611070 0.077349
O O5 0.250000 0.143019 0.673660
O O6 0.466995 0.250000 0.657596
O O7 0.512585 0.083210 0.631965
O O8 0.250000 0.131697 0.173901
O O9 0.977048 0.148517 0.233755
O O10 0.024597 0.124306 0.079155
O O11 0.250000 0.997712 0.417635
O O12 0.484563 0.082517 0.369436
O O13 0.500000 0.000000 0.500000
O O14 0.250000 0.377960 0.984454
O O15 0.429528 0.250000 0.985956
O O16 0.250000 0.641689 0.668540
O O17 0.036474 0.750000 0.647687
#
# Coordination Sequence:
#
# PCOD9451941 Si02
#       6
#     8   8   8   8   8   8
#     4  11  22  36  58  89 123 165 216 268 321 376
#     4  11  24  43  68  97 131 172 215 262 320 382
#     4  10  21  38  60  87 121 167 217 266 322 378
#     4  12  26  46  72 100 132 169 209 260 319 380
#     4  10  21  36  54  80 118 166 218 268 319 377
#     4  11  24  42  67  99 133 171 215 263 317 379
#
# _framework density 19.823647999999999
#
# number of rings (size 3 to 8) (size 9 to 14) (size 15 to 20)
#    0.000    1.167    1.667    4.500    0.000    7.667 
#    0.000    0.000    0.000    0.000    0.000    0.000 
#    0.000    0.000    0.000    0.000    0.000    0.000 
#
# Total GULP energy -268509.500263 kJ/mol
# GULP energy per Si atom -5593.947922 kJ/mol
# Density = 1.977853 g / cm^3
# Si number density = 19.823648 Si / 1000 Ang^3
#
#
#
# Elastic Constant Matrix: (Units=GPa)
#
#
# Indices 1 2 3 4 5 6 
#
# 1 107.7157 72.8239 50.6835 0.0000 0.0000 0.0000
# 2 72.8239 117.0754 50.9342 0.0000 0.0000 0.0000
# 3 50.6835 50.9342 109.7181 0.0000 0.0000 0.0000
# 4 0.0000 0.0000 0.0000 0.2424 0.0000 0.0000
# 5 0.0000 0.0000 0.0000 0.0000 38.5716 0.0000
# 6 0.0000 0.0000 0.0000 0.0000 0.0000 -1.3081
#
#
#
# Elastic Compliance Matrix: (Units=1/GPa)
#
#
# Indices 1 2 3 4 5 6 
#
# 1 0.017154 -0.009051 -0.003723 0.000000 0.000000 0.000000
# 2 -0.009051 0.015479 -0.003005 0.000000 0.000000 0.000000
# 3 -0.003723 -0.003005 0.012229 0.000000 0.000000 0.000000
# 4 0.000000 0.000000 0.000000 4.125892 0.000000 0.000000
# 5 0.000000 0.000000 0.000000 0.000000 0.025926 0.000000
# 6 0.000000 0.000000 0.000000 0.000000 0.000000 -0.764480
#
#
# Mechanical properties :
#
#
# Convention : Reuss Voigt Hill
#
# Bulk Modulus (GPa) = 75.15752 75.93248 75.54500
# Shear Modulus (GPa) = 1.44167 18.17236 9.80702
#
# Velocity S-wave (km/s) = 0.85371 3.03099 2.22663
# Velocity P-wave (km/s) = 6.24237 7.11592 6.69341
#
# Compressibility (1/GPa) = 0.01330539
#
# Stress axis : x y z
#
# Youngs Moduli (GPa) = 58.29395 64.60545 81.77464
#
# Poissons Ratio (x) = 0.58474 0.30442
# Poissons Ratio (y) = 0.52761 0.24570
# Poissons Ratio (z) = 0.21701 0.19411
#
# Static dielectric constant tensor:
#      x y z
#    x 1.670300 0.000000 0.000000 
#    y 0.000000 1.695450 0.000000 
#    z 0.000000 0.000000 1.678860 
# 
# From -- ./inp_files/25428.got.cif
#   From: 2010.05.17/outbox.cif.g08.bks.cpg/sg59_13_cif.got.tgz:25428.got - 2010.06.03 14:40:33.
