data_PCOD9451908
_publ_section_title
;
Structure prediction by ZEFSAII (Michael W. Deem and Ramdas Pophale) SiO2 
 PCOD9451908
Probable space group: P M M N
;
_chemical_formula_sum "Si O2"
_cell_formula_units_Z 56
_cell_length_a 9.082149
_cell_length_b 13.816820
_cell_length_c 21.869222
_cell_angle_alpha 90.000000
_cell_angle_beta 90.000000
_cell_angle_gamma 90.000000
_cell_volume 2744.290332
_symmetry_space_group_name_H-M "P M M N"
_symmetry_group_IT_number 59
_space_group.IT_coordinate_system_code '2'
_symmetry_cell_setting 'orthorhombic'
loop_
_space_group_symop_operation_xyz
x,y,z
1/2-x,1/2-y,z
1/2+x,-y,-z
-x,1/2+y,-z
-x,-y,-z
1/2+x,1/2+y,-z
1/2-x,y,z
x,1/2-y,z
loop_
_atom_site_type_symbol
_atom_site_label
_atom_site_fract_x
_atom_site_fract_y
_atom_site_fract_z
Si Si1 0.074244 0.857831 0.527118
Si Si2 0.422243 0.865213 0.774927
Si Si3 0.925518 0.558168 0.408922
Si Si4 0.425911 0.532925 0.284703
Si Si5 0.920322 0.632278 0.901197
Si Si6 0.922872 0.867817 0.035947
Si Si7 0.925999 0.363184 0.840821
O O1 0.250000 0.862974 0.515597
O O2 0.040390 0.750000 0.550387
O O3 0.039233 0.946645 0.572087
O O4 0.989921 0.877962 0.463912
O O5 0.250000 0.889155 0.770002
O O6 0.439167 0.750000 0.767509
O O7 0.483476 0.891700 0.842279
O O8 0.514201 0.924731 0.725578
O O9 0.750000 0.568634 0.404986
O O10 0.001325 0.578327 0.344461
O O11 0.250000 0.534988 0.289684
O O12 0.471109 0.586894 0.222177
O O13 0.750000 0.600177 0.892884
O O14 0.915999 0.750000 0.902887
O O15 0.976371 0.601751 0.968356
O O16 0.750000 0.891287 0.039606
O O17 0.935081 0.750000 0.036724
O O18 0.005548 0.902718 0.096367
O O19 0.750000 0.370584 0.845677
O O20 0.965020 0.250000 0.836406
#
# Coordination Sequence:
#
# PCOD9451908 Si02
#       7
#     8   8   8   8   8   8   8
#     4   9  19  38  63  88 116 150 183 218 265 319
#     4  10  21  36  54  77 105 139 182 232 281 327
#     4  10  21  37  58  87 119 148 183 227 270 313
#     4  11  23  38  56  79 111 151 188 222 268 325
#     4   8  14  27  48  73 101 133 171 219 277 337
#     4   8  14  26  47  74 101 131 170 220 278 333
#     4   9  19  35  53  74 102 138 181 227 273 324
#
# _framework density 20.406003999999999
#
# number of rings (size 3 to 8) (size 9 to 14) (size 15 to 20)
#    0.000    2.714    0.000    2.143    0.000    4.571 
#    0.000    6.429    0.000    0.000    0.000    0.000 
#    0.000    0.000    0.000    0.000    0.000    0.000 
#
# Total GULP energy -312697.166711 kJ/mol
# GULP energy per Si atom -5583.877977 kJ/mol
# Density = 2.035956 g / cm^3
# Si number density = 20.406004 Si / 1000 Ang^3
#
#
#
# Elastic Constant Matrix: (Units=GPa)
#
#
# Indices 1 2 3 4 5 6 
#
# 1 22.3262 1.8797 19.3298 0.0000 0.0000 0.0000
# 2 1.8797 49.4034 -4.4474 0.0000 0.0000 0.0000
# 3 19.3298 -4.4474 77.1905 0.0000 0.0000 0.0000
# 4 0.0000 0.0000 0.0000 13.9805 0.0000 0.0000
# 5 0.0000 0.0000 0.0000 0.0000 32.9204 0.0000
# 6 0.0000 0.0000 0.0000 0.0000 0.0000 17.9366
#
#
#
# Elastic Compliance Matrix: (Units=1/GPa)
#
#
# Indices 1 2 3 4 5 6 
#
# 1 0.057792 -0.003520 -0.014675 0.000000 0.000000 0.000000
# 2 -0.003520 0.020561 0.002066 0.000000 0.000000 0.000000
# 3 -0.014675 0.002066 0.016749 0.000000 0.000000 0.000000
# 4 0.000000 0.000000 0.000000 0.071528 0.000000 0.000000
# 5 0.000000 0.000000 0.000000 0.000000 0.030376 0.000000
# 6 0.000000 0.000000 0.000000 0.000000 0.000000 0.055752
#
#
# Mechanical properties :
#
#
# Convention : Reuss Voigt Hill
#
# Bulk Modulus (GPa) = 15.91218 20.27159 18.09188
# Shear Modulus (GPa) = 16.34175 21.77803 19.05989
#
# Velocity S-wave (km/s) = 2.83297 3.27040 3.05951
# Velocity P-wave (km/s) = 4.30298 4.92102 4.62234
#
# Compressibility (1/GPa) = 0.06284495
#
# Stress axis : x y z
#
# Youngs Moduli (GPa) = 17.30337 48.63470 59.70561
#
# Poissons Ratio (x) = 0.17119 0.87618
# Poissons Ratio (y) = 0.06091 -0.12336
# Poissons Ratio (z) = 0.25393 -0.10049
#
# Static dielectric constant tensor:
#      x y z
#    x 1.675840 0.000000 0.000000 
#    y 0.000000 1.788830 0.000000 
#    z 0.000000 0.000000 1.702270 
# 
# From -- ./inp_files/29104.got.cif
#   From: 2010.05.17/outbox.cif.g08.bks.cpg/sg59_15_cif.got.tgz:29104.got - 2010.06.03 14:40:33.
