data_PCOD9451986
_publ_section_title
;
Structure prediction by ZEFSAII (Michael W. Deem and Ramdas Pophale) SiO2 
 PCOD9451986
Probable space group: P M M N
;
_chemical_formula_sum "Si O2"
_cell_formula_units_Z 64
_cell_length_a 14.745139
_cell_length_b 8.936820
_cell_length_c 26.922210
_cell_angle_alpha 90.000000
_cell_angle_beta 90.000000
_cell_angle_gamma 90.000000
_cell_volume 3547.664884
_symmetry_space_group_name_H-M "P M M N"
_symmetry_group_IT_number 59
_space_group.IT_coordinate_system_code '2'
_symmetry_cell_setting 'orthorhombic'
loop_
_space_group_symop_operation_xyz
x,y,z
1/2-x,1/2-y,z
1/2+x,-y,-z
-x,1/2+y,-z
-x,-y,-z
1/2+x,1/2+y,-z
1/2-x,y,z
x,1/2-y,z
loop_
_atom_site_type_symbol
_atom_site_label
_atom_site_fract_x
_atom_site_fract_y
_atom_site_fract_z
Si Si1 0.006489 0.429502 0.054217
Si Si2 0.644434 0.069949 0.499266
Si Si3 0.141336 0.925162 0.129473
Si Si4 0.858782 0.924946 0.765549
Si Si5 0.988781 0.070513 0.686959
Si Si6 0.145321 0.929593 0.866808
Si Si7 0.354366 0.429673 0.762147
Si Si8 0.988707 0.570956 0.578374
O O1 0.010255 0.250000 0.050782
O O2 0.919720 0.472037 0.088069
O O3 0.091967 0.491732 0.084675
O O4 0.000000 0.500000 0.000000
O O5 0.750000 0.026850 0.494157
O O6 0.640847 0.250000 0.505914
O O7 0.581568 0.033839 0.451577
O O8 0.594170 0.992462 0.545481
O O9 0.250000 0.936881 0.124564
O O10 0.116828 0.750000 0.129941
O O11 0.115737 0.000038 0.181971
O O12 0.750000 0.935790 0.760820
O O13 0.883899 0.750000 0.766001
O O14 0.907126 0.008395 0.720481
O O15 0.984023 0.250000 0.683747
O O16 0.079432 0.027903 0.717534
O O17 0.988515 0.000554 0.632551
O O18 0.250000 0.973696 0.875719
O O19 0.141987 0.750000 0.861899
O O20 0.116199 0.000563 0.814553
O O21 0.250000 0.475336 0.753190
O O22 0.356954 0.250000 0.766793
O O23 0.981798 0.750000 0.581651
#
# Coordination Sequence:
#
# PCOD9451986 Si02
#       8
#     8   8   8   8   8   8   8   8
#     4  11  23  37  55  80 109 141 180 226 275 327
#     4   9  19  38  61  81 105 141 183 225 270 321
#     4  10  21  38  59  81 108 143 181 223 273 329
#     4  10  21  37  57  81 109 142 181 224 270 322
#     4  11  22  35  54  80 113 149 180 218 267 317
#     4   9  19  36  56  77 103 137 175 215 263 319
#     4   9  19  35  54  78 107 139 176 215 257 310
#     4  10  21  36  55  82 112 141 179 224 269 318
#
# _framework density 18.040036000000001
#
# number of rings (size 3 to 8) (size 9 to 14) (size 15 to 20)
#    0.000    2.125    0.000    2.625    0.000    7.750 
#    0.000    1.250    0.000    0.000    0.000    0.000 
#    0.000    0.000    0.000    0.000    0.000    0.000 
#
# Total GULP energy -357415.191337 kJ/mol
# GULP energy per Si atom -5584.612365 kJ/mol
# Density = 1.799898 g / cm^3
# Si number density = 18.040036 Si / 1000 Ang^3
#
#
#
# Elastic Constant Matrix: (Units=GPa)
#
#
# Indices 1 2 3 4 5 6 
#
# 1 89.9093 47.4726 68.9273 0.0000 0.0000 0.0000
# 2 47.4726 63.6970 70.2988 0.0000 0.0000 0.0000
# 3 68.9273 70.2988 185.0024 0.0000 0.0000 0.0000
# 4 0.0000 0.0000 0.0000 34.2286 0.0000 0.0000
# 5 0.0000 0.0000 0.0000 0.0000 76.2516 0.0000
# 6 0.0000 0.0000 0.0000 0.0000 0.0000 23.6498
#
#
#
# Elastic Compliance Matrix: (Units=1/GPa)
#
#
# Indices 1 2 3 4 5 6 
#
# 1 0.019237 -0.011069 -0.002961 0.000000 0.000000 0.000000
# 2 -0.011069 0.033408 -0.008570 0.000000 0.000000 0.000000
# 3 -0.002961 -0.008570 0.009765 0.000000 0.000000 0.000000
# 4 0.000000 0.000000 0.000000 0.029215 0.000000 0.000000
# 5 0.000000 0.000000 0.000000 0.000000 0.013114 0.000000
# 6 0.000000 0.000000 0.000000 0.000000 0.000000 0.042284
#
#
# Mechanical properties :
#
#
# Convention : Reuss Voigt Hill
#
# Bulk Modulus (GPa) = 58.11042 79.11179 68.61111
# Shear Modulus (GPa) = 25.25753 36.95332 31.10542
#
# Velocity S-wave (km/s) = 3.74583 4.53084 4.15691
# Velocity P-wave (km/s) = 7.14074 8.44512 7.82017
#
# Compressibility (1/GPa) = 0.01720862
#
# Stress axis : x y z
#
# Youngs Moduli (GPa) = 51.98347 29.93323 102.40397
#
# Poissons Ratio (x) = 0.33133 0.30323
# Poissons Ratio (y) = 0.57541 0.87765
# Poissons Ratio (z) = 0.15393 0.25654
#
# Static dielectric constant tensor:
#      x y z
#    x 1.630800 0.000000 0.000000 
#    y 0.000000 1.600430 0.000000 
#    z 0.000000 0.000000 1.571470 
# 
# From -- ./inp_files/31485.got.cif
#   From: 2010.05.17/outbox.cif.g08.bks.cpg/sg59_16_cif.got.tgz:31485.got - 2010.06.03 14:40:33.
