data_PCOD9451893
_publ_section_title
;
Structure prediction by ZEFSAII (Michael W. Deem and Ramdas Pophale) SiO2 
 PCOD9451893
Probable space group: P M M N
;
_chemical_formula_sum "Si O2"
_cell_formula_units_Z 48
_cell_length_a 7.811128
_cell_length_b 9.649243
_cell_length_c 31.885021
_cell_angle_alpha 90.000000
_cell_angle_beta 90.000000
_cell_angle_gamma 90.000000
_cell_volume 2403.220973
_symmetry_space_group_name_H-M "P M M N"
_symmetry_group_IT_number 59
_space_group.IT_coordinate_system_code '2'
_symmetry_cell_setting 'orthorhombic'
loop_
_space_group_symop_operation_xyz
x,y,z
1/2-x,1/2-y,z
1/2+x,-y,-z
-x,1/2+y,-z
-x,-y,-z
1/2+x,1/2+y,-z
1/2-x,y,z
x,1/2-y,z
loop_
_atom_site_type_symbol
_atom_site_label
_atom_site_fract_x
_atom_site_fract_y
_atom_site_fract_z
Si Si1 0.545601 0.092059 0.131926
Si Si2 0.455838 0.408301 0.382506
Si Si3 0.956016 0.091900 0.288018
Si Si4 0.543534 0.091987 0.540306
Si Si5 0.460132 0.090864 0.790203
Si Si6 0.453604 0.406843 0.039454
O O1 0.750000 0.100728 0.137291
O O2 0.477045 0.250000 0.134962
O O3 0.513000 0.039708 0.084838
O O4 0.481517 0.992973 0.168691
O O5 0.250000 0.403242 0.385964
O O6 0.520130 0.250000 0.388522
O O7 0.498393 0.451947 0.335154
O O8 0.519977 0.512313 0.418141
O O9 0.750000 0.096411 0.285293
O O10 0.019454 0.250000 0.282003
O O11 0.016499 0.990391 0.251493
O O12 0.750000 0.098624 0.542979
O O13 0.479576 0.250000 0.536901
O O14 0.500000 0.000000 0.500000
O O15 0.250000 0.091098 0.790309
O O16 0.515421 0.250000 0.790581
O O17 0.250000 0.398919 0.041191
O O18 0.523457 0.250000 0.034645
O O19 0.500000 0.500000 0.000000
#
# Coordination Sequence:
#
# PCOD9451893 Si02
#       6
#     8   8   8   8   8   8
#     4   9  17  31  51  72  96 129 166 202 244 295
#     4   9  18  33  51  71  98 131 164 200 246 298
#     4   9  17  30  49  72  97 127 164 203 242 289
#     4  10  21  36  54  76 102 133 169 209 254 304
#     4   9  17  29  47  72  99 126 160 203 247 290
#     4  10  21  36  54  77 104 134 169 209 253 302
#
# _framework density 19.973195
#
# number of rings (size 3 to 8) (size 9 to 14) (size 15 to 20)
#    0.000    2.667    0.000    1.500    0.000    6.000 
#    0.000    4.167    0.000    5.000    0.000    0.000 
#    0.000    0.000    0.000    0.000    0.000    0.000 
#
# Total GULP energy -267866.857844 kJ/mol
# GULP energy per Si atom -5580.559538 kJ/mol
# Density = 1.992774 g / cm^3
# Si number density = 19.973195 Si / 1000 Ang^3
#
#
#
# Elastic Constant Matrix: (Units=GPa)
#
#
# Indices 1 2 3 4 5 6 
#
# 1 23.1189 7.4820 1.0605 0.0000 0.0000 0.0000
# 2 7.4820 142.0218 142.3404 0.0000 0.0000 0.0000
# 3 1.0605 142.3404 221.2380 0.0000 0.0000 0.0000
# 4 0.0000 0.0000 0.0000 37.8960 0.0000 0.0000
# 5 0.0000 0.0000 0.0000 0.0000 25.0547 0.0000
# 6 0.0000 0.0000 0.0000 0.0000 0.0000 12.3638
#
#
#
# Elastic Compliance Matrix: (Units=1/GPa)
#
#
# Indices 1 2 3 4 5 6 
#
# 1 0.045051 -0.006073 0.003691 0.000000 0.000000 0.000000
# 2 -0.006073 0.020643 -0.013252 0.000000 0.000000 0.000000
# 3 0.003691 -0.013252 0.013029 0.000000 0.000000 0.000000
# 4 0.000000 0.000000 0.000000 0.026388 0.000000 0.000000
# 5 0.000000 0.000000 0.000000 0.000000 0.039913 0.000000
# 6 0.000000 0.000000 0.000000 0.000000 0.000000 0.080882
#
#
# Mechanical properties :
#
#
# Convention : Reuss Voigt Hill
#
# Bulk Modulus (GPa) = 21.07276 76.46050 48.76663
# Shear Modulus (GPa) = 18.31563 30.76260 24.53912
#
# Velocity S-wave (km/s) = 3.03150 3.92879 3.50895
# Velocity P-wave (km/s) = 4.77774 7.67758 6.39421
#
# Compressibility (1/GPa) = 0.04745462
#
# Stress axis : x y z
#
# Youngs Moduli (GPa) = 22.19716 48.44230 76.75428
#
# Poissons Ratio (x) = 0.29418 -0.28332
# Poissons Ratio (y) = 0.13480 1.01717
# Poissons Ratio (z) = -0.08193 0.64197
#
# Static dielectric constant tensor:
#      x y z
#    x 1.732650 0.000000 0.000000 
#    y 0.000000 1.698050 0.000000 
#    z 0.000000 0.000000 1.679700 
# 
# From -- ./inp_files/32792.got.cif
#   From: 2010.05.17/outbox.cif.g08.bks.cpg/sg59_17_cif.got.tgz:32792.got - 2010.06.03 14:40:33.
