data_PCOD9451495
_publ_section_title
;
Structure prediction by ZEFSAII (Michael W. Deem and Ramdas Pophale) SiO2 
 PCOD9451495
Probable space group: P M M N
;
_chemical_formula_sum "Si O2"
_cell_formula_units_Z 56
_cell_length_a 7.531436
_cell_length_b 20.511791
_cell_length_c 14.925469
_cell_angle_alpha 90.000000
_cell_angle_beta 90.000000
_cell_angle_gamma 90.000000
_cell_volume 2305.734827
_symmetry_space_group_name_H-M "P M M N"
_symmetry_group_IT_number 59
_space_group.IT_coordinate_system_code '2'
_symmetry_cell_setting 'orthorhombic'
loop_
_space_group_symop_operation_xyz
x,y,z
1/2-x,1/2-y,z
1/2+x,-y,-z
-x,1/2+y,-z
-x,-y,-z
1/2+x,1/2+y,-z
1/2-x,y,z
x,1/2-y,z
loop_
_atom_site_type_symbol
_atom_site_label
_atom_site_fract_x
_atom_site_fract_y
_atom_site_fract_z
Si Si1 0.462255 0.250000 0.632087
Si Si2 0.961415 0.429110 0.466964
Si Si3 0.463836 0.250000 0.425128
Si Si4 0.031529 0.548835 0.170376
Si Si5 0.957927 0.389606 0.652430
Si Si6 0.049110 0.093954 0.108323
Si Si7 0.955337 0.175202 0.939400
Si Si8 0.044261 0.871414 0.701032
O O1 0.250000 0.250000 0.629804
O O2 0.529653 0.250000 0.527985
O O3 0.524369 0.185058 0.681988
O O4 0.750000 0.416569 0.457902
O O5 0.035848 0.388905 0.551492
O O6 0.035342 0.423906 0.367315
O O7 0.000000 0.500000 0.500000
O O8 0.250000 0.250000 0.426906
O O9 0.528198 0.189645 0.365685
O O10 0.250000 0.547242 0.169723
O O11 0.971085 0.561214 0.272889
O O12 0.975262 0.479637 0.126662
O O13 0.971471 0.614572 0.119273
O O14 0.750000 0.404969 0.642205
O O15 0.250000 0.084870 0.075821
O O16 0.960182 0.143109 0.038630
O O17 0.050462 0.128755 0.204904
O O18 0.750000 0.180861 0.912309
O O19 0.028773 0.250000 0.936647
O O20 0.250000 0.882640 0.723474
#
# Coordination Sequence:
#
# PCOD9451495 Si02
#       8
#     4   8   4   8   8   8   8   8
#     4  11  23  37  55  86 123 160 201 251 310 358
#     4  10  21  35  55  84 118 158 201 246 296 352
#     4  11  23  39  59  84 119 164 207 255 312 360
#     4   9  20  39  66  95 120 158 209 256 305 364
#     4  10  20  37  61  86 116 158 206 248 294 359
#     4  11  23  41  65  92 125 161 203 256 313 371
#     4  10  22  41  65  94 124 158 204 255 307 367
#     4  11  23  39  60  88 121 160 207 252 301 364
#
# _framework density 24.287268000000001
#
# number of rings (size 3 to 8) (size 9 to 14) (size 15 to 20)
#    0.000    1.714    1.429    2.571    2.000    3.714 
#    0.000    2.857    0.000    0.000    0.000    0.000 
#    0.000    0.000    0.000    0.000    0.000    0.000 
#
# Total GULP energy -312452.906354 kJ/mol
# GULP energy per Si atom -5579.516185 kJ/mol
# Density = 2.423199 g / cm^3
# Si number density = 24.287268 Si / 1000 Ang^3
#
#
#
# Elastic Constant Matrix: (Units=GPa)
#
#
# Indices 1 2 3 4 5 6 
#
# 1 80.7895 -2.7560 3.3801 0.0000 0.0000 0.0000
# 2 -2.7560 116.6367 0.6431 0.0000 0.0000 0.0000
# 3 3.3801 0.6431 81.9305 0.0000 0.0000 0.0000
# 4 0.0000 0.0000 0.0000 39.0349 0.0000 0.0000
# 5 0.0000 0.0000 0.0000 0.0000 6.6806 0.0000
# 6 0.0000 0.0000 0.0000 0.0000 0.0000 19.3032
#
#
#
# Elastic Compliance Matrix: (Units=1/GPa)
#
#
# Indices 1 2 3 4 5 6 
#
# 1 0.012409 0.000296 -0.000514 0.000000 0.000000 0.000000
# 2 0.000296 0.008581 -0.000080 0.000000 0.000000 0.000000
# 3 -0.000514 -0.000080 0.012227 0.000000 0.000000 0.000000
# 4 0.000000 0.000000 0.000000 0.025618 0.000000 0.000000
# 5 0.000000 0.000000 0.000000 0.000000 0.149688 0.000000
# 6 0.000000 0.000000 0.000000 0.000000 0.000000 0.051805
#
#
# Mechanical properties :
#
#
# Convention : Reuss Voigt Hill
#
# Bulk Modulus (GPa) = 30.65391 31.32121 30.98756
# Shear Modulus (GPa) = 18.39600 31.54304 24.96952
#
# Velocity S-wave (km/s) = 2.75514 3.60772 3.20986
# Velocity P-wave (km/s) = 4.77177 5.50258 5.15016
#
# Compressibility (1/GPa) = 0.03262226
#
# Stress axis : x y z
#
# Youngs Moduli (GPa) = 80.58370 116.53562 81.78412
#
# Poissons Ratio (x) = -0.03450 0.04206
# Poissons Ratio (y) = -0.02386 0.00651
# Poissons Ratio (z) = 0.04144 0.00927
#
# Static dielectric constant tensor:
#      x y z
#    x 1.952490 0.000000 0.000000 
#    y 0.000000 2.072700 0.000000 
#    z 0.000000 0.000000 3.084230 
# 
# From -- ./inp_files/21116.got.cif
#   From: 2010.05.17/outbox.cif.g08.bks.cpg/sg59_11_cif.got.tgz:21116.got - 2010.06.03 14:40:33.
