data_PCOD9451987
_publ_section_title
;
Structure prediction by ZEFSAII (Michael W. Deem and Ramdas Pophale) SiO2 
 PCOD9451987
Probable space group: P M M N
;
_chemical_formula_sum "Si O2"
_cell_formula_units_Z 64
_cell_length_a 8.995405
_cell_length_b 14.769420
_cell_length_c 26.746994
_cell_angle_alpha 90.000000
_cell_angle_beta 90.000000
_cell_angle_gamma 90.000000
_cell_volume 3553.523095
_symmetry_space_group_name_H-M "P M M N"
_symmetry_group_IT_number 59
_space_group.IT_coordinate_system_code '2'
_symmetry_cell_setting 'orthorhombic'
loop_
_space_group_symop_operation_xyz
x,y,z
1/2-x,1/2-y,z
1/2+x,-y,-z
-x,1/2+y,-z
-x,-y,-z
1/2+x,1/2+y,-z
1/2-x,y,z
x,1/2-y,z
loop_
_atom_site_type_symbol
_atom_site_label
_atom_site_fract_x
_atom_site_fract_y
_atom_site_fract_z
Si Si1 0.576019 0.858248 0.126837
Si Si2 0.073050 0.496473 0.313271
Si Si3 0.926787 0.497816 0.945596
Si Si4 0.426523 0.643807 0.231498
Si Si5 0.927771 0.505378 0.421581
Si Si6 0.571049 0.355460 0.503160
Si Si7 0.075041 0.858028 0.759627
Si Si8 0.072789 0.857246 0.874487
O O1 0.750000 0.881270 0.122730
O O2 0.559314 0.750000 0.121522
O O3 0.516080 0.882815 0.181898
O O4 0.484502 0.911115 0.085191
O O5 0.250000 0.495295 0.320543
O O6 0.034074 0.583295 0.279024
O O7 0.993304 0.498912 0.366390
O O8 0.020638 0.411470 0.280377
O O9 0.750000 0.497122 0.949732
O O10 0.982407 0.583354 0.913307
O O11 0.000000 0.500000 0.000000
O O12 0.250000 0.632116 0.221608
O O13 0.453441 0.750000 0.241084
O O14 0.750000 0.513070 0.419997
O O15 0.965202 0.415316 0.454041
O O16 0.995530 0.590901 0.451254
O O17 0.750000 0.358574 0.509468
O O18 0.527209 0.250000 0.499536
O O19 0.250000 0.879906 0.753046
O O20 0.059478 0.750000 0.754233
O O21 0.034092 0.880902 0.816989
O O22 0.250000 0.873155 0.880531
O O23 0.047479 0.750000 0.881019
#
# Coordination Sequence:
#
# PCOD9451987 Si02
#       8
#     8   8   8   8   8   8   8   8
#     4  10  21  38  60  84 110 141 180 227 276 328
#     4  11  22  34  52  81 116 151 184 224 271 315
#     4  12  25  39  57  81 110 144 182 226 275 328
#     4   9  19  36  56  79 109 146 185 221 265 324
#     4  10  21  36  55  82 112 143 182 225 271 325
#     4   9  19  38  61  80 103 140 183 227 276 327
#     4   9  19  36  57  80 108 145 184 221 268 325
#     4   9  19  38  62  85 111 144 181 223 273 328
#
# _framework density 18.010296
#
# number of rings (size 3 to 8) (size 9 to 14) (size 15 to 20)
#    0.000    2.125    0.000    3.750    0.000    7.000 
#    0.000    3.750    0.000    0.000    0.000    0.000 
#    0.000    0.000    0.000    0.000    0.000    0.000 
#
# Total GULP energy -357453.919961 kJ/mol
# GULP energy per Si atom -5585.217499 kJ/mol
# Density = 1.796930 g / cm^3
# Si number density = 18.010296 Si / 1000 Ang^3
#
#
#
# Elastic Constant Matrix: (Units=GPa)
#
#
# Indices 1 2 3 4 5 6 
#
# 1 79.6203 54.5606 81.6722 0.0000 0.0000 0.0000
# 2 54.5606 102.0895 73.9422 0.0000 0.0000 0.0000
# 3 81.6722 73.9422 166.1190 0.0000 0.0000 0.0000
# 4 0.0000 0.0000 0.0000 43.0268 0.0000 0.0000
# 5 0.0000 0.0000 0.0000 0.0000 37.2984 0.0000
# 6 0.0000 0.0000 0.0000 0.0000 0.0000 31.5861
#
#
#
# Elastic Compliance Matrix: (Units=1/GPa)
#
#
# Indices 1 2 3 4 5 6 
#
# 1 0.028840 -0.007591 -0.010800 0.000000 0.000000 0.000000
# 2 -0.007591 0.016454 -0.003592 0.000000 0.000000 0.000000
# 3 -0.010800 -0.003592 0.012929 0.000000 0.000000 0.000000
# 4 0.000000 0.000000 0.000000 0.023241 0.000000 0.000000
# 5 0.000000 0.000000 0.000000 0.000000 0.026811 0.000000
# 6 0.000000 0.000000 0.000000 0.000000 0.000000 0.031659
#
#
# Mechanical properties :
#
#
# Convention : Reuss Voigt Hill
#
# Bulk Modulus (GPa) = 70.14405 85.35320 77.74863
# Shear Modulus (GPa) = 26.50390 31.55918 29.03154
#
# Velocity S-wave (km/s) = 3.84030 4.19057 4.01925
# Velocity P-wave (km/s) = 7.66127 8.42073 8.04996
#
# Compressibility (1/GPa) = 0.01425638
#
# Stress axis : x y z
#
# Youngs Moduli (GPa) = 34.67416 60.77717 77.34792
#
# Poissons Ratio (x) = 0.46133 0.83539
# Poissons Ratio (y) = 0.26320 0.27782
# Poissons Ratio (z) = 0.37450 0.21830
#
# Static dielectric constant tensor:
#      x y z
#    x 1.601150 0.000000 0.000000 
#    y 0.000000 1.618000 0.000000 
#    z 0.000000 0.000000 1.579460 
# 
# From -- ./inp_files/31452.got.cif
#   From: 2010.05.17/outbox.cif.g08.bks.cpg/sg59_16_cif.got.tgz:31452.got - 2010.06.03 14:40:33.
