data_PCOD9451185
_publ_section_title
;
Structure prediction by ZEFSAII (Michael W. Deem and Ramdas Pophale) SiO2 
 PCOD9451185
Probable space group: P M M N
;
_chemical_formula_sum "Si O2"
_cell_formula_units_Z 48
_cell_length_a 8.934959
_cell_length_b 18.312843
_cell_length_c 16.244862
_cell_angle_alpha 90.000000
_cell_angle_beta 90.000000
_cell_angle_gamma 90.000000
_cell_volume 2658.057445
_symmetry_space_group_name_H-M "P M M N"
_symmetry_group_IT_number 59
_space_group.IT_coordinate_system_code '2'
_symmetry_cell_setting 'orthorhombic'
loop_
_space_group_symop_operation_xyz
x,y,z
1/2-x,1/2-y,z
1/2+x,-y,-z
-x,1/2+y,-z
-x,-y,-z
1/2+x,1/2+y,-z
1/2-x,y,z
x,1/2-y,z
loop_
_atom_site_type_symbol
_atom_site_label
_atom_site_fract_x
_atom_site_fract_y
_atom_site_fract_z
Si Si1 0.927122 0.471052 0.365125
Si Si2 0.078060 0.750000 0.379850
Si Si3 0.426461 0.250000 0.792398
Si Si4 0.429347 0.457555 0.186811
Si Si5 0.425224 0.902148 0.467129
Si Si6 0.930283 0.385401 0.887961
Si Si7 0.430405 0.664489 0.927523
O O1 0.750000 0.470394 0.348806
O O2 0.962320 0.412310 0.436821
O O3 0.013696 0.460585 0.280418
O O4 0.976103 0.545807 0.409810
O O5 0.250000 0.750000 0.347410
O O6 0.059072 0.679113 0.435309
O O7 0.967837 0.750000 0.303353
O O8 0.250000 0.250000 0.805657
O O9 0.497331 0.177674 0.832771
O O10 0.250000 0.453896 0.184908
O O11 0.474850 0.533562 0.141566
O O12 0.497135 0.387986 0.140015
O O13 0.250000 0.924406 0.457895
O O14 0.750000 0.380025 0.880382
O O15 0.969695 0.367598 0.982444
O O16 0.250000 0.661790 0.919823
O O17 0.474824 0.750000 0.922263
#
# Coordination Sequence:
#
# PCOD9451185 Si02
#       7
#     8   4   4   8   8   8   8
#     4  10  20  36  57  82 113 148 189 234 280 337
#     4  10  20  36  56  79 108 143 186 229 276 341
#     4  12  24  34  54  89 122 149 184 239 292 337
#     4  11  23  37  59  88 117 151 193 238 284 340
#     4   9  19  36  58  81 108 146 188 234 285 335
#     4  10  21  40  61  82 114 156 194 231 284 346
#     4  10  21  40  63  83 111 152 194 237 287 338
#
# _framework density 18.058301
#
# number of rings (size 3 to 8) (size 9 to 14) (size 15 to 20)
#    0.000    1.833    0.833    3.250    0.000    7.667 
#    1.500    0.000    0.000    0.000    0.000    0.000 
#    0.000    0.000    0.000    0.000    0.000    0.000 
#
# Total GULP energy -268056.021105 kJ/mol
# GULP energy per Si atom -5584.500440 kJ/mol
# Density = 1.801720 g / cm^3
# Si number density = 18.058301 Si / 1000 Ang^3
#
#
#
# Elastic Constant Matrix: (Units=GPa)
#
#
# Indices 1 2 3 4 5 6 
#
# 1 28.3647 36.7370 43.2313 0.0000 0.0000 0.0000
# 2 36.7370 97.2751 83.5756 0.0000 0.0000 0.0000
# 3 43.2313 83.5756 128.4574 0.0000 0.0000 0.0000
# 4 0.0000 0.0000 0.0000 14.5774 0.0000 0.0000
# 5 0.0000 0.0000 0.0000 0.0000 27.3243 0.0000
# 6 0.0000 0.0000 0.0000 0.0000 0.0000 20.9122
#
#
#
# Elastic Compliance Matrix: (Units=1/GPa)
#
#
# Indices 1 2 3 4 5 6 
#
# 1 0.082731 -0.016605 -0.017039 0.000000 0.000000 0.000000
# 2 -0.016605 0.026643 -0.011746 0.000000 0.000000 0.000000
# 3 -0.017039 -0.011746 0.021161 0.000000 0.000000 0.000000
# 4 0.000000 0.000000 0.000000 0.068599 0.000000 0.000000
# 5 0.000000 0.000000 0.000000 0.000000 0.036597 0.000000
# 6 0.000000 0.000000 0.000000 0.000000 0.000000 0.047819
#
#
# Mechanical properties :
#
#
# Convention : Reuss Voigt Hill
#
# Bulk Modulus (GPa) = 25.15401 64.57610 44.86505
# Shear Modulus (GPa) = 12.90053 18.59968 15.75011
#
# Velocity S-wave (km/s) = 2.67569 3.21281 2.95648
# Velocity P-wave (km/s) = 4.84823 7.04275 6.04589
#
# Compressibility (1/GPa) = 0.03975509
#
# Stress axis : x y z
#
# Youngs Moduli (GPa) = 12.08742 37.53386 47.25664
#
# Poissons Ratio (x) = 0.62323 0.80522
# Poissons Ratio (y) = 0.20071 0.55507
# Poissons Ratio (z) = 0.20596 0.44087
#
# Static dielectric constant tensor:
#      x y z
#    x 1.618760 0.000000 0.000000 
#    y 0.000000 1.596710 0.000000 
#    z 0.000000 0.000000 1.598260 
# 
# From -- ./inp_files/20553.got.cif
#   From: 2010.05.17/outbox.cif.g08.bks.cpg/sg59_11_cif.got.tgz:20553.got - 2010.06.03 14:40:33.
