data_PCOD9451085
_publ_section_title
;
Structure prediction by ZEFSAII (Michael W. Deem and Ramdas Pophale) SiO2 
 PCOD9451085
Probable space group: P M M N
;
_chemical_formula_sum "Si O2"
_cell_formula_units_Z 64
_cell_length_a 16.128584
_cell_length_b 7.985358
_cell_length_c 24.385451
_cell_angle_alpha 90.000000
_cell_angle_beta 90.000000
_cell_angle_gamma 90.000000
_cell_volume 3140.663619
_symmetry_space_group_name_H-M "P M M N"
_symmetry_group_IT_number 59
_space_group.IT_coordinate_system_code '2'
_symmetry_cell_setting 'orthorhombic'
loop_
_space_group_symop_operation_xyz
x,y,z
1/2-x,1/2-y,z
1/2+x,-y,-z
-x,1/2+y,-z
-x,-y,-z
1/2+x,1/2+y,-z
1/2-x,y,z
x,1/2-y,z
loop_
_atom_site_type_symbol
_atom_site_label
_atom_site_fract_x
_atom_site_fract_y
_atom_site_fract_z
Si Si1 0.841277 0.450529 0.630449
Si Si2 0.094088 0.452663 0.251592
Si Si3 0.841823 0.548151 0.866462
Si Si4 0.658317 0.950726 0.131146
Si Si5 0.000491 0.050628 0.936802
Si Si6 0.598335 0.450896 0.250436
Si Si7 0.500036 0.047496 0.563336
Si Si8 0.158973 0.048960 0.630597
O O1 0.750000 0.517512 0.616279
O O2 0.839319 0.250000 0.623133
O O3 0.861174 0.485523 0.693910
O O4 0.917419 0.516023 0.594074
O O5 0.095779 0.250000 0.252334
O O6 0.136105 0.509937 0.195123
O O7 0.997888 0.506456 0.251921
O O8 0.750000 0.488285 0.882674
O O9 0.839472 0.750000 0.864752
O O10 0.916223 0.501605 0.906590
O O11 0.750000 0.016246 0.116522
O O12 0.660216 0.750000 0.123758
O O13 0.581369 0.018148 0.095424
O O14 0.640030 0.985383 0.194901
O O15 0.005019 0.250000 0.933851
O O16 0.000000 0.000000 0.000000
O O17 0.599812 0.250000 0.249284
O O18 0.641952 0.510463 0.305788
O O19 0.499973 0.250000 0.567489
O O20 0.417810 0.984404 0.594610
O O21 0.500000 0.000000 0.500000
O O22 0.250000 0.984019 0.614723
O O23 0.160134 0.250000 0.624481
#
# Coordination Sequence:
#
# PCOD9451085 Si02
#       8
#     8   8   8   8   8   8   8   8
#     4  10  21  37  58  84 113 147 186 229 280 336
#     4  10  20  35  58  87 119 152 186 227 282 342
#     4  10  21  39  62  87 119 157 193 234 289 348
#     4  10  22  40  61  85 115 154 194 232 283 346
#     4  11  24  41  62  86 116 153 199 247 291 341
#     4  11  21  34  58  90 120 148 184 232 284 336
#     4  10  22  39  57  79 109 145 189 236 280 329
#     4  10  21  38  59  82 112 151 189 225 275 341
#
# _framework density 20.377860999999999
#
# number of rings (size 3 to 8) (size 9 to 14) (size 15 to 20)
#    0.000    1.750    2.500    1.500    0.000    6.500 
#    0.000    1.250    0.000    0.000    0.000    0.000 
#    0.000    0.000    0.000    0.000    0.000    0.000 
#
# Total GULP energy -357599.491744 kJ/mol
# GULP energy per Si atom -5587.492059 kJ/mol
# Density = 2.033148 g / cm^3
# Si number density = 20.377861 Si / 1000 Ang^3
#
#
#
# Elastic Constant Matrix: (Units=GPa)
#
#
# Indices 1 2 3 4 5 6 
#
# 1 234.8866 18.6800 105.0479 0.0000 0.0000 0.0000
# 2 18.6800 14.0920 -2.8685 0.0000 0.0000 0.0000
# 3 105.0479 -2.8685 158.2002 0.0000 0.0000 0.0000
# 4 0.0000 0.0000 0.0000 30.8305 0.0000 0.0000
# 5 0.0000 0.0000 0.0000 0.0000 -16.4912 0.0000
# 6 0.0000 0.0000 0.0000 0.0000 0.0000 16.5778
#
#
#
# Elastic Compliance Matrix: (Units=1/GPa)
#
#
# Indices 1 2 3 4 5 6 
#
# 1 0.007410 -0.010864 -0.005117 0.000000 0.000000 0.000000
# 2 -0.010864 0.087154 0.008794 0.000000 0.000000 0.000000
# 3 -0.005117 0.008794 0.009879 0.000000 0.000000 0.000000
# 4 0.000000 0.000000 0.000000 0.032435 0.000000 0.000000
# 5 0.000000 0.000000 0.000000 0.000000 -0.060638 0.000000
# 6 0.000000 0.000000 0.000000 0.000000 0.000000 0.060322
#
#
# Mechanical properties :
#
#
# Convention : Reuss Voigt Hill
#
# Bulk Modulus (GPa) = 11.10275 72.09973 41.60124
# Shear Modulus (GPa) = 27.63068 25.27137 26.45103
#
# Velocity S-wave (km/s) = 3.68627 3.52538 3.60672
# Velocity P-wave (km/s) = 4.85576 7.21313 6.14848
#
# Compressibility (1/GPa) = 0.09006779
#
# Stress axis : x y z
#
# Youngs Moduli (GPa) = 134.95238 11.47398 101.22889
#
# Poissons Ratio (x) = 0.12466 0.51803
# Poissons Ratio (y) = 1.46615 -0.89024
# Poissons Ratio (z) = 0.69060 -0.10091
#
# Static dielectric constant tensor:
#      x y z
#    x 1.752090 0.000000 0.000000 
#    y 0.000000 1.729840 0.000000 
#    z 0.000000 0.000000 1.641060 
# 
# From -- ./inp_files/32204.got.cif
#   From: 2010.05.17/outbox.cif.g08.bks.cpg/sg59_17_cif.got.tgz:32204.got - 2010.06.03 14:40:33.
