data_PCOD9451325
_publ_section_title
;
Structure prediction by ZEFSAII (Michael W. Deem and Ramdas Pophale) SiO2 
 PCOD9451325
Probable space group: P M M N
;
_chemical_formula_sum "Si O2"
_cell_formula_units_Z 40
_cell_length_a 18.598811
_cell_length_b 8.043184
_cell_length_c 12.669942
_cell_angle_alpha 90.000000
_cell_angle_beta 90.000000
_cell_angle_gamma 90.000000
_cell_volume 1895.342984
_symmetry_space_group_name_H-M "P M M N"
_symmetry_group_IT_number 59
_space_group.IT_coordinate_system_code '2'
_symmetry_cell_setting 'orthorhombic'
loop_
_space_group_symop_operation_xyz
x,y,z
1/2-x,1/2-y,z
1/2+x,-y,-z
-x,1/2+y,-z
-x,-y,-z
1/2+x,1/2+y,-z
1/2-x,y,z
x,1/2-y,z
loop_
_atom_site_type_symbol
_atom_site_label
_atom_site_fract_x
_atom_site_fract_y
_atom_site_fract_z
Si Si1 0.669165 0.444768 0.513180
Si Si2 0.076916 0.049464 0.047829
Si Si3 0.592133 0.944141 0.713109
Si Si4 0.063649 0.444914 0.664352
Si Si5 0.831265 0.546919 0.148277
O O1 0.750000 0.508351 0.493872
O O2 0.667333 0.250000 0.486739
O O3 0.646832 0.467339 0.634532
O O4 0.610226 0.533042 0.440710
O O5 0.078166 0.250000 0.052039
O O6 0.088352 0.988998 0.167161
O O7 0.137553 0.995004 0.964877
O O8 0.000000 0.000000 0.000000
O O9 0.611565 0.750000 0.716530
O O10 0.512045 0.962934 0.665679
O O11 0.047964 0.250000 0.680264
O O12 0.113696 0.505931 0.760684
O O13 0.750000 0.489800 0.166705
O O14 0.830512 0.750000 0.150607
#
# Coordination Sequence:
#
# PCOD9451325 Si02
#       5
#     8   8   8   8   8
#     4  11  25  43  61  84 119 158 197 247 303 358
#     4  10  20  36  59  86 118 155 194 241 289 345
#     4  11  23  38  61  90 120 158 202 246 293 352
#     4  11  21  37  63  89 118 156 198 248 297 354
#     4   9  18  33  56  87 118 151 192 239 294 349
#
# _framework density 21.104358999999999
#
# number of rings (size 3 to 8) (size 9 to 14) (size 15 to 20)
#    0.000    1.600    2.000    3.000    0.000    4.000 
#    0.000    2.000    0.000    1.800    0.000    0.000 
#    0.000    0.000    0.000    0.000    0.000    0.000 
#
# Total GULP energy -223623.157793 kJ/mol
# GULP energy per Si atom -5590.578945 kJ/mol
# Density = 2.105632 g / cm^3
# Si number density = 21.104359 Si / 1000 Ang^3
#
#
#
# Elastic Constant Matrix: (Units=GPa)
#
#
# Indices 1 2 3 4 5 6 
#
# 1 46.9386 -5.5183 -3.0937 0.0000 0.0000 0.0000
# 2 -5.5183 23.8453 -4.7258 0.0000 0.0000 0.0000
# 3 -3.0937 -4.7258 96.5217 0.0000 0.0000 0.0000
# 4 0.0000 0.0000 0.0000 15.8849 0.0000 0.0000
# 5 0.0000 0.0000 0.0000 0.0000 16.3076 0.0000
# 6 0.0000 0.0000 0.0000 0.0000 0.0000 -0.9077
#
#
#
# Elastic Compliance Matrix: (Units=1/GPa)
#
#
# Indices 1 2 3 4 5 6 
#
# 1 0.021989 0.005279 0.000963 0.000000 0.000000 0.000000
# 2 0.005279 0.043616 0.002305 0.000000 0.000000 0.000000
# 3 0.000963 0.002305 0.010504 0.000000 0.000000 0.000000
# 4 0.000000 0.000000 0.000000 0.062953 0.000000 0.000000
# 5 0.000000 0.000000 0.000000 0.000000 0.061321 0.000000
# 6 0.000000 0.000000 0.000000 0.000000 0.000000 -1.101684
#
#
# Mechanical properties :
#
#
# Convention : Reuss Voigt Hill
#
# Bulk Modulus (GPa) = 10.72926 15.62557 13.17741
# Shear Modulus (GPa) = -5.63489 18.29986 6.33249
#
# Velocity S-wave (km/s) = -1.63579 2.94787 1.73409
# Velocity P-wave (km/s) = 1.23580 4.35966 3.20420
#
# Compressibility (1/GPa) = 0.09320310
#
# Stress axis : x y z
#
# Youngs Moduli (GPa) = 45.47810 22.92759 95.20114
#
# Poissons Ratio (x) = -0.12105 -0.09170
# Poissons Ratio (y) = -0.24010 -0.21941
# Poissons Ratio (z) = -0.04381 -0.05284
#
# Static dielectric constant tensor:
#      x y z
#    x 1.722600 0.000000 0.000000 
#    y 0.000000 1.732650 0.000000 
#    z 0.000000 0.000000 1.772560 
# 
# From -- ./inp_files/13849.got.cif
#   From: 2010.05.17/outbox.cif.g08.bks.cpg/sg59_7_cif.got.tgz:13849.got - 2010.06.03 14:40:33.
