data_PCOD9451659
_publ_section_title
;
Structure prediction by ZEFSAII (Michael W. Deem and Ramdas Pophale) SiO2 
 PCOD9451659
Probable space group: P M M N
;
_chemical_formula_sum "Si O2"
_cell_formula_units_Z 32
_cell_length_a 25.893239
_cell_length_b 8.536412
_cell_length_c 5.646916
_cell_angle_alpha 90.000000
_cell_angle_beta 90.000000
_cell_angle_gamma 90.000000
_cell_volume 1248.168089
_symmetry_space_group_name_H-M "P M M N"
_symmetry_group_IT_number 59
_space_group.IT_coordinate_system_code '2'
_symmetry_cell_setting 'orthorhombic'
loop_
_space_group_symop_operation_xyz
x,y,z
1/2-x,1/2-y,z
1/2+x,-y,-z
-x,1/2+y,-z
-x,-y,-z
1/2+x,1/2+y,-z
1/2-x,y,z
x,1/2-y,z
loop_
_atom_site_type_symbol
_atom_site_label
_atom_site_fract_x
_atom_site_fract_y
_atom_site_fract_z
Si Si1 0.657051 0.926132 0.284023
Si Si2 0.092371 0.575448 0.339787
Si Si3 0.250000 0.413579 0.351358
Si Si4 0.009590 0.250000 0.672183
Si Si5 0.750000 0.414720 0.047611
Si Si6 0.571846 0.750000 0.833271
O O1 0.639979 0.750000 0.225086
O O2 0.612376 0.032251 0.396445
O O3 0.696079 0.001012 0.098921
O O4 0.698743 0.909087 0.495758
O O5 0.113872 0.750000 0.271224
O O6 0.031054 0.606105 0.332778
O O7 0.101336 0.418692 0.183864
O O8 0.250000 0.250000 0.203489
O O9 0.250000 0.580376 0.231461
O O10 0.042581 0.250000 0.427961
O O11 0.037042 0.250000 0.929674
O O12 0.750000 0.250000 0.170718
#
# Coordination Sequence:
#
# PCOD9451659 Si02
#       6
#     8   8   4   4   4   4
#     4  10  20  42  63  90 130 169 217 271 325 392
#     4  10  23  40  68  98 130 174 228 281 337 414
#     4   9  20  38  63  87 123 173 216 260 327 389
#     4  10  26  44  76  95 142 177 232 282 352 408
#     4  11  22  36  61  91 131 171 216 267 326 394
#     4  12  22  52  66 103 136 185 222 290 352 404
#
# _framework density 25.637574000000001
#
# number of rings (size 3 to 8) (size 9 to 14) (size 15 to 20)
#    0.750    1.000    1.250    4.125    0.000    3.000 
#    9.000    0.000    0.000    0.000    0.000    0.000 
#    0.000    0.000    0.000    0.000    0.000    0.000 
#
# Total GULP energy -178364.838835 kJ/mol
# GULP energy per Si atom -5573.901214 kJ/mol
# Density = 2.557922 g / cm^3
# Si number density = 25.637574 Si / 1000 Ang^3
#
#
#
# Elastic Constant Matrix: (Units=GPa)
#
#
# Indices 1 2 3 4 5 6 
#
# 1 84.7036 37.3522 28.8360 0.0000 0.0000 0.0000
# 2 37.3522 203.0812 41.8090 0.0000 0.0000 0.0000
# 3 28.8360 41.8090 71.2890 0.0000 0.0000 0.0000
# 4 0.0000 0.0000 0.0000 22.1303 0.0000 0.0000
# 5 0.0000 0.0000 0.0000 0.0000 41.1683 0.0000
# 6 0.0000 0.0000 0.0000 0.0000 0.0000 24.0642
#
#
#
# Elastic Compliance Matrix: (Units=1/GPa)
#
#
# Indices 1 2 3 4 5 6 
#
# 1 0.014144 -0.001619 -0.004772 0.000000 0.000000 0.000000
# 2 -0.001619 0.005786 -0.002738 0.000000 0.000000 0.000000
# 3 -0.004772 -0.002738 0.017563 0.000000 0.000000 0.000000
# 4 0.000000 0.000000 0.000000 0.045187 0.000000 0.000000
# 5 0.000000 0.000000 0.000000 0.000000 0.024291 0.000000
# 6 0.000000 0.000000 0.000000 0.000000 0.000000 0.041556
#
#
# Mechanical properties :
#
#
# Convention : Reuss Voigt Hill
#
# Bulk Modulus (GPa) = 51.98778 63.89647 57.94213
# Shear Modulus (GPa) = 28.86898 34.21100 31.53999
#
# Velocity S-wave (km/s) = 3.35930 3.65692 3.51126
# Velocity P-wave (km/s) = 5.94714 6.54277 6.25205
#
# Compressibility (1/GPa) = 0.01923529
#
# Stress axis : x y z
#
# Youngs Moduli (GPa) = 70.69971 172.84094 56.93658
#
# Poissons Ratio (x) = 0.27986 0.27168
# Poissons Ratio (y) = 0.11447 0.15590
# Poissons Ratio (z) = 0.33736 0.47327
#
# Static dielectric constant tensor:
#      x y z
#    x 2.089000 0.000000 0.000000 
#    y 0.000000 2.173120 0.000000 
#    z 0.000000 0.000000 2.099190 
# 
# From -- ./inp_files/4447.got.cif
#   From: 2010.05.17/outbox.cif.g08.bks.cpg/sg59_3_cif.got.tgz:4447.got - 2010.06.03 14:40:33.
