data_PCOD9451836
_publ_section_title
;
Structure prediction by ZEFSAII (Michael W. Deem and Ramdas Pophale) SiO2 
 PCOD9451836
Probable space group: P M M N
;
_chemical_formula_sum "Si O2"
_cell_formula_units_Z 56
_cell_length_a 14.182189
_cell_length_b 9.243873
_cell_length_c 21.811813
_cell_angle_alpha 90.000000
_cell_angle_beta 90.000000
_cell_angle_gamma 90.000000
_cell_volume 2859.492782
_symmetry_space_group_name_H-M "P M M N"
_symmetry_group_IT_number 59
_space_group.IT_coordinate_system_code '2'
_symmetry_cell_setting 'orthorhombic'
loop_
_space_group_symop_operation_xyz
x,y,z
1/2-x,1/2-y,z
1/2+x,-y,-z
-x,1/2+y,-z
-x,-y,-z
1/2+x,1/2+y,-z
1/2-x,y,z
x,1/2-y,z
loop_
_atom_site_type_symbol
_atom_site_label
_atom_site_fract_x
_atom_site_fract_y
_atom_site_fract_z
Si Si1 0.357443 0.076682 0.590105
Si Si2 0.864044 0.416599 0.899692
Si Si3 0.135028 0.415408 0.978663
Si Si4 0.636682 0.417072 0.533912
Si Si5 0.358632 0.921098 0.853933
Si Si6 0.545025 0.578526 0.785438
Si Si7 0.038677 0.923713 0.339547
O O1 0.250000 0.029199 0.602084
O O2 0.358107 0.250000 0.583703
O O3 0.430495 0.040103 0.643432
O O4 0.389979 0.009129 0.525600
O O5 0.750000 0.417494 0.899743
O O6 0.895296 0.250000 0.896249
O O7 0.896097 0.490975 0.963041
O O8 0.899716 0.506193 0.841621
O O9 0.250000 0.413357 0.980759
O O10 0.102201 0.250000 0.982872
O O11 0.112320 0.488582 0.913841
O O12 0.750000 0.421675 0.537726
O O13 0.607268 0.250000 0.524638
O O14 0.595576 0.464691 0.599065
O O15 0.250000 0.956376 0.838052
O O16 0.362068 0.750000 0.869423
O O17 0.434341 0.946696 0.800890
O O18 0.561967 0.750000 0.783982
O O19 0.569803 0.504978 0.721248
O O20 0.047664 0.750000 0.331243
#
# Coordination Sequence:
#
# PCOD9451836 Si02
#       7
#     8   8   8   8   8   8   8
#     4   9  18  33  54  80 107 135 170 214 263 311
#     4  10  21  38  59  80 106 142 179 218 269 326
#     4   9  17  31  55  85 110 134 172 223 273 318
#     4   9  18  33  54  79 104 132 169 212 258 310
#     4   9  19  37  57  77 106 142 179 221 270 323
#     4  11  24  38  54  79 108 142 185 227 266 312
#     4  10  21  36  52  73 106 143 176 213 259 315
#
# _framework density 19.583893
#
# number of rings (size 3 to 8) (size 9 to 14) (size 15 to 20)
#    0.000    2.429    0.000    1.714    0.000    6.571 
#    0.000    1.429    0.000    0.000    0.000    0.000 
#    0.000    0.000    0.000    0.000    0.000    0.000 
#
# Total GULP energy -312739.119407 kJ/mol
# GULP energy per Si atom -5584.627132 kJ/mol
# Density = 1.953932 g / cm^3
# Si number density = 19.583893 Si / 1000 Ang^3
#
#
#
# Elastic Constant Matrix: (Units=GPa)
#
#
# Indices 1 2 3 4 5 6 
#
# 1 26.0498 6.6242 -6.2777 0.0000 0.0000 0.0000
# 2 6.6242 47.9868 27.7766 0.0000 0.0000 0.0000
# 3 -6.2777 27.7766 74.2636 0.0000 0.0000 0.0000
# 4 0.0000 0.0000 0.0000 30.0925 0.0000 0.0000
# 5 0.0000 0.0000 0.0000 0.0000 20.5078 0.0000
# 6 0.0000 0.0000 0.0000 0.0000 0.0000 20.2881
#
#
#
# Elastic Compliance Matrix: (Units=1/GPa)
#
#
# Indices 1 2 3 4 5 6 
#
# 1 0.042775 -0.010208 0.007434 0.000000 0.000000 0.000000
# 2 -0.010208 0.029033 -0.011722 0.000000 0.000000 0.000000
# 3 0.007434 -0.011722 0.018478 0.000000 0.000000 0.000000
# 4 0.000000 0.000000 0.000000 0.033231 0.000000 0.000000
# 5 0.000000 0.000000 0.000000 0.000000 0.048762 0.000000
# 6 0.000000 0.000000 0.000000 0.000000 0.000000 0.049290
#
#
# Mechanical properties :
#
#
# Convention : Reuss Voigt Hill
#
# Bulk Modulus (GPa) = 16.31458 22.72739 19.52099
# Shear Modulus (GPa) = 18.45062 22.18949 20.32006
#
# Velocity S-wave (km/s) = 3.07275 3.36973 3.22466
# Velocity P-wave (km/s) = 4.57578 5.17402 4.88406
#
# Compressibility (1/GPa) = 0.06129485
#
# Stress axis : x y z
#
# Youngs Moduli (GPa) = 23.37799 34.44308 54.11735
#
# Poissons Ratio (x) = 0.35159 -0.40230
# Poissons Ratio (y) = 0.23864 0.63437
# Poissons Ratio (z) = -0.17379 0.40375
#
# Static dielectric constant tensor:
#      x y z
#    x 1.743460 0.000000 0.000000 
#    y 0.000000 1.659520 0.000000 
#    z 0.000000 0.000000 1.626070 
# 
# From -- ./inp_files/29048.got.cif
#   From: 2010.05.17/outbox.cif.g08.bks.cpg/sg59_15_cif.got.tgz:29048.got - 2010.06.03 14:40:33.
