data_PCOD9451461
_publ_section_title
;
Structure prediction by ZEFSAII (Michael W. Deem and Ramdas Pophale) SiO2 
 PCOD9451461
Probable space group: P M M N
;
_chemical_formula_sum "Si O2"
_cell_formula_units_Z 48
_cell_length_a 16.368965
_cell_length_b 8.579440
_cell_length_c 18.516352
_cell_angle_alpha 90.000000
_cell_angle_beta 90.000000
_cell_angle_gamma 90.000000
_cell_volume 2600.372650
_symmetry_space_group_name_H-M "P M M N"
_symmetry_group_IT_number 59
_space_group.IT_coordinate_system_code '2'
_symmetry_cell_setting 'orthorhombic'
loop_
_space_group_symop_operation_xyz
x,y,z
1/2-x,1/2-y,z
1/2+x,-y,-z
-x,1/2+y,-z
-x,-y,-z
1/2+x,1/2+y,-z
1/2-x,y,z
x,1/2-y,z
loop_
_atom_site_type_symbol
_atom_site_label
_atom_site_fract_x
_atom_site_fract_y
_atom_site_fract_z
Si Si1 0.585890 0.937923 0.968661
Si Si2 0.161218 0.562639 0.332884
Si Si3 0.001843 0.562375 0.419070
Si Si4 0.750000 0.564599 0.208627
Si Si5 0.750000 0.436256 0.045862
Si Si6 0.424480 0.062732 0.198189
Si Si7 0.911305 0.437138 0.284062
O O1 0.585944 0.750000 0.973188
O O2 0.587364 0.984738 0.884294
O O3 0.500000 0.000000 0.000000
O O4 0.666878 0.000318 0.008677
O O5 0.250000 0.506163 0.356281
O O6 0.160798 0.750000 0.334353
O O7 0.141505 0.508494 0.252125
O O8 0.087535 0.509437 0.383433
O O9 0.997783 0.750000 0.418984
O O10 0.933781 0.496793 0.364142
O O11 0.000000 0.500000 0.500000
O O12 0.750000 0.750000 0.200305
O O13 0.750000 0.487830 0.129413
O O14 0.829677 0.510184 0.252230
O O15 0.750000 0.250000 0.041316
O O16 0.419213 0.250000 0.201506
O O17 0.512865 0.018584 0.231373
O O18 0.904967 0.250000 0.284653
#
# Coordination Sequence:
#
# PCOD9451461 Si02
#       7
#     8   8   8   4   4   8   8
#     4  11  23  40  60  87 121 158 201 253 310 365
#     4   9  19  35  56  83 111 145 188 232 282 341
#     4  10  20  37  59  84 119 155 193 240 290 345
#     4  12  24  40  62  88 117 150 197 252 300 354
#     4  12  26  42  60  86 121 164 209 256 308 364
#     4   9  20  36  57  82 113 149 190 237 288 347
#     4  10  20  38  62  88 116 155 197 238 294 357
#
# _framework density 18.458893
#
# number of rings (size 3 to 8) (size 9 to 14) (size 15 to 20)
#    0.000    1.833    0.000    4.000    1.167    4.333 
#    1.500    0.000    0.000    0.000    0.000    0.000 
#    0.000    0.000    0.000    0.000    0.000    0.000 
#
# Total GULP energy -268067.344616 kJ/mol
# GULP energy per Si atom -5584.736346 kJ/mol
# Density = 1.841688 g / cm^3
# Si number density = 18.458893 Si / 1000 Ang^3
#
#
#
# Elastic Constant Matrix: (Units=GPa)
#
#
# Indices 1 2 3 4 5 6 
#
# 1 131.4402 36.5147 73.1013 0.0000 0.0000 0.0000
# 2 36.5147 63.4452 39.4664 0.0000 0.0000 0.0000
# 3 73.1013 39.4664 166.3367 0.0000 0.0000 0.0000
# 4 0.0000 0.0000 0.0000 32.8524 0.0000 0.0000
# 5 0.0000 0.0000 0.0000 0.0000 14.6671 0.0000
# 6 0.0000 0.0000 0.0000 0.0000 0.0000 27.6658
#
#
#
# Elastic Compliance Matrix: (Units=1/GPa)
#
#
# Indices 1 2 3 4 5 6 
#
# 1 0.010809 -0.003831 -0.003841 0.000000 0.000000 0.000000
# 2 -0.003831 0.019849 -0.003026 0.000000 0.000000 0.000000
# 3 -0.003841 -0.003026 0.008418 0.000000 0.000000 0.000000
# 4 0.000000 0.000000 0.000000 0.030439 0.000000 0.000000
# 5 0.000000 0.000000 0.000000 0.000000 0.068180 0.000000
# 6 0.000000 0.000000 0.000000 0.000000 0.000000 0.036146
#
#
# Mechanical properties :
#
#
# Convention : Reuss Voigt Hill
#
# Bulk Modulus (GPa) = 56.56405 73.26521 64.91463
# Shear Modulus (GPa) = 24.85964 29.17970 27.01967
#
# Velocity S-wave (km/s) = 3.67380 3.98023 3.83008
# Velocity P-wave (km/s) = 6.97893 7.80386 7.40289
#
# Compressibility (1/GPa) = 0.01767907
#
# Stress axis : x y z
#
# Youngs Moduli (GPa) = 92.51860 50.38078 118.79460
#
# Poissons Ratio (x) = 0.19302 0.45630
# Poissons Ratio (y) = 0.35447 0.35944
# Poissons Ratio (z) = 0.35537 0.15244
#
# Static dielectric constant tensor:
#      x y z
#    x 1.635490 0.000000 0.000000 
#    y 0.000000 1.628330 0.000000 
#    z 0.000000 0.000000 1.609860 
# 
# From -- ./inp_files/27435.got.cif
#   From: 2010.05.17/outbox.cif.g08.bks.cpg/sg59_14_cif.got.tgz:27435.got - 2010.06.03 14:40:33.
