data_PCOD9451822
_publ_section_title
;
Structure prediction by ZEFSAII (Michael W. Deem and Ramdas Pophale) SiO2 
 PCOD9451822
Probable space group: P M M N
;
_chemical_formula_sum "Si O2"
_cell_formula_units_Z 48
_cell_length_a 20.626230
_cell_length_b 21.492586
_cell_length_c 5.103842
_cell_angle_alpha 90.000000
_cell_angle_beta 90.000000
_cell_angle_gamma 90.000000
_cell_volume 2262.589414
_symmetry_space_group_name_H-M "P M M N"
_symmetry_group_IT_number 59
_space_group.IT_coordinate_system_code '2'
_symmetry_cell_setting 'orthorhombic'
loop_
_space_group_symop_operation_xyz
x,y,z
1/2-x,1/2-y,z
1/2+x,-y,-z
-x,1/2+y,-z
-x,-y,-z
1/2+x,1/2+y,-z
1/2-x,y,z
x,1/2-y,z
loop_
_atom_site_type_symbol
_atom_site_label
_atom_site_fract_x
_atom_site_fract_y
_atom_site_fract_z
Si Si1 0.674083 0.364899 0.867253
Si Si2 0.322858 0.490669 0.258708
Si Si3 0.906975 0.150488 0.351273
Si Si4 0.436811 0.507966 0.670716
Si Si5 0.552361 0.821130 0.521662
Si Si6 0.902753 0.600972 0.019591
O O1 0.750000 0.349532 0.893788
O O2 0.669633 0.441297 0.878811
O O3 0.645185 0.348897 0.583796
O O4 0.630069 0.331059 0.085696
O O5 0.250000 0.488883 0.363589
O O6 0.375092 0.487571 0.492396
O O7 0.335573 0.432456 0.064712
O O8 0.973707 0.179382 0.459064
O O9 0.927808 0.080159 0.282882
O O10 0.500000 0.500000 0.500000
O O11 0.441885 0.462276 0.916502
O O12 0.574744 0.750000 0.524909
O O13 0.582739 0.856531 0.272093
O O14 0.574445 0.858838 0.775925
#
# Coordination Sequence:
#
# PCOD9451822 Si02
#       6
#     8   8   8   8   8   8
#     4  10  21  35  57  93 132 164 195 240 309 389
#     4  10  22  37  60  97 135 166 200 250 321 399
#     4  11  21  36  61  87 127 164 198 255 314 380
#     4  11  21  36  64 100 132 163 207 257 331 388
#     4  12  27  43  63  89 120 164 219 271 319 364
#     4  12  22  42  64  92 123 165 203 265 316 382
#
# _framework density 21.214628999999999
#
# number of rings (size 3 to 8) (size 9 to 14) (size 15 to 20)
#    0.000    1.000    5.000    2.000    2.333    2.667 
#    0.000    0.000    0.000    6.000    0.000    0.000 
#    0.000    0.000    0.000    0.000    0.000    0.000 
#
# Total GULP energy -267980.780389 kJ/mol
# GULP energy per Si atom -5582.932925 kJ/mol
# Density = 2.116634 g / cm^3
# Si number density = 21.214629 Si / 1000 Ang^3
#
#
#
# Elastic Constant Matrix: (Units=GPa)
#
#
# Indices 1 2 3 4 5 6 
#
# 1 89.3076 7.8229 17.8171 0.0000 0.0000 0.0000
# 2 7.8229 76.8986 26.0283 0.0000 0.0000 0.0000
# 3 17.8171 26.0283 111.3046 0.0000 0.0000 0.0000
# 4 0.0000 0.0000 0.0000 0.4372 0.0000 0.0000
# 5 0.0000 0.0000 0.0000 0.0000 27.6369 0.0000
# 6 0.0000 0.0000 0.0000 0.0000 0.0000 3.9989
#
#
#
# Elastic Compliance Matrix: (Units=1/GPa)
#
#
# Indices 1 2 3 4 5 6 
#
# 1 0.011592 -0.000599 -0.001716 0.000000 0.000000 0.000000
# 2 -0.000599 0.014153 -0.003214 0.000000 0.000000 0.000000
# 3 -0.001716 -0.003214 0.010011 0.000000 0.000000 0.000000
# 4 0.000000 0.000000 0.000000 2.287466 0.000000 0.000000
# 5 0.000000 0.000000 0.000000 0.000000 0.036183 0.000000
# 6 0.000000 0.000000 0.000000 0.000000 0.000000 0.250071
#
#
# Mechanical properties :
#
#
# Convention : Reuss Voigt Hill
#
# Bulk Modulus (GPa) = 40.48686 42.31638 41.40162
# Shear Modulus (GPa) = 1.90203 21.47077 11.68640
#
# Velocity S-wave (km/s) = 0.94790 3.18476 2.34960
# Velocity P-wave (km/s) = 4.50820 5.78910 5.18833
#
# Compressibility (1/GPa) = 0.02469937
#
# Stress axis : x y z
#
# Youngs Moduli (GPa) = 86.26677 70.65737 99.89501
#
# Poissons Ratio (x) = 0.04229 0.17138
# Poissons Ratio (y) = 0.05164 0.32104
# Poissons Ratio (z) = 0.14800 0.22708
#
# Static dielectric constant tensor:
#      x y z
#    x 1.817460 0.000000 0.000000 
#    y 0.000000 1.770120 0.000000 
#    z 0.000000 0.000000 1.809520 
# 
# From -- ./inp_files/2853.got.cif
#   From: 2010.05.17/outbox.cif.g08.bks.cpg/sg59_2_cif.got.tgz:2853.got - 2010.06.03 14:40:33.
