data_PCOD9451158
_publ_section_title
;
Structure prediction by ZEFSAII (Michael W. Deem and Ramdas Pophale) SiO2 
 PCOD9451158
Probable space group: P M M N
;
_chemical_formula_sum "Si O2"
_cell_formula_units_Z 64
_cell_length_a 8.595928
_cell_length_b 24.553450
_cell_length_c 17.010751
_cell_angle_alpha 90.000000
_cell_angle_beta 90.000000
_cell_angle_gamma 90.000000
_cell_volume 3590.283805
_symmetry_space_group_name_H-M "P M M N"
_symmetry_group_IT_number 59
_space_group.IT_coordinate_system_code '2'
_symmetry_cell_setting 'orthorhombic'
loop_
_space_group_symop_operation_xyz
x,y,z
1/2-x,1/2-y,z
1/2+x,-y,-z
-x,1/2+y,-z
-x,-y,-z
1/2+x,1/2+y,-z
1/2-x,y,z
x,1/2-y,z
loop_
_atom_site_type_symbol
_atom_site_label
_atom_site_fract_x
_atom_site_fract_y
_atom_site_fract_z
Si Si1 0.562937 0.187875 0.271339
Si Si2 0.937106 0.313299 0.620829
Si Si3 0.571631 0.683947 0.896581
Si Si4 0.435348 0.978403 0.310529
Si Si5 0.935626 0.085140 0.369207
Si Si6 0.567314 0.584805 0.459091
Si Si7 0.938685 0.126043 0.781126
Si Si8 0.437805 0.686542 0.063483
O O1 0.750000 0.189576 0.274249
O O2 0.505648 0.250000 0.284612
O O3 0.514027 0.169347 0.184011
O O4 0.510786 0.143062 0.334162
O O5 0.750000 0.320740 0.611129
O O6 0.972441 0.250000 0.610963
O O7 0.977706 0.333835 0.708710
O O8 0.025075 0.352743 0.561224
O O9 0.750000 0.666286 0.892901
O O10 0.567418 0.750000 0.898599
O O11 0.495769 0.666611 0.978680
O O12 0.250000 0.985460 0.304597
O O13 0.475369 0.949968 0.393973
O O14 0.488327 0.934406 0.245193
O O15 0.518377 0.036372 0.310827
O O16 0.750000 0.086444 0.379561
O O17 0.013571 0.073301 0.452847
O O18 0.750000 0.574369 0.449919
O O19 0.750000 0.124874 0.784421
O O20 0.994221 0.150120 0.863627
O O21 0.250000 0.686061 0.063146
O O22 0.485533 0.750000 0.074604
#
# Coordination Sequence:
#
# PCOD9451158 Si02
#       8
#     8   8   8   8   8   8   8   8
#     4   9  19  36  56  76  98 126 160 198 243 297
#     4   9  17  31  50  71 100 137 172 206 249 299
#     4   9  17  29  46  71 103 133 159 193 240 289
#     4  10  20  36  55  74  99 131 168 208 251 295
#     4  11  22  36  55  77  98 123 161 207 253 301
#     4  11  22  35  51  73 101 132 169 211 252 294
#     4   8  15  28  48  73  98 129 169 207 240 282
#     4   9  15  25  46  74 101 130 165 200 234 280
#
# _framework density 17.825890000000001
#
# number of rings (size 3 to 8) (size 9 to 14) (size 15 to 20)
#    0.000    2.500    0.000    3.750    0.000    4.750 
#    0.000    4.375    0.000    3.750    0.000    0.000 
#    0.000    0.000    0.000    0.000    0.000    0.000 
#
# Total GULP energy -356889.722327 kJ/mol
# GULP energy per Si atom -5576.401911 kJ/mol
# Density = 1.778532 g / cm^3
# Si number density = 17.825890 Si / 1000 Ang^3
#
#
#
# Elastic Constant Matrix: (Units=GPa)
#
#
# Indices 1 2 3 4 5 6 
#
# 1 13.0095 0.1276 -4.2346 0.0000 0.0000 0.0000
# 2 0.1276 62.9163 8.6044 0.0000 0.0000 0.0000
# 3 -4.2346 8.6044 44.0484 0.0000 0.0000 0.0000
# 4 0.0000 0.0000 0.0000 17.2695 0.0000 0.0000
# 5 0.0000 0.0000 0.0000 0.0000 10.3152 0.0000
# 6 0.0000 0.0000 0.0000 0.0000 0.0000 21.2597
#
#
#
# Elastic Compliance Matrix: (Units=1/GPa)
#
#
# Indices 1 2 3 4 5 6 
#
# 1 0.079444 -0.001239 0.007879 0.000000 0.000000 0.000000
# 2 -0.001239 0.016350 -0.003313 0.000000 0.000000 0.000000
# 3 0.007879 -0.003313 0.024107 0.000000 0.000000 0.000000
# 4 0.000000 0.000000 0.000000 0.057906 0.000000 0.000000
# 5 0.000000 0.000000 0.000000 0.000000 0.096945 0.000000
# 6 0.000000 0.000000 0.000000 0.000000 0.000000 0.047037
#
#
# Mechanical properties :
#
#
# Convention : Reuss Voigt Hill
#
# Bulk Modulus (GPa) = 7.90162 14.32989 11.11575
# Shear Modulus (GPa) = 13.99313 17.46731 15.73022
#
# Velocity S-wave (km/s) = 2.80481 3.13371 2.97381
# Velocity P-wave (km/s) = 3.86413 4.59889 4.24743
#
# Compressibility (1/GPa) = 0.12655635
#
# Stress axis : x y z
#
# Youngs Moduli (GPa) = 12.58747 61.16322 41.48183
#
# Poissons Ratio (x) = 0.07576 -0.32685
# Poissons Ratio (y) = 0.01559 0.13742
# Poissons Ratio (z) = -0.09918 0.20262
#
# Static dielectric constant tensor:
#      x y z
#    x 1.608310 0.000000 0.000000 
#    y 0.000000 1.626670 0.000000 
#    z 0.000000 0.000000 1.599860 
# 
# From -- ./inp_files/21533.got.cif
#   From: 2010.05.17/outbox.cif.g08.bks.cpg/sg59_11_cif.got.tgz:21533.got - 2010.06.03 14:40:33.
