data_PCOD9451876
_publ_section_title
;
Structure prediction by ZEFSAII (Michael W. Deem and Ramdas Pophale) SiO2 
 PCOD9451876
Probable space group: P M M N
;
_chemical_formula_sum "Si O2"
_cell_formula_units_Z 40
_cell_length_a 15.969818
_cell_length_b 14.682423
_cell_length_c 7.157634
_cell_angle_alpha 90.000000
_cell_angle_beta 90.000000
_cell_angle_gamma 90.000000
_cell_volume 1678.290692
_symmetry_space_group_name_H-M "P M M N"
_symmetry_group_IT_number 59
_space_group.IT_coordinate_system_code '2'
_symmetry_cell_setting 'orthorhombic'
loop_
_space_group_symop_operation_xyz
x,y,z
1/2-x,1/2-y,z
1/2+x,-y,-z
-x,1/2+y,-z
-x,-y,-z
1/2+x,1/2+y,-z
1/2-x,y,z
x,1/2-y,z
loop_
_atom_site_type_symbol
_atom_site_label
_atom_site_fract_x
_atom_site_fract_y
_atom_site_fract_z
Si Si1 0.520557 0.360151 0.986775
Si Si2 0.661654 0.879839 0.638227
Si Si3 0.659454 0.854100 0.081449
Si Si4 0.986371 0.101420 0.421214
Si Si5 0.655247 0.097854 0.684326
O O1 0.516496 0.250000 0.992203
O O2 0.433805 0.393568 0.887351
O O3 0.523987 0.395418 0.198397
O O4 0.602050 0.389103 0.872457
O O5 0.750000 0.850578 0.554536
O O6 0.660362 0.850803 0.854477
O O7 0.575753 0.850627 0.543674
O O8 0.661442 0.989751 0.645175
O O9 0.750000 0.898183 0.133777
O O10 0.660398 0.750000 0.148774
O O11 0.904808 0.138859 0.524607
O O12 0.000000 0.000000 0.500000
O O13 0.750000 0.133259 0.693104
#
# Coordination Sequence:
#
# PCOD9451876 Si02
#       5
#     8   8   8   8   8
#     4  10  21  36  55  80 110 146 187 231 282 339
#     4   8  15  30  52  78 107 139 177 225 282 339
#     4   8  14  27  49  75 102 132 166 210 269 332
#     4   9  19  35  57  81 108 142 186 238 291 342
#     4  10  21  36  53  76 109 150 195 237 277 326
#
# _framework density 23.833773999999998
#
# number of rings (size 3 to 8) (size 9 to 14) (size 15 to 20)
#    0.000    3.000    0.000    0.000    0.000    9.200 
#    0.000    1.000    0.000    1.200    0.000    5.600 
#    0.000    0.000    0.000    0.000    0.000    0.000 
#
# Total GULP energy -223226.071024 kJ/mol
# GULP energy per Si atom -5580.651776 kJ/mol
# Density = 2.377953 g / cm^3
# Si number density = 23.833774 Si / 1000 Ang^3
#
#
#
# Elastic Constant Matrix: (Units=GPa)
#
#
# Indices 1 2 3 4 5 6 
#
# 1 308.7286 28.0283 81.0699 0.0000 0.0000 0.0000
# 2 28.0283 95.8547 9.7374 0.0000 0.0000 0.0000
# 3 81.0699 9.7374 117.9286 0.0000 0.0000 0.0000
# 4 0.0000 0.0000 0.0000 34.5678 0.0000 0.0000
# 5 0.0000 0.0000 0.0000 0.0000 71.7788 0.0000
# 6 0.0000 0.0000 0.0000 0.0000 0.0000 -86.6250
#
#
#
# Elastic Compliance Matrix: (Units=1/GPa)
#
#
# Indices 1 2 3 4 5 6 
#
# 1 0.004029 -0.000904 -0.002695 0.000000 0.000000 0.000000
# 2 -0.000904 0.010724 -0.000264 0.000000 0.000000 0.000000
# 3 -0.002695 -0.000264 0.010354 0.000000 0.000000 0.000000
# 4 0.000000 0.000000 0.000000 0.028929 0.000000 0.000000
# 5 0.000000 0.000000 0.000000 0.000000 0.013932 0.000000
# 6 0.000000 0.000000 0.000000 0.000000 0.000000 -0.011544
#
#
# Mechanical properties :
#
#
# Convention : Reuss Voigt Hill
#
# Bulk Modulus (GPa) = 57.53557 84.46480 71.00019
# Shear Modulus (GPa) = 71.48709 30.85606 51.17158
#
# Velocity S-wave (km/s) = 5.48262 3.60201 4.63862
# Velocity P-wave (km/s) = 8.01696 7.26742 7.65137
#
# Compressibility (1/GPa) = 0.01738055
#
# Stress axis : x y z
#
# Youngs Moduli (GPa) = 248.20857 93.25165 96.57960
#
# Poissons Ratio (x) = 0.08433 0.26028
# Poissons Ratio (y) = 0.22445 0.02548
# Poissons Ratio (z) = 0.66892 0.02460
#
# Static dielectric constant tensor:
#      x y z
#    x 2.002040 0.000000 0.000000 
#    y 0.000000 1.906540 0.000000 
#    z 0.000000 0.000000 1.903460 
# 
# From -- ./inp_files/9143.got.cif
#   From: 2010.05.17/outbox.cif.g08.bks.cpg/sg59_5_cif.got.tgz:9143.got - 2010.06.03 14:40:33.
