data_PCOD9451874
_publ_section_title
;
Structure prediction by ZEFSAII (Michael W. Deem and Ramdas Pophale) SiO2 
 PCOD9451874
Probable space group: P M M N
;
_chemical_formula_sum "Si O2"
_cell_formula_units_Z 64
_cell_length_a 14.420612
_cell_length_b 8.965143
_cell_length_c 27.366928
_cell_angle_alpha 90.000000
_cell_angle_beta 90.000000
_cell_angle_gamma 90.000000
_cell_volume 3538.074413
_symmetry_space_group_name_H-M "P M M N"
_symmetry_group_IT_number 59
_space_group.IT_coordinate_system_code '2'
_symmetry_cell_setting 'orthorhombic'
loop_
_space_group_symop_operation_xyz
x,y,z
1/2-x,1/2-y,z
1/2+x,-y,-z
-x,1/2+y,-z
-x,-y,-z
1/2+x,1/2+y,-z
1/2-x,y,z
x,1/2-y,z
loop_
_atom_site_type_symbol
_atom_site_label
_atom_site_fract_x
_atom_site_fract_y
_atom_site_fract_z
Si Si1 0.857472 0.071230 0.670787
Si Si2 0.454282 0.071707 0.237801
Si Si3 0.356394 0.420100 0.889952
Si Si4 0.012465 0.074364 0.052307
Si Si5 0.143591 0.068124 0.137480
Si Si6 0.643994 0.929917 0.480147
Si Si7 0.646567 0.574581 0.227601
Si Si8 0.958524 0.070136 0.572279
O O1 0.750000 0.039043 0.659405
O O2 0.866507 0.250000 0.677042
O O3 0.922104 0.025120 0.625422
O O4 0.888664 0.991895 0.720169
O O5 0.452883 0.250000 0.238233
O O6 0.416608 0.020800 0.184530
O O7 0.558316 0.013674 0.246675
O O8 0.250000 0.435764 0.906027
O O9 0.386782 0.250000 0.901316
O O10 0.422099 0.536874 0.915751
O O11 0.357299 0.436677 0.831431
O O12 0.023691 0.250000 0.045413
O O13 0.096924 0.019201 0.086670
O O14 0.000000 0.000000 0.000000
O O15 0.250000 0.020034 0.142195
O O16 0.142493 0.250000 0.137401
O O17 0.750000 0.976604 0.469857
O O18 0.643452 0.750000 0.484263
O O19 0.565128 0.970242 0.440256
O O20 0.606324 0.999060 0.530594
O O21 0.750000 0.524544 0.242877
O O22 0.637898 0.750000 0.239881
O O23 0.950622 0.250000 0.568975
#
# Coordination Sequence:
#
# PCOD9451874 Si02
#       8
#     8   8   8   8   8   8   8   8
#     4  10  21  36  53  76 108 146 186 227 273 326
#     4  11  21  35  57  83 109 139 179 227 272 320
#     4   9  18  34  56  79 103 133 167 207 257 311
#     4  11  22  36  54  78 107 139 176 218 263 316
#     4   9  19  36  55  75 102 137 174 212 261 318
#     4   9  17  30  51  79 108 139 180 229 279 328
#     4   9  18  34  57  82 107 136 171 212 259 315
#     4   9  18  33  52  75 107 146 186 227 271 323
#
# _framework density 18.088936
#
# number of rings (size 3 to 8) (size 9 to 14) (size 15 to 20)
#    0.000    2.375    1.250    2.250    0.000    3.000 
#    0.000    3.125    0.000    5.625    0.000    0.000 
#    0.000    0.000    0.000    0.000    0.000    0.000 
#
# Total GULP energy -356897.185970 kJ/mol
# GULP energy per Si atom -5576.518531 kJ/mol
# Density = 1.804776 g / cm^3
# Si number density = 18.088936 Si / 1000 Ang^3
#
#
#
# Elastic Constant Matrix: (Units=GPa)
#
#
# Indices 1 2 3 4 5 6 
#
# 1 124.6420 26.4907 40.4333 0.0000 0.0000 0.0000
# 2 26.4907 16.8985 22.1380 0.0000 0.0000 0.0000
# 3 40.4333 22.1380 77.6088 0.0000 0.0000 0.0000
# 4 0.0000 0.0000 0.0000 27.0799 0.0000 0.0000
# 5 0.0000 0.0000 0.0000 0.0000 16.5485 0.0000
# 6 0.0000 0.0000 0.0000 0.0000 0.0000 26.0395
#
#
#
# Elastic Compliance Matrix: (Units=1/GPa)
#
#
# Indices 1 2 3 4 5 6 
#
# 1 0.012130 -0.017143 -0.001430 0.000000 0.000000 0.000000
# 2 -0.017143 0.118712 -0.024931 0.000000 0.000000 0.000000
# 3 -0.001430 -0.024931 0.020742 0.000000 0.000000 0.000000
# 4 0.000000 0.000000 0.000000 0.036928 0.000000 0.000000
# 5 0.000000 0.000000 0.000000 0.000000 0.060429 0.000000
# 6 0.000000 0.000000 0.000000 0.000000 0.000000 0.038403
#
#
# Mechanical properties :
#
#
# Convention : Reuss Voigt Hill
#
# Bulk Modulus (GPa) = 15.48565 44.14147 29.81356
# Shear Modulus (GPa) = 12.63022 22.60607 17.61814
#
# Velocity S-wave (km/s) = 2.64527 3.53897 3.12424
# Velocity P-wave (km/s) = 4.23195 6.41518 5.43433
#
# Compressibility (1/GPa) = 0.06457590
#
# Stress axis : x y z
#
# Youngs Moduli (GPa) = 82.43914 8.42378 48.21197
#
# Poissons Ratio (x) = 0.14441 0.06893
# Poissons Ratio (y) = 1.41322 1.20200
# Poissons Ratio (z) = 0.11787 0.21002
#
# Static dielectric constant tensor:
#      x y z
#    x 1.634590 0.000000 0.000000 
#    y 0.000000 1.682640 0.000000 
#    z 0.000000 0.000000 1.601590 
# 
# From -- ./inp_files/31462.got.cif
#   From: 2010.05.17/outbox.cif.g08.bks.cpg/sg59_16_cif.got.tgz:31462.got - 2010.06.03 14:40:33.
