data_PCOD9451285
_publ_section_title
;
Structure prediction by ZEFSAII (Michael W. Deem and Ramdas Pophale) SiO2 
 PCOD9451285
Probable space group: P M M N
;
_chemical_formula_sum "Si O2"
_cell_formula_units_Z 64
_cell_length_a 15.720260
_cell_length_b 7.941608
_cell_length_c 24.462730
_cell_angle_alpha 90.000000
_cell_angle_beta 90.000000
_cell_angle_gamma 90.000000
_cell_volume 3054.028552
_symmetry_space_group_name_H-M "P M M N"
_symmetry_group_IT_number 59
_space_group.IT_coordinate_system_code '2'
_symmetry_cell_setting 'orthorhombic'
loop_
_space_group_symop_operation_xyz
x,y,z
1/2-x,1/2-y,z
1/2+x,-y,-z
-x,1/2+y,-z
-x,-y,-z
1/2+x,1/2+y,-z
1/2-x,y,z
x,1/2-y,z
loop_
_atom_site_type_symbol
_atom_site_label
_atom_site_fract_x
_atom_site_fract_y
_atom_site_fract_z
Si Si1 0.490935 0.545719 0.581060
Si Si2 0.941768 0.443347 0.105668
Si Si3 0.158044 0.953690 0.234438
Si Si4 0.149735 0.452253 0.492943
Si Si5 0.124573 0.941094 0.113317
Si Si6 0.987357 0.049248 0.294937
Si Si7 0.343780 0.053998 0.992952
Si Si8 0.155937 0.955145 0.788398
O O1 0.493005 0.750000 0.580211
O O2 0.581163 0.488879 0.553664
O O3 0.406860 0.493374 0.546889
O O4 0.484203 0.484079 0.643264
O O5 0.966293 0.250000 0.117284
O O6 0.911228 0.457044 0.043566
O O7 0.870314 0.493685 0.149312
O O8 0.023083 0.555879 0.115595
O O9 0.250000 0.001205 0.257796
O O10 0.152605 0.750000 0.232613
O O11 0.154104 0.012080 0.171306
O O12 0.078793 0.018456 0.268184
O O13 0.250000 0.512502 0.491980
O O14 0.155052 0.250000 0.488467
O O15 0.155273 0.750000 0.107885
O O16 0.147619 0.035231 0.057820
O O17 0.974540 0.250000 0.298407
O O18 0.915220 0.982622 0.253798
O O19 0.250000 0.992459 0.977455
O O20 0.351720 0.250000 0.978984
O O21 0.250000 0.016987 0.775609
O O22 0.157104 0.750000 0.785214
#
# Coordination Sequence:
#
# PCOD9451285 Si02
#       8
#     8   8   8   8   8   8   8   8
#     4   9  19  34  55  84 116 151 191 236 283 329
#     4  11  21  36  58  80 107 142 184 228 281 343
#     4  10  22  39  58  81 112 150 189 231 282 339
#     4   9  18  34  55  80 115 156 195 234 278 330
#     4  11  22  38  59  80 107 142 184 230 282 340
#     4  10  20  36  58  85 115 147 189 237 281 328
#     4  11  24  39  55  79 109 139 179 231 284 342
#     4   9  18  33  54  80 110 144 182 226 278 335
#
# _framework density 20.955926999999999
#
# number of rings (size 3 to 8) (size 9 to 14) (size 15 to 20)
#    0.000    2.000    1.250    2.250    0.000    4.500 
#    0.000    2.500    0.000    1.125    0.000    0.000 
#    0.000    0.000    0.000    0.000    0.000    0.000 
#
# Total GULP energy -357145.280591 kJ/mol
# GULP energy per Si atom -5580.395009 kJ/mol
# Density = 2.090823 g / cm^3
# Si number density = 20.955927 Si / 1000 Ang^3
#
#
#
# Elastic Constant Matrix: (Units=GPa)
#
#
# Indices 1 2 3 4 5 6 
#
# 1 155.5258 6.6729 44.2323 0.0000 0.0000 0.0000
# 2 6.6729 22.3776 1.2281 0.0000 0.0000 0.0000
# 3 44.2323 1.2281 112.2156 0.0000 0.0000 0.0000
# 4 0.0000 0.0000 0.0000 6.2387 0.0000 0.0000
# 5 0.0000 0.0000 0.0000 0.0000 23.6877 0.0000
# 6 0.0000 0.0000 0.0000 0.0000 0.0000 22.4140
#
#
#
# Elastic Compliance Matrix: (Units=1/GPa)
#
#
# Indices 1 2 3 4 5 6 
#
# 1 0.007333 -0.002029 -0.002868 0.000000 0.000000 0.000000
# 2 -0.002029 0.045276 0.000304 0.000000 0.000000 0.000000
# 3 -0.002868 0.000304 0.010039 0.000000 0.000000 0.000000
# 4 0.000000 0.000000 0.000000 0.160290 0.000000 0.000000
# 5 0.000000 0.000000 0.000000 0.000000 0.042216 0.000000
# 6 0.000000 0.000000 0.000000 0.000000 0.000000 0.044615
#
#
# Mechanical properties :
#
#
# Convention : Reuss Voigt Hill
#
# Bulk Modulus (GPa) = 18.70515 43.82063 31.26289
# Shear Modulus (GPa) = 14.84674 26.33380 20.59027
#
# Velocity S-wave (km/s) = 2.66461 3.54874 3.13797
# Velocity P-wave (km/s) = 4.29094 6.14391 5.29905
#
# Compressibility (1/GPa) = 0.05346122
#
# Stress axis : x y z
#
# Youngs Moduli (GPa) = 136.37802 22.08683 99.61544
#
# Poissons Ratio (x) = 0.04482 0.28571
# Poissons Ratio (y) = 0.27673 -0.03031
# Poissons Ratio (z) = 0.39114 -0.00672
#
# Static dielectric constant tensor:
#      x y z
#    x 1.761780 0.000000 0.000000 
#    y 0.000000 1.748150 0.000000 
#    z 0.000000 0.000000 1.742090 
# 
# From -- ./inp_files/31506.got.cif
#   From: 2010.05.17/outbox.cif.g08.bks.cpg/sg59_16_cif.got.tgz:31506.got - 2010.06.03 14:40:33.
