data_PCOD9451970
_publ_section_title
;
Structure prediction by ZEFSAII (Michael W. Deem and Ramdas Pophale) SiO2 
 PCOD9451970
Probable space group: P M M N
;
_chemical_formula_sum "Si O2"
_cell_formula_units_Z 48
_cell_length_a 9.946416
_cell_length_b 8.597325
_cell_length_c 30.464662
_cell_angle_alpha 90.000000
_cell_angle_beta 90.000000
_cell_angle_gamma 90.000000
_cell_volume 2605.111570
_symmetry_space_group_name_H-M "P M M N"
_symmetry_group_IT_number 59
_space_group.IT_coordinate_system_code '2'
_symmetry_cell_setting 'orthorhombic'
loop_
_space_group_symop_operation_xyz
x,y,z
1/2-x,1/2-y,z
1/2+x,-y,-z
-x,1/2+y,-z
-x,-y,-z
1/2+x,1/2+y,-z
1/2-x,y,z
x,1/2-y,z
loop_
_atom_site_type_symbol
_atom_site_label
_atom_site_fract_x
_atom_site_fract_y
_atom_site_fract_z
Si Si1 0.093855 0.437051 0.193481
Si Si2 0.592354 0.061380 0.460344
Si Si3 0.250000 0.069423 0.955485
Si Si4 0.750000 0.064881 0.948559
Si Si5 0.912982 0.070828 0.714010
Si Si6 0.990574 0.063921 0.099623
Si Si7 0.905364 0.936789 0.620211
O O1 0.250000 0.488645 0.187667
O O2 0.095879 0.250000 0.195267
O O3 0.041072 0.498783 0.239940
O O4 0.010806 0.482277 0.150463
O O5 0.750000 0.011561 0.462257
O O6 0.592708 0.250000 0.461607
O O7 0.512582 0.011300 0.416251
O O8 0.500000 0.000000 0.500000
O O9 0.250000 0.250000 0.968154
O O10 0.375483 0.026695 0.925430
O O11 0.250000 0.967951 0.999594
O O12 0.750000 0.250000 0.940468
O O13 0.624005 0.982013 0.926281
O O14 0.750000 0.061737 0.715515
O O15 0.952573 0.250000 0.711499
O O16 0.949808 0.986157 0.668932
O O17 0.967955 0.250000 0.097768
O O18 0.750000 0.992860 0.612425
O O19 0.900076 0.750000 0.618503
#
# Coordination Sequence:
#
# PCOD9451970 Si02
#       7
#     8   8   4   4   8   8   8
#     4   9  17  32  55  82 110 142 181 226 275 329
#     4  10  21  36  55  80 110 145 187 232 278 329
#     4  12  26  42  58  82 116 152 188 232 287 344
#     4  12  24  40  62  88 114 148 188 234 285 338
#     4   9  17  28  47  78 110 138 174 225 276 323
#     4  11  22  40  62  86 114 148 190 236 282 339
#     4   9  17  31  51  74 103 140 180 222 271 328
#
# _framework density 18.425315000000001
#
# number of rings (size 3 to 8) (size 9 to 14) (size 15 to 20)
#    0.000    2.000    0.833    3.500    0.000    5.000 
#    0.000    1.667    1.833    0.000    0.000    0.000 
#    0.000    0.000    0.000    0.000    0.000    0.000 
#
# Total GULP energy -267775.929779 kJ/mol
# GULP energy per Si atom -5578.665204 kJ/mol
# Density = 1.838338 g / cm^3
# Si number density = 18.425315 Si / 1000 Ang^3
#
#
#
# Elastic Constant Matrix: (Units=GPa)
#
#
# Indices 1 2 3 4 5 6 
#
# 1 84.4030 -4.7363 42.4134 0.0000 0.0000 0.0000
# 2 -4.7363 11.8198 3.7727 0.0000 0.0000 0.0000
# 3 42.4134 3.7727 146.2325 0.0000 0.0000 0.0000
# 4 0.0000 0.0000 0.0000 31.8839 0.0000 0.0000
# 5 0.0000 0.0000 0.0000 0.0000 -7.5957 0.0000
# 6 0.0000 0.0000 0.0000 0.0000 0.0000 21.1341
#
#
#
# Elastic Compliance Matrix: (Units=1/GPa)
#
#
# Indices 1 2 3 4 5 6 
#
# 1 0.014451 0.007187 -0.004377 0.000000 0.000000 0.000000
# 2 0.007187 0.088881 -0.004378 0.000000 0.000000 0.000000
# 3 -0.004377 -0.004378 0.008221 0.000000 0.000000 0.000000
# 4 0.000000 0.000000 0.000000 0.031364 0.000000 0.000000
# 5 0.000000 0.000000 0.000000 0.000000 -0.131654 0.000000
# 6 0.000000 0.000000 0.000000 0.000000 0.000000 0.047317
#
#
# Mechanical properties :
#
#
# Convention : Reuss Voigt Hill
#
# Bulk Modulus (GPa) = 9.22348 36.15052 22.68700
# Shear Modulus (GPa) = 51.09710 22.48484 36.79097
#
# Velocity S-wave (km/s) = 5.27183 3.49710 4.47336
# Velocity P-wave (km/s) = 6.48637 5.99741 6.24668
#
# Compressibility (1/GPa) = 0.10841891
#
# Stress axis : x y z
#
# Youngs Moduli (GPa) = 69.20140 11.25095 121.64286
#
# Poissons Ratio (x) = -0.08087 0.53239
# Poissons Ratio (y) = -0.49738 0.53252
# Poissons Ratio (z) = 0.30287 0.04925
#
# Static dielectric constant tensor:
#      x y z
#    x 1.599250 0.000000 0.000000 
#    y 0.000000 1.622560 0.000000 
#    z 0.000000 0.000000 1.630860 
# 
# From -- ./inp_files/32928.got.cif
#   From: 2010.05.17/outbox.cif.g08.bks.cpg/sg59_17_cif.got.tgz:32928.got - 2010.06.03 14:40:33.
