data_PCOD9451245
_publ_section_title
;
Structure prediction by ZEFSAII (Michael W. Deem and Ramdas Pophale) SiO2 
 PCOD9451245
Probable space group: P M M N
;
_chemical_formula_sum "Si O2"
_cell_formula_units_Z 48
_cell_length_a 14.079312
_cell_length_b 7.775316
_cell_length_c 20.784001
_cell_angle_alpha 90.000000
_cell_angle_beta 90.000000
_cell_angle_gamma 90.000000
_cell_volume 2275.247449
_symmetry_space_group_name_H-M "P M M N"
_symmetry_group_IT_number 59
_space_group.IT_coordinate_system_code '2'
_symmetry_cell_setting 'orthorhombic'
loop_
_space_group_symop_operation_xyz
x,y,z
1/2-x,1/2-y,z
1/2+x,-y,-z
-x,1/2+y,-z
-x,-y,-z
1/2+x,1/2+y,-z
1/2-x,y,z
x,1/2-y,z
loop_
_atom_site_type_symbol
_atom_site_label
_atom_site_fract_x
_atom_site_fract_y
_atom_site_fract_z
Si Si1 0.981626 0.450002 0.608608
Si Si2 0.535140 0.447877 0.252236
Si Si3 0.750000 0.052665 0.085980
Si Si4 0.250000 0.538702 0.771053
Si Si5 0.142733 0.460951 0.166331
Si Si6 0.141492 0.541192 0.508983
Si Si7 0.895660 0.546808 0.979218
O O1 0.964570 0.250000 0.623423
O O2 0.899308 0.513164 0.560455
O O3 0.995863 0.544663 0.675417
O O4 0.075462 0.467922 0.564810
O O5 0.545801 0.250000 0.230424
O O6 0.644350 0.517501 0.253514
O O7 0.450199 0.520702 0.206747
O O8 0.750000 0.250000 0.103381
O O9 0.750000 0.969956 0.155522
O O10 0.663964 0.016413 0.039309
O O11 0.250000 0.750000 0.762253
O O12 0.250000 0.511613 0.188366
O O13 0.141449 0.250000 0.168128
O O14 0.131096 0.518367 0.091866
O O15 0.250000 0.492266 0.517256
O O16 0.133822 0.750000 0.511569
O O17 0.881934 0.750000 0.975300
O O18 0.000000 0.500000 0.000000
#
# Coordination Sequence:
#
# PCOD9451245 Si02
#       7
#     8   8   4   4   8   8   8
#     4  10  21  36  54  84 118 143 178 234 288 325
#     4  10  20  36  58  79 107 152 198 231 270 340
#     4  11  21  37  59  85 113 146 193 244 295 349
#     4   9  20  37  55  79 111 152 197 234 275 345
#     4   9  18  35  57  80 108 146 192 237 283 340
#     4   9  19  37  60  81 108 149 190 222 266 337
#     4  11  21  36  58  84 114 148 188 240 296 350
#
# _framework density 21.096606999999999
#
# number of rings (size 3 to 8) (size 9 to 14) (size 15 to 20)
#    0.000    2.167    0.833    2.250    1.167    4.333 
#    0.000    5.000    0.000    0.000    0.000    0.000 
#    0.000    0.000    0.000    0.000    0.000    0.000 
#
# Total GULP energy -267572.918498 kJ/mol
# GULP energy per Si atom -5574.435802 kJ/mol
# Density = 2.104859 g / cm^3
# Si number density = 21.096607 Si / 1000 Ang^3
#
#
#
# Elastic Constant Matrix: (Units=GPa)
#
#
# Indices 1 2 3 4 5 6 
#
# 1 63.0656 -5.2693 -26.3722 0.0000 0.0000 0.0000
# 2 -5.2693 22.3299 -7.3796 0.0000 0.0000 0.0000
# 3 -26.3722 -7.3796 51.9329 0.0000 0.0000 0.0000
# 4 0.0000 0.0000 0.0000 20.6082 0.0000 0.0000
# 5 0.0000 0.0000 0.0000 0.0000 0.6267 0.0000
# 6 0.0000 0.0000 0.0000 0.0000 0.0000 13.3779
#
#
#
# Elastic Compliance Matrix: (Units=1/GPa)
#
#
# Indices 1 2 3 4 5 6 
#
# 1 0.021809 0.009240 0.012388 0.000000 0.000000 0.000000
# 2 0.009240 0.050905 0.011926 0.000000 0.000000 0.000000
# 3 0.012388 0.011926 0.027241 0.000000 0.000000 0.000000
# 4 0.000000 0.000000 0.000000 0.048524 0.000000 0.000000
# 5 0.000000 0.000000 0.000000 0.000000 1.595763 0.000000
# 6 0.000000 0.000000 0.000000 0.000000 0.000000 0.074750
#
#
# Mechanical properties :
#
#
# Convention : Reuss Voigt Hill
#
# Bulk Modulus (GPa) = 5.98580 6.58736 6.28658
# Shear Modulus (GPa) = 2.76614 18.67919 10.72267
#
# Velocity S-wave (km/s) = 1.14631 2.97882 2.25692
# Velocity P-wave (km/s) = 2.14372 3.86786 3.12697
#
# Compressibility (1/GPa) = 0.16706204
#
# Stress axis : x y z
#
# Youngs Moduli (GPa) = 45.85310 19.64457 36.70946
#
# Poissons Ratio (x) = -0.18152 -0.45475
# Poissons Ratio (y) = -0.42369 -0.43779
# Poissons Ratio (z) = -0.56802 -0.23428
#
# Static dielectric constant tensor:
#      x y z
#    x 1.760950 0.000000 0.000000 
#    y 0.000000 1.797400 0.000000 
#    z 0.000000 0.000000 1.731550 
# 
# From -- ./inp_files/25619.got.cif
#   From: 2010.05.17/outbox.cif.g08.bks.cpg/sg59_13_cif.got.tgz:25619.got - 2010.06.03 14:40:33.
