data_PCOD9451800
_publ_section_title
;
Structure prediction by ZEFSAII (Michael W. Deem and Ramdas Pophale) SiO2 
 PCOD9451800
Probable space group: P M M N
;
_chemical_formula_sum "Si O2"
_cell_formula_units_Z 64
_cell_length_a 23.018848
_cell_length_b 9.338440
_cell_length_c 17.052826
_cell_angle_alpha 90.000000
_cell_angle_beta 90.000000
_cell_angle_gamma 90.000000
_cell_volume 3665.677709
_symmetry_space_group_name_H-M "P M M N"
_symmetry_group_IT_number 59
_space_group.IT_coordinate_system_code '2'
_symmetry_cell_setting 'orthorhombic'
loop_
_space_group_symop_operation_xyz
x,y,z
1/2-x,1/2-y,z
1/2+x,-y,-z
-x,1/2+y,-z
-x,-y,-z
1/2+x,1/2+y,-z
1/2-x,y,z
x,1/2-y,z
loop_
_atom_site_type_symbol
_atom_site_label
_atom_site_fract_x
_atom_site_fract_y
_atom_site_fract_z
Si Si1 0.928380 0.422520 0.719319
Si Si2 0.816040 0.424675 0.142052
Si Si3 0.352352 0.414889 0.547185
Si Si4 0.581695 0.079307 0.032206
Si Si5 0.012541 0.414010 0.578037
Si Si6 0.318628 0.921716 0.388215
Si Si7 0.682415 0.408811 0.308420
Si Si8 0.462396 0.079534 0.120130
O O1 0.932050 0.250000 0.731148
O O2 0.864577 0.453615 0.681745
O O3 0.942980 0.503338 0.799701
O O4 0.976605 0.464841 0.653568
O O5 0.750000 0.473997 0.129690
O O6 0.815879 0.250000 0.145436
O O7 0.858534 0.465015 0.072633
O O8 0.841631 0.470390 0.226867
O O9 0.335423 0.250000 0.536348
O O10 0.418000 0.418066 0.580926
O O11 0.341939 0.497713 0.465799
O O12 0.319123 0.494351 0.615994
O O13 0.582264 0.250000 0.014532
O O14 0.529890 0.056863 0.095351
O O15 0.570332 0.990787 0.953797
O O16 0.993712 0.250000 0.566317
O O17 0.000000 0.500000 0.500000
O O18 0.250000 0.957003 0.374428
O O19 0.321468 0.750000 0.401610
O O20 0.750000 0.391370 0.288408
O O21 0.657688 0.250000 0.325254
O O22 0.452639 0.250000 0.125228
#
# Coordination Sequence:
#
# PCOD9451800 Si02
#       8
#     8   8   8   8   8   8   8   8
#     4  10  21  38  57  78 106 138 174 220 266 307
#     4   8  15  30  53  79 104 133 174 219 257 301
#     4  11  22  33  49  77 108 139 175 215 264 317
#     4   9  18  35  57  81 107 137 172 211 260 314
#     4  10  21  36  53  76 105 138 174 213 262 313
#     4  10  21  38  59  78  99 137 187 228 263 308
#     4   9  18  32  50  73 103 140 179 214 250 300
#     4  10  21  35  55  83 109 136 172 214 261 319
#
# _framework density 17.459254000000001
#
# number of rings (size 3 to 8) (size 9 to 14) (size 15 to 20)
#    0.000    2.375    1.250    1.875    1.750    4.000 
#    0.000    1.250    0.000    4.875    0.000    0.000 
#    0.000    0.000    0.000    0.000    0.000    0.000 
#
# Total GULP energy -356436.699008 kJ/mol
# GULP energy per Si atom -5569.323422 kJ/mol
# Density = 1.741952 g / cm^3
# Si number density = 17.459254 Si / 1000 Ang^3
#
#
#
# Elastic Constant Matrix: (Units=GPa)
#
#
# Indices 1 2 3 4 5 6 
#
# 1 82.4881 46.2935 75.9189 0.0000 0.0000 0.0000
# 2 46.2935 51.4172 63.5272 0.0000 0.0000 0.0000
# 3 75.9189 63.5272 152.6986 0.0000 0.0000 0.0000
# 4 0.0000 0.0000 0.0000 24.2574 0.0000 0.0000
# 5 0.0000 0.0000 0.0000 0.0000 26.4413 0.0000
# 6 0.0000 0.0000 0.0000 0.0000 0.0000 19.5534
#
#
#
# Elastic Compliance Matrix: (Units=1/GPa)
#
#
# Indices 1 2 3 4 5 6 
#
# 1 0.027713 -0.016313 -0.006992 0.000000 0.000000 0.000000
# 2 -0.016313 0.049622 -0.012534 0.000000 0.000000 0.000000
# 3 -0.006992 -0.012534 0.015239 0.000000 0.000000 0.000000
# 4 0.000000 0.000000 0.000000 0.041225 0.000000 0.000000
# 5 0.000000 0.000000 0.000000 0.000000 0.037820 0.000000
# 6 0.000000 0.000000 0.000000 0.000000 0.000000 0.051142
#
#
# Mechanical properties :
#
#
# Convention : Reuss Voigt Hill
#
# Bulk Modulus (GPa) = 47.85271 73.12033 60.48652
# Shear Modulus (GPa) = 16.58911 20.77470 18.68191
#
# Velocity S-wave (km/s) = 3.08581 3.45323 3.27468
# Velocity P-wave (km/s) = 6.33751 7.60731 7.00126
#
# Compressibility (1/GPa) = 0.02089746
#
# Stress axis : x y z
#
# Youngs Moduli (GPa) = 36.08426 20.15246 65.61978
#
# Poissons Ratio (x) = 0.32875 0.45879
# Poissons Ratio (y) = 0.58864 0.82245
# Poissons Ratio (z) = 0.25229 0.25258
#
# Static dielectric constant tensor:
#      x y z
#    x 1.584910 0.000000 0.000000 
#    y 0.000000 1.592290 0.000000 
#    z 0.000000 0.000000 1.586110 
# 
# From -- ./inp_files/24667.got.cif
#   From: 2010.05.17/outbox.cif.g08.bks.cpg/sg59_13_cif.got.tgz:24667.got - 2010.06.03 14:40:33.
