data_PCOD9451645
_publ_section_title
;
Structure prediction by ZEFSAII (Michael W. Deem and Ramdas Pophale) SiO2 
 PCOD9451645
Probable space group: P M M N
;
_chemical_formula_sum "Si O2"
_cell_formula_units_Z 36
_cell_length_a 13.600788
_cell_length_b 13.173936
_cell_length_c 7.010690
_cell_angle_alpha 90.000000
_cell_angle_beta 90.000000
_cell_angle_gamma 90.000000
_cell_volume 1256.146765
_symmetry_space_group_name_H-M "P M M N"
_symmetry_group_IT_number 59
_space_group.IT_coordinate_system_code '2'
_symmetry_cell_setting 'orthorhombic'
loop_
_space_group_symop_operation_xyz
x,y,z
1/2-x,1/2-y,z
1/2+x,-y,-z
-x,1/2+y,-z
-x,-y,-z
1/2+x,1/2+y,-z
1/2-x,y,z
x,1/2-y,z
loop_
_atom_site_type_symbol
_atom_site_label
_atom_site_fract_x
_atom_site_fract_y
_atom_site_fract_z
Si Si1 0.920958 0.867323 0.648562
Si Si2 0.366115 0.361797 0.783167
Si Si3 0.500000 0.500000 0.000000
Si Si4 0.146470 0.581904 0.273810
Si Si5 0.862028 0.367353 0.281989
O O1 0.900016 0.750000 0.697119
O O2 0.921996 0.870290 0.419277
O O3 0.851016 0.960422 0.690675
O O4 0.022526 0.904866 0.757592
O O5 0.250000 0.367005 0.734850
O O6 0.383033 0.250000 0.864160
O O7 0.394148 0.448698 0.928543
O O8 0.440105 0.591906 0.125090
O O9 0.250000 0.620894 0.199889
O O10 0.133027 0.626698 0.485877
O O11 0.750000 0.404215 0.239970
O O12 0.865227 0.250000 0.225029
#
# Coordination Sequence:
#
# PCOD9451645 Si02
#       5
#     8   8   4   8   8
#     4  10  20  39  65  91 120 160 211 264 313 367
#     4  10  22  41  64  90 124 168 216 264 317 378
#     4  12  24  38  60  88 132 168 208 250 318 384
#     4  11  23  38  59  89 121 159 205 254 309 370
#     4   9  18  34  58  86 116 152 196 248 307 364
#
# _framework density 28.659071999999998
#
# number of rings (size 3 to 8) (size 9 to 14) (size 15 to 20)
#    0.000    1.778    2.222    2.000    0.000    2.222 
#    0.000    1.111    0.000    2.000    0.000    0.000 
#    0.000    0.000    0.000    0.000    0.000    0.000 
#
# Total GULP energy -200683.599608 kJ/mol
# GULP energy per Si atom -5574.544434 kJ/mol
# Density = 2.859384 g / cm^3
# Si number density = 28.659072 Si / 1000 Ang^3
#
#
#
# Elastic Constant Matrix: (Units=GPa)
#
#
# Indices 1 2 3 4 5 6 
#
# 1 195.1120 -3.6108 -1.0524 0.0000 0.0000 0.0000
# 2 -3.6108 159.1570 -0.6162 0.0000 0.0000 0.0000
# 3 -1.0524 -0.6162 119.7153 0.0000 0.0000 0.0000
# 4 0.0000 0.0000 0.0000 41.0866 0.0000 0.0000
# 5 0.0000 0.0000 0.0000 0.0000 17.5651 0.0000
# 6 0.0000 0.0000 0.0000 0.0000 0.0000 40.8417
#
#
#
# Elastic Compliance Matrix: (Units=1/GPa)
#
#
# Indices 1 2 3 4 5 6 
#
# 1 0.005128 0.000117 0.000046 0.000000 0.000000 0.000000
# 2 0.000117 0.006286 0.000033 0.000000 0.000000 0.000000
# 3 0.000046 0.000033 0.008354 0.000000 0.000000 0.000000
# 4 0.000000 0.000000 0.000000 0.024339 0.000000 0.000000
# 5 0.000000 0.000000 0.000000 0.000000 0.056931 0.000000
# 6 0.000000 0.000000 0.000000 0.000000 0.000000 0.024485
#
#
# Mechanical properties :
#
#
# Convention : Reuss Voigt Hill
#
# Bulk Modulus (GPa) = 49.60713 51.49172 50.54943
# Shear Modulus (GPa) = 37.92176 51.84959 44.88567
#
# Velocity S-wave (km/s) = 3.64153 4.25807 3.96181
# Velocity P-wave (km/s) = 5.91844 6.49468 6.21324
#
# Compressibility (1/GPa) = 0.02015839
#
# Stress axis : x y z
#
# Youngs Moduli (GPa) = 195.02054 159.08678 119.70711
#
# Poissons Ratio (x) = -0.01854 -0.00547
# Poissons Ratio (y) = -0.02272 -0.00400
# Poissons Ratio (z) = -0.00891 -0.00531
#
# Static dielectric constant tensor:
#      x y z
#    x 2.414370 0.000000 0.000000 
#    y 0.000000 2.306380 0.000000 
#    z 0.000000 0.000000 2.270690 
# 
# From -- ./inp_files/8504.got.cif
#   From: 2010.05.17/outbox.cif.g08.bks.cpg/sg59_5_cif.got.tgz:8504.got - 2010.06.03 14:40:33.
