data_PCOD9451102
_publ_section_title
;
Structure prediction by ZEFSAII (Michael W. Deem and Ramdas Pophale) SiO2 
 PCOD9451102
Probable space group: P M M N
;
_chemical_formula_sum "Si O2"
_cell_formula_units_Z 56
_cell_length_a 14.588566
_cell_length_b 15.149891
_cell_length_c 12.207752
_cell_angle_alpha 90.000000
_cell_angle_beta 90.000000
_cell_angle_gamma 90.000000
_cell_volume 2698.098564
_symmetry_space_group_name_H-M "P M M N"
_symmetry_group_IT_number 59
_space_group.IT_coordinate_system_code '2'
_symmetry_cell_setting 'orthorhombic'
loop_
_space_group_symop_operation_xyz
x,y,z
1/2-x,1/2-y,z
1/2+x,-y,-z
-x,1/2+y,-z
-x,-y,-z
1/2+x,1/2+y,-z
1/2-x,y,z
x,1/2-y,z
loop_
_atom_site_type_symbol
_atom_site_label
_atom_site_fract_x
_atom_site_fract_y
_atom_site_fract_z
Si Si1 0.852273 0.995295 0.204184
Si Si2 0.438393 0.547242 0.159928
Si Si3 0.890864 0.152195 0.054903
Si Si4 0.850776 0.653475 0.596019
Si Si5 0.856383 0.351420 0.637259
Si Si6 0.396297 0.987248 0.540474
Si Si7 0.085541 0.347757 0.172858
O O1 0.750000 0.950968 0.196903
O O2 0.843463 0.085512 0.137316
O O3 0.875879 0.012711 0.331366
O O4 0.949320 0.956338 0.156401
O O5 0.411512 0.589636 0.276040
O O6 0.390143 0.450418 0.146848
O O7 0.401251 0.608545 0.063626
O O8 0.852313 0.250000 0.047524
O O9 0.991826 0.159391 0.107362
O O10 0.750000 0.650811 0.651466
O O11 0.861214 0.750000 0.543431
O O12 0.852203 0.574608 0.511981
O O13 0.922646 0.646662 0.694777
O O14 0.750000 0.352121 0.671003
O O15 0.888488 0.250000 0.634252
O O16 0.862957 0.399071 0.520023
O O17 0.500000 0.000000 0.500000
O O18 0.132144 0.250000 0.154073
#
# Coordination Sequence:
#
# PCOD9451102 Si02
#       7
#     8   8   8   8   8   8   8
#     4  11  23  39  64  96 133 174 220 271 328 395
#     4  11  21  42  65  90 132 176 221 275 334 390
#     4  10  22  41  64  90 124 171 222 270 327 394
#     4  10  20  35  58  89 123 161 209 260 309 375
#     4  11  24  41  65  97 129 168 220 276 332 388
#     4  12  22  41  64  92 133 177 213 263 330 390
#     4   9  17  32  57  88 120 160 211 263 318 379
#
# _framework density 20.755357
#
# number of rings (size 3 to 8) (size 9 to 14) (size 15 to 20)
#    0.000    1.429    2.857    4.286    0.000    2.000 
#    0.000    2.143    0.000    4.286    0.000    0.000 
#    0.000    0.000    0.000    0.000    0.000    0.000 
#
# Total GULP energy -311806.435378 kJ/mol
# GULP energy per Si atom -5567.972060 kJ/mol
# Density = 2.070812 g / cm^3
# Si number density = 20.755357 Si / 1000 Ang^3
#
#
#
# Elastic Constant Matrix: (Units=GPa)
#
#
# Indices 1 2 3 4 5 6 
#
# 1 48.8354 22.8088 1.5013 0.0000 0.0000 0.0000
# 2 22.8088 93.8150 6.5263 0.0000 0.0000 0.0000
# 3 1.5013 6.5263 76.9295 0.0000 0.0000 0.0000
# 4 0.0000 0.0000 0.0000 -1.0992 0.0000 0.0000
# 5 0.0000 0.0000 0.0000 0.0000 -164.8069 0.0000
# 6 0.0000 0.0000 0.0000 0.0000 0.0000 17.1450
#
#
#
# Elastic Compliance Matrix: (Units=1/GPa)
#
#
# Indices 1 2 3 4 5 6 
#
# 1 0.023100 -0.005618 0.000026 0.000000 0.000000 0.000000
# 2 -0.005618 0.012089 -0.000916 0.000000 0.000000 0.000000
# 3 0.000026 -0.000916 0.013076 0.000000 0.000000 0.000000
# 4 0.000000 0.000000 0.000000 -0.909731 0.000000 0.000000
# 5 0.000000 0.000000 0.000000 0.000000 -0.006068 0.000000
# 6 0.000000 0.000000 0.000000 0.000000 0.000000 0.058326
#
#
# Mechanical properties :
#
#
# Convention : Reuss Voigt Hill
#
# Bulk Modulus (GPa) = 28.36977 31.25032 29.81004
# Shear Modulus (GPa) = -6.37396 -17.16933 -11.77165
#
# Velocity S-wave (km/s) = -1.75433 -2.87927 -2.38410
# Velocity P-wave (km/s) = 3.09754 2.00888 2.61059
#
# Compressibility (1/GPa) = 0.03524879
#
# Stress axis : x y z
#
# Youngs Moduli (GPa) = 43.28990 82.72072 76.47532
#
# Poissons Ratio (x) = 0.46473 -0.00197
# Poissons Ratio (y) = 0.24320 0.07005
# Poissons Ratio (z) = -0.00112 0.07577
#
# Static dielectric constant tensor:
#      x y z
#    x 1.778010 0.000000 0.000000 
#    y 0.000000 1.788190 0.000000 
#    z 0.000000 0.000000 1.697560 
# 
# From -- ./inp_files/16941.got.cif
#   From: 2010.05.17/outbox.cif.g08.bks.cpg/sg59_9_cif.got.tgz:16941.got - 2010.06.03 14:40:33.
