data_PCOD9451639
_publ_section_title
;
Structure prediction by ZEFSAII (Michael W. Deem and Ramdas Pophale) SiO2 
 PCOD9451639
Probable space group: P M M N
;
_chemical_formula_sum "Si O2"
_cell_formula_units_Z 36
_cell_length_a 14.867679
_cell_length_b 14.613609
_cell_length_c 6.980046
_cell_angle_alpha 90.000000
_cell_angle_beta 90.000000
_cell_angle_gamma 90.000000
_cell_volume 1516.557719
_symmetry_space_group_name_H-M "P M M N"
_symmetry_group_IT_number 59
_space_group.IT_coordinate_system_code '2'
_symmetry_cell_setting 'orthorhombic'
loop_
_space_group_symop_operation_xyz
x,y,z
1/2-x,1/2-y,z
1/2+x,-y,-z
-x,1/2+y,-z
-x,-y,-z
1/2+x,1/2+y,-z
1/2-x,y,z
x,1/2-y,z
loop_
_atom_site_type_symbol
_atom_site_label
_atom_site_fract_x
_atom_site_fract_y
_atom_site_fract_z
Si Si1 0.750000 0.611538 0.342010
Si Si2 0.750000 0.048132 0.571229
Si Si3 0.250000 0.750000 0.277288
Si Si4 0.938410 0.250000 0.914965
Si Si5 0.065879 0.409888 0.832719
Si Si6 0.054052 0.250000 0.283130
Si Si7 0.433781 0.047673 0.284803
Si Si8 0.250000 0.250000 0.308199
O O1 0.750000 0.500925 0.364575
O O2 0.658531 0.633182 0.235556
O O3 0.750000 0.664164 0.545119
O O4 0.750000 0.156764 0.598117
O O5 0.843358 0.006247 0.656920
O O6 0.335704 0.750000 0.138507
O O7 0.971852 0.250000 0.134762
O O8 0.985602 0.338006 0.826775
O O9 0.028113 0.493264 0.705272
O O10 0.077147 0.437574 0.054742
O O11 0.053639 0.350821 0.376850
O O12 0.156376 0.250000 0.195611
#
# Coordination Sequence:
#
# PCOD9451639 Si02
#       8
#     4   4   2   4   8   4   8   2
#     4  12  25  40  60  99 134 170 218 264 321 390
#     4  12  23  41  66  88 128 179 203 265 326 391
#     4  12  24  44  62 100 128 168 220 246 330 400
#     4  10  21  40  69  94 128 169 213 277 310 377
#     4  10  22  40  64  98 124 169 221 268 319 371
#     4  10  20  39  64 104 124 164 217 263 327 363
#     4  10  20  40  67  91 125 168 217 273 320 370
#     4  12  22  40  62  96 136 172 204 266 330 390
#
# _framework density 23.737970000000001
#
# number of rings (size 3 to 8) (size 9 to 14) (size 15 to 20)
#    0.000    1.333    4.444    1.333    0.000    3.556 
#    0.000    1.111    0.000    1.333    0.000    0.000 
#    0.000    0.000    0.000    0.000    0.000    0.000 
#
# Total GULP energy -201050.937343 kJ/mol
# GULP energy per Si atom -5584.748260 kJ/mol
# Density = 2.368394 g / cm^3
# Si number density = 23.737970 Si / 1000 Ang^3
#
#
#
# Elastic Constant Matrix: (Units=GPa)
#
#
# Indices 1 2 3 4 5 6 
#
# 1 167.6386 38.3990 17.2618 0.0000 0.0000 0.0000
# 2 38.3990 155.8778 -0.2146 0.0000 0.0000 0.0000
# 3 17.2618 -0.2146 45.7102 0.0000 0.0000 0.0000
# 4 0.0000 0.0000 0.0000 22.3449 0.0000 0.0000
# 5 0.0000 0.0000 0.0000 0.0000 24.5388 0.0000
# 6 0.0000 0.0000 0.0000 0.0000 0.0000 34.7572
#
#
#
# Elastic Compliance Matrix: (Units=1/GPa)
#
#
# Indices 1 2 3 4 5 6 
#
# 1 0.006595 -0.001628 -0.002498 0.000000 0.000000 0.000000
# 2 -0.001628 0.006817 0.000647 0.000000 0.000000 0.000000
# 3 -0.002498 0.000647 0.022823 0.000000 0.000000 0.000000
# 4 0.000000 0.000000 0.000000 0.044753 0.000000 0.000000
# 5 0.000000 0.000000 0.000000 0.000000 0.040752 0.000000
# 6 0.000000 0.000000 0.000000 0.000000 0.000000 0.028771
#
#
# Mechanical properties :
#
#
# Convention : Reuss Voigt Hill
#
# Bulk Modulus (GPa) = 34.15664 53.34654 43.75159
# Shear Modulus (GPa) = 29.89892 37.24686 33.57289
#
# Velocity S-wave (km/s) = 3.55285 3.96546 3.76481
# Velocity P-wave (km/s) = 5.59022 6.59457 6.11306
#
# Compressibility (1/GPa) = 0.02927688
#
# Stress axis : x y z
#
# Youngs Moduli (GPa) = 151.62067 146.68664 43.81463
#
# Poissons Ratio (x) = 0.23883 0.10946
# Poissons Ratio (y) = 0.24686 -0.02834
# Poissons Ratio (z) = 0.37879 -0.09488
#
# Static dielectric constant tensor:
#      x y z
#    x 1.853720 0.000000 0.000000 
#    y 0.000000 2.033980 0.000000 
#    z 0.000000 0.000000 1.938670 
# 
# From -- ./inp_files/8564.got.cif
#   From: 2010.05.17/outbox.cif.g08.bks.cpg/sg59_5_cif.got.tgz:8564.got - 2010.06.03 14:40:33.
