data_PCOD9451026
_publ_section_title
;
Structure prediction by ZEFSAII (Michael W. Deem and Ramdas Pophale) SiO2 
 PCOD9451026
Probable space group: P M M N
;
_chemical_formula_sum "Si O2"
_cell_formula_units_Z 56
_cell_length_a 14.310129
_cell_length_b 8.745668
_cell_length_c 22.535058
_cell_angle_alpha 90.000000
_cell_angle_beta 90.000000
_cell_angle_gamma 90.000000
_cell_volume 2820.299405
_symmetry_space_group_name_H-M "P M M N"
_symmetry_group_IT_number 59
_space_group.IT_coordinate_system_code '2'
_symmetry_cell_setting 'orthorhombic'
loop_
_space_group_symop_operation_xyz
x,y,z
1/2-x,1/2-y,z
1/2+x,-y,-z
-x,1/2+y,-z
-x,-y,-z
1/2+x,1/2+y,-z
1/2-x,y,z
x,1/2-y,z
loop_
_atom_site_type_symbol
_atom_site_label
_atom_site_fract_x
_atom_site_fract_y
_atom_site_fract_z
Si Si1 0.144317 0.065358 0.465326
Si Si2 0.483560 0.573522 0.936003
Si Si3 0.149121 0.072069 0.255651
Si Si4 0.643607 0.077463 0.870378
Si Si5 0.641856 0.932678 0.166522
Si Si6 0.942269 0.069235 0.286869
Si Si7 0.942389 0.064265 0.416439
O O1 0.250000 0.015169 0.447929
O O2 0.145025 0.250000 0.464807
O O3 0.051574 0.019028 0.427895
O O4 0.119506 0.005177 0.531106
O O5 0.460219 0.750000 0.942980
O O6 0.580552 0.546368 0.901891
O O7 0.408567 0.496838 0.892061
O O8 0.500000 0.500000 0.000000
O O9 0.250000 0.050083 0.286084
O O10 0.147388 0.250000 0.235072
O O11 0.054516 0.050907 0.290996
O O12 0.144768 0.962279 0.199040
O O13 0.750000 0.071958 0.891787
O O14 0.606987 0.250000 0.879899
O O15 0.750000 0.980245 0.167326
O O16 0.636576 0.750000 0.165004
O O17 0.593760 0.989687 0.227331
O O18 0.922445 0.250000 0.280324
O O19 0.907146 0.016541 0.351129
O O20 0.938948 0.250000 0.418895
#
# Coordination Sequence:
#
# PCOD9451026 Si02
#       7
#     8   8   8   8   8   8   8
#     4   9  18  34  55  78 109 150 195 243 294 346
#     4  12  25  42  65  90 118 153 194 241 292 345
#     4   9  17  30  51  80 111 144 182 225 279 343
#     4  10  20  35  57  85 116 148 183 226 278 336
#     4  11  25  44  64  87 118 157 199 243 292 347
#     4  10  20  35  57  85 117 154 192 238 294 352
#     4   9  19  34  53  81 114 149 194 242 292 347
#
# _framework density 19.856048999999999
#
# number of rings (size 3 to 8) (size 9 to 14) (size 15 to 20)
#    0.000    2.000    1.429    2.143    0.000    4.571 
#    0.000    5.714    0.000    0.000    0.000    4.000 
#    0.000    0.000    0.000    0.000    0.000    0.000 
#
# Total GULP energy -312320.673567 kJ/mol
# GULP energy per Si atom -5577.154885 kJ/mol
# Density = 1.981086 g / cm^3
# Si number density = 19.856049 Si / 1000 Ang^3
#
#
#
# Elastic Constant Matrix: (Units=GPa)
#
#
# Indices 1 2 3 4 5 6 
#
# 1 74.4035 17.1445 24.1199 0.0000 0.0000 0.0000
# 2 17.1445 35.4886 26.6465 0.0000 0.0000 0.0000
# 3 24.1199 26.6465 110.0785 0.0000 0.0000 0.0000
# 4 0.0000 0.0000 0.0000 23.3563 0.0000 0.0000
# 5 0.0000 0.0000 0.0000 0.0000 0.9200 0.0000
# 6 0.0000 0.0000 0.0000 0.0000 0.0000 25.4523
#
#
#
# Elastic Compliance Matrix: (Units=1/GPa)
#
#
# Indices 1 2 3 4 5 6 
#
# 1 0.015452 -0.006016 -0.001929 0.000000 0.000000 0.000000
# 2 -0.006016 0.036780 -0.007585 0.000000 0.000000 0.000000
# 3 -0.001929 -0.007585 0.011343 0.000000 0.000000 0.000000
# 4 0.000000 0.000000 0.000000 0.042815 0.000000 0.000000
# 5 0.000000 0.000000 0.000000 0.000000 1.086923 0.000000
# 6 0.000000 0.000000 0.000000 0.000000 0.000000 0.039289
#
#
# Mechanical properties :
#
#
# Convention : Reuss Voigt Hill
#
# Bulk Modulus (GPa) = 30.75615 39.53247 35.14431
# Shear Modulus (GPa) = 3.92310 20.08303 12.00307
#
# Velocity S-wave (km/s) = 1.40715 3.18375 2.46133
# Velocity P-wave (km/s) = 4.26184 5.78514 5.08090
#
# Compressibility (1/GPa) = 0.03251382
#
# Stress axis : x y z
#
# Youngs Moduli (GPa) = 64.71657 27.18897 88.15798
#
# Poissons Ratio (x) = 0.16357 0.17010
# Poissons Ratio (y) = 0.38934 0.66867
# Poissons Ratio (z) = 0.12487 0.20623
#
# Static dielectric constant tensor:
#      x y z
#    x 1.735020 0.000000 0.000000 
#    y 0.000000 1.680150 0.000000 
#    z 0.000000 0.000000 1.723400 
# 
# From -- ./inp_files/28979.got.cif
#   From: 2010.05.17/outbox.cif.g08.bks.cpg/sg59_15_cif.got.tgz:28979.got - 2010.06.03 14:40:33.
