data_PCOD9451737
_publ_section_title
;
Structure prediction by ZEFSAII (Michael W. Deem and Ramdas Pophale) SiO2 
 PCOD9451737
Probable space group: P M M N
;
_chemical_formula_sum "Si O2"
_cell_formula_units_Z 48
_cell_length_a 25.501124
_cell_length_b 8.851853
_cell_length_c 12.100840
_cell_angle_alpha 90.000000
_cell_angle_beta 90.000000
_cell_angle_gamma 90.000000
_cell_volume 2731.549247
_symmetry_space_group_name_H-M "P M M N"
_symmetry_group_IT_number 59
_space_group.IT_coordinate_system_code '2'
_symmetry_cell_setting 'orthorhombic'
loop_
_space_group_symop_operation_xyz
x,y,z
1/2-x,1/2-y,z
1/2+x,-y,-z
-x,1/2+y,-z
-x,-y,-z
1/2+x,1/2+y,-z
1/2-x,y,z
x,1/2-y,z
loop_
_atom_site_type_symbol
_atom_site_label
_atom_site_fract_x
_atom_site_fract_y
_atom_site_fract_z
Si Si1 0.499769 0.568478 0.378613
Si Si2 0.399815 0.931435 0.229080
Si Si3 0.601449 0.931742 0.235733
Si Si4 0.441536 0.068426 0.004465
Si Si5 0.688123 0.930125 0.621792
Si Si6 0.188551 0.570107 0.615302
O O1 0.500000 0.500000 0.500000
O O2 0.500008 0.750000 0.387110
O O3 0.448154 0.525395 0.309681
O O4 0.551276 0.523375 0.309921
O O5 0.398777 0.750000 0.220187
O O6 0.411753 0.003173 0.110437
O O7 0.347263 0.992189 0.285726
O O8 0.606959 0.750000 0.242866
O O9 0.652278 0.008748 0.287350
O O10 0.588286 0.970291 0.109315
O O11 0.445404 0.250000 0.011109
O O12 0.500000 0.000000 0.000000
O O13 0.750000 0.962534 0.637122
O O14 0.680703 0.750000 0.624012
O O15 0.673019 0.992971 0.500806
O O16 0.250000 0.535862 0.634407
O O17 0.182772 0.750000 0.604202
#
# Coordination Sequence:
#
# PCOD9451737 Si02
#       6
#     8   8   8   8   8   8
#     4  10  21  35  51  79 114 144 179 228 280 336
#     4  11  22  38  58  84 116 149 191 238 287 342
#     4  10  21  38  57  80 113 149 192 234 278 339
#     4  11  22  39  60  83 113 154 196 237 286 341
#     4  10  21  38  60  86 116 152 193 235 284 342
#     4  10  21  37  58  86 117 149 189 236 287 340
#
# _framework density 17.572444000000001
#
# number of rings (size 3 to 8) (size 9 to 14) (size 15 to 20)
#    0.000    1.667    1.667    3.000    0.000    8.000 
#    0.000    0.833    0.000    1.000    0.000    0.000 
#    0.000    0.000    0.000    0.000    0.000    0.000 
#
# Total GULP energy -268213.609904 kJ/mol
# GULP energy per Si atom -5587.783540 kJ/mol
# Density = 1.753245 g / cm^3
# Si number density = 17.572444 Si / 1000 Ang^3
#
#
#
# Elastic Constant Matrix: (Units=GPa)
#
#
# Indices 1 2 3 4 5 6 
#
# 1 90.5763 49.9924 82.6236 0.0000 0.0000 0.0000
# 2 49.9924 53.0860 65.5400 0.0000 0.0000 0.0000
# 3 82.6236 65.5400 185.3236 0.0000 0.0000 0.0000
# 4 0.0000 0.0000 0.0000 34.3846 0.0000 0.0000
# 5 0.0000 0.0000 0.0000 0.0000 24.5232 0.0000
# 6 0.0000 0.0000 0.0000 0.0000 0.0000 30.5649
#
#
#
# Elastic Compliance Matrix: (Units=1/GPa)
#
#
# Indices 1 2 3 4 5 6 
#
# 1 0.025437 -0.017668 -0.005093 0.000000 0.000000 0.000000
# 2 -0.017668 0.045707 -0.008288 0.000000 0.000000 0.000000
# 3 -0.005093 -0.008288 0.010597 0.000000 0.000000 0.000000
# 4 0.000000 0.000000 0.000000 0.029083 0.000000 0.000000
# 5 0.000000 0.000000 0.000000 0.000000 0.040778 0.000000
# 6 0.000000 0.000000 0.000000 0.000000 0.000000 0.032717
#
#
# Mechanical properties :
#
#
# Convention : Reuss Voigt Hill
#
# Bulk Modulus (GPa) = 50.90033 80.58866 65.74449
# Shear Modulus (GPa) = 19.76565 26.61654 23.19109
#
# Velocity S-wave (km/s) = 3.35746 3.89610 3.63677
# Velocity P-wave (km/s) = 6.63769 8.13633 7.42492
#
# Compressibility (1/GPa) = 0.01964624
#
# Stress axis : x y z
#
# Youngs Moduli (GPa) = 39.31234 21.87837 94.36284
#
# Poissons Ratio (x) = 0.38654 0.48056
# Poissons Ratio (y) = 0.69455 0.78205
# Poissons Ratio (z) = 0.20020 0.18132
#
# Static dielectric constant tensor:
#      x y z
#    x 1.586660 0.000000 0.000000 
#    y 0.000000 1.586550 0.000000 
#    z 0.000000 0.000000 1.566730 
# 
# From -- ./inp_files/14298.got.cif
#   From: 2010.05.17/outbox.cif.g08.bks.cpg/sg59_8_cif.got.tgz:14298.got - 2010.06.03 14:40:33.
