data_PCOD9451379
_publ_section_title
;
Structure prediction by ZEFSAII (Michael W. Deem and Ramdas Pophale) SiO2 
 PCOD9451379
Probable space group: P M M N
;
_chemical_formula_sum "Si O2"
_cell_formula_units_Z 48
_cell_length_a 8.810350
_cell_length_b 19.368534
_cell_length_c 15.380921
_cell_angle_alpha 90.000000
_cell_angle_beta 90.000000
_cell_angle_gamma 90.000000
_cell_volume 2624.655170
_symmetry_space_group_name_H-M "P M M N"
_symmetry_group_IT_number 59
_space_group.IT_coordinate_system_code '2'
_symmetry_cell_setting 'orthorhombic'
loop_
_space_group_symop_operation_xyz
x,y,z
1/2-x,1/2-y,z
1/2+x,-y,-z
-x,1/2+y,-z
-x,-y,-z
1/2+x,1/2+y,-z
1/2-x,y,z
x,1/2-y,z
loop_
_atom_site_type_symbol
_atom_site_label
_atom_site_fract_x
_atom_site_fract_y
_atom_site_fract_z
Si Si1 0.068169 0.830820 0.899416
Si Si2 0.432197 0.830523 0.557775
Si Si3 0.930827 0.570066 0.040176
Si Si4 0.067368 0.581481 0.726727
Si Si5 0.569478 0.433610 0.769315
Si Si6 0.569600 0.831563 0.371055
O O1 0.250000 0.837315 0.913424
O O2 0.031933 0.750000 0.892495
O O3 0.032568 0.870714 0.810004
O O4 0.982389 0.867923 0.977847
O O5 0.250000 0.835275 0.545987
O O6 0.467230 0.750000 0.577215
O O7 0.474688 0.878599 0.638581
O O8 0.512979 0.849690 0.467930
O O9 0.750000 0.563994 0.042622
O O10 0.994430 0.579257 0.136932
O O11 0.000000 0.500000 0.000000
O O12 0.250000 0.570546 0.725959
O O13 0.985617 0.508695 0.737357
O O14 0.750000 0.432492 0.777866
O O15 0.514159 0.377113 0.700331
O O16 0.750000 0.842165 0.364573
O O17 0.537775 0.750000 0.358634
#
# Coordination Sequence:
#
# PCOD9451379 Si02
#       6
#     8   8   8   8   8   8
#     4  10  21  38  62  92 124 160 201 245 295 354
#     4   9  18  35  60  89 121 159 200 243 296 355
#     4  12  24  41  63  87 119 159 200 246 300 357
#     4  10  20  36  60  89 124 161 198 244 295 354
#     4  12  25  40  62  89 118 157 200 248 302 359
#     4  10  22  41  63  87 117 155 200 252 304 355
#
# _framework density 18.288115999999999
#
# number of rings (size 3 to 8) (size 9 to 14) (size 15 to 20)
#    0.000    1.500    1.667    4.000    0.000    5.333 
#    0.000    0.000    0.000    3.000    0.000    0.000 
#    0.000    0.000    0.000    0.000    0.000    0.000 
#
# Total GULP energy -268337.618863 kJ/mol
# GULP energy per Si atom -5590.367060 kJ/mol
# Density = 1.824649 g / cm^3
# Si number density = 18.288116 Si / 1000 Ang^3
#
#
#
# Elastic Constant Matrix: (Units=GPa)
#
#
# Indices 1 2 3 4 5 6 
#
# 1 96.4055 75.2810 86.4309 0.0000 0.0000 0.0000
# 2 75.2810 105.5764 88.6013 0.0000 0.0000 0.0000
# 3 86.4309 88.6013 169.8496 0.0000 0.0000 0.0000
# 4 0.0000 0.0000 0.0000 40.0290 0.0000 0.0000
# 5 0.0000 0.0000 0.0000 0.0000 32.0355 0.0000
# 6 0.0000 0.0000 0.0000 0.0000 0.0000 25.9536
#
#
#
# Elastic Compliance Matrix: (Units=1/GPa)
#
#
# Indices 1 2 3 4 5 6 
#
# 1 0.026980 -0.013725 -0.006570 0.000000 0.000000 0.000000
# 2 -0.013725 0.023829 -0.005446 0.000000 0.000000 0.000000
# 3 -0.006570 -0.005446 0.012072 0.000000 0.000000 0.000000
# 4 0.000000 0.000000 0.000000 0.024982 0.000000 0.000000
# 5 0.000000 0.000000 0.000000 0.000000 0.031215 0.000000
# 6 0.000000 0.000000 0.000000 0.000000 0.000000 0.038530
#
#
# Mechanical properties :
#
#
# Convention : Reuss Voigt Hill
#
# Bulk Modulus (GPa) = 87.72508 96.93977 92.33242
# Shear Modulus (GPa) = 23.48637 27.70484 25.59560
#
# Velocity S-wave (km/s) = 3.58752 3.89641 3.74515
# Velocity P-wave (km/s) = 8.07669 8.56532 8.32459
#
# Compressibility (1/GPa) = 0.01139925
#
# Stress axis : x y z
#
# Youngs Moduli (GPa) = 37.06389 41.96650 82.83811
#
# Poissons Ratio (x) = 0.57598 0.54425
# Poissons Ratio (y) = 0.50869 0.45114
# Poissons Ratio (z) = 0.24351 0.22855
#
# Static dielectric constant tensor:
#      x y z
#    x 1.615000 0.000000 0.000000 
#    y 0.000000 1.605880 0.000000 
#    z 0.000000 0.000000 1.596850 
# 
# From -- ./inp_files/20345.got.cif
#   From: 2010.05.17/outbox.cif.g08.bks.cpg/sg59_11_cif.got.tgz:20345.got - 2010.06.03 14:40:33.
