data_PCOD9451420
_publ_section_title
;
Structure prediction by ZEFSAII (Michael W. Deem and Ramdas Pophale) SiO2 
 PCOD9451420
Probable space group: P M M N
;
_chemical_formula_sum "Si O2"
_cell_formula_units_Z 26
_cell_length_a 10.617835
_cell_length_b 9.702425
_cell_length_c 12.687342
_cell_angle_alpha 90.000000
_cell_angle_beta 90.000000
_cell_angle_gamma 90.000000
_cell_volume 1307.034085
_symmetry_space_group_name_H-M "P M M N"
_symmetry_group_IT_number 59
_space_group.IT_coordinate_system_code '2'
_symmetry_cell_setting 'orthorhombic'
loop_
_space_group_symop_operation_xyz
x,y,z
1/2-x,1/2-y,z
1/2+x,-y,-z
-x,1/2+y,-z
-x,-y,-z
1/2+x,1/2+y,-z
1/2-x,y,z
x,1/2-y,z
loop_
_atom_site_type_symbol
_atom_site_label
_atom_site_fract_x
_atom_site_fract_y
_atom_site_fract_z
Si Si1 0.100014 0.250000 0.319389
Si Si2 0.250000 0.750000 0.227627
Si Si3 0.488205 0.550169 0.264709
Si Si4 0.889826 0.910068 0.049121
Si Si5 0.399404 0.250000 0.570700
O O1 0.250000 0.250000 0.298833
O O2 0.039662 0.389070 0.274656
O O3 0.081182 0.250000 0.445813
O O4 0.361390 0.630736 0.232769
O O5 0.590404 0.579528 0.174446
O O6 0.537379 0.618218 0.372918
O O7 0.750000 0.958239 0.019088
O O8 0.902476 0.750000 0.018173
O O9 0.000000 0.000000 0.000000
O O10 0.250000 0.250000 0.590293
#
# Coordination Sequence:
#
# PCOD9451420 Si02
#       5
#     4   2   8   8   4
#     4  11  23  37  62 101 130 163 218 269 315 377
#     4  10  20  36  68  88 122 182 206 256 322 388
#     4  11  22  41  65  92 133 169 215 261 330 378
#     4  11  26  45  69  96 129 168 215 263 326 386
#     4  10  21  41  66  86 128 174 216 261 322 380
#
# _framework density 19.892365999999999
#
# number of rings (size 3 to 8) (size 9 to 14) (size 15 to 20)
#    0.000    1.231    4.615    1.846    4.308    0.615 
#    0.000    2.308    3.385    0.000    0.000    0.000 
#    0.000    0.000    0.000    0.000    0.000    0.000 
#
# Total GULP energy -144811.902019 kJ/mol
# GULP energy per Si atom -5569.688539 kJ/mol
# Density = 1.984709 g / cm^3
# Si number density = 19.892366 Si / 1000 Ang^3
#
#
#
# Elastic Constant Matrix: (Units=GPa)
#
#
# Indices 1 2 3 4 5 6 
#
# 1 141.9245 56.3783 19.8199 0.0000 0.0000 0.0000
# 2 56.3783 165.9454 12.8459 0.0000 0.0000 0.0000
# 3 19.8199 12.8459 25.3948 0.0000 0.0000 0.0000
# 4 0.0000 0.0000 0.0000 24.9276 0.0000 0.0000
# 5 0.0000 0.0000 0.0000 0.0000 13.2972 0.0000
# 6 0.0000 0.0000 0.0000 0.0000 0.0000 34.5578
#
#
#
# Elastic Compliance Matrix: (Units=1/GPa)
#
#
# Indices 1 2 3 4 5 6 
#
# 1 0.008851 -0.002573 -0.005606 0.000000 0.000000 0.000000
# 2 -0.002573 0.007020 -0.001543 0.000000 0.000000 0.000000
# 3 -0.005606 -0.001543 0.044534 0.000000 0.000000 0.000000
# 4 0.000000 0.000000 0.000000 0.040116 0.000000 0.000000
# 5 0.000000 0.000000 0.000000 0.000000 0.075204 0.000000
# 6 0.000000 0.000000 0.000000 0.000000 0.000000 0.028937
#
#
# Mechanical properties :
#
#
# Convention : Reuss Voigt Hill
#
# Bulk Modulus (GPa) = 24.41374 56.81700 40.61537
# Shear Modulus (GPa) = 21.02964 30.83790 25.93377
#
# Velocity S-wave (km/s) = 3.25494 3.94158 3.61460
# Velocity P-wave (km/s) = 5.14060 7.02417 6.15486
#
# Compressibility (1/GPa) = 0.04096055
#
# Stress axis : x y z
#
# Youngs Moduli (GPa) = 112.98069 142.45681 22.45469
#
# Poissons Ratio (x) = 0.36655 0.12589
# Poissons Ratio (y) = 0.29071 0.03464
# Poissons Ratio (z) = 0.63342 0.21976
#
# Static dielectric constant tensor:
#      x y z
#    x 1.672650 0.000000 0.000000 
#    y 0.000000 1.693780 0.000000 
#    z 0.000000 0.000000 1.738050 
# 
# From -- ./inp_files/15134.got.cif
#   From: 2010.05.17/outbox.cif.g08.bks.cpg/sg59_8_cif.got.tgz:15134.got - 2010.06.03 14:40:33.
