data_PCOD9451926
_publ_section_title
;
Structure prediction by ZEFSAII (Michael W. Deem and Ramdas Pophale) SiO2 
 PCOD9451926
Probable space group: P M M N
;
_chemical_formula_sum "Si O2"
_cell_formula_units_Z 64
_cell_length_a 26.030888
_cell_length_b 26.243614
_cell_length_c 5.158334
_cell_angle_alpha 90.000000
_cell_angle_beta 90.000000
_cell_angle_gamma 90.000000
_cell_volume 3523.887897
_symmetry_space_group_name_H-M "P M M N"
_symmetry_group_IT_number 59
_space_group.IT_coordinate_system_code '2'
_symmetry_cell_setting 'orthorhombic'
loop_
_space_group_symop_operation_xyz
x,y,z
1/2-x,1/2-y,z
1/2+x,-y,-z
-x,1/2+y,-z
-x,-y,-z
1/2+x,1/2+y,-z
1/2-x,y,z
x,1/2-y,z
loop_
_atom_site_type_symbol
_atom_site_label
_atom_site_fract_x
_atom_site_fract_y
_atom_site_fract_z
Si Si1 0.659778 0.475967 0.512516
Si Si2 0.807471 0.964350 0.005205
Si Si3 0.646717 0.141089 0.395115
Si Si4 0.310878 0.691803 0.104680
Si Si5 0.961042 0.190937 0.419403
Si Si6 0.052575 0.030750 0.520401
Si Si7 0.085771 0.090607 0.027223
Si Si8 0.531421 0.691501 0.083689
O O1 0.684993 0.508601 0.281881
O O2 0.662312 0.416567 0.454004
O O3 0.600076 0.492216 0.518793
O O4 0.684398 0.493167 0.782824
O O5 0.750000 0.943032 0.984677
O O6 0.854051 0.924426 0.968181
O O7 0.676240 0.175959 0.603081
O O8 0.586618 0.152921 0.435967
O O9 0.660968 0.156404 0.103197
O O10 0.250000 0.688300 0.062850
O O11 0.327513 0.750000 0.059805
O O12 0.942776 0.250000 0.447323
O O13 0.002047 0.181891 0.646866
O O14 0.989494 0.186669 0.145043
O O15 0.059821 0.072690 0.295186
O O16 0.060109 0.057479 0.797488
O O17 0.000000 0.000000 0.500000
O O18 0.074325 0.149284 0.968454
O O19 0.550161 0.750000 0.083062
#
# Coordination Sequence:
#
# PCOD9451926 Si02
#       8
#     8   8   8   8   8   8   8   8
#     4  10  23  35  54  86 105 139 185 222 271 321
#     4  10  21  40  58  78 112 144 181 225 270 331
#     4  12  23  37  57  78 108 136 185 226 275 323
#     4  11  24  40  56  74  99 138 184 232 283 326
#     4  10  21  36  54  78 110 150 182 220 274 323
#     4  10  21  37  54  79 113 146 180 220 264 319
#     4  10  21  36  58  83 108 148 184 216 276 323
#     4  10  21  36  56  84 114 144 183 223 268 327
#
# _framework density 18.161759
#
# number of rings (size 3 to 8) (size 9 to 14) (size 15 to 20)
#    0.000    1.625    0.000    4.500    3.500    5.000 
#    0.000    0.000    0.000    0.375    0.000    0.000 
#    0.000    9.000    0.000    0.000    0.000    1.500 
#
# Total GULP energy -357678.878930 kJ/mol
# GULP energy per Si atom -5588.732483 kJ/mol
# Density = 1.812042 g / cm^3
# Si number density = 18.161759 Si / 1000 Ang^3
#
#
#
# Elastic Constant Matrix: (Units=GPa)
#
#
# Indices 1 2 3 4 5 6 
#
# 1 86.9246 28.6620 0.4714 0.0000 0.0000 0.0000
# 2 28.6620 51.4295 -24.9650 0.0000 0.0000 0.0000
# 3 0.4714 -24.9650 58.0887 0.0000 0.0000 0.0000
# 4 0.0000 0.0000 0.0000 20.1164 0.0000 0.0000
# 5 0.0000 0.0000 0.0000 0.0000 13.5716 0.0000
# 6 0.0000 0.0000 0.0000 0.0000 0.0000 4.1942
#
#
#
# Elastic Compliance Matrix: (Units=1/GPa)
#
#
# Indices 1 2 3 4 5 6 
#
# 1 0.015049 -0.010673 -0.004709 0.000000 0.000000 0.000000
# 2 -0.010673 0.032139 0.013899 0.000000 0.000000 0.000000
# 3 -0.004709 0.013899 0.023227 0.000000 0.000000 0.000000
# 4 0.000000 0.000000 0.000000 0.049711 0.000000 0.000000
# 5 0.000000 0.000000 0.000000 0.000000 0.073684 0.000000
# 6 0.000000 0.000000 0.000000 0.000000 0.000000 0.238427
#
#
# Mechanical properties :
#
#
# Convention : Reuss Voigt Hill
#
# Bulk Modulus (GPa) = 14.82589 22.75330 18.78959
# Shear Modulus (GPa) = 10.92457 20.39473 15.65965
#
# Velocity S-wave (km/s) = 2.45524 3.35468 2.93956
# Velocity P-wave (km/s) = 4.02723 5.24981 4.67863
#
# Compressibility (1/GPa) = 0.06744957
#
# Stress axis : x y z
#
# Youngs Moduli (GPa) = 66.44993 31.11483 43.05378
#
# Poissons Ratio (x) = 0.33208 0.20274
# Poissons Ratio (y) = 0.70920 -0.59841
# Poissons Ratio (z) = 0.31291 -0.43247
#
# Static dielectric constant tensor:
#      x y z
#    x 1.613550 0.000000 0.000000 
#    y 0.000000 1.613190 0.000000 
#    z 0.000000 0.000000 1.611330 
# 
# From -- ./inp_files/3942.got.cif
#   From: 2010.05.17/outbox.cif.g08.bks.cpg/sg59_2_cif.got.tgz:3942.got - 2010.06.03 14:40:33.
