data_PCOD9451396
_publ_section_title
;
Structure prediction by ZEFSAII (Michael W. Deem and Ramdas Pophale) SiO2 
 PCOD9451396
Probable space group: P M M N
;
_chemical_formula_sum "Si O2"
_cell_formula_units_Z 64
_cell_length_a 8.453118
_cell_length_b 32.124944
_cell_length_c 12.027323
_cell_angle_alpha 90.000000
_cell_angle_beta 90.000000
_cell_angle_gamma 90.000000
_cell_volume 3266.091032
_symmetry_space_group_name_H-M "P M M N"
_symmetry_group_IT_number 59
_space_group.IT_coordinate_system_code '2'
_symmetry_cell_setting 'orthorhombic'
loop_
_space_group_symop_operation_xyz
x,y,z
1/2-x,1/2-y,z
1/2+x,-y,-z
-x,1/2+y,-z
-x,-y,-z
1/2+x,1/2+y,-z
1/2-x,y,z
x,1/2-y,z
loop_
_atom_site_type_symbol
_atom_site_label
_atom_site_fract_x
_atom_site_fract_y
_atom_site_fract_z
Si Si1 0.940233 0.129990 0.718966
Si Si2 0.942241 0.798192 0.902021
Si Si3 0.441268 0.202291 0.582736
Si Si4 0.937535 0.962600 0.921655
Si Si5 0.061207 0.524623 0.673409
Si Si6 0.068133 0.199392 0.343339
Si Si7 0.941794 0.058772 0.554013
Si Si8 0.060176 0.621822 0.030661
O O1 0.750000 0.129570 0.719377
O O2 0.994775 0.098734 0.622669
O O3 0.999586 0.174931 0.683431
O O4 0.993800 0.117103 0.841399
O O5 0.750000 0.798214 0.899188
O O6 0.989355 0.750000 0.926438
O O7 0.002137 0.809963 0.777282
O O8 0.999582 0.834092 0.983792
O O9 0.250000 0.201327 0.577948
O O10 0.490466 0.250000 0.595654
O O11 0.502621 0.186346 0.461825
O O12 0.750000 0.962384 0.930675
O O13 0.984972 0.969607 0.793383
O O14 0.001905 0.918007 0.962126
O O15 0.000000 0.000000 0.000000
O O16 0.250000 0.526347 0.686758
O O17 0.013199 0.557148 0.575987
O O18 0.011905 0.480787 0.618734
O O19 0.250000 0.184441 0.340969
O O20 0.073750 0.250000 0.348176
O O21 0.750000 0.055762 0.558520
O O22 0.250000 0.622187 0.028038
#
# Coordination Sequence:
#
# PCOD9451396 Si02
#       8
#     8   8   8   8   8   8   8   8
#     4  10  22  38  54  74 106 147 184 226 278 325
#     4   9  18  35  59  84 113 151 193 238 288 342
#     4   9  18  33  54  79 105 135 176 226 276 330
#     4  12  25  42  64  88 117 152 191 236 288 345
#     4  10  20  36  61  91 119 148 184 228 280 337
#     4   7  12  27  51  77 104 135 174 223 279 333
#     4   9  19  37  59  84 116 151 189 232 277 330
#     4  11  24  40  57  81 115 153 195 240 286 340
#
# _framework density 19.595289999999999
#
# number of rings (size 3 to 8) (size 9 to 14) (size 15 to 20)
#    0.000    2.375    0.000    4.125    0.000    5.000 
#    0.000    5.625    0.000    2.250    0.000    0.000 
#    0.000    0.000    0.000    0.000    0.000    0.000 
#
# Total GULP energy -356941.392593 kJ/mol
# GULP energy per Si atom -5577.209259 kJ/mol
# Density = 1.955069 g / cm^3
# Si number density = 19.595290 Si / 1000 Ang^3
#
#
#
# Elastic Constant Matrix: (Units=GPa)
#
#
# Indices 1 2 3 4 5 6 
#
# 1 26.9030 19.5526 29.2215 0.0000 0.0000 0.0000
# 2 19.5526 87.9020 60.2990 0.0000 0.0000 0.0000
# 3 29.2215 60.2990 138.9260 0.0000 0.0000 0.0000
# 4 0.0000 0.0000 0.0000 32.5435 0.0000 0.0000
# 5 0.0000 0.0000 0.0000 0.0000 27.7114 0.0000
# 6 0.0000 0.0000 0.0000 0.0000 0.0000 26.5225
#
#
#
# Elastic Compliance Matrix: (Units=1/GPa)
#
#
# Indices 1 2 3 4 5 6 
#
# 1 0.050020 -0.005566 -0.008105 0.000000 0.000000 0.000000
# 2 -0.005566 0.016819 -0.006129 0.000000 0.000000 0.000000
# 3 -0.008105 -0.006129 0.011563 0.000000 0.000000 0.000000
# 4 0.000000 0.000000 0.000000 0.030728 0.000000 0.000000
# 5 0.000000 0.000000 0.000000 0.000000 0.036086 0.000000
# 6 0.000000 0.000000 0.000000 0.000000 0.000000 0.037704
#
#
# Mechanical properties :
#
#
# Convention : Reuss Voigt Hill
#
# Bulk Modulus (GPa) = 25.77278 52.43079 39.10179
# Shear Modulus (GPa) = 21.23550 26.99935 24.11742
#
# Velocity S-wave (km/s) = 3.29554 3.71597 3.51205
# Velocity P-wave (km/s) = 5.25945 6.72504 6.03689
#
# Compressibility (1/GPa) = 0.03880063
#
# Stress axis : x y z
#
# Youngs Moduli (GPa) = 19.99214 59.45662 86.48115
#
# Poissons Ratio (x) = 0.33095 0.70094
# Poissons Ratio (y) = 0.11128 0.53007
# Poissons Ratio (z) = 0.16204 0.36443
#
# Static dielectric constant tensor:
#      x y z
#    x 1.679070 0.000000 0.000000 
#    y 0.000000 1.675830 0.000000 
#    z 0.000000 0.000000 1.715180 
# 
# From -- ./inp_files/14890.got.cif
#   From: 2010.05.17/outbox.cif.g08.bks.cpg/sg59_8_cif.got.tgz:14890.got - 2010.06.03 14:40:33.
