data_PCOD9451716
_publ_section_title
;
Structure prediction by ZEFSAII (Michael W. Deem and Ramdas Pophale) SiO2 
 PCOD9451716
Probable space group: P M M N
;
_chemical_formula_sum "Si O2"
_cell_formula_units_Z 64
_cell_length_a 31.983086
_cell_length_b 9.154365
_cell_length_c 11.965141
_cell_angle_alpha 90.000000
_cell_angle_beta 90.000000
_cell_angle_gamma 90.000000
_cell_volume 3503.211930
_symmetry_space_group_name_H-M "P M M N"
_symmetry_group_IT_number 59
_space_group.IT_coordinate_system_code '2'
_symmetry_cell_setting 'orthorhombic'
loop_
_space_group_symop_operation_xyz
x,y,z
1/2-x,1/2-y,z
1/2+x,-y,-z
-x,1/2+y,-z
-x,-y,-z
1/2+x,1/2+y,-z
1/2-x,y,z
x,1/2-y,z
loop_
_atom_site_type_symbol
_atom_site_label
_atom_site_fract_x
_atom_site_fract_y
_atom_site_fract_z
Si Si1 0.701178 0.080524 0.552041
Si Si2 0.379868 0.418159 0.133024
Si Si3 0.577881 0.585809 0.637412
Si Si4 0.454176 0.577896 0.002095
Si Si5 0.797627 0.074642 0.817323
Si Si6 0.574407 0.080015 0.252753
Si Si7 0.131469 0.421457 0.584635
Si Si8 0.999344 0.921231 0.380789
O O1 0.750000 0.070212 0.523038
O O2 0.687796 0.250000 0.540811
O O3 0.698088 0.043596 0.684007
O O4 0.673239 0.982797 0.471691
O O5 0.378848 0.250000 0.094191
O O6 0.387654 0.416187 0.266583
O O7 0.335395 0.497385 0.117559
O O8 0.420093 0.498774 0.080578
O O9 0.558822 0.750000 0.639450
O O10 0.597313 0.561029 0.515489
O O11 0.544263 0.464150 0.667549
O O12 0.459644 0.750000 0.030885
O O13 0.432982 0.570574 0.879309
O O14 0.500000 0.500000 0.000000
O O15 0.750000 0.032347 0.849542
O O16 0.801092 0.250000 0.829614
O O17 0.572382 0.250000 0.285481
O O18 0.615581 0.009109 0.307449
O O19 0.536379 0.991557 0.306838
O O20 0.134481 0.250000 0.609173
O O21 0.993426 0.750000 0.391505
O O22 0.000000 0.000000 0.500000
#
# Coordination Sequence:
#
# PCOD9451716 Si02
#       8
#     8   8   8   8   8   8   8   8
#     4   9  18  33  54  82 119 159 194 230 280 344
#     4  11  22  37  59  85 117 154 192 238 289 344
#     4  10  21  35  50  78 115 148 185 227 276 332
#     4  11  25  44  64  86 113 150 198 249 297 350
#     4   9  18  33  55  85 120 156 194 237 287 345
#     4  11  24  41  59  80 110 147 189 236 283 335
#     4  11  21  34  55  83 116 149 186 231 280 338
#     4  12  23  34  52  77 107 144 183 226 276 328
#
# _framework density 18.268948000000002
#
# number of rings (size 3 to 8) (size 9 to 14) (size 15 to 20)
#    0.000    1.500    2.500    4.125    0.000    7.000 
#    0.000    1.250    0.000    0.750    0.000    5.250 
#    0.000    0.000    0.000    0.000    0.000    0.000 
#
# Total GULP energy -357191.521994 kJ/mol
# GULP energy per Si atom -5581.117531 kJ/mol
# Density = 1.822737 g / cm^3
# Si number density = 18.268948 Si / 1000 Ang^3
#
#
#
# Elastic Constant Matrix: (Units=GPa)
#
#
# Indices 1 2 3 4 5 6 
#
# 1 112.7291 67.7978 22.9897 0.0000 0.0000 0.0000
# 2 67.7978 126.0047 37.6210 0.0000 0.0000 0.0000
# 3 22.9897 37.6210 43.6315 0.0000 0.0000 0.0000
# 4 0.0000 0.0000 0.0000 21.4598 0.0000 0.0000
# 5 0.0000 0.0000 0.0000 0.0000 30.2558 0.0000
# 6 0.0000 0.0000 0.0000 0.0000 0.0000 35.2606
#
#
#
# Elastic Compliance Matrix: (Units=1/GPa)
#
#
# Indices 1 2 3 4 5 6 
#
# 1 0.013155 -0.006745 -0.001116 0.000000 0.000000 0.000000
# 2 -0.006745 0.014146 -0.008643 0.000000 0.000000 0.000000
# 3 -0.001116 -0.008643 0.030960 0.000000 0.000000 0.000000
# 4 0.000000 0.000000 0.000000 0.046599 0.000000 0.000000
# 5 0.000000 0.000000 0.000000 0.000000 0.033052 0.000000
# 6 0.000000 0.000000 0.000000 0.000000 0.000000 0.028360
#
#
# Mechanical properties :
#
#
# Convention : Reuss Voigt Hill
#
# Bulk Modulus (GPa) = 39.59952 59.90913 49.75433
# Shear Modulus (GPa) = 24.07355 27.65902 25.86629
#
# Velocity S-wave (km/s) = 3.63399 3.89522 3.76687
# Velocity P-wave (km/s) = 6.27143 7.28659 6.79799
#
# Compressibility (1/GPa) = 0.02525283
#
# Stress axis : x y z
#
# Youngs Moduli (GPa) = 76.01705 70.69096 32.30001
#
# Poissons Ratio (x) = 0.47681 0.03603
# Poissons Ratio (y) = 0.51274 0.27918
# Poissons Ratio (z) = 0.08480 0.61101
#
# Static dielectric constant tensor:
#      x y z
#    x 1.653780 0.000000 0.000000 
#    y 0.000000 1.632520 0.000000 
#    z 0.000000 0.000000 1.638520 
# 
# From -- ./inp_files/19343.got.cif
#   From: 2010.05.17/outbox.cif.g08.bks.cpg/sg59_10_cif.got.tgz:19343.got - 2010.06.03 14:40:33.
