data_PCOD9451422
_publ_section_title
;
Structure prediction by ZEFSAII (Michael W. Deem and Ramdas Pophale) SiO2 
 PCOD9451422
Probable space group: P M M N
;
_chemical_formula_sum "Si O2"
_cell_formula_units_Z 46
_cell_length_a 12.798968
_cell_length_b 12.209417
_cell_length_c 15.289905
_cell_angle_alpha 90.000000
_cell_angle_beta 90.000000
_cell_angle_gamma 90.000000
_cell_volume 2389.321919
_symmetry_space_group_name_H-M "P M M N"
_symmetry_group_IT_number 59
_space_group.IT_coordinate_system_code '2'
_symmetry_cell_setting 'orthorhombic'
loop_
_space_group_symop_operation_xyz
x,y,z
1/2-x,1/2-y,z
1/2+x,-y,-z
-x,1/2+y,-z
-x,-y,-z
1/2+x,1/2+y,-z
1/2-x,y,z
x,1/2-y,z
loop_
_atom_site_type_symbol
_atom_site_label
_atom_site_fract_x
_atom_site_fract_y
_atom_site_fract_z
Si Si1 0.369412 0.125743 0.485778
Si Si2 0.976204 0.631977 0.230134
Si Si3 0.588896 0.442532 0.942653
Si Si4 0.250000 0.414317 0.842728
Si Si5 0.945096 0.454863 0.368947
Si Si6 0.750000 0.250000 0.997799
Si Si7 0.750000 0.129452 0.260627
Si Si8 0.250000 0.122022 0.052176
O O1 0.250000 0.110963 0.452665
O O2 0.375393 0.250000 0.521346
O O3 0.391566 0.034997 0.559630
O O4 0.461962 0.111127 0.415280
O O5 0.002193 0.750000 0.269006
O O6 0.854437 0.629395 0.202596
O O7 0.994743 0.534700 0.296953
O O8 0.039537 0.613594 0.141853
O O9 0.658887 0.349244 0.989535
O O10 0.654542 0.549350 0.914545
O O11 0.500000 0.500000 0.000000
O O12 0.250000 0.542457 0.817704
O O13 0.250000 0.389227 0.945530
O O14 0.852543 0.388972 0.320617
O O15 0.750000 0.250000 0.221550
O O16 0.250000 0.250000 0.074085
#
# Coordination Sequence:
#
# PCOD9451422 Si02
#       8
#     8   8   8   4   8   2   4   4
#     4  10  20  38  62  87 120 155 193 243 296 363
#     4  11  21  39  62  87 121 155 199 260 309 365
#     4  11  23  40  64  90 123 168 209 260 328 372
#     4  10  21  35  58  91 114 155 205 249 310 369
#     4  10  21  37  60  91 117 154 204 241 305 374
#     4  10  24  44  60  94 128 168 218 270 320 400
#     4  10  20  37  55  85 125 158 193 261 316 361
#     4  11  23  41  61  87 118 158 210 259 307 380
#
# _framework density 19.252324999999999
#
# number of rings (size 3 to 8) (size 9 to 14) (size 15 to 20)
#    0.000    1.565    3.478    1.826    1.217    0.000 
#    6.261    4.348    0.000    0.000    0.000    0.000 
#    0.000    0.000    0.000    0.000    0.000    0.000 
#
# Total GULP energy -256076.030963 kJ/mol
# GULP energy per Si atom -5566.870238 kJ/mol
# Density = 1.920851 g / cm^3
# Si number density = 19.252325 Si / 1000 Ang^3
#
#
#
# Elastic Constant Matrix: (Units=GPa)
#
#
# Indices 1 2 3 4 5 6 
#
# 1 101.8535 36.9811 1.5697 0.0000 0.0000 0.0000
# 2 36.9811 143.6863 -4.5707 0.0000 0.0000 0.0000
# 3 1.5697 -4.5707 20.4199 0.0000 0.0000 0.0000
# 4 0.0000 0.0000 0.0000 5.8819 0.0000 0.0000
# 5 0.0000 0.0000 0.0000 0.0000 -51.5833 0.0000
# 6 0.0000 0.0000 0.0000 0.0000 0.0000 14.6930
#
#
#
# Elastic Compliance Matrix: (Units=1/GPa)
#
#
# Indices 1 2 3 4 5 6 
#
# 1 0.010874 -0.002845 -0.001473 0.000000 0.000000 0.000000
# 2 -0.002845 0.007754 0.001954 0.000000 0.000000 0.000000
# 3 -0.001473 0.001954 0.049523 0.000000 0.000000 0.000000
# 4 0.000000 0.000000 0.000000 0.170014 0.000000 0.000000
# 5 0.000000 0.000000 0.000000 0.000000 -0.019386 0.000000
# 6 0.000000 0.000000 0.000000 0.000000 0.000000 0.068060
#
#
# Mechanical properties :
#
#
# Convention : Reuss Voigt Hill
#
# Bulk Modulus (GPa) = 15.76722 37.10220 26.43471
# Shear Modulus (GPa) = 15.98938 9.26361 12.62649
#
# Velocity S-wave (km/s) = 2.88500 2.19593 2.56372
# Velocity P-wave (km/s) = 4.39376 5.07374 4.74595
#
# Compressibility (1/GPa) = 0.06342274
#
# Stress axis : x y z
#
# Youngs Moduli (GPa) = 91.96356 128.96352 20.19280
#
# Poissons Ratio (x) = 0.36697 0.02974
# Poissons Ratio (y) = 0.26168 -0.03946
# Poissons Ratio (z) = 0.13545 -0.25205
#
# Static dielectric constant tensor:
#      x y z
#    x 1.719170 0.000000 0.000000 
#    y 0.000000 1.656850 0.000000 
#    z 0.000000 0.000000 1.662900 
# 
# From -- ./inp_files/26951.got.cif
#   From: 2010.05.17/outbox.cif.g08.bks.cpg/sg59_14_cif.got.tgz:26951.got - 2010.06.03 14:40:33.
