data_PCOD9451410
_publ_section_title
;
Structure prediction by ZEFSAII (Michael W. Deem and Ramdas Pophale) SiO2 
 PCOD9451410
Probable space group: P M M N
;
_chemical_formula_sum "Si O2"
_cell_formula_units_Z 48
_cell_length_a 27.329231
_cell_length_b 14.741898
_cell_length_c 5.239601
_cell_angle_alpha 90.000000
_cell_angle_beta 90.000000
_cell_angle_gamma 90.000000
_cell_volume 2110.955265
_symmetry_space_group_name_H-M "P M M N"
_symmetry_group_IT_number 59
_space_group.IT_coordinate_system_code '2'
_symmetry_cell_setting 'orthorhombic'
loop_
_space_group_symop_operation_xyz
x,y,z
1/2-x,1/2-y,z
1/2+x,-y,-z
-x,1/2+y,-z
-x,-y,-z
1/2+x,1/2+y,-z
1/2-x,y,z
x,1/2-y,z
loop_
_atom_site_type_symbol
_atom_site_label
_atom_site_fract_x
_atom_site_fract_y
_atom_site_fract_z
Si Si1 0.989323 0.250000 0.430056
Si Si2 0.696749 0.150645 0.288463
Si Si3 0.884264 0.084199 0.649731
Si Si4 0.380105 0.355385 0.855595
Si Si5 0.434421 0.411031 0.354545
Si Si6 0.925749 0.250000 0.933990
Si Si7 0.696348 0.978870 0.922636
O O1 0.020051 0.157352 0.387095
O O2 0.968284 0.250000 0.716169
O O3 0.947301 0.250000 0.215980
O O4 0.750000 0.146600 0.435007
O O5 0.696085 0.250000 0.164407
O O6 0.646532 0.140220 0.443177
O O7 0.698939 0.068323 0.095344
O O8 0.897346 0.156764 0.867634
O O9 0.931379 0.020192 0.591029
O O10 0.843183 0.008979 0.716266
O O11 0.379359 0.250000 0.913206
O O12 0.397749 0.371401 0.569151
O O13 0.327910 0.400105 0.911526
O O14 0.417373 0.399884 0.060479
O O15 0.750000 0.955997 0.824277
#
# Coordination Sequence:
#
# PCOD9451410 Si02
#       7
#     4   8   8   8   8   4   8
#     4  12  26  48  66 102 122 172 220 284 336 400
#     4  10  20  36  62  93 130 176 221 261 312 385
#     4  11  24  41  64  96 131 180 212 272 330 393
#     4  11  20  39  69 100 127 178 216 263 324 389
#     4  11  23  42  73  92 131 169 219 268 338 398
#     4  12  30  42  73  94 138 164 225 282 330 398
#     4  10  23  39  62  96 138 175 221 267 313 386
#
# _framework density 22.738520000000001
#
# number of rings (size 3 to 8) (size 9 to 14) (size 15 to 20)
#    0.000    1.167    4.167    1.500    3.500    1.667 
#    0.000    0.000    0.000    2.000    0.000    0.000 
#    0.000    0.000    0.000    0.000    0.000    0.000 
#
# Total GULP energy -267782.036661 kJ/mol
# GULP energy per Si atom -5578.792430 kJ/mol
# Density = 2.268677 g / cm^3
# Si number density = 22.738520 Si / 1000 Ang^3
#
#
#
# Elastic Constant Matrix: (Units=GPa)
#
#
# Indices 1 2 3 4 5 6 
#
# 1 91.9535 26.8229 17.4003 0.0000 0.0000 0.0000
# 2 26.8229 87.2813 -2.1016 0.0000 0.0000 0.0000
# 3 17.4003 -2.1016 36.6796 0.0000 0.0000 0.0000
# 4 0.0000 0.0000 0.0000 32.7531 0.0000 0.0000
# 5 0.0000 0.0000 0.0000 0.0000 35.1310 0.0000
# 6 0.0000 0.0000 0.0000 0.0000 0.0000 91.0277
#
#
#
# Elastic Compliance Matrix: (Units=1/GPa)
#
#
# Indices 1 2 3 4 5 6 
#
# 1 0.013365 -0.004266 -0.006585 0.000000 0.000000 0.000000
# 2 -0.004266 0.012835 0.002759 0.000000 0.000000 0.000000
# 3 -0.006585 0.002759 0.030545 0.000000 0.000000 0.000000
# 4 0.000000 0.000000 0.000000 0.030531 0.000000 0.000000
# 5 0.000000 0.000000 0.000000 0.000000 0.028465 0.000000
# 6 0.000000 0.000000 0.000000 0.000000 0.000000 0.010986
#
#
# Mechanical properties :
#
#
# Convention : Reuss Voigt Hill
#
# Bulk Modulus (GPa) = 24.65383 33.35084 29.00233
# Shear Modulus (GPa) = 31.96298 43.36855 37.66576
#
# Velocity S-wave (km/s) = 3.75330 4.37197 4.07440
# Velocity P-wave (km/s) = 5.44508 6.33912 5.90903
#
# Compressibility (1/GPa) = 0.04056165
#
# Stress axis : x y z
#
# Youngs Moduli (GPa) = 74.81961 77.91419 32.73866
#
# Poissons Ratio (x) = 0.33238 0.21558
# Poissons Ratio (y) = 0.31918 -0.09033
# Poissons Ratio (z) = 0.49267 -0.21497
#
# Static dielectric constant tensor:
#      x y z
#    x 1.987730 0.000000 0.000000 
#    y 0.000000 1.837250 0.000000 
#    z 0.000000 0.000000 1.843730 
# 
# From -- ./inp_files/2172.got.cif
#   From: 2010.05.17/outbox.cif.g08.bks.cpg/sg59_2_cif.got.tgz:2172.got - 2010.06.03 14:40:33.
