data_PCOD9451753
_publ_section_title
;
Structure prediction by ZEFSAII (Michael W. Deem and Ramdas Pophale) SiO2 
 PCOD9451753
Probable space group: P M M N
;
_chemical_formula_sum "Si O2"
_cell_formula_units_Z 64
_cell_length_a 22.306828
_cell_length_b 9.562749
_cell_length_c 15.196755
_cell_angle_alpha 90.000000
_cell_angle_beta 90.000000
_cell_angle_gamma 90.000000
_cell_volume 3241.689671
_symmetry_space_group_name_H-M "P M M N"
_symmetry_group_IT_number 59
_space_group.IT_coordinate_system_code '2'
_symmetry_cell_setting 'orthorhombic'
loop_
_space_group_symop_operation_xyz
x,y,z
1/2-x,1/2-y,z
1/2+x,-y,-z
-x,1/2+y,-z
-x,-y,-z
1/2+x,1/2+y,-z
1/2-x,y,z
x,1/2-y,z
loop_
_atom_site_type_symbol
_atom_site_label
_atom_site_fract_x
_atom_site_fract_y
_atom_site_fract_z
Si Si1 0.002160 0.085199 0.738233
Si Si2 0.821757 0.091877 0.791770
Si Si3 0.346136 0.591598 0.884525
Si Si4 0.645265 0.587481 0.281744
Si Si5 0.681825 0.917155 0.481082
Si Si6 0.179470 0.095623 0.051368
Si Si7 0.510437 0.088540 0.089257
Si Si8 0.602929 0.413164 0.614260
O O1 0.989537 0.250000 0.756644
O O2 0.961530 0.045070 0.654455
O O3 0.072764 0.073346 0.717265
O O4 0.987231 0.993783 0.824358
O O5 0.750000 0.077441 0.781273
O O6 0.833180 0.250000 0.824277
O O7 0.853219 0.075513 0.698501
O O8 0.845432 0.983331 0.863601
O O9 0.323721 0.750000 0.887685
O O10 0.331028 0.513944 0.793908
O O11 0.325733 0.499560 0.966222
O O12 0.418152 0.594961 0.894304
O O13 0.658789 0.750000 0.260094
O O14 0.671117 0.556580 0.377728
O O15 0.750000 0.959807 0.505251
O O16 0.676999 0.750000 0.494450
O O17 0.631867 0.995203 0.537997
O O18 0.250000 0.109404 0.068830
O O19 0.153777 0.250000 0.037192
O O20 0.489232 0.250000 0.082083
O O21 0.500000 0.000000 0.000000
O O22 0.600168 0.250000 0.587652
#
# Coordination Sequence:
#
# PCOD9451753 Si02
#       8
#     8   8   8   8   8   8   8   8
#     4   9  19  36  56  81 113 149 189 230 281 339
#     4   9  18  33  51  72 104 143 179 223 278 333
#     4  10  21  36  55  80 110 144 183 230 279 328
#     4   9  19  38  59  79 111 150 187 232 285 337
#     4  10  22  39  59  84 112 145 187 234 286 342
#     4  10  21  35  52  77 108 144 186 228 275 334
#     4  10  21  35  53  79 112 149 189 231 273 324
#     4  10  21  36  57  84 113 144 183 232 284 342
#
# _framework density 19.742789999999999
#
# number of rings (size 3 to 8) (size 9 to 14) (size 15 to 20)
#    0.000    2.375    0.000    1.500    1.750    5.500 
#    0.000    2.500    0.000    0.000    0.000    0.000 
#    0.000    0.000    0.000    0.000    0.000    0.000 
#
# Total GULP energy -357293.363523 kJ/mol
# GULP energy per Si atom -5582.708805 kJ/mol
# Density = 1.969786 g / cm^3
# Si number density = 19.742790 Si / 1000 Ang^3
#
#
#
# Elastic Constant Matrix: (Units=GPa)
#
#
# Indices 1 2 3 4 5 6 
#
# 1 39.7548 6.8963 -4.1630 0.0000 0.0000 0.0000
# 2 6.8963 86.0538 33.5616 0.0000 0.0000 0.0000
# 3 -4.1630 33.5616 49.2999 0.0000 0.0000 0.0000
# 4 0.0000 0.0000 0.0000 37.5362 0.0000 0.0000
# 5 0.0000 0.0000 0.0000 0.0000 31.8200 0.0000
# 6 0.0000 0.0000 0.0000 0.0000 0.0000 19.2332
#
#
#
# Elastic Compliance Matrix: (Units=1/GPa)
#
#
# Indices 1 2 3 4 5 6 
#
# 1 0.026382 -0.004061 0.004993 0.000000 0.000000 0.000000
# 2 -0.004061 0.016446 -0.011539 0.000000 0.000000 0.000000
# 3 0.004993 -0.011539 0.028561 0.000000 0.000000 0.000000
# 4 0.000000 0.000000 0.000000 0.026641 0.000000 0.000000
# 5 0.000000 0.000000 0.000000 0.000000 0.031427 0.000000
# 6 0.000000 0.000000 0.000000 0.000000 0.000000 0.051993
#
#
# Mechanical properties :
#
#
# Convention : Reuss Voigt Hill
#
# Bulk Modulus (GPa) = 19.93094 27.52203 23.72648
# Shear Modulus (GPa) = 22.79042 26.97211 24.88126
#
# Velocity S-wave (km/s) = 3.40128 3.70019 3.55388
# Velocity P-wave (km/s) = 5.05393 5.67677 5.37438
#
# Compressibility (1/GPa) = 0.05017325
#
# Stress axis : x y z
#
# Youngs Moduli (GPa) = 37.90526 60.80341 35.01273
#
# Poissons Ratio (x) = 0.24694 -0.17480
# Poissons Ratio (y) = 0.15395 0.40402
# Poissons Ratio (z) = -0.18924 0.70162
#
# Static dielectric constant tensor:
#      x y z
#    x 1.741020 0.000000 0.000000 
#    y 0.000000 1.695910 0.000000 
#    z 0.000000 0.000000 1.644540 
# 
# From -- ./inp_files/24747.got.cif
#   From: 2010.05.17/outbox.cif.g08.bks.cpg/sg59_13_cif.got.tgz:24747.got - 2010.06.03 14:40:33.
