data_PCOD9451491
_publ_section_title
;
Structure prediction by ZEFSAII (Michael W. Deem and Ramdas Pophale) SiO2 
 PCOD9451491
Probable space group: P M M N
;
_chemical_formula_sum "Si O2"
_cell_formula_units_Z 48
_cell_length_a 8.970352
_cell_length_b 18.300424
_cell_length_c 15.723807
_cell_angle_alpha 90.000000
_cell_angle_beta 90.000000
_cell_angle_gamma 90.000000
_cell_volume 2581.239734
_symmetry_space_group_name_H-M "P M M N"
_symmetry_group_IT_number 59
_space_group.IT_coordinate_system_code '2'
_symmetry_cell_setting 'orthorhombic'
loop_
_space_group_symop_operation_xyz
x,y,z
1/2-x,1/2-y,z
1/2+x,-y,-z
-x,1/2+y,-z
-x,-y,-z
1/2+x,1/2+y,-z
1/2-x,y,z
x,1/2-y,z
loop_
_atom_site_type_symbol
_atom_site_label
_atom_site_fract_x
_atom_site_fract_y
_atom_site_fract_z
Si Si1 0.422458 0.250000 0.921018
Si Si2 0.080027 0.887872 0.023229
Si Si3 0.428805 0.165264 0.431963
Si Si4 0.078443 0.997491 0.866868
Si Si5 0.071484 0.750000 0.263016
Si Si6 0.427776 0.533521 0.669998
Si Si7 0.430044 0.881436 0.389015
O O1 0.250000 0.250000 0.902976
O O2 0.470865 0.179596 0.973439
O O3 0.506007 0.250000 0.830783
O O4 0.250000 0.863425 0.033482
O O5 0.066946 0.933115 0.936138
O O6 0.033624 0.940840 0.100560
O O7 0.250000 0.156016 0.437383
O O8 0.459154 0.250000 0.408897
O O9 0.497679 0.106092 0.367798
O O10 0.503114 0.148380 0.523046
O O11 0.250000 0.025249 0.871095
O O12 0.050371 0.971732 0.771554
O O13 0.250000 0.750000 0.257615
O O14 0.028529 0.677299 0.315822
O O15 0.250000 0.533709 0.652570
O O16 0.501926 0.460928 0.630267
O O17 0.250000 0.885524 0.393978
#
# Coordination Sequence:
#
# PCOD9451491 Si02
#       7
#     4   8   8   8   4   8   8
#     4  12  24  36  54  85 120 155 194 237 288 347
#     4  10  20  37  61  85 117 154 192 240 293 346
#     4  11  24  42  62  85 117 156 198 245 297 346
#     4   9  20  39  61  87 115 151 195 239 290 346
#     4  10  22  38  60  89 120 155 194 243 300 351
#     4  11  23  39  61  89 119 155 198 241 290 350
#     4  11  22  39  62  89 120 153 195 242 294 351
#
# _framework density 18.595714999999998
#
# number of rings (size 3 to 8) (size 9 to 14) (size 15 to 20)
#    0.000    1.500    0.833    4.250    0.000    7.000 
#    1.500    0.000    0.000    0.000    0.000    0.000 
#    0.000    0.000    0.000    0.000    0.000    0.000 
#
# Total GULP energy -268262.399143 kJ/mol
# GULP energy per Si atom -5588.799982 kJ/mol
# Density = 1.855339 g / cm^3
# Si number density = 18.595715 Si / 1000 Ang^3
#
#
#
# Elastic Constant Matrix: (Units=GPa)
#
#
# Indices 1 2 3 4 5 6 
#
# 1 57.4890 45.9439 22.2063 0.0000 0.0000 0.0000
# 2 45.9439 112.2637 17.7969 0.0000 0.0000 0.0000
# 3 22.2063 17.7969 23.4772 0.0000 0.0000 0.0000
# 4 0.0000 0.0000 0.0000 9.0617 0.0000 0.0000
# 5 0.0000 0.0000 0.0000 0.0000 22.7606 0.0000
# 6 0.0000 0.0000 0.0000 0.0000 0.0000 30.2589
#
#
#
# Elastic Compliance Matrix: (Units=1/GPa)
#
#
# Indices 1 2 3 4 5 6 
#
# 1 0.035835 -0.010561 -0.025889 0.000000 0.000000 0.000000
# 2 -0.010561 0.013237 -0.000045 0.000000 0.000000 0.000000
# 3 -0.025889 -0.000045 0.067116 0.000000 0.000000 0.000000
# 4 0.000000 0.000000 0.000000 0.110354 0.000000 0.000000
# 5 0.000000 0.000000 0.000000 0.000000 0.043936 0.000000
# 6 0.000000 0.000000 0.000000 0.000000 0.000000 0.033048
#
#
# Mechanical properties :
#
#
# Convention : Reuss Voigt Hill
#
# Bulk Modulus (GPa) = 23.14935 40.56935 31.85935
# Shear Modulus (GPa) = 12.79045 19.56844 16.17945
#
# Velocity S-wave (km/s) = 2.62547 3.24745 2.95288
# Velocity P-wave (km/s) = 4.65474 5.99376 5.36618
#
# Compressibility (1/GPa) = 0.04319775
#
# Stress axis : x y z
#
# Youngs Moduli (GPa) = 27.90529 75.54613 14.89952
#
# Poissons Ratio (x) = 0.79788 0.38574
# Poissons Ratio (y) = 0.29472 0.00066
# Poissons Ratio (z) = 0.72245 0.00336
#
# Static dielectric constant tensor:
#      x y z
#    x 1.627240 0.000000 0.000000 
#    y 0.000000 1.638450 0.000000 
#    z 0.000000 0.000000 1.611420 
# 
# From -- ./inp_files/20522.got.cif
#   From: 2010.05.17/outbox.cif.g08.bks.cpg/sg59_11_cif.got.tgz:20522.got - 2010.06.03 14:40:33.
