data_PCOD9451077
_publ_section_title
;
Structure prediction by ZEFSAII (Michael W. Deem and Ramdas Pophale) SiO2 
 PCOD9451077
Probable space group: P M M N
;
_chemical_formula_sum "Si O2"
_cell_formula_units_Z 56
_cell_length_a 14.810215
_cell_length_b 18.209768
_cell_length_c 10.733829
_cell_angle_alpha 90.000000
_cell_angle_beta 90.000000
_cell_angle_gamma 90.000000
_cell_volume 2894.812560
_symmetry_space_group_name_H-M "P M M N"
_symmetry_group_IT_number 59
_space_group.IT_coordinate_system_code '2'
_symmetry_cell_setting 'orthorhombic'
loop_
_space_group_symop_operation_xyz
x,y,z
1/2-x,1/2-y,z
1/2+x,-y,-z
-x,1/2+y,-z
-x,-y,-z
1/2+x,1/2+y,-z
1/2-x,y,z
x,1/2-y,z
loop_
_atom_site_type_symbol
_atom_site_label
_atom_site_fract_x
_atom_site_fract_y
_atom_site_fract_z
Si Si1 0.352802 0.441573 0.647821
Si Si2 0.409525 0.537699 0.871425
Si Si3 0.019435 0.662584 0.292723
Si Si4 0.853194 0.940074 0.640437
Si Si5 0.902779 0.048006 0.860805
Si Si6 0.850575 0.336958 0.485371
Si Si7 0.488191 0.835352 0.738242
O O1 0.250000 0.413991 0.651847
O O2 0.360376 0.507910 0.747527
O O3 0.424646 0.379498 0.688460
O O4 0.372147 0.463455 0.503374
O O5 0.497095 0.485696 0.873864
O O6 0.451463 0.618622 0.854543
O O7 0.359600 0.535293 0.003902
O O8 0.007425 0.750000 0.291245
O O9 0.076874 0.631680 0.176543
O O10 0.081489 0.637610 0.408540
O O11 0.750000 0.912394 0.643100
O O12 0.926193 0.878628 0.680596
O O13 0.860577 0.003965 0.744605
O O14 0.750000 0.370257 0.484765
O O15 0.840210 0.250000 0.510071
O O16 0.905359 0.341373 0.358170
O O17 0.508386 0.750000 0.760188
#
# Coordination Sequence:
#
# PCOD9451077 Si02
#       7
#     8   8   8   8   8   8   8
#     4  10  21  36  57  86 119 156 196 237 286 349
#     4   9  20  37  56  78 110 153 197 241 285 336
#     4  10  20  35  58  86 117 150 188 240 296 351
#     4  10  21  36  57  86 119 156 196 237 286 349
#     4   9  20  37  56  78 110 153 197 241 285 336
#     4   9  18  32  50  77 111 145 179 222 282 342
#     4  10  20  35  58  86 117 150 188 240 296 351
#
# _framework density 19.344947999999999
#
# number of rings (size 3 to 8) (size 9 to 14) (size 15 to 20)
#    0.000    2.429    1.429    0.000    2.000    4.571 
#    0.000    1.429    0.000    0.000    0.000   14.000 
#    0.000    0.000    0.000    0.000    0.000    0.000 
#
# Total GULP energy -311818.896473 kJ/mol
# GULP energy per Si atom -5568.194580 kJ/mol
# Density = 1.930092 g / cm^3
# Si number density = 19.344948 Si / 1000 Ang^3
#
#
#
# Elastic Constant Matrix: (Units=GPa)
#
#
# Indices 1 2 3 4 5 6 
#
# 1 98.1271 30.1742 12.3427 0.0000 0.0000 0.0000
# 2 30.1742 107.2777 42.5447 0.0000 0.0000 0.0000
# 3 12.3427 42.5447 95.9776 0.0000 0.0000 0.0000
# 4 0.0000 0.0000 0.0000 8.7207 0.0000 0.0000
# 5 0.0000 0.0000 0.0000 0.0000 4.1286 0.0000
# 6 0.0000 0.0000 0.0000 0.0000 0.0000 18.2229
#
#
#
# Elastic Compliance Matrix: (Units=1/GPa)
#
#
# Indices 1 2 3 4 5 6 
#
# 1 0.011156 -0.003117 -0.000053 0.000000 0.000000 0.000000
# 2 -0.003117 0.012181 -0.004999 0.000000 0.000000 0.000000
# 3 -0.000053 -0.004999 0.012642 0.000000 0.000000 0.000000
# 4 0.000000 0.000000 0.000000 0.114669 0.000000 0.000000
# 5 0.000000 0.000000 0.000000 0.000000 0.242212 0.000000
# 6 0.000000 0.000000 0.000000 0.000000 0.000000 0.054876
#
#
# Mechanical properties :
#
#
# Convention : Reuss Voigt Hill
#
# Bulk Modulus (GPa) = 50.91288 52.38952 51.65120
# Shear Modulus (GPa) = 10.62429 20.63583 15.63006
#
# Velocity S-wave (km/s) = 2.34605 3.26963 2.84556
# Velocity P-wave (km/s) = 5.80639 6.43386 6.12816
#
# Compressibility (1/GPa) = 0.01964139
#
# Stress axis : x y z
#
# Youngs Moduli (GPa) = 89.63810 82.09754 79.10346
#
# Poissons Ratio (x) = 0.25588 0.00420
# Poissons Ratio (y) = 0.27939 0.39540
# Poissons Ratio (z) = 0.00475 0.41037
#
# Static dielectric constant tensor:
#      x y z
#    x 1.734220 0.000000 0.000000 
#    y 0.000000 1.681190 0.000000 
#    z 0.000000 0.000000 1.743840 
# 
# From -- ./inp_files/9349.got.cif
#   From: 2010.05.17/outbox.cif.g08.bks.cpg/sg59_5_cif.got.tgz:9349.got - 2010.06.03 14:40:33.
