data_PCOD9451331
_publ_section_title
;
Structure prediction by ZEFSAII (Michael W. Deem and Ramdas Pophale) SiO2 
 PCOD9451331
Probable space group: P M M N
;
_chemical_formula_sum "Si O2"
_cell_formula_units_Z 64
_cell_length_a 8.773899
_cell_length_b 29.977855
_cell_length_c 12.769617
_cell_angle_alpha 90.000000
_cell_angle_beta 90.000000
_cell_angle_gamma 90.000000
_cell_volume 3358.698784
_symmetry_space_group_name_H-M "P M M N"
_symmetry_group_IT_number 59
_space_group.IT_coordinate_system_code '2'
_symmetry_cell_setting 'orthorhombic'
loop_
_space_group_symop_operation_xyz
x,y,z
1/2-x,1/2-y,z
1/2+x,-y,-z
-x,1/2+y,-z
-x,-y,-z
1/2+x,1/2+y,-z
1/2-x,y,z
x,1/2-y,z
loop_
_atom_site_type_symbol
_atom_site_label
_atom_site_fract_x
_atom_site_fract_y
_atom_site_fract_z
Si Si1 0.432231 0.701463 0.935549
Si Si2 0.067924 0.580135 0.093040
Si Si3 0.432652 0.604067 0.858204
Si Si4 0.067844 0.036122 0.719026
Si Si5 0.068325 0.056329 0.341741
Si Si6 0.433430 0.109998 0.549743
Si Si7 0.568858 0.824837 0.152971
Si Si8 0.567742 0.200649 0.625543
O O1 0.250000 0.698420 0.954918
O O2 0.463216 0.750000 0.886258
O O3 0.472370 0.656503 0.873165
O O4 0.515487 0.699013 0.046969
O O5 0.250000 0.584347 0.103509
O O6 0.007208 0.540806 0.166478
O O7 0.987770 0.624533 0.137393
O O8 0.033477 0.579833 0.969168
O O9 0.250000 0.600701 0.840766
O O10 0.520972 0.582439 0.762830
O O11 0.250000 0.036207 0.729465
O O12 0.021530 0.078199 0.646896
O O13 0.013505 0.991297 0.662967
O O14 0.250000 0.049647 0.345680
O O15 0.022578 0.085039 0.443075
O O16 0.250000 0.113732 0.552456
O O17 0.502639 0.158898 0.561921
O O18 0.750000 0.823479 0.164266
O O19 0.492452 0.804900 0.256010
O O20 0.750000 0.198099 0.626262
O O21 0.522459 0.250000 0.586813
#
# Coordination Sequence:
#
# PCOD9451331 Si02
#       8
#     8   8   8   8   8   8   8   8
#     4   9  18  34  56  81 111 150 196 243 290 342
#     4  10  20  36  59  87 120 155 190 235 288 341
#     4   9  20  38  58  83 117 155 196 242 291 344
#     4  11  22  38  63  92 118 149 192 240 297 356
#     4  11  24  41  61  85 115 154 198 242 293 350
#     4  10  23  42  62  87 118 152 194 244 293 344
#     4  11  20  31  51  83 121 156 188 230 286 346
#     4  11  23  37  57  86 118 155 196 236 286 347
#
# _framework density 19.054998000000001
#
# number of rings (size 3 to 8) (size 9 to 14) (size 15 to 20)
#    0.000    1.750    1.250    4.125    0.000    7.250 
#    0.000    0.625    0.000    2.250    0.000    0.000 
#    0.000    0.000    0.000    0.000    0.000    0.000 
#
# Total GULP energy -357491.655402 kJ/mol
# GULP energy per Si atom -5585.807116 kJ/mol
# Density = 1.901163 g / cm^3
# Si number density = 19.054998 Si / 1000 Ang^3
#
#
#
# Elastic Constant Matrix: (Units=GPa)
#
#
# Indices 1 2 3 4 5 6 
#
# 1 24.9274 25.4129 18.1697 0.0000 0.0000 0.0000
# 2 25.4129 83.0397 31.2358 0.0000 0.0000 0.0000
# 3 18.1697 31.2358 71.0857 0.0000 0.0000 0.0000
# 4 0.0000 0.0000 0.0000 36.9233 0.0000 0.0000
# 5 0.0000 0.0000 0.0000 0.0000 26.2658 0.0000
# 6 0.0000 0.0000 0.0000 0.0000 0.0000 27.4417
#
#
#
# Elastic Compliance Matrix: (Units=1/GPa)
#
#
# Indices 1 2 3 4 5 6 
#
# 1 0.062890 -0.015814 -0.009126 0.000000 0.000000 0.000000
# 2 -0.015814 0.018403 -0.004045 0.000000 0.000000 0.000000
# 3 -0.009126 -0.004045 0.018177 0.000000 0.000000 0.000000
# 4 0.000000 0.000000 0.000000 0.027083 0.000000 0.000000
# 5 0.000000 0.000000 0.000000 0.000000 0.038072 0.000000
# 6 0.000000 0.000000 0.000000 0.000000 0.000000 0.036441
#
#
# Mechanical properties :
#
#
# Convention : Reuss Voigt Hill
#
# Bulk Modulus (GPa) = 24.09516 36.52106 30.30811
# Shear Modulus (GPa) = 18.32369 25.07511 21.69940
#
# Velocity S-wave (km/s) = 3.10437 3.63152 3.37824
# Velocity P-wave (km/s) = 5.05193 6.06561 5.58183
#
# Compressibility (1/GPa) = 0.04150212
#
# Stress axis : x y z
#
# Youngs Moduli (GPa) = 15.90068 54.33793 55.01323
#
# Poissons Ratio (x) = 0.85928 0.50206
# Poissons Ratio (y) = 0.25145 0.22251
# Poissons Ratio (z) = 0.14511 0.21977
#
# Static dielectric constant tensor:
#      x y z
#    x 1.635470 0.000000 0.000000 
#    y 0.000000 1.709730 0.000000 
#    z 0.000000 0.000000 1.642270 
# 
# From -- ./inp_files/15045.got.cif
#   From: 2010.05.17/outbox.cif.g08.bks.cpg/sg59_8_cif.got.tgz:15045.got - 2010.06.03 14:40:33.
