data_PCOD9451295
_publ_section_title
;
Structure prediction by ZEFSAII (Michael W. Deem and Ramdas Pophale) SiO2 
 PCOD9451295
Probable space group: P M M N
;
_chemical_formula_sum "Si O2"
_cell_formula_units_Z 48
_cell_length_a 8.653281
_cell_length_b 31.324539
_cell_length_c 9.681302
_cell_angle_alpha 90.000000
_cell_angle_beta 90.000000
_cell_angle_gamma 90.000000
_cell_volume 2624.214090
_symmetry_space_group_name_H-M "P M M N"
_symmetry_group_IT_number 59
_space_group.IT_coordinate_system_code '2'
_symmetry_cell_setting 'orthorhombic'
loop_
_space_group_symop_operation_xyz
x,y,z
1/2-x,1/2-y,z
1/2+x,-y,-z
-x,1/2+y,-z
-x,-y,-z
1/2+x,1/2+y,-z
1/2-x,y,z
x,1/2-y,z
loop_
_atom_site_type_symbol
_atom_site_label
_atom_site_fract_x
_atom_site_fract_y
_atom_site_fract_z
Si Si1 0.936288 0.200608 0.337628
Si Si2 0.435345 0.876387 0.154876
Si Si3 0.434754 0.452679 0.662904
Si Si4 0.563564 0.954034 0.657039
Si Si5 0.438139 0.798405 0.345181
Si Si6 0.434946 0.374676 0.153159
O O1 0.750000 0.196977 0.330566
O O2 0.975760 0.250000 0.307553
O O3 0.983678 0.191723 0.496632
O O4 0.010363 0.167391 0.233590
O O5 0.250000 0.875670 0.151748
O O6 0.490783 0.917898 0.237757
O O7 0.490287 0.834482 0.239243
O O8 0.497910 0.876219 0.000057
O O9 0.250000 0.450358 0.673488
O O10 0.479134 0.444398 0.502447
O O11 0.490636 0.500552 0.695549
O O12 0.750000 0.957926 0.662022
O O13 0.514837 0.915916 0.757435
O O14 0.250000 0.798152 0.343962
O O15 0.488193 0.750000 0.311603
O O16 0.250000 0.375248 0.146389
#
# Coordination Sequence:
#
# PCOD9451295 Si02
#       6
#     8   8   8   8   8   8
#     4   9  18  35  59  83 106 136 177 222 266 315
#     4  11  22  35  54  80 111 146 181 219 267 321
#     4  10  20  36  59  83 106 135 176 226 274 321
#     4   9  20  38  58  80 106 139 179 222 270 323
#     4   8  16  33  57  82 105 134 177 224 264 307
#     4  11  23  37  53  77 112 147 178 217 265 318
#
# _framework density 18.29119
#
# number of rings (size 3 to 8) (size 9 to 14) (size 15 to 20)
#    0.000    2.333    0.000    3.500    0.000    3.667 
#    0.000    2.500    0.000    3.500    0.000    0.000 
#    0.000    0.000    0.000    0.000    0.000    0.000 
#
# Total GULP energy -267996.887258 kJ/mol
# GULP energy per Si atom -5583.268485 kJ/mol
# Density = 1.824956 g / cm^3
# Si number density = 18.291190 Si / 1000 Ang^3
#
#
#
# Elastic Constant Matrix: (Units=GPa)
#
#
# Indices 1 2 3 4 5 6 
#
# 1 32.7537 48.2216 47.1128 0.0000 0.0000 0.0000
# 2 48.2216 166.5514 139.1573 0.0000 0.0000 0.0000
# 3 47.1128 139.1573 161.4454 0.0000 0.0000 0.0000
# 4 0.0000 0.0000 0.0000 -9.5839 0.0000 0.0000
# 5 0.0000 0.0000 0.0000 0.0000 28.9743 0.0000
# 6 0.0000 0.0000 0.0000 0.0000 0.0000 27.8424
#
#
#
# Elastic Compliance Matrix: (Units=1/GPa)
#
#
# Indices 1 2 3 4 5 6 
#
# 1 0.056301 -0.009197 -0.008503 0.000000 0.000000 0.000000
# 2 -0.009197 0.022959 -0.017106 0.000000 0.000000 0.000000
# 3 -0.008503 -0.017106 0.023420 0.000000 0.000000 0.000000
# 4 0.000000 0.000000 0.000000 -0.104342 0.000000 0.000000
# 5 0.000000 0.000000 0.000000 0.000000 0.034513 0.000000
# 6 0.000000 0.000000 0.000000 0.000000 0.000000 0.035916
#
#
# Mechanical properties :
#
#
# Convention : Reuss Voigt Hill
#
# Bulk Modulus (GPa) = 30.23942 92.19266 61.21604
# Shear Modulus (GPa) = 33.46704 17.86382 25.66543
#
# Velocity S-wave (km/s) = 4.28212 3.12851 3.74994
# Velocity P-wave (km/s) = 6.40444 7.97259 7.23115
#
# Compressibility (1/GPa) = 0.03306941
#
# Stress axis : x y z
#
# Youngs Moduli (GPa) = 17.76170 43.55576 42.69943
#
# Poissons Ratio (x) = 0.40057 0.36306
# Poissons Ratio (y) = 0.16335 0.73041
# Poissons Ratio (z) = 0.15102 0.74505
#
# Static dielectric constant tensor:
#      x y z
#    x 1.620960 0.000000 0.000000 
#    y 0.000000 1.610710 0.000000 
#    z 0.000000 0.000000 1.603720 
# 
# From -- ./inp_files/6258.got.cif
#   From: 2010.05.17/outbox.cif.g08.bks.cpg/sg59_4_cif.got.tgz:6258.got - 2010.06.03 14:40:33.
