data_PCOD9451468
_publ_section_title
;
Structure prediction by ZEFSAII (Michael W. Deem and Ramdas Pophale) SiO2 
 PCOD9451468
Probable space group: P M M N
;
_chemical_formula_sum "Si O2"
_cell_formula_units_Z 56
_cell_length_a 13.652272
_cell_length_b 11.550874
_cell_length_c 15.386178
_cell_angle_alpha 90.000000
_cell_angle_beta 90.000000
_cell_angle_gamma 90.000000
_cell_volume 2426.333705
_symmetry_space_group_name_H-M "P M M N"
_symmetry_group_IT_number 59
_space_group.IT_coordinate_system_code '2'
_symmetry_cell_setting 'orthorhombic'
loop_
_space_group_symop_operation_xyz
x,y,z
1/2-x,1/2-y,z
1/2+x,-y,-z
-x,1/2+y,-z
-x,-y,-z
1/2+x,1/2+y,-z
1/2-x,y,z
x,1/2-y,z
loop_
_atom_site_type_symbol
_atom_site_label
_atom_site_fract_x
_atom_site_fract_y
_atom_site_fract_z
Si Si1 0.923584 0.875970 0.802381
Si Si2 0.139682 0.383978 0.706680
Si Si3 0.362289 0.623500 0.146215
Si Si4 0.864614 0.121625 0.532148
Si Si5 0.921393 0.375681 0.040553
Si Si6 0.502469 0.553287 0.620569
Si Si7 0.634233 0.623725 0.098872
O O1 0.870976 0.750000 0.805046
O O2 0.981062 0.880360 0.710840
O O3 0.992027 0.875796 0.888537
O O4 0.871416 0.001287 0.805463
O O5 0.250000 0.433646 0.706032
O O6 0.145862 0.250000 0.684926
O O7 0.093532 0.390231 0.803319
O O8 0.070910 0.448991 0.641763
O O9 0.250000 0.625024 0.111860
O O10 0.375577 0.750000 0.191071
O O11 0.435919 0.623593 0.063715
O O12 0.750000 0.108658 0.505838
O O13 0.871707 0.250000 0.574762
O O14 0.943460 0.120997 0.453539
O O15 0.898939 0.010704 0.588230
O O16 0.870901 0.250000 0.056465
O O17 0.874589 0.501637 0.051821
O O18 0.750000 0.634154 0.115547
O O19 0.609350 0.750000 0.058702
#
# Coordination Sequence:
#
# PCOD9451468 Si02
#       7
#     8   8   8   8   8   8   8
#     4  11  24  40  62  94 125 159 209 262 315 373
#     4   9  17  30  51  84 122 159 207 260 309 368
#     4  10  23  42  62  86 121 168 217 261 311 373
#     4  10  23  42  64  94 128 162 205 258 317 386
#     4  10  20  37  59  86 123 162 204 256 310 368
#     4  11  21  39  66  89 124 169 208 254 320 389
#     4   9  17  29  48  79 118 157 201 252 305 361
#
# _framework density 23.080089000000001
#
# number of rings (size 3 to 8) (size 9 to 14) (size 15 to 20)
#    0.000    2.000    1.429    3.000    0.000    4.000 
#    0.000    1.429    0.000    8.143    0.000    0.000 
#    0.000    0.000    0.000    0.000    0.000    0.000 
#
# Total GULP energy -311975.793226 kJ/mol
# GULP energy per Si atom -5570.996308 kJ/mol
# Density = 2.302756 g / cm^3
# Si number density = 23.080089 Si / 1000 Ang^3
#
#
#
# Elastic Constant Matrix: (Units=GPa)
#
#
# Indices 1 2 3 4 5 6 
#
# 1 68.4058 30.5898 16.9434 0.0000 0.0000 0.0000
# 2 30.5898 198.8883 25.2234 0.0000 0.0000 0.0000
# 3 16.9434 25.2234 68.5093 0.0000 0.0000 0.0000
# 4 0.0000 0.0000 0.0000 9.5374 0.0000 0.0000
# 5 0.0000 0.0000 0.0000 0.0000 18.7282 0.0000
# 6 0.0000 0.0000 0.0000 0.0000 0.0000 -1.3329
#
#
#
# Elastic Compliance Matrix: (Units=1/GPa)
#
#
# Indices 1 2 3 4 5 6 
#
# 1 0.016370 -0.002102 -0.003274 0.000000 0.000000 0.000000
# 2 -0.002102 0.005544 -0.001521 0.000000 0.000000 0.000000
# 3 -0.003274 -0.001521 0.015966 0.000000 0.000000 0.000000
# 4 0.000000 0.000000 0.000000 0.104851 0.000000 0.000000
# 5 0.000000 0.000000 0.000000 0.000000 0.053395 0.000000
# 6 0.000000 0.000000 0.000000 0.000000 0.000000 -0.750257
#
#
# Mechanical properties :
#
#
# Convention : Reuss Voigt Hill
#
# Bulk Modulus (GPa) = 41.52099 53.47963 47.50031
# Shear Modulus (GPa) = -9.39310 22.92299 6.76495
#
# Velocity S-wave (km/s) = -2.01956 3.15492 1.71390
# Velocity P-wave (km/s) = 3.54836 6.04094 4.95398
#
# Compressibility (1/GPa) = 0.02408421
#
# Stress axis : x y z
#
# Youngs Moduli (GPa) = 61.08780 180.36707 62.63125
#
# Poissons Ratio (x) = 0.37922 0.20508
# Poissons Ratio (y) = 0.12844 0.09528
# Poissons Ratio (z) = 0.20003 0.27439
#
# Static dielectric constant tensor:
#      x y z
#    x 2.042930 0.000000 0.000000 
#    y 0.000000 1.882800 0.000000 
#    z 0.000000 0.000000 1.884780 
# 
# From -- ./inp_files/23246.got.cif
#   From: 2010.05.17/outbox.cif.g08.bks.cpg/sg59_12_cif.got.tgz:23246.got - 2010.06.03 14:40:33.
