data_PCOD9451322
_publ_section_title
;
Structure prediction by ZEFSAII (Michael W. Deem and Ramdas Pophale) SiO2 
 PCOD9451322
Probable space group: P M M N
;
_chemical_formula_sum "Si O2"
_cell_formula_units_Z 64
_cell_length_a 31.963460
_cell_length_b 8.379617
_cell_length_c 12.280829
_cell_angle_alpha 90.000000
_cell_angle_beta 90.000000
_cell_angle_gamma 90.000000
_cell_volume 3289.316309
_symmetry_space_group_name_H-M "P M M N"
_symmetry_group_IT_number 59
_space_group.IT_coordinate_system_code '2'
_symmetry_cell_setting 'orthorhombic'
loop_
_space_group_symop_operation_xyz
x,y,z
1/2-x,1/2-y,z
1/2+x,-y,-z
-x,1/2+y,-z
-x,-y,-z
1/2+x,1/2+y,-z
1/2-x,y,z
x,1/2-y,z
loop_
_atom_site_type_symbol
_atom_site_label
_atom_site_fract_x
_atom_site_fract_y
_atom_site_fract_z
Si Si1 0.295780 0.442511 0.986194
Si Si2 0.417299 0.557646 0.752401
Si Si3 0.680316 0.058892 0.250563
Si Si4 0.876073 0.945328 0.875325
Si Si5 0.795885 0.942257 0.487263
Si Si6 0.953204 0.058635 0.479479
Si Si7 0.376568 0.056887 0.376127
Si Si8 0.046469 0.060198 0.978407
O O1 0.250000 0.493888 0.027589
O O2 0.296907 0.250000 0.988204
O O3 0.335211 0.499249 0.057273
O O4 0.300389 0.496321 0.861397
O O5 0.419679 0.750000 0.757686
O O6 0.368602 0.512799 0.751098
O O7 0.438375 0.504344 0.640223
O O8 0.439126 0.488282 0.858250
O O9 0.683752 0.250000 0.253160
O O10 0.699335 0.991210 0.361474
O O11 0.875905 0.750000 0.876637
O O12 0.874858 0.995169 0.749591
O O13 0.918201 0.999598 0.936774
O O14 0.750000 0.996531 0.527062
O O15 0.796531 0.750000 0.493198
O O16 0.835891 0.000715 0.556082
O O17 0.952640 0.250000 0.481348
O O18 0.919079 0.997779 0.565743
O O19 0.000000 0.000000 0.500000
O O20 0.375978 0.250000 0.377291
O O21 0.046112 0.250000 0.987258
O O22 0.000000 0.000000 0.000000
#
# Coordination Sequence:
#
# PCOD9451322 Si02
#       8
#     8   8   8   8   8   8   8   8
#     4  10  20  36  59  86 116 151 193 238 285 342
#     4  10  22  40  61  85 117 153 192 240 289 341
#     4  11  21  36  58  85 118 153 190 237 292 344
#     4   9  20  38  58  83 114 151 189 234 286 337
#     4  10  21  36  57  86 117 151 194 240 285 343
#     4  11  24  42  62  88 119 151 194 241 292 349
#     4  10  21  39  61  84 116 155 194 238 291 344
#     4  11  23  39  61  87 119 153 193 238 289 347
#
# _framework density 19.456931000000001
#
# number of rings (size 3 to 8) (size 9 to 14) (size 15 to 20)
#    0.000    1.750    2.500    1.500    1.750    4.000 
#    0.000    3.750    0.000    0.000    0.000    1.750 
#    0.000    0.000    0.000    0.000    0.000    0.000 
#
# Total GULP energy -357518.153285 kJ/mol
# GULP energy per Si atom -5586.221145 kJ/mol
# Density = 1.941265 g / cm^3
# Si number density = 19.456931 Si / 1000 Ang^3
#
#
#
# Elastic Constant Matrix: (Units=GPa)
#
#
# Indices 1 2 3 4 5 6 
#
# 1 204.2307 24.4637 94.3063 0.0000 0.0000 0.0000
# 2 24.4637 6.6323 14.0084 0.0000 0.0000 0.0000
# 3 94.3063 14.0084 156.2780 0.0000 0.0000 0.0000
# 4 0.0000 0.0000 0.0000 16.7695 0.0000 0.0000
# 5 0.0000 0.0000 0.0000 0.0000 45.6896 0.0000
# 6 0.0000 0.0000 0.0000 0.0000 0.0000 24.7759
#
#
#
# Elastic Compliance Matrix: (Units=1/GPa)
#
#
# Indices 1 2 3 4 5 6 
#
# 1 0.010036 -0.029884 -0.003377 0.000000 0.000000 0.000000
# 2 -0.029884 0.274979 -0.006615 0.000000 0.000000 0.000000
# 3 -0.003377 -0.006615 0.009030 0.000000 0.000000 0.000000
# 4 0.000000 0.000000 0.000000 0.059632 0.000000 0.000000
# 5 0.000000 0.000000 0.000000 0.000000 0.021887 0.000000
# 6 0.000000 0.000000 0.000000 0.000000 0.000000 0.040362
#
#
# Mechanical properties :
#
#
# Convention : Reuss Voigt Hill
#
# Bulk Modulus (GPa) = 4.66653 70.29978 37.48315
# Shear Modulus (GPa) = 8.81666 33.07116 20.94391
#
# Velocity S-wave (km/s) = 2.13101 4.12723 3.28445
# Velocity P-wave (km/s) = 2.90836 7.67603 5.80431
#
# Compressibility (1/GPa) = 0.21429220
#
# Stress axis : x y z
#
# Youngs Moduli (GPa) = 99.64607 3.63664 110.74396
#
# Poissons Ratio (x) = 0.10868 0.37401
# Poissons Ratio (y) = 2.97779 0.73259
# Poissons Ratio (z) = 0.33653 0.02406
#
# Static dielectric constant tensor:
#      x y z
#    x 1.683920 0.000000 0.000000 
#    y 0.000000 1.599450 0.000000 
#    z 0.000000 0.000000 1.646590 
# 
# From -- ./inp_files/19204.got.cif
#   From: 2010.05.17/outbox.cif.g08.bks.cpg/sg59_10_cif.got.tgz:19204.got - 2010.06.03 14:40:33.
