data_PCOD9451610
_publ_section_title
;
Structure prediction by ZEFSAII (Michael W. Deem and Ramdas Pophale) SiO2 
 PCOD9451610
Probable space group: P M M N
;
_chemical_formula_sum "Si O2"
_cell_formula_units_Z 64
_cell_length_a 8.877563
_cell_length_b 31.493233
_cell_length_c 12.101043
_cell_angle_alpha 90.000000
_cell_angle_beta 90.000000
_cell_angle_gamma 90.000000
_cell_volume 3383.247842
_symmetry_space_group_name_H-M "P M M N"
_symmetry_group_IT_number 59
_space_group.IT_coordinate_system_code '2'
_symmetry_cell_setting 'orthorhombic'
loop_
_space_group_symop_operation_xyz
x,y,z
1/2-x,1/2-y,z
1/2+x,-y,-z
-x,1/2+y,-z
-x,-y,-z
1/2+x,1/2+y,-z
1/2-x,y,z
x,1/2-y,z
loop_
_atom_site_type_symbol
_atom_site_label
_atom_site_fract_x
_atom_site_fract_y
_atom_site_fract_z
Si Si1 0.931231 0.624833 0.384457
Si Si2 0.570357 0.797849 0.223968
Si Si3 0.570591 0.125496 0.373437
Si Si4 0.428597 0.452776 0.241715
Si Si5 0.928899 0.174686 0.004721
Si Si6 0.570353 0.798224 0.766129
Si Si7 0.070204 0.418346 0.998957
Si Si8 0.930340 0.542611 0.236854
O O1 0.750000 0.625859 0.401055
O O2 0.972524 0.665784 0.310797
O O3 0.967152 0.582375 0.315290
O O4 0.012317 0.625200 0.501389
O O5 0.750000 0.802588 0.203018
O O6 0.543912 0.750000 0.265226
O O7 0.485276 0.804858 0.109095
O O8 0.750000 0.126246 0.368973
O O9 0.509655 0.083735 0.311298
O O10 0.505070 0.166498 0.310519
O O11 0.250000 0.449719 0.260088
O O12 0.457793 0.443655 0.111826
O O13 0.487744 0.499465 0.269523
O O14 0.750000 0.178039 0.015287
O O15 0.007878 0.195708 0.110300
O O16 0.980577 0.125603 0.002380
O O17 0.750000 0.804913 0.767030
O O18 0.539924 0.750000 0.729016
O O19 0.250000 0.408683 0.993075
O O20 0.030406 0.444209 0.888820
O O21 0.750000 0.536069 0.241143
#
# Coordination Sequence:
#
# PCOD9451610 Si02
#       8
#     8   8   8   8   8   8   8   8
#     4  10  22  42  65  89 120 164 213 259 306 363
#     4  10  21  40  66  92 122 164 209 251 301 365
#     4  12  26  43  64  91 124 161 204 260 315 364
#     4  11  23  39  64  93 125 164 206 250 304 372
#     4  12  23  35  60  95 131 165 199 248 308 365
#     4  11  24  43  67  92 122 163 208 252 303 369
#     4  10  20  38  63  90 124 165 203 247 304 370
#     4  10  21  39  64  92 125 161 204 256 306 360
#
# _framework density 18.916736
#
# number of rings (size 3 to 8) (size 9 to 14) (size 15 to 20)
#    0.000    1.250    2.500    3.750    0.000    5.750 
#    0.000    1.250    0.000    0.000    0.000    0.000 
#    0.000    0.000    0.000    0.000    0.000    0.000 
#
# Total GULP energy -357934.761081 kJ/mol
# GULP energy per Si atom -5592.730642 kJ/mol
# Density = 1.887368 g / cm^3
# Si number density = 18.916736 Si / 1000 Ang^3
#
#
#
# Elastic Constant Matrix: (Units=GPa)
#
#
# Indices 1 2 3 4 5 6 
#
# 1 78.3718 85.8895 70.9048 0.0000 0.0000 0.0000
# 2 85.8895 178.3739 86.0430 0.0000 0.0000 0.0000
# 3 70.9048 86.0430 143.4354 0.0000 0.0000 0.0000
# 4 0.0000 0.0000 0.0000 0.2766 0.0000 0.0000
# 5 0.0000 0.0000 0.0000 0.0000 6.1003 0.0000
# 6 0.0000 0.0000 0.0000 0.0000 0.0000 30.4539
#
#
#
# Elastic Compliance Matrix: (Units=1/GPa)
#
#
# Indices 1 2 3 4 5 6 
#
# 1 0.035097 -0.012004 -0.010149 0.000000 0.000000 0.000000
# 2 -0.012004 0.011995 -0.001261 0.000000 0.000000 0.000000
# 3 -0.010149 -0.001261 0.012745 0.000000 0.000000 0.000000
# 4 0.000000 0.000000 0.000000 3.615497 0.000000 0.000000
# 5 0.000000 0.000000 0.000000 0.000000 0.163926 0.000000
# 6 0.000000 0.000000 0.000000 0.000000 0.000000 0.032837
#
#
# Mechanical properties :
#
#
# Convention : Reuss Voigt Hill
#
# Bulk Modulus (GPa) = 76.87096 98.42839 87.64968
# Shear Modulus (GPa) = 1.27445 17.85575 9.56510
#
# Velocity S-wave (km/s) = 0.82169 3.07565 2.25109
# Velocity P-wave (km/s) = 6.45174 8.04725 7.29326
#
# Compressibility (1/GPa) = 0.01300881
#
# Stress axis : x y z
#
# Youngs Moduli (GPa) = 28.49222 83.36900 78.46116
#
# Poissons Ratio (x) = 1.00079 0.79627
# Poissons Ratio (y) = 0.34203 0.09896
# Poissons Ratio (z) = 0.28916 0.10515
#
# Static dielectric constant tensor:
#      x y z
#    x 1.632840 0.000000 0.000000 
#    y 0.000000 1.643980 0.000000 
#    z 0.000000 0.000000 1.627900 
# 
# From -- ./inp_files/14929.got.cif
#   From: 2010.05.17/outbox.cif.g08.bks.cpg/sg59_8_cif.got.tgz:14929.got - 2010.06.03 14:40:33.
