data_PCOD9451629
_publ_section_title
;
Structure prediction by ZEFSAII (Michael W. Deem and Ramdas Pophale) SiO2 
 PCOD9451629
Probable space group: P M M N
;
_chemical_formula_sum "Si O2"
_cell_formula_units_Z 44
_cell_length_a 19.541519
_cell_length_b 14.031188
_cell_length_c 8.365618
_cell_angle_alpha 90.000000
_cell_angle_beta 90.000000
_cell_angle_gamma 90.000000
_cell_volume 2293.774880
_symmetry_space_group_name_H-M "P M M N"
_symmetry_group_IT_number 59
_space_group.IT_coordinate_system_code '2'
_symmetry_cell_setting 'orthorhombic'
loop_
_space_group_symop_operation_xyz
x,y,z
1/2-x,1/2-y,z
1/2+x,-y,-z
-x,1/2+y,-z
-x,-y,-z
1/2+x,1/2+y,-z
1/2-x,y,z
x,1/2-y,z
loop_
_atom_site_type_symbol
_atom_site_label
_atom_site_fract_x
_atom_site_fract_y
_atom_site_fract_z
Si Si1 0.750000 0.003905 0.429496
Si Si2 0.145128 0.361613 0.396978
Si Si3 0.945371 0.987206 0.138826
Si Si4 0.494763 0.140236 0.572622
Si Si5 0.671507 0.636388 0.977118
Si Si6 0.121801 0.638214 0.654921
O O1 0.809560 0.927905 0.491161
O O2 0.809989 0.080557 0.380369
O O3 0.162355 0.250000 0.420892
O O4 0.160000 0.383799 0.211172
O O5 0.065416 0.372831 0.441675
O O6 0.882170 0.922789 0.078868
O O7 0.084145 0.912175 0.803181
O O8 0.980157 0.932770 0.286513
O O9 0.000000 0.000000 0.000000
O O10 0.488997 0.250000 0.630114
O O11 0.568268 0.128152 0.491826
O O12 0.750000 0.611991 0.021043
O O13 0.662542 0.750000 0.000209
O O14 0.133466 0.750000 0.681114
#
# Coordination Sequence:
#
# PCOD9451629 Si02
#       6
#     4   8   8   8   8   8
#     4  12  22  38  70  90 124 162 222 256 310 380
#     4  10  20  38  68  99 126 157 201 266 325 372
#     4  12  25  38  65  92 126 166 207 252 319 387
#     4  10  22  42  66  92 119 155 212 268 316 371
#     4  10  22  39  60  95 133 161 191 247 328 390
#     4  11  26  45  65  89 126 172 221 269 309 369
#
# _framework density 19.182352999999999
#
# number of rings (size 3 to 8) (size 9 to 14) (size 15 to 20)
#    0.000    1.273    2.727    2.727    3.818    2.909 
#    0.000    0.000    0.000    0.000    0.000    0.000 
#    0.000    0.000    0.000    0.000    0.000    0.000 
#
# Total GULP energy -245051.940585 kJ/mol
# GULP energy per Si atom -5569.362286 kJ/mol
# Density = 1.913869 g / cm^3
# Si number density = 19.182353 Si / 1000 Ang^3
#
#
#
# Elastic Constant Matrix: (Units=GPa)
#
#
# Indices 1 2 3 4 5 6 
#
# 1 103.8957 38.3696 31.1026 0.0000 0.0000 0.0000
# 2 38.3696 110.9619 46.7760 0.0000 0.0000 0.0000
# 3 31.1026 46.7760 46.2844 0.0000 0.0000 0.0000
# 4 0.0000 0.0000 0.0000 30.7771 0.0000 0.0000
# 5 0.0000 0.0000 0.0000 0.0000 18.7140 0.0000
# 6 0.0000 0.0000 0.0000 0.0000 0.0000 39.0723
#
#
#
# Elastic Compliance Matrix: (Units=1/GPa)
#
#
# Indices 1 2 3 4 5 6 
#
# 1 0.012160 -0.001324 -0.006833 0.000000 0.000000 0.000000
# 2 -0.001324 0.015846 -0.015124 0.000000 0.000000 0.000000
# 3 -0.006833 -0.015124 0.041482 0.000000 0.000000 0.000000
# 4 0.000000 0.000000 0.000000 0.032492 0.000000 0.000000
# 5 0.000000 0.000000 0.000000 0.000000 0.053436 0.000000
# 6 0.000000 0.000000 0.000000 0.000000 0.000000 0.025594
#
#
# Mechanical properties :
#
#
# Convention : Reuss Voigt Hill
#
# Bulk Modulus (GPa) = 43.62080 54.84870 49.23475
# Shear Modulus (GPa) = 21.25749 27.37227 24.31488
#
# Velocity S-wave (km/s) = 3.33254 3.78160 3.56415
# Velocity P-wave (km/s) = 6.13166 6.90816 6.53146
#
# Compressibility (1/GPa) = 0.02292484
#
# Stress axis : x y z
#
# Youngs Moduli (GPa) = 82.23957 63.10936 24.10712
#
# Poissons Ratio (x) = 0.08358 0.16472
# Poissons Ratio (y) = 0.10892 0.36459
# Poissons Ratio (z) = 0.56192 0.95446
#
# Static dielectric constant tensor:
#      x y z
#    x 1.683050 0.000000 0.000000 
#    y 0.000000 1.657630 0.000000 
#    z 0.000000 0.000000 1.671320 
# 
# From -- ./inp_files/10197.got.cif
#   From: 2010.05.17/outbox.cif.g08.bks.cpg/sg59_6_cif.got.tgz:10197.got - 2010.06.03 14:40:33.
