data_PCOD9451991
_publ_section_title
;
Structure prediction by ZEFSAII (Michael W. Deem and Ramdas Pophale) SiO2 
 PCOD9451991
Probable space group: P M M N
;
_chemical_formula_sum "Si O2"
_cell_formula_units_Z 64
_cell_length_a 22.400181
_cell_length_b 8.947657
_cell_length_c 15.416144
_cell_angle_alpha 90.000000
_cell_angle_beta 90.000000
_cell_angle_gamma 90.000000
_cell_volume 3089.844427
_symmetry_space_group_name_H-M "P M M N"
_symmetry_group_IT_number 59
_space_group.IT_coordinate_system_code '2'
_symmetry_cell_setting 'orthorhombic'
loop_
_space_group_symop_operation_xyz
x,y,z
1/2-x,1/2-y,z
1/2+x,-y,-z
-x,1/2+y,-z
-x,-y,-z
1/2+x,1/2+y,-z
1/2-x,y,z
x,1/2-y,z
loop_
_atom_site_type_symbol
_atom_site_label
_atom_site_fract_x
_atom_site_fract_y
_atom_site_fract_z
Si Si1 0.001903 0.073522 0.723124
Si Si2 0.817879 0.931770 0.770684
Si Si3 0.348632 0.582102 0.874162
Si Si4 0.644689 0.576021 0.298957
Si Si5 0.682289 0.071707 0.473645
Si Si6 0.179973 0.083471 0.045611
Si Si7 0.509085 0.421614 0.094213
Si Si8 0.597003 0.570618 0.612605
O O1 0.989185 0.250000 0.725794
O O2 0.072747 0.055060 0.705502
O O3 0.965446 0.996813 0.645081
O O4 0.986370 0.002448 0.817679
O O5 0.750000 0.985478 0.758125
O O6 0.816533 0.750000 0.774391
O O7 0.858520 0.972939 0.690874
O O8 0.844470 0.978489 0.863774
O O9 0.328999 0.750000 0.855172
O O10 0.332537 0.474982 0.795026
O O11 0.325224 0.521906 0.964559
O O12 0.419950 0.582294 0.888340
O O13 0.657191 0.750000 0.314939
O O14 0.672545 0.477301 0.374570
O O15 0.750000 0.025925 0.501028
O O16 0.677989 0.250000 0.482570
O O17 0.629556 0.994248 0.528272
O O18 0.250000 0.099690 0.064514
O O19 0.155771 0.250000 0.026022
O O20 0.486989 0.250000 0.090530
O O21 0.500000 0.500000 0.000000
O O22 0.592686 0.750000 0.606047
#
# Coordination Sequence:
#
# PCOD9451991 Si02
#       8
#     8   8   8   8   8   8   8   8
#     4  10  22  40  60  88 124 160 201 250 306 362
#     4   8  16  32  53  79 112 150 194 244 292 343
#     4  10  21  36  55  82 115 150 190 242 297 348
#     4  10  22  42  66  88 115 156 202 249 301 361
#     4  11  25  44  66  93 123 156 195 248 312 367
#     4   9  18  33  53  78 110 151 197 240 286 346
#     4  10  21  36  55  82 116 157 202 246 293 349
#     4  11  22  37  62  93 122 159 203 249 299 363
#
# _framework density 20.713016
#
# number of rings (size 3 to 8) (size 9 to 14) (size 15 to 20)
#    0.000    2.125    0.000    3.375    1.750    5.750 
#    0.000    0.625    0.000    1.500    0.000    0.000 
#    0.000    0.000    0.000    0.000    0.000    0.000 
#
# Total GULP energy -357291.304969 kJ/mol
# GULP energy per Si atom -5582.676640 kJ/mol
# Density = 2.066587 g / cm^3
# Si number density = 20.713016 Si / 1000 Ang^3
#
#
#
# Elastic Constant Matrix: (Units=GPa)
#
#
# Indices 1 2 3 4 5 6 
#
# 1 30.7549 16.5611 -6.0997 0.0000 0.0000 0.0000
# 2 16.5611 71.3279 7.0211 0.0000 0.0000 0.0000
# 3 -6.0997 7.0211 66.3084 0.0000 0.0000 0.0000
# 4 0.0000 0.0000 0.0000 28.7388 0.0000 0.0000
# 5 0.0000 0.0000 0.0000 0.0000 27.6039 0.0000
# 6 0.0000 0.0000 0.0000 0.0000 0.0000 21.0393
#
#
#
# Elastic Compliance Matrix: (Units=1/GPa)
#
#
# Indices 1 2 3 4 5 6 
#
# 1 0.038463 -0.009376 0.004531 0.000000 0.000000 0.000000
# 2 -0.009376 0.016453 -0.002605 0.000000 0.000000 0.000000
# 3 0.004531 -0.002605 0.015774 0.000000 0.000000 0.000000
# 4 0.000000 0.000000 0.000000 0.034796 0.000000 0.000000
# 5 0.000000 0.000000 0.000000 0.000000 0.036227 0.000000
# 6 0.000000 0.000000 0.000000 0.000000 0.000000 0.047530
#
#
# Mechanical properties :
#
#
# Convention : Reuss Voigt Hill
#
# Bulk Modulus (GPa) = 17.92448 22.59512 20.25980
# Shear Modulus (GPa) = 22.44775 25.53698 23.99236
#
# Velocity S-wave (km/s) = 3.29561 3.51507 3.40711
# Velocity P-wave (km/s) = 4.81185 5.23513 5.02795
#
# Compressibility (1/GPa) = 0.05578961
#
# Stress axis : x y z
#
# Youngs Moduli (GPa) = 25.99908 60.77857 63.39687
#
# Poissons Ratio (x) = 0.56988 -0.28725
# Poissons Ratio (y) = 0.24378 0.16513
# Poissons Ratio (z) = -0.11780 0.15831
#
# Static dielectric constant tensor:
#      x y z
#    x 1.785290 0.000000 0.000000 
#    y 0.000000 1.719090 0.000000 
#    z 0.000000 0.000000 1.732600 
# 
# From -- ./inp_files/24746.got.cif
#   From: 2010.05.17/outbox.cif.g08.bks.cpg/sg59_13_cif.got.tgz:24746.got - 2010.06.03 14:40:33.
