data_PCOD9451677
_publ_section_title
;
Structure prediction by ZEFSAII (Michael W. Deem and Ramdas Pophale) SiO2 
 PCOD9451677
Probable space group: P M M N
;
_chemical_formula_sum "Si O2"
_cell_formula_units_Z 64
_cell_length_a 19.330484
_cell_length_b 8.034482
_cell_length_c 20.507603
_cell_angle_alpha 90.000000
_cell_angle_beta 90.000000
_cell_angle_gamma 90.000000
_cell_volume 3185.044553
_symmetry_space_group_name_H-M "P M M N"
_symmetry_group_IT_number 59
_space_group.IT_coordinate_system_code '2'
_symmetry_cell_setting 'orthorhombic'
loop_
_space_group_symop_operation_xyz
x,y,z
1/2-x,1/2-y,z
1/2+x,-y,-z
-x,1/2+y,-z
-x,-y,-z
1/2+x,1/2+y,-z
1/2-x,y,z
x,1/2-y,z
loop_
_atom_site_type_symbol
_atom_site_label
_atom_site_fract_x
_atom_site_fract_y
_atom_site_fract_z
Si Si1 0.909898 0.548071 0.450129
Si Si2 0.066523 0.447463 0.411501
Si Si3 0.580256 0.054804 0.867645
Si Si4 0.063517 0.554075 0.913914
Si Si5 0.828656 0.945205 0.978776
Si Si6 0.466112 0.948102 0.273856
Si Si7 0.677021 0.052240 0.181441
Si Si8 0.879146 0.548431 0.312107
O O1 0.911833 0.750000 0.451439
O O2 0.892780 0.491943 0.523637
O O3 0.865766 0.498137 0.386923
O O4 0.987098 0.488651 0.431109
O O5 0.074820 0.250000 0.406436
O O6 0.077823 0.519270 0.339483
O O7 0.596251 0.250000 0.862832
O O8 0.563035 0.987767 0.794946
O O9 0.510345 0.033336 0.910639
O O10 0.642573 0.968673 0.905771
O O11 0.048981 0.750000 0.906117
O O12 0.109653 0.484132 0.854198
O O13 0.114846 0.530716 0.974620
O O14 0.750000 0.008801 0.986123
O O15 0.828986 0.750000 0.994812
O O16 0.472300 0.750000 0.266312
O O17 0.543725 0.010213 0.290271
O O18 0.750000 0.983916 0.156021
O O19 0.676473 0.250000 0.169183
O O20 0.671188 0.020269 0.257763
O O21 0.877910 0.750000 0.309531
#
# Coordination Sequence:
#
# PCOD9451677 Si02
#       8
#     8   8   8   8   8   8   8   8
#     4   8  15  26  38  59  93 130 166 208 257 306
#     4   9  15  23  40  65  94 129 168 208 253 306
#     4  11  22  38  60  84 112 145 180 219 268 323
#     4  11  22  38  60  83 110 142 179 222 268 321
#     4  11  25  43  61  83 111 141 177 221 267 320
#     4   9  18  31  47  71 105 136 166 210 260 311
#     4  10  21  34  48  71 103 137 176 222 268 315
#     4   9  16  29  46  65  95 133 173 214 258 309
#
# _framework density 20.093910000000001
#
# number of rings (size 3 to 8) (size 9 to 14) (size 15 to 20)
#    0.000    2.250    1.250    3.000    0.000    5.750 
#    0.000    0.000    0.000    0.000    0.000    0.875 
#    0.000    1.000    0.000    0.000    0.000    0.000 
#
# Total GULP energy -356708.766680 kJ/mol
# GULP energy per Si atom -5573.574479 kJ/mol
# Density = 2.004818 g / cm^3
# Si number density = 20.093910 Si / 1000 Ang^3
#
#
#
# Elastic Constant Matrix: (Units=GPa)
#
#
# Indices 1 2 3 4 5 6 
#
# 1 53.8163 -12.3151 49.6559 0.0000 0.0000 0.0000
# 2 -12.3151 21.8473 -23.6452 0.0000 0.0000 0.0000
# 3 49.6559 -23.6452 158.9596 0.0000 0.0000 0.0000
# 4 0.0000 0.0000 0.0000 27.0165 0.0000 0.0000
# 5 0.0000 0.0000 0.0000 0.0000 47.6533 0.0000
# 6 0.0000 0.0000 0.0000 0.0000 0.0000 7.4434
#
#
#
# Elastic Compliance Matrix: (Units=1/GPa)
#
#
# Indices 1 2 3 4 5 6 
#
# 1 0.027042 0.007271 -0.007366 0.000000 0.000000 0.000000
# 2 0.007271 0.056510 0.006134 0.000000 0.000000 0.000000
# 3 -0.007366 0.006134 0.009504 0.000000 0.000000 0.000000
# 4 0.000000 0.000000 0.000000 0.037014 0.000000 0.000000
# 5 0.000000 0.000000 0.000000 0.000000 0.020985 0.000000
# 6 0.000000 0.000000 0.000000 0.000000 0.000000 0.134347
#
#
# Mechanical properties :
#
#
# Convention : Reuss Voigt Hill
#
# Bulk Modulus (GPa) = 9.51144 29.11272 19.31208
# Shear Modulus (GPa) = 16.21435 31.15114 23.68275
#
# Velocity S-wave (km/s) = 2.84373 3.94163 3.43680
# Velocity P-wave (km/s) = 3.94033 5.93591 5.03792
#
# Compressibility (1/GPa) = 0.10513657
#
# Stress axis : x y z
#
# Youngs Moduli (GPa) = 36.97946 17.69590 105.21503
#
# Poissons Ratio (x) = -0.12867 0.77499
# Poissons Ratio (y) = -0.26889 -0.64544
# Poissons Ratio (z) = 0.27238 -0.10856
#
# Static dielectric constant tensor:
#      x y z
#    x 1.704970 0.000000 0.000000 
#    y 0.000000 1.701400 0.000000 
#    z 0.000000 0.000000 1.803500 
# 
# From -- ./inp_files/30798.got.cif
#   From: 2010.05.17/outbox.cif.g08.bks.cpg/sg59_16_cif.got.tgz:30798.got - 2010.06.03 14:40:33.
