data_PCOD9451232
_publ_section_title
;
Structure prediction by ZEFSAII (Michael W. Deem and Ramdas Pophale) SiO2 
 PCOD9451232
Probable space group: P M M N
;
_chemical_formula_sum "Si O2"
_cell_formula_units_Z 56
_cell_length_a 16.644187
_cell_length_b 32.281884
_cell_length_c 5.222412
_cell_angle_alpha 90.000000
_cell_angle_beta 90.000000
_cell_angle_gamma 90.000000
_cell_volume 2806.031809
_symmetry_space_group_name_H-M "P M M N"
_symmetry_group_IT_number 59
_space_group.IT_coordinate_system_code '2'
_symmetry_cell_setting 'orthorhombic'
loop_
_space_group_symop_operation_xyz
x,y,z
1/2-x,1/2-y,z
1/2+x,-y,-z
-x,1/2+y,-z
-x,-y,-z
1/2+x,1/2+y,-z
1/2-x,y,z
x,1/2-y,z
loop_
_atom_site_type_symbol
_atom_site_label
_atom_site_fract_x
_atom_site_fract_y
_atom_site_fract_z
Si Si1 0.122727 0.296477 0.531283
Si Si2 0.064067 0.963668 0.994032
Si Si3 0.988717 0.126824 0.994027
Si Si4 0.340708 0.551229 0.517304
Si Si5 0.159781 0.857537 0.385467
Si Si6 0.661743 0.844726 0.985453
Si Si7 0.051904 0.797175 0.633488
O O1 0.145161 0.250000 0.455223
O O2 0.159239 0.308505 0.802631
O O3 0.025194 0.297031 0.555835
O O4 0.148371 0.326888 0.300899
O O5 0.023969 0.919961 0.911231
O O6 0.103618 0.958284 0.273448
O O7 0.129598 0.970694 0.773399
O O8 0.000000 0.000000 0.000000
O O9 0.916705 0.133039 0.792290
O O10 0.083436 0.129177 0.930135
O O11 0.973605 0.166503 0.173595
O O12 0.250000 0.539442 0.451492
O O13 0.339244 0.601341 0.562241
O O14 0.250000 0.855261 0.270874
O O15 0.134533 0.814533 0.516923
O O16 0.750000 0.864723 0.996828
O O17 0.058900 0.750000 0.732519
#
# Coordination Sequence:
#
# PCOD9451232 Si02
#       7
#     8   8   8   8   8   8   8
#     4  10  21  36  56  81 112 150 199 252 299 354
#     4  11  22  39  67  95 123 165 212 256 319 384
#     4  10  22  40  58  86 127 160 206 260 315 373
#     4  10  21  39  64  95 129 163 207 260 312 377
#     4  10  20  36  60  86 118 164 208 256 310 367
#     4  11  22  36  57  81 112 155 197 244 308 365
#     4  10  20  36  57  82 119 165 204 254 316 371
#
# _framework density 19.957007000000001
#
# number of rings (size 3 to 8) (size 9 to 14) (size 15 to 20)
#    0.000    1.714    2.857    1.714    0.000    4.286 
#    0.000    1.429    0.000    0.000    0.000    0.000 
#    0.000    0.000    0.000    0.000    0.000    0.000 
#
# Total GULP energy -311811.631570 kJ/mol
# GULP energy per Si atom -5568.064849 kJ/mol
# Density = 1.991158 g / cm^3
# Si number density = 19.957007 Si / 1000 Ang^3
#
#
#
# Elastic Constant Matrix: (Units=GPa)
#
#
# Indices 1 2 3 4 5 6 
#
# 1 146.8062 41.9238 6.4837 0.0000 0.0000 0.0000
# 2 41.9238 96.8114 16.8431 0.0000 0.0000 0.0000
# 3 6.4837 16.8431 43.6783 0.0000 0.0000 0.0000
# 4 0.0000 0.0000 0.0000 18.3901 0.0000 0.0000
# 5 0.0000 0.0000 0.0000 0.0000 20.4141 0.0000
# 6 0.0000 0.0000 0.0000 0.0000 0.0000 -4.3887
#
#
#
# Elastic Compliance Matrix: (Units=1/GPa)
#
#
# Indices 1 2 3 4 5 6 
#
# 1 0.007774 -0.003393 0.000155 0.000000 0.000000 0.000000
# 2 -0.003393 0.012553 -0.004337 0.000000 0.000000 0.000000
# 3 0.000155 -0.004337 0.024544 0.000000 0.000000 0.000000
# 4 0.000000 0.000000 0.000000 0.054377 0.000000 0.000000
# 5 0.000000 0.000000 0.000000 0.000000 0.048986 0.000000
# 6 0.000000 0.000000 0.000000 0.000000 0.000000 -0.227859
#
#
# Mechanical properties :
#
#
# Convention : Reuss Voigt Hill
#
# Bulk Modulus (GPa) = 33.64768 46.42190 40.03479
# Shear Modulus (GPa) = -91.63106 21.68613 -34.97246
#
# Velocity S-wave (km/s) = -6.78335 3.30000 -4.19070
# Velocity P-wave (km/s) = 6.66747 6.15073 1.81985
#
# Compressibility (1/GPa) = 0.02971973
#
# Stress axis : x y z
#
# Youngs Moduli (GPa) = 128.63514 79.65971 40.74288
#
# Poissons Ratio (x) = 0.27031 -0.00630
# Poissons Ratio (y) = 0.43651 0.17671
# Poissons Ratio (z) = -0.01988 0.34549
#
# Static dielectric constant tensor:
#      x y z
#    x 1.778300 0.000000 0.000000 
#    y 0.000000 1.715390 0.000000 
#    z 0.000000 0.000000 1.764180 
# 
# From -- ./inp_files/2313.got.cif
#   From: 2010.05.17/outbox.cif.g08.bks.cpg/sg59_2_cif.got.tgz:2313.got - 2010.06.03 14:40:33.
