data_PCOD9451587
_publ_section_title
;
Structure prediction by ZEFSAII (Michael W. Deem and Ramdas Pophale) SiO2 
 PCOD9451587
Probable space group: P M M N
;
_chemical_formula_sum "Si O2"
_cell_formula_units_Z 48
_cell_length_a 13.654207
_cell_length_b 7.900517
_cell_length_c 20.535793
_cell_angle_alpha 90.000000
_cell_angle_beta 90.000000
_cell_angle_gamma 90.000000
_cell_volume 2215.304718
_symmetry_space_group_name_H-M "P M M N"
_symmetry_group_IT_number 59
_space_group.IT_coordinate_system_code '2'
_symmetry_cell_setting 'orthorhombic'
loop_
_space_group_symop_operation_xyz
x,y,z
1/2-x,1/2-y,z
1/2+x,-y,-z
-x,1/2+y,-z
-x,-y,-z
1/2+x,1/2+y,-z
1/2-x,y,z
x,1/2-y,z
loop_
_atom_site_type_symbol
_atom_site_label
_atom_site_fract_x
_atom_site_fract_y
_atom_site_fract_z
Si Si1 0.868526 0.941695 0.502120
Si Si2 0.633316 0.250000 0.261013
Si Si3 0.640740 0.955444 0.035184
Si Si4 0.362963 0.045235 0.348108
Si Si5 0.997598 0.935846 0.233646
Si Si6 0.631485 0.250000 0.414350
Si Si7 0.558527 0.946277 0.898163
O O1 0.750000 0.934866 0.496317
O O2 0.903555 0.750000 0.490306
O O3 0.885710 0.994783 0.576738
O O4 0.903556 0.082314 0.451571
O O5 0.750000 0.250000 0.253370
O O6 0.582690 0.416304 0.232004
O O7 0.608356 0.250000 0.338322
O O8 0.750000 0.002061 0.056096
O O9 0.631044 0.750000 0.038632
O O10 0.553198 0.034315 0.076380
O O11 0.622979 0.003851 0.959601
O O12 0.250000 0.996610 0.335467
O O13 0.368702 0.250000 0.342245
O O14 0.435902 0.963448 0.296994
O O15 0.952125 0.750000 0.234465
O O16 0.063899 0.955734 0.169259
O O17 0.750000 0.250000 0.418579
O O18 0.581073 0.750000 0.885653
#
# Coordination Sequence:
#
# PCOD9451587 Si02
#       7
#     8   4   8   8   8   4   8
#     4   8  15  29  54  87 118 153 197 247 309 378
#     4  11  26  48  65  85 119 164 220 273 320 371
#     4   9  19  36  61  92 123 158 205 248 295 360
#     4   9  18  36  63  93 129 167 203 251 316 389
#     4  12  25  42  65  91 128 169 213 264 313 371
#     4   9  18  34  60  85 113 154 201 259 319 371
#     4  10  20  38  60  86 125 168 199 249 310 354
#
# _framework density 21.667449999999999
#
# number of rings (size 3 to 8) (size 9 to 14) (size 15 to 20)
#    0.000    2.333    1.667    1.500    1.167    3.667 
#    0.000    4.167    0.000    0.000    0.000    0.000 
#    0.000    0.000    0.000    0.000    0.000    0.000 
#
# Total GULP energy -268375.551404 kJ/mol
# GULP energy per Si atom -5591.157321 kJ/mol
# Density = 2.161813 g / cm^3
# Si number density = 21.667450 Si / 1000 Ang^3
#
#
#
# Elastic Constant Matrix: (Units=GPa)
#
#
# Indices 1 2 3 4 5 6 
#
# 1 70.0553 2.0032 -22.4627 0.0000 0.0000 0.0000
# 2 2.0032 83.8615 25.5176 0.0000 0.0000 0.0000
# 3 -22.4627 25.5176 57.4227 0.0000 0.0000 0.0000
# 4 0.0000 0.0000 0.0000 24.9034 0.0000 0.0000
# 5 0.0000 0.0000 0.0000 0.0000 12.6753 0.0000
# 6 0.0000 0.0000 0.0000 0.0000 0.0000 9.2375
#
#
#
# Elastic Compliance Matrix: (Units=1/GPa)
#
#
# Indices 1 2 3 4 5 6 
#
# 1 0.016867 -0.002787 0.007837 0.000000 0.000000 0.000000
# 2 -0.002787 0.014250 -0.007423 0.000000 0.000000 0.000000
# 3 0.007837 -0.007423 0.023779 0.000000 0.000000 0.000000
# 4 0.000000 0.000000 0.000000 0.040155 0.000000 0.000000
# 5 0.000000 0.000000 0.000000 0.000000 0.078894 0.000000
# 6 0.000000 0.000000 0.000000 0.000000 0.000000 0.108254
#
#
# Mechanical properties :
#
#
# Convention : Reuss Voigt Hill
#
# Bulk Modulus (GPa) = 19.94077 24.60618 22.27348
# Shear Modulus (GPa) = 16.46569 23.11533 19.79051
#
# Velocity S-wave (km/s) = 2.75967 3.26977 3.02549
# Velocity P-wave (km/s) = 4.40198 5.06321 4.74413
#
# Compressibility (1/GPa) = 0.05014850
#
# Stress axis : x y z
#
# Youngs Moduli (GPa) = 59.28764 70.17741 42.05423
#
# Poissons Ratio (x) = 0.19562 -0.32957
# Poissons Ratio (y) = 0.16526 0.31215
# Poissons Ratio (z) = -0.46462 0.52090
#
# Static dielectric constant tensor:
#      x y z
#    x 1.789810 0.000000 0.000000 
#    y 0.000000 0.965030 0.000000 
#    z 0.000000 0.000000 1.761740 
# 
# From -- ./inp_files/27469.got.cif
#   From: 2010.05.17/outbox.cif.g08.bks.cpg/sg59_14_cif.got.tgz:27469.got - 2010.06.03 14:40:33.
