data_PCOD9451685
_publ_section_title
;
Structure prediction by ZEFSAII (Michael W. Deem and Ramdas Pophale) SiO2 
 PCOD9451685
Probable space group: P M M N
;
_chemical_formula_sum "Si O2"
_cell_formula_units_Z 48
_cell_length_a 8.203047
_cell_length_b 14.571120
_cell_length_c 17.585550
_cell_angle_alpha 90.000000
_cell_angle_beta 90.000000
_cell_angle_gamma 90.000000
_cell_volume 2101.958273
_symmetry_space_group_name_H-M "P M M N"
_symmetry_group_IT_number 59
_space_group.IT_coordinate_system_code '2'
_symmetry_cell_setting 'orthorhombic'
loop_
_space_group_symop_operation_xyz
x,y,z
1/2-x,1/2-y,z
1/2+x,-y,-z
-x,1/2+y,-z
-x,-y,-z
1/2+x,1/2+y,-z
1/2-x,y,z
x,1/2-y,z
loop_
_atom_site_type_symbol
_atom_site_label
_atom_site_fract_x
_atom_site_fract_y
_atom_site_fract_z
Si Si1 0.250000 0.363286 0.722512
Si Si2 0.066115 0.138303 0.145430
Si Si3 0.750000 0.637830 0.100996
Si Si4 0.433760 0.853520 0.362034
Si Si5 0.938493 0.139127 0.306382
Si Si6 0.572896 0.362074 0.987907
Si Si7 0.944548 0.098503 0.472800
O O1 0.250000 0.250000 0.715965
O O2 0.250000 0.387496 0.810741
O O3 0.414785 0.398121 0.681591
O O4 0.250000 0.112813 0.125047
O O5 0.059865 0.250000 0.148227
O O6 0.023984 0.105089 0.229840
O O7 0.950534 0.111436 0.076103
O O8 0.750000 0.750000 0.097633
O O9 0.584569 0.607485 0.059284
O O10 0.250000 0.894616 0.357062
O O11 0.419958 0.750000 0.331408
O O12 0.481685 0.845662 0.450883
O O13 0.750000 0.109006 0.302925
O O14 0.937935 0.250000 0.303457
O O15 0.013223 0.116922 0.389026
O O16 0.750000 0.392731 0.959387
O O17 0.571920 0.250000 0.985396
O O18 0.750000 0.107136 0.463710
O O19 0.000000 0.000000 0.500000
#
# Coordination Sequence:
#
# PCOD9451685 Si02
#       7
#     4   8   4   8   8   8   8
#     4   9  18  30  48  71  95 129 166 207 250 289
#     4   9  15  24  38  60  91 125 160 197 234 283
#     4   9  16  26  38  61  95 123 159 201 238 289
#     4   9  18  34  53  72  97 131 170 208 250 298
#     4   9  17  30  47  67  93 129 170 203 240 294
#     4   9  15  23  37  57  88 130 161 188 236 289
#     4  10  21  34  50  71  97 130 162 210 254 296
#
# _framework density 22.835849
#
# number of rings (size 3 to 8) (size 9 to 14) (size 15 to 20)
#    0.000    2.833    0.833    1.000    1.167    5.333 
#    0.000    3.333    0.000    0.000    0.000    0.000 
#    0.000    1.333    0.667    0.000    0.000    0.000 
#
# Total GULP energy -267779.605757 kJ/mol
# GULP energy per Si atom -5578.741787 kJ/mol
# Density = 2.278387 g / cm^3
# Si number density = 22.835849 Si / 1000 Ang^3
#
#
#
# Elastic Constant Matrix: (Units=GPa)
#
#
# Indices 1 2 3 4 5 6 
#
# 1 144.8343 9.9850 95.5865 0.0000 0.0000 0.0000
# 2 9.9850 41.6916 9.7751 0.0000 0.0000 0.0000
# 3 95.5865 9.7751 150.1174 0.0000 0.0000 0.0000
# 4 0.0000 0.0000 0.0000 -10.4806 0.0000 0.0000
# 5 0.0000 0.0000 0.0000 0.0000 8.2392 0.0000
# 6 0.0000 0.0000 0.0000 0.0000 0.0000 7.4319
#
#
#
# Elastic Compliance Matrix: (Units=1/GPa)
#
#
# Indices 1 2 3 4 5 6 
#
# 1 0.011958 -0.001095 -0.007543 0.000000 0.000000 0.000000
# 2 -0.001095 0.024458 -0.000895 0.000000 0.000000 0.000000
# 3 -0.007543 -0.000895 0.011523 0.000000 0.000000 0.000000
# 4 0.000000 0.000000 0.000000 -0.095415 0.000000 0.000000
# 5 0.000000 0.000000 0.000000 0.000000 0.121371 0.000000
# 6 0.000000 0.000000 0.000000 0.000000 0.000000 0.134555
#
#
# Mechanical properties :
#
#
# Convention : Reuss Voigt Hill
#
# Bulk Modulus (GPa) = 34.63597 63.03740 48.83668
# Shear Modulus (GPa) = 21.08449 15.79121 18.43785
#
# Velocity S-wave (km/s) = 3.04189 2.63251 2.84458
# Velocity P-wave (km/s) = 5.24764 6.07492 5.67637
#
# Compressibility (1/GPa) = 0.02887172
#
# Stress axis : x y z
#
# Youngs Moduli (GPa) = 83.62556 40.88667 86.78552
#
# Poissons Ratio (x) = 0.04479 0.65462
# Poissons Ratio (y) = 0.09160 0.07768
# Poissons Ratio (z) = 0.63078 0.03660
#
# Static dielectric constant tensor:
#      x y z
#    x 1.851870 0.000000 0.000000 
#    y 0.000000 1.829080 0.000000 
#    z 0.000000 0.000000 1.841270 
# 
# From -- ./inp_files/20513.got.cif
#   From: 2010.05.17/outbox.cif.g08.bks.cpg/sg59_11_cif.got.tgz:20513.got - 2010.06.03 14:40:33.
