data_PCOD9451467
_publ_section_title
;
Structure prediction by ZEFSAII (Michael W. Deem and Ramdas Pophale) SiO2 
 PCOD9451467
Probable space group: P M M N
;
_chemical_formula_sum "Si O2"
_cell_formula_units_Z 48
_cell_length_a 31.854343
_cell_length_b 8.433782
_cell_length_c 9.182905
_cell_angle_alpha 90.000000
_cell_angle_beta 90.000000
_cell_angle_gamma 90.000000
_cell_volume 2467.011163
_symmetry_space_group_name_H-M "P M M N"
_symmetry_group_IT_number 59
_space_group.IT_coordinate_system_code '2'
_symmetry_cell_setting 'orthorhombic'
loop_
_space_group_symop_operation_xyz
x,y,z
1/2-x,1/2-y,z
1/2+x,-y,-z
-x,1/2+y,-z
-x,-y,-z
1/2+x,1/2+y,-z
1/2-x,y,z
x,1/2-y,z
loop_
_atom_site_type_symbol
_atom_site_label
_atom_site_fract_x
_atom_site_fract_y
_atom_site_fract_z
Si Si1 0.082887 0.556614 0.834180
Si Si2 0.333506 0.941968 0.663855
Si Si3 0.916639 0.440303 0.829934
Si Si4 0.000830 0.440226 0.334833
Si Si5 0.333846 0.440159 0.333337
Si Si6 0.250000 0.058485 0.165431
Si Si7 0.750000 0.441673 0.164989
O O1 0.082967 0.750000 0.834408
O O2 0.124656 0.505463 0.748990
O O3 0.040870 0.504940 0.750903
O O4 0.083191 0.504882 0.002007
O O5 0.333652 0.750000 0.660959
O O6 0.291790 0.993927 0.749707
O O7 0.333434 0.002096 0.499288
O O8 0.917090 0.250000 0.828839
O O9 0.874949 0.497848 0.748776
O O10 0.957730 0.500852 0.746953
O O11 0.000782 0.250000 0.335798
O O12 0.000000 0.500000 0.500000
O O13 0.334425 0.250000 0.331843
O O14 0.291833 0.495272 0.249786
O O15 0.250000 0.250000 0.165451
O O16 0.250000 0.000615 0.000007
O O17 0.750000 0.250000 0.162754
#
# Coordination Sequence:
#
# PCOD9451467 Si02
#       7
#     8   8   8   8   8   4   4
#     4   9  20  37  58  82 113 150 191 236 285 338
#     4  10  20  37  59  86 116 150 192 240 287 339
#     4  11  22  39  61  85 114 151 190 239 295 344
#     4  11  22  38  59  86 117 153 195 239 287 346
#     4  11  23  39  58  85 117 153 194 237 284 344
#     4  10  23  40  58  82 118 156 193 238 290 342
#     4  10  21  36  60  90 118 150 195 240 284 340
#
# _framework density 19.456741999999998
#
# number of rings (size 3 to 8) (size 9 to 14) (size 15 to 20)
#    0.000    1.667    0.000    4.500    0.000    4.667 
#    0.000    5.000    0.000    0.000    0.000    0.000 
#    0.000    0.000    0.000    0.000    0.000    0.000 
#
# Total GULP energy -268392.844776 kJ/mol
# GULP energy per Si atom -5591.517600 kJ/mol
# Density = 1.941246 g / cm^3
# Si number density = 19.456742 Si / 1000 Ang^3
#
#
#
# Elastic Constant Matrix: (Units=GPa)
#
#
# Indices 1 2 3 4 5 6 
#
# 1 248.2953 38.0817 152.4836 0.0000 0.0000 0.0000
# 2 38.0817 30.8205 34.4059 0.0000 0.0000 0.0000
# 3 152.4836 34.4059 245.3479 0.0000 0.0000 0.0000
# 4 0.0000 0.0000 0.0000 28.5401 0.0000 0.0000
# 5 0.0000 0.0000 0.0000 0.0000 47.6143 0.0000
# 6 0.0000 0.0000 0.0000 0.0000 0.0000 3.3461
#
#
#
# Elastic Compliance Matrix: (Units=1/GPa)
#
#
# Indices 1 2 3 4 5 6 
#
# 1 0.007003 -0.004498 -0.003721 0.000000 0.000000 0.000000
# 2 -0.004498 0.041357 -0.003004 0.000000 0.000000 0.000000
# 3 -0.003721 -0.003004 0.006810 0.000000 0.000000 0.000000
# 4 0.000000 0.000000 0.000000 0.035038 0.000000 0.000000
# 5 0.000000 0.000000 0.000000 0.000000 0.021002 0.000000
# 6 0.000000 0.000000 0.000000 0.000000 0.000000 0.298858
#
#
# Mechanical properties :
#
#
# Convention : Reuss Voigt Hill
#
# Bulk Modulus (GPa) = 30.55977 108.26737 69.41357
# Shear Modulus (GPa) = 11.27589 35.86626 23.57108
#
# Velocity S-wave (km/s) = 2.40997 4.29812 3.48438
# Velocity P-wave (km/s) = 4.84609 8.96648 7.20702
#
# Compressibility (1/GPa) = 0.03272276
#
# Stress axis : x y z
#
# Youngs Moduli (GPa) = 142.80050 24.17946 146.84365
#
# Poissons Ratio (x) = 0.10877 0.54647
# Poissons Ratio (y) = 0.64236 0.44112
# Poissons Ratio (z) = 0.53142 0.07264
#
# Static dielectric constant tensor:
#      x y z
#    x 1.653890 0.000000 0.000000 
#    y 0.000000 1.669920 0.000000 
#    z 0.000000 0.000000 1.628210 
# 
# From -- ./inp_files/13051.got.cif
#   From: 2010.05.17/outbox.cif.g08.bks.cpg/sg59_7_cif.got.tgz:13051.got - 2010.06.03 14:40:33.
