data_PCOD9451589
_publ_section_title
;
Structure prediction by ZEFSAII (Michael W. Deem and Ramdas Pophale) SiO2 
 PCOD9451589
Probable space group: P M M N
;
_chemical_formula_sum "Si O2"
_cell_formula_units_Z 48
_cell_length_a 17.398527
_cell_length_b 14.402330
_cell_length_c 9.666747
_cell_angle_alpha 90.000000
_cell_angle_beta 90.000000
_cell_angle_gamma 90.000000
_cell_volume 2422.286961
_symmetry_space_group_name_H-M "P M M N"
_symmetry_group_IT_number 59
_space_group.IT_coordinate_system_code '2'
_symmetry_cell_setting 'orthorhombic'
loop_
_space_group_symop_operation_xyz
x,y,z
1/2-x,1/2-y,z
1/2+x,-y,-z
-x,1/2+y,-z
-x,-y,-z
1/2+x,1/2+y,-z
1/2-x,y,z
x,1/2-y,z
loop_
_atom_site_type_symbol
_atom_site_label
_atom_site_fract_x
_atom_site_fract_y
_atom_site_fract_z
Si Si1 0.487070 0.250000 0.474761
Si Si2 0.908087 0.750000 0.254275
Si Si3 0.924364 0.451240 0.068955
Si Si4 0.075729 0.047429 0.435090
Si Si5 0.663418 0.547106 0.841787
Si Si6 0.837426 0.947779 0.304206
Si Si7 0.114281 0.250000 0.066479
Si Si8 0.046184 0.750000 0.807526
O O1 0.483766 0.250000 0.645282
O O2 0.441737 0.343611 0.442692
O O3 0.556894 0.250000 0.360911
O O4 0.856847 0.839495 0.288116
O O5 0.920039 0.750000 0.089147
O O6 0.900282 0.503123 0.208627
O O7 0.929703 0.343952 0.113381
O O8 0.857028 0.474797 0.961588
O O9 0.000000 0.500000 0.000000
O O10 0.101725 0.029158 0.279438
O O11 0.145091 0.024507 0.538630
O O12 0.000000 0.000000 0.500000
O O13 0.750000 0.536798 0.790028
O O14 0.656143 0.651905 0.905216
O O15 0.750000 0.967581 0.263950
O O16 0.045136 0.250000 0.173641
#
# Coordination Sequence:
#
# PCOD9451589 Si02
#       8
#     4   4   8   8   8   8   4   4
#     4  10  20  38  60  91 123 161 206 261 319 378
#     4  10  21  34  60  92 130 160 198 251 319 384
#     4  12  23  40  64  90 125 171 216 270 316 385
#     4  11  22  40  64  90 125 168 214 267 321 385
#     4  12  24  40  64  98 133 172 218 270 334 393
#     4  11  22  37  59  91 126 165 207 259 322 377
#     4  12  21  39  66  94 132 168 201 267 329 396
#     4  12  22  41  63  91 123 165 224 261 313 386
#
# _framework density 19.815984
#
# number of rings (size 3 to 8) (size 9 to 14) (size 15 to 20)
#    0.000    0.667    5.000    3.500    0.000    2.000 
#    0.000    4.167    0.000    0.000    0.000    3.500 
#    0.000    0.000    0.000    0.000    0.000    0.000 
#
# Total GULP energy -267590.030573 kJ/mol
# GULP energy per Si atom -5574.792304 kJ/mol
# Density = 1.977088 g / cm^3
# Si number density = 19.815984 Si / 1000 Ang^3
#
#
#
# Elastic Constant Matrix: (Units=GPa)
#
#
# Indices 1 2 3 4 5 6 
#
# 1 72.2768 51.8775 26.8971 0.0000 0.0000 0.0000
# 2 51.8775 96.8271 37.4053 0.0000 0.0000 0.0000
# 3 26.8971 37.4053 144.2505 0.0000 0.0000 0.0000
# 4 0.0000 0.0000 0.0000 24.5496 0.0000 0.0000
# 5 0.0000 0.0000 0.0000 0.0000 32.4954 0.0000
# 6 0.0000 0.0000 0.0000 0.0000 0.0000 6.9327
#
#
#
# Elastic Compliance Matrix: (Units=1/GPa)
#
#
# Indices 1 2 3 4 5 6 
#
# 1 0.022666 -0.011681 -0.001197 0.000000 0.000000 0.000000
# 2 -0.011681 0.017497 -0.002359 0.000000 0.000000 0.000000
# 3 -0.001197 -0.002359 0.007767 0.000000 0.000000 0.000000
# 4 0.000000 0.000000 0.000000 0.040734 0.000000 0.000000
# 5 0.000000 0.000000 0.000000 0.000000 0.030774 0.000000
# 6 0.000000 0.000000 0.000000 0.000000 0.000000 0.144245
#
#
# Mechanical properties :
#
#
# Convention : Reuss Voigt Hill
#
# Bulk Modulus (GPa) = 57.28899 60.63494 58.96196
# Shear Modulus (GPa) = 16.66799 25.94048 21.30424
#
# Velocity S-wave (km/s) = 2.90339 3.62203 3.28243
# Velocity P-wave (km/s) = 6.34136 6.93957 6.64719
#
# Compressibility (1/GPa) = 0.01745536
#
# Stress axis : x y z
#
# Youngs Moduli (GPa) = 44.11991 57.15105 128.74362
#
# Poissons Ratio (x) = 0.66759 0.15414
# Poissons Ratio (y) = 0.51537 0.30373
# Poissons Ratio (z) = 0.05282 0.13483
#
# Static dielectric constant tensor:
#      x y z
#    x 1.709910 0.000000 0.000000 
#    y 0.000000 1.699500 0.000000 
#    z 0.000000 0.000000 1.777290 
# 
# From -- ./inp_files/10291.got.cif
#   From: 2010.05.17/outbox.cif.g08.bks.cpg/sg59_6_cif.got.tgz:10291.got - 2010.06.03 14:40:33.
