data_PCOD9451359
_publ_section_title
;
Structure prediction by ZEFSAII (Michael W. Deem and Ramdas Pophale) SiO2 
 PCOD9451359
Probable space group: P M M N
;
_chemical_formula_sum "Si O2"
_cell_formula_units_Z 64
_cell_length_a 9.292950
_cell_length_b 30.869432
_cell_length_c 11.759262
_cell_angle_alpha 90.000000
_cell_angle_beta 90.000000
_cell_angle_gamma 90.000000
_cell_volume 3373.357007
_symmetry_space_group_name_H-M "P M M N"
_symmetry_group_IT_number 59
_space_group.IT_coordinate_system_code '2'
_symmetry_cell_setting 'orthorhombic'
loop_
_space_group_symop_operation_xyz
x,y,z
1/2-x,1/2-y,z
1/2+x,-y,-z
-x,1/2+y,-z
-x,-y,-z
1/2+x,1/2+y,-z
1/2-x,y,z
x,1/2-y,z
loop_
_atom_site_type_symbol
_atom_site_label
_atom_site_fract_x
_atom_site_fract_y
_atom_site_fract_z
Si Si1 0.082612 0.943571 0.560758
Si Si2 0.579407 0.022302 0.677443
Si Si3 0.413897 0.697278 0.347166
Si Si4 0.421535 0.300524 0.882284
Si Si5 0.914934 0.697958 0.572510
Si Si6 0.917368 0.362688 0.277021
Si Si7 0.920772 0.966401 0.084030
Si Si8 0.418684 0.377452 0.051300
O O1 0.250000 0.958040 0.574545
O O2 0.054725 0.943665 0.425621
O O3 0.068173 0.898142 0.623380
O O4 0.978594 0.977621 0.622653
O O5 0.750000 0.019917 0.701031
O O6 0.492870 0.031500 0.792061
O O7 0.250000 0.681413 0.351025
O O8 0.410320 0.750000 0.348674
O O9 0.493440 0.685652 0.230660
O O10 0.501637 0.684029 0.458502
O O11 0.250000 0.303029 0.859832
O O12 0.455252 0.250000 0.907443
O O13 0.454206 0.333357 0.983913
O O14 0.750000 0.683367 0.568761
O O15 0.916796 0.750000 0.575735
O O16 0.994385 0.678663 0.681190
O O17 0.750000 0.352628 0.262039
O O18 0.984189 0.381363 0.162140
O O19 0.750000 0.976200 0.090787
O O20 0.937209 0.918590 0.030670
O O21 0.000000 0.000000 0.000000
O O22 0.250000 0.375810 0.084227
#
# Coordination Sequence:
#
# PCOD9451359 Si02
#       8
#     8   8   8   8   8   8   8   8
#     4   9  20  38  58  84 117 149 182 222 275 335
#     4  10  20  36  60  87 114 146 185 228 274 328
#     4   9  17  31  53  81 111 140 175 223 276 327
#     4   9  18  35  58  81 109 146 185 226 275 331
#     4  10  21  37  57  80 108 145 187 228 273 329
#     4  11  23  38  57  81 111 146 183 230 283 331
#     4  11  23  39  59  83 114 150 189 233 280 332
#     4  10  23  40  56  80 112 148 192 235 277 333
#
# _framework density 18.972199
#
# number of rings (size 3 to 8) (size 9 to 14) (size 15 to 20)
#    0.000    2.125    0.000    2.625    0.000    8.750 
#    0.000    3.750    0.000    0.000    0.000    0.000 
#    0.000    0.000    0.000    0.000    0.000    0.000 
#
# Total GULP energy -357365.952447 kJ/mol
# GULP energy per Si atom -5583.843007 kJ/mol
# Density = 1.892902 g / cm^3
# Si number density = 18.972199 Si / 1000 Ang^3
#
#
#
# Elastic Constant Matrix: (Units=GPa)
#
#
# Indices 1 2 3 4 5 6 
#
# 1 116.7725 44.9655 85.1405 0.0000 0.0000 0.0000
# 2 44.9655 44.5838 37.3613 0.0000 0.0000 0.0000
# 3 85.1405 37.3613 130.1400 0.0000 0.0000 0.0000
# 4 0.0000 0.0000 0.0000 25.8046 0.0000 0.0000
# 5 0.0000 0.0000 0.0000 0.0000 33.8316 0.0000
# 6 0.0000 0.0000 0.0000 0.0000 0.0000 20.7917
#
#
#
# Elastic Compliance Matrix: (Units=1/GPa)
#
#
# Indices 1 2 3 4 5 6 
#
# 1 0.020563 -0.012464 -0.009874 0.000000 0.000000 0.000000
# 2 -0.012464 0.037090 -0.002494 0.000000 0.000000 0.000000
# 3 -0.009874 -0.002494 0.014860 0.000000 0.000000 0.000000
# 4 0.000000 0.000000 0.000000 0.038753 0.000000 0.000000
# 5 0.000000 0.000000 0.000000 0.000000 0.029558 0.000000
# 6 0.000000 0.000000 0.000000 0.000000 0.000000 0.048096
#
#
# Mechanical properties :
#
#
# Convention : Reuss Voigt Hill
#
# Bulk Modulus (GPa) = 43.76650 69.60346 56.68498
# Shear Modulus (GPa) = 20.30866 24.35419 22.33142
#
# Velocity S-wave (km/s) = 3.27531 3.58673 3.43455
# Velocity P-wave (km/s) = 6.11738 7.34300 6.75803
#
# Compressibility (1/GPa) = 0.02284853
#
# Stress axis : x y z
#
# Youngs Moduli (GPa) = 48.63176 26.96129 67.29483
#
# Poissons Ratio (x) = 0.33605 0.66449
# Poissons Ratio (y) = 0.60615 0.16782
# Poissons Ratio (z) = 0.48021 0.06724
#
# Static dielectric constant tensor:
#      x y z
#    x 1.653830 0.000000 0.000000 
#    y 0.000000 1.660230 0.000000 
#    z 0.000000 0.000000 1.635040 
# 
# From -- ./inp_files/15000.got.cif
#   From: 2010.05.17/outbox.cif.g08.bks.cpg/sg59_8_cif.got.tgz:15000.got - 2010.06.03 14:40:33.
