data_PCOD9451274
_publ_section_title
;
Structure prediction by ZEFSAII (Michael W. Deem and Ramdas Pophale) SiO2 
 PCOD9451274
Probable space group: P M M N
;
_chemical_formula_sum "Si O2"
_cell_formula_units_Z 56
_cell_length_a 8.770775
_cell_length_b 23.051917
_cell_length_c 15.084445
_cell_angle_alpha 90.000000
_cell_angle_beta 90.000000
_cell_angle_gamma 90.000000
_cell_volume 3049.821018
_symmetry_space_group_name_H-M "P M M N"
_symmetry_group_IT_number 59
_space_group.IT_coordinate_system_code '2'
_symmetry_cell_setting 'orthorhombic'
loop_
_space_group_symop_operation_xyz
x,y,z
1/2-x,1/2-y,z
1/2+x,-y,-z
-x,1/2+y,-z
-x,-y,-z
1/2+x,1/2+y,-z
1/2-x,y,z
x,1/2-y,z
loop_
_atom_site_type_symbol
_atom_site_label
_atom_site_fract_x
_atom_site_fract_y
_atom_site_fract_z
Si Si1 0.568911 0.020532 0.906296
Si Si2 0.932634 0.082960 0.201039
Si Si3 0.068759 0.815734 0.935440
Si Si4 0.432500 0.814674 0.304232
Si Si5 0.567698 0.446083 0.395767
Si Si6 0.068748 0.353641 0.878916
Si Si7 0.431574 0.079288 0.583781
O O1 0.750000 0.027949 0.914371
O O2 0.491828 0.080568 0.878840
O O3 0.524973 0.971148 0.836844
O O4 0.500000 0.000000 0.000000
O O5 0.750000 0.071736 0.191496
O O6 0.970824 0.138200 0.140551
O O7 0.963550 0.088065 0.305292
O O8 0.250000 0.822223 0.953571
O O9 0.040859 0.750000 0.906133
O O10 0.981832 0.827839 0.026705
O O11 0.250000 0.818136 0.302656
O O12 0.475915 0.750000 0.337337
O O13 0.494597 0.821669 0.204506
O O14 0.494822 0.868066 0.362186
O O15 0.750000 0.444754 0.412817
O O16 0.525396 0.514228 0.383005
O O17 0.483008 0.421337 0.481307
O O18 0.250000 0.352369 0.870669
O O19 0.250000 0.084350 0.591313
#
# Coordination Sequence:
#
# PCOD9451274 Si02
#       7
#     8   8   8   8   8   8   8
#     4  12  23  36  56  84 117 152 191 239 292 345
#     4  10  20  36  58  83 115 153 195 240 285 341
#     4  10  21  37  56  78 109 151 195 238 284 336
#     4  11  24  41  61  86 118 157 199 244 295 353
#     4   9  19  36  59  87 117 151 191 236 291 352
#     4  12  24  38  58  84 115 153 194 238 291 349
#     4  10  20  36  60  88 118 151 190 239 294 350
#
# _framework density 18.361733000000001
#
# number of rings (size 3 to 8) (size 9 to 14) (size 15 to 20)
#    0.000    1.429    1.429    4.714    0.000    5.429 
#    0.000    0.714    0.000    2.571    0.000    0.000 
#    0.000    0.000    0.000    0.000    0.000    0.000 
#
# Total GULP energy -312948.199075 kJ/mol
# GULP energy per Si atom -5588.360698 kJ/mol
# Density = 1.831994 g / cm^3
# Si number density = 18.361733 Si / 1000 Ang^3
#
#
#
# Elastic Constant Matrix: (Units=GPa)
#
#
# Indices 1 2 3 4 5 6 
#
# 1 51.2649 36.7957 40.3184 0.0000 0.0000 0.0000
# 2 36.7957 102.8192 50.7047 0.0000 0.0000 0.0000
# 3 40.3184 50.7047 108.2777 0.0000 0.0000 0.0000
# 4 0.0000 0.0000 0.0000 15.4328 0.0000 0.0000
# 5 0.0000 0.0000 0.0000 0.0000 29.7819 0.0000
# 6 0.0000 0.0000 0.0000 0.0000 0.0000 25.4216
#
#
#
# Elastic Compliance Matrix: (Units=1/GPa)
#
#
# Indices 1 2 3 4 5 6 
#
# 1 0.031063 -0.007038 -0.008271 0.000000 0.000000 0.000000
# 2 -0.007038 0.014241 -0.004048 0.000000 0.000000 0.000000
# 3 -0.008271 -0.004048 0.014211 0.000000 0.000000 0.000000
# 4 0.000000 0.000000 0.000000 0.064797 0.000000 0.000000
# 5 0.000000 0.000000 0.000000 0.000000 0.033577 0.000000
# 6 0.000000 0.000000 0.000000 0.000000 0.000000 0.039337
#
#
# Mechanical properties :
#
#
# Convention : Reuss Voigt Hill
#
# Bulk Modulus (GPa) = 48.07473 57.55550 52.81512
# Shear Modulus (GPa) = 20.58695 23.09680 21.84187
#
# Velocity S-wave (km/s) = 3.35205 3.55050 3.45270
# Velocity P-wave (km/s) = 6.42032 6.94417 6.68738
#
# Compressibility (1/GPa) = 0.02080095
#
# Stress axis : x y z
#
# Youngs Moduli (GPa) = 32.19302 70.22151 70.36814
#
# Poissons Ratio (x) = 0.49419 0.58201
# Poissons Ratio (y) = 0.22656 0.28486
# Poissons Ratio (z) = 0.26627 0.28427
#
# Static dielectric constant tensor:
#      x y z
#    x 1.663620 0.000000 0.000000 
#    y 0.000000 1.641390 0.000000 
#    z 0.000000 0.000000 1.626850 
# 
# From -- ./inp_files/20928.got.cif
#   From: 2010.05.17/outbox.cif.g08.bks.cpg/sg59_11_cif.got.tgz:20928.got - 2010.06.03 14:40:33.
