data_PCOD9451714
_publ_section_title
;
Structure prediction by ZEFSAII (Michael W. Deem and Ramdas Pophale) SiO2 
 PCOD9451714
Probable space group: P M M N
;
_chemical_formula_sum "Si O2"
_cell_formula_units_Z 64
_cell_length_a 9.496956
_cell_length_b 22.773354
_cell_length_c 16.840496
_cell_angle_alpha 90.000000
_cell_angle_beta 90.000000
_cell_angle_gamma 90.000000
_cell_volume 3642.221063
_symmetry_space_group_name_H-M "P M M N"
_symmetry_group_IT_number 59
_space_group.IT_coordinate_system_code '2'
_symmetry_cell_setting 'orthorhombic'
loop_
_space_group_symop_operation_xyz
x,y,z
1/2-x,1/2-y,z
1/2+x,-y,-z
-x,1/2+y,-z
-x,-y,-z
1/2+x,1/2+y,-z
1/2-x,y,z
x,1/2-y,z
loop_
_atom_site_type_symbol
_atom_site_label
_atom_site_fract_x
_atom_site_fract_y
_atom_site_fract_z
Si Si1 0.410078 0.512497 0.077298
Si Si2 0.082244 0.969078 0.624155
Si Si3 0.913942 0.318638 0.657057
Si Si4 0.582834 0.680540 0.892912
Si Si5 0.581596 0.572100 0.778863
Si Si6 0.412063 0.850140 0.051241
Si Si7 0.094639 0.318340 0.802725
Si Si8 0.914695 0.075053 0.550664
O O1 0.250000 0.492136 0.063241
O O2 0.458016 0.477302 0.155113
O O3 0.410200 0.582638 0.081771
O O4 0.500000 0.500000 0.000000
O O5 0.250000 0.974307 0.637330
O O6 0.058708 0.932458 0.542775
O O7 0.005529 0.940323 0.699447
O O8 0.011806 0.031409 0.601538
O O9 0.750000 0.323003 0.681310
O O10 0.942151 0.250000 0.641438
O O11 0.935628 0.359131 0.581017
O O12 0.007754 0.343194 0.728924
O O13 0.750000 0.675160 0.912866
O O14 0.555822 0.750000 0.877309
O O15 0.556722 0.635705 0.819955
O O16 0.488416 0.658950 0.966887
O O17 0.750000 0.566818 0.763580
O O18 0.250000 0.829911 0.046995
O O19 0.505432 0.819382 0.117442
O O20 0.250000 0.344721 0.813023
O O21 0.110455 0.250000 0.782679
O O22 0.750000 0.059114 0.564414
#
# Coordination Sequence:
#
# PCOD9451714 Si02
#       8
#     8   8   8   8   8   8   8   8
#     4  10  21  36  54  77 105 139 176 217 266 316
#     4  10  21  36  57  85 111 140 180 224 267 321
#     4   9  18  34  56  79 105 140 179 219 266 323
#     4  10  21  38  59  79 103 142 188 228 270 320
#     4  10  21  38  57  79 110 144 177 221 273 320
#     4  11  22  34  52  79 107 139 181 223 266 317
#     4  10  21  35  50  73 107 143 178 215 257 310
#     4   9  19  37  58  81 111 142 175 217 271 326
#
# _framework density 17.571695999999999
#
# number of rings (size 3 to 8) (size 9 to 14) (size 15 to 20)
#    0.000    2.125    1.250    1.500    1.750    5.000 
#    0.000    0.625    0.000    0.750    0.000    0.000 
#    0.000    0.000    0.000    0.000    0.000    0.000 
#
# Total GULP energy -356745.511113 kJ/mol
# GULP energy per Si atom -5574.148611 kJ/mol
# Density = 1.753170 g / cm^3
# Si number density = 17.571696 Si / 1000 Ang^3
#
#
#
# Elastic Constant Matrix: (Units=GPa)
#
#
# Indices 1 2 3 4 5 6 
#
# 1 95.3261 55.7460 78.1253 0.0000 0.0000 0.0000
# 2 55.7460 79.2059 61.3820 0.0000 0.0000 0.0000
# 3 78.1253 61.3820 125.2741 0.0000 0.0000 0.0000
# 4 0.0000 0.0000 0.0000 25.6025 0.0000 0.0000
# 5 0.0000 0.0000 0.0000 0.0000 33.9784 0.0000
# 6 0.0000 0.0000 0.0000 0.0000 0.0000 17.4021
#
#
#
# Elastic Compliance Matrix: (Units=1/GPa)
#
#
# Indices 1 2 3 4 5 6 
#
# 1 0.024755 -0.008801 -0.011126 0.000000 0.000000 0.000000
# 2 -0.008801 0.023483 -0.006018 0.000000 0.000000 0.000000
# 3 -0.011126 -0.006018 0.017870 0.000000 0.000000 0.000000
# 4 0.000000 0.000000 0.000000 0.039059 0.000000 0.000000
# 5 0.000000 0.000000 0.000000 0.000000 0.029430 0.000000
# 6 0.000000 0.000000 0.000000 0.000000 0.000000 0.057464
#
#
# Mechanical properties :
#
#
# Convention : Reuss Voigt Hill
#
# Bulk Modulus (GPa) = 70.32935 76.70142 73.51539
# Shear Modulus (GPa) = 20.10529 22.36677 21.23603
#
# Velocity S-wave (km/s) = 3.38625 3.57162 3.48017
# Velocity P-wave (km/s) = 7.44312 7.79448 7.62083
#
# Compressibility (1/GPa) = 0.01421881
#
# Stress axis : x y z
#
# Youngs Moduli (GPa) = 40.39507 42.58404 55.96050
#
# Poissons Ratio (x) = 0.37477 0.62263
# Poissons Ratio (y) = 0.35551 0.33676
# Poissons Ratio (z) = 0.44944 0.25626
#
# Static dielectric constant tensor:
#      x y z
#    x 1.598750 0.000000 0.000000 
#    y 0.000000 1.456960 0.000000 
#    z 0.000000 0.000000 1.568430 
# 
# From -- ./inp_files/26218.got.cif
#   From: 2010.05.17/outbox.cif.g08.bks.cpg/sg59_14_cif.got.tgz:26218.got - 2010.06.03 14:40:33.
