data_PCOD9451776
_publ_section_title
;
Structure prediction by ZEFSAII (Michael W. Deem and Ramdas Pophale) SiO2 
 PCOD9451776
Probable space group: P M M N
;
_chemical_formula_sum "Si O2"
_cell_formula_units_Z 48
_cell_length_a 19.200828
_cell_length_b 8.739568
_cell_length_c 15.413814
_cell_angle_alpha 90.000000
_cell_angle_beta 90.000000
_cell_angle_gamma 90.000000
_cell_volume 2586.544991
_symmetry_space_group_name_H-M "P M M N"
_symmetry_group_IT_number 59
_space_group.IT_coordinate_system_code '2'
_symmetry_cell_setting 'orthorhombic'
loop_
_space_group_symop_operation_xyz
x,y,z
1/2-x,1/2-y,z
1/2+x,-y,-z
-x,1/2+y,-z
-x,-y,-z
1/2+x,1/2+y,-z
1/2-x,y,z
x,1/2-y,z
loop_
_atom_site_type_symbol
_atom_site_label
_atom_site_fract_x
_atom_site_fract_y
_atom_site_fract_z
Si Si1 0.905184 0.434825 0.659518
Si Si2 0.830337 0.433358 0.012011
Si Si3 0.434406 0.432691 0.653179
Si Si4 0.405116 0.432488 0.151123
Si Si5 0.828651 0.065573 0.485457
Si Si6 0.058568 0.066508 0.853968
O O1 0.902275 0.250000 0.670559
O O2 0.889136 0.511372 0.751444
O O3 0.855841 0.481280 0.580569
O O4 0.985077 0.474496 0.635366
O O5 0.750000 0.473244 0.030670
O O6 0.837150 0.250000 0.013829
O O7 0.852819 0.494876 0.918028
O O8 0.883381 0.505935 0.080894
O O9 0.428477 0.250000 0.643942
O O10 0.381400 0.509879 0.587806
O O11 0.421681 0.470717 0.754254
O O12 0.403475 0.250000 0.146004
O O13 0.483151 0.491922 0.129324
O O14 0.750000 0.011368 0.470036
O O15 0.828650 0.250000 0.484893
O O16 0.051473 0.250000 0.861101
#
# Coordination Sequence:
#
# PCOD9451776 Si02
#       6
#     8   8   8   8   8   8
#     4   9  19  37  57  79 109 144 185 228 273 325
#     4  11  24  40  58  82 114 151 187 226 276 331
#     4   9  19  35  56  80 106 141 182 226 272 319
#     4  11  22  37  60  87 113 143 184 232 280 331
#     4  10  21  35  53  79 111 146 181 222 274 330
#     4  10  21  39  61  84 112 146 187 232 278 329
#
# _framework density 18.557573999999999
#
# number of rings (size 3 to 8) (size 9 to 14) (size 15 to 20)
#    0.000    2.000    0.000    4.500    0.000    7.000 
#    0.000    5.000    0.000    0.000    0.000    0.000 
#    0.000    0.000    0.000    0.000    0.000    0.000 
#
# Total GULP energy -268163.671545 kJ/mol
# GULP energy per Si atom -5586.743157 kJ/mol
# Density = 1.851534 g / cm^3
# Si number density = 18.557574 Si / 1000 Ang^3
#
#
#
# Elastic Constant Matrix: (Units=GPa)
#
#
# Indices 1 2 3 4 5 6 
#
# 1 9.9861 7.7094 0.6384 0.0000 0.0000 0.0000
# 2 7.7094 33.8793 8.2946 0.0000 0.0000 0.0000
# 3 0.6384 8.2946 26.0848 0.0000 0.0000 0.0000
# 4 0.0000 0.0000 0.0000 36.2180 0.0000 0.0000
# 5 0.0000 0.0000 0.0000 0.0000 -10.8911 0.0000
# 6 0.0000 0.0000 0.0000 0.0000 0.0000 27.3983
#
#
#
# Elastic Compliance Matrix: (Units=1/GPa)
#
#
# Indices 1 2 3 4 5 6 
#
# 1 0.122445 -0.029419 0.006358 0.000000 0.000000 0.000000
# 2 -0.029419 0.039077 -0.011706 0.000000 0.000000 0.000000
# 3 0.006358 -0.011706 0.041903 0.000000 0.000000 0.000000
# 4 0.000000 0.000000 0.000000 0.027611 0.000000 0.000000
# 5 0.000000 0.000000 0.000000 0.000000 -0.091818 0.000000
# 6 0.000000 0.000000 0.000000 0.000000 0.000000 0.036499
#
#
# Mechanical properties :
#
#
# Convention : Reuss Voigt Hill
#
# Bulk Modulus (GPa) = 7.46878 11.47056 9.46967
# Shear Modulus (GPa) = 17.24851 14.09889 15.67370
#
# Velocity S-wave (km/s) = 3.05201 2.75932 2.90935
# Velocity P-wave (km/s) = 4.05624 4.04306 4.04965
#
# Compressibility (1/GPa) = 0.13389074
#
# Stress axis : x y z
#
# Youngs Moduli (GPa) = 8.16695 25.59049 23.86453
#
# Poissons Ratio (x) = 0.75286 -0.15174
# Poissons Ratio (y) = 0.24027 0.27936
# Poissons Ratio (z) = -0.05193 0.29956
#
# Static dielectric constant tensor:
#      x y z
#    x 1.621380 0.000000 0.000000 
#    y 0.000000 1.625350 0.000000 
#    z 0.000000 0.000000 1.622830 
# 
# From -- ./inp_files/20282.got.cif
#   From: 2010.05.17/outbox.cif.g08.bks.cpg/sg59_11_cif.got.tgz:20282.got - 2010.06.03 14:40:33.
