data_PCOD9451913
_publ_section_title
;
Structure prediction by ZEFSAII (Michael W. Deem and Ramdas Pophale) SiO2 
 PCOD9451913
Probable space group: P M M N
;
_chemical_formula_sum "Si O2"
_cell_formula_units_Z 64
_cell_length_a 14.134667
_cell_length_b 9.098685
_cell_length_c 29.451579
_cell_angle_alpha 90.000000
_cell_angle_beta 90.000000
_cell_angle_gamma 90.000000
_cell_volume 3787.675763
_symmetry_space_group_name_H-M "P M M N"
_symmetry_group_IT_number 59
_space_group.IT_coordinate_system_code '2'
_symmetry_cell_setting 'orthorhombic'
loop_
_space_group_symop_operation_xyz
x,y,z
1/2-x,1/2-y,z
1/2+x,-y,-z
-x,1/2+y,-z
-x,-y,-z
1/2+x,1/2+y,-z
1/2-x,y,z
x,1/2-y,z
loop_
_atom_site_type_symbol
_atom_site_label
_atom_site_fract_x
_atom_site_fract_y
_atom_site_fract_z
Si Si1 0.530183 0.573328 0.569517
Si Si2 0.637398 0.576919 0.114857
Si Si3 0.638950 0.925628 0.660318
Si Si4 0.638426 0.074777 0.756200
Si Si5 0.474700 0.074131 0.162605
Si Si6 0.641259 0.573138 0.477898
Si Si7 0.134756 0.917703 0.979056
Si Si8 0.638034 0.575652 0.929226
O O1 0.519778 0.750000 0.569419
O O2 0.575495 0.530060 0.617460
O O3 0.601281 0.535530 0.528063
O O4 0.430648 0.499277 0.557569
O O5 0.750000 0.557309 0.120714
O O6 0.616465 0.750000 0.115568
O O7 0.577506 0.492639 0.152673
O O8 0.611084 0.509326 0.065786
O O9 0.750000 0.951065 0.649664
O O10 0.627861 0.750000 0.667584
O O11 0.616038 0.010900 0.706445
O O12 0.750000 0.043515 0.764706
O O13 0.625356 0.250000 0.757242
O O14 0.575884 0.997207 0.794347
O O15 0.477945 0.250000 0.166992
O O16 0.414619 0.037478 0.117177
O O17 0.750000 0.526819 0.472866
O O18 0.637229 0.750000 0.473719
O O19 0.250000 0.915939 0.980770
O O20 0.101640 0.750000 0.974608
O O21 0.103609 0.990101 0.026225
O O22 0.750000 0.545983 0.923540
O O23 0.627414 0.750000 0.937230
#
# Coordination Sequence:
#
# PCOD9451913 Si02
#       8
#     8   8   8   8   8   8   8   8
#     4   9  17  29  47  72 100 133 175 217 253 294
#     4  10  21  37  55  73  96 127 162 202 247 293
#     4   9  17  31  52  75 100 132 168 206 249 296
#     4  10  21  36  54  78 107 134 161 199 248 301
#     4  11  22  35  54  77 100 129 164 202 245 295
#     4   9  17  29  45  68 102 141 176 211 254 301
#     4   9  17  30  49  72  97 126 161 199 237 281
#     4   9  18  32  49  71 100 131 160 191 232 285
#
# _framework density 16.896906000000001
#
# number of rings (size 3 to 8) (size 9 to 14) (size 15 to 20)
#    0.000    2.500    0.000    2.250    0.000    7.250 
#    0.000    1.250    0.000    3.000    0.000    3.500 
#    0.000    0.000    0.000    0.000    0.000    0.000 
#
# Total GULP energy -357247.204817 kJ/mol
# GULP energy per Si atom -5581.987575 kJ/mol
# Density = 1.685845 g / cm^3
# Si number density = 16.896906 Si / 1000 Ang^3
#
#
#
# Elastic Constant Matrix: (Units=GPa)
#
#
# Indices 1 2 3 4 5 6 
#
# 1 100.8109 50.4793 74.5256 0.0000 0.0000 0.0000
# 2 50.4793 61.4964 66.2993 0.0000 0.0000 0.0000
# 3 74.5256 66.2993 135.6399 0.0000 0.0000 0.0000
# 4 0.0000 0.0000 0.0000 29.1177 0.0000 0.0000
# 5 0.0000 0.0000 0.0000 0.0000 31.4281 0.0000
# 6 0.0000 0.0000 0.0000 0.0000 0.0000 24.0433
#
#
#
# Elastic Compliance Matrix: (Units=1/GPa)
#
#
# Indices 1 2 3 4 5 6 
#
# 1 0.018841 -0.009101 -0.005903 0.000000 0.000000 0.000000
# 2 -0.009101 0.038772 -0.013951 0.000000 0.000000 0.000000
# 3 -0.005903 -0.013951 0.017435 0.000000 0.000000 0.000000
# 4 0.000000 0.000000 0.000000 0.034343 0.000000 0.000000
# 5 0.000000 0.000000 0.000000 0.000000 0.031819 0.000000
# 6 0.000000 0.000000 0.000000 0.000000 0.000000 0.041592
#
#
# Mechanical properties :
#
#
# Convention : Reuss Voigt Hill
#
# Bulk Modulus (GPa) = 58.35206 75.61729 66.98467
# Shear Modulus (GPa) = 20.29012 24.02738 22.15875
#
# Velocity S-wave (km/s) = 3.46904 3.77503 3.62527
# Velocity P-wave (km/s) = 7.11722 7.99065 7.56655
#
# Compressibility (1/GPa) = 0.01713736
#
# Stress axis : x y z
#
# Youngs Moduli (GPa) = 53.07602 25.79158 57.35556
#
# Poissons Ratio (x) = 0.23473 0.33859
# Poissons Ratio (y) = 0.48305 0.80017
# Poissons Ratio (z) = 0.31333 0.35982
#
# Static dielectric constant tensor:
#      x y z
#    x 1.590210 0.000000 0.000000 
#    y 0.000000 1.564430 0.000000 
#    z 0.000000 0.000000 1.536930 
# 
# From -- ./inp_files/32103.got.cif
#   From: 2010.05.17/outbox.cif.g08.bks.cpg/sg59_17_cif.got.tgz:32103.got - 2010.06.03 14:40:33.
