data_PCOD9451031
_publ_section_title
;
Structure prediction by ZEFSAII (Michael W. Deem and Ramdas Pophale) SiO2 
 PCOD9451031
Probable space group: P M M N
;
_chemical_formula_sum "Si O2"
_cell_formula_units_Z 24
_cell_length_a 11.986389
_cell_length_b 8.485916
_cell_length_c 10.119353
_cell_angle_alpha 90.000000
_cell_angle_beta 90.000000
_cell_angle_gamma 90.000000
_cell_volume 1029.294951
_symmetry_space_group_name_H-M "P M M N"
_symmetry_group_IT_number 59
_space_group.IT_coordinate_system_code '2'
_symmetry_cell_setting 'orthorhombic'
loop_
_space_group_symop_operation_xyz
x,y,z
1/2-x,1/2-y,z
1/2+x,-y,-z
-x,1/2+y,-z
-x,-y,-z
1/2+x,1/2+y,-z
1/2-x,y,z
x,1/2-y,z
loop_
_atom_site_type_symbol
_atom_site_label
_atom_site_fract_x
_atom_site_fract_y
_atom_site_fract_z
Si Si1 0.588228 0.430680 0.695747
Si Si2 0.625868 0.933385 0.968957
Si Si3 0.874922 0.067988 0.389539
O O1 0.618416 0.250000 0.723278
O O2 0.630765 0.540416 0.810853
O O3 0.624348 0.469504 0.546141
O O4 0.455388 0.453228 0.687569
O O5 0.750000 0.995782 0.016936
O O6 0.622262 0.750000 0.003522
O O7 0.500000 0.000000 0.000000
O O8 0.750000 0.060326 0.340892
O O9 0.915009 0.250000 0.377960
#
# Coordination Sequence:
#
# PCOD9451031 Si02
#       3
#     8   8   8
#     4  10  20  35  57  85 117 153 194 241 295 353
#     4  11  25  44  66  91 119 156 203 252 304 362
#     4   9  18  33  54  82 117 156 196 239 290 349
#
# _framework density 23.316932000000001
#
# number of rings (size 3 to 8) (size 9 to 14) (size 15 to 20)
#    0.000    2.000    0.000    3.000    0.000    7.333 
#    0.000    0.000    0.000    0.000    0.000    0.000 
#    0.000    0.000    0.000    0.000    0.000    0.000 
#
# Total GULP energy -133841.205687 kJ/mol
# GULP energy per Si atom -5576.716904 kJ/mol
# Density = 2.326386 g / cm^3
# Si number density = 23.316932 Si / 1000 Ang^3
#
#
#
# Elastic Constant Matrix: (Units=GPa)
#
#
# Indices 1 2 3 4 5 6 
#
# 1 198.3054 49.2925 20.8157 0.0000 0.0000 0.0000
# 2 49.2925 33.6494 16.3100 0.0000 0.0000 0.0000
# 3 20.8157 16.3100 59.7270 0.0000 0.0000 0.0000
# 4 0.0000 0.0000 0.0000 30.0593 0.0000 0.0000
# 5 0.0000 0.0000 0.0000 0.0000 -10.8314 0.0000
# 6 0.0000 0.0000 0.0000 0.0000 0.0000 19.6839
#
#
#
# Elastic Compliance Matrix: (Units=1/GPa)
#
#
# Indices 1 2 3 4 5 6 
#
# 1 0.007942 -0.011862 0.000472 0.000000 0.000000 0.000000
# 2 -0.011862 0.051970 -0.010058 0.000000 0.000000 0.000000
# 3 0.000472 -0.010058 0.019325 0.000000 0.000000 0.000000
# 4 0.000000 0.000000 0.000000 0.033268 0.000000 0.000000
# 5 0.000000 0.000000 0.000000 0.000000 -0.092325 0.000000
# 6 0.000000 0.000000 0.000000 0.000000 0.000000 0.050803
#
#
# Mechanical properties :
#
#
# Convention : Reuss Voigt Hill
#
# Bulk Modulus (GPa) = 27.51787 51.61314 39.56551
# Shear Modulus (GPa) = 39.68458 21.46661 30.57560
#
# Velocity S-wave (km/s) = 4.12996 3.03750 3.62512
# Velocity P-wave (km/s) = 5.87958 5.87243 5.87600
#
# Compressibility (1/GPa) = 0.03634002
#
# Stress axis : x y z
#
# Youngs Moduli (GPa) = 125.91493 19.24177 51.74635
#
# Poissons Ratio (x) = 0.22825 -0.02440
# Poissons Ratio (y) = 1.49366 0.52045
# Poissons Ratio (z) = -0.05937 0.19353
#
# Static dielectric constant tensor:
#      x y z
#    x 2.011750 0.000000 0.000000 
#    y 0.000000 1.837210 0.000000 
#    z 0.000000 0.000000 1.871460 
# 
# From -- ./inp_files/13424.got.cif
#   From: 2010.05.17/outbox.cif.g08.bks.cpg/sg59_7_cif.got.tgz:13424.got - 2010.06.03 14:40:33.
