data_PCOD9451124
_publ_section_title
;
Structure prediction by ZEFSAII (Michael W. Deem and Ramdas Pophale) SiO2 
 PCOD9451124
Probable space group: P M M N
;
_chemical_formula_sum "Si O2"
_cell_formula_units_Z 64
_cell_length_a 14.582629
_cell_length_b 8.770658
_cell_length_c 24.667735
_cell_angle_alpha 90.000000
_cell_angle_beta 90.000000
_cell_angle_gamma 90.000000
_cell_volume 3154.984848
_symmetry_space_group_name_H-M "P M M N"
_symmetry_group_IT_number 59
_space_group.IT_coordinate_system_code '2'
_symmetry_cell_setting 'orthorhombic'
loop_
_space_group_symop_operation_xyz
x,y,z
1/2-x,1/2-y,z
1/2+x,-y,-z
-x,1/2+y,-z
-x,-y,-z
1/2+x,1/2+y,-z
1/2-x,y,z
x,1/2-y,z
loop_
_atom_site_type_symbol
_atom_site_label
_atom_site_fract_x
_atom_site_fract_y
_atom_site_fract_z
Si Si1 0.853732 0.076381 0.614800
Si Si2 0.356553 0.069055 0.091037
Si Si3 0.960423 0.930181 0.127726
Si Si4 0.151035 0.073333 0.270999
Si Si5 0.641089 0.073923 0.025406
Si Si6 0.858287 0.567816 0.348577
Si Si7 0.982862 0.072836 0.441446
Si Si8 0.554849 0.070804 0.239104
O O1 0.750000 0.062791 0.593841
O O2 0.885875 0.250000 0.605226
O O3 0.850805 0.040545 0.678460
O O4 0.921650 0.955852 0.589258
O O5 0.250000 0.028531 0.101982
O O6 0.367415 0.250000 0.100046
O O7 0.432780 0.978655 0.124306
O O8 0.374750 0.026838 0.028085
O O9 0.951650 0.750000 0.122831
O O10 0.912295 0.011980 0.077076
O O11 0.916628 0.986595 0.184190
O O12 0.250000 0.053848 0.242206
O O13 0.150123 0.250000 0.290764
O O14 0.055635 0.054036 0.241062
O O15 0.750000 0.069466 0.036376
O O16 0.615341 0.250000 0.014055
O O17 0.750000 0.532949 0.349313
O O18 0.870143 0.750000 0.346468
O O19 0.907481 0.505290 0.402657
O O20 0.903968 0.496044 0.294683
O O21 0.961012 0.250000 0.446945
O O22 0.000000 0.000000 0.500000
O O23 0.576640 0.250000 0.236047
#
# Coordination Sequence:
#
# PCOD9451124 Si02
#       8
#     8   8   8   8   8   8   8   8
#     4  10  20  35  59  90 123 157 194 240 294 356
#     4  10  21  39  63  90 123 163 206 255 314 380
#     4  12  25  39  59  88 125 166 209 261 314 370
#     4   9  18  34  58  87 117 152 193 238 295 361
#     4  10  21  39  63  89 119 157 205 261 318 378
#     4  11  25  46  70  95 127 168 212 259 313 372
#     4  12  25  42  66  95 128 166 206 256 309 364
#     4  11  23  40  63  91 124 166 211 258 309 366
#
# _framework density 20.285359
#
# number of rings (size 3 to 8) (size 9 to 14) (size 15 to 20)
#    0.000    1.375    1.250    4.500    0.000    5.250 
#    0.000    1.250    0.000    0.000    0.000    0.000 
#    0.000    0.000    0.000    0.000    0.000    0.000 
#
# Total GULP energy -357609.720829 kJ/mol
# GULP energy per Si atom -5587.651888 kJ/mol
# Density = 2.023919 g / cm^3
# Si number density = 20.285359 Si / 1000 Ang^3
#
#
#
# Elastic Constant Matrix: (Units=GPa)
#
#
# Indices 1 2 3 4 5 6 
#
# 1 65.2213 27.8253 25.8060 0.0000 0.0000 0.0000
# 2 27.8253 69.9544 17.8605 0.0000 0.0000 0.0000
# 3 25.8060 17.8605 82.3727 0.0000 0.0000 0.0000
# 4 0.0000 0.0000 0.0000 32.8862 0.0000 0.0000
# 5 0.0000 0.0000 0.0000 0.0000 -1.3112 0.0000
# 6 0.0000 0.0000 0.0000 0.0000 0.0000 28.4857
#
#
#
# Elastic Compliance Matrix: (Units=1/GPa)
#
#
# Indices 1 2 3 4 5 6 
#
# 1 0.020138 -0.006774 -0.004840 0.000000 0.000000 0.000000
# 2 -0.006774 0.017412 -0.001653 0.000000 0.000000 0.000000
# 3 -0.004840 -0.001653 0.014015 0.000000 0.000000 0.000000
# 4 0.000000 0.000000 0.000000 0.030408 0.000000 0.000000
# 5 0.000000 0.000000 0.000000 0.000000 -0.762638 0.000000
# 6 0.000000 0.000000 0.000000 0.000000 0.000000 0.035105
#
#
# Mechanical properties :
#
#
# Convention : Reuss Voigt Hill
#
# Bulk Modulus (GPa) = 39.95306 40.05911 40.00608
# Shear Modulus (GPa) = -8.18754 21.74924 6.78085
#
# Velocity S-wave (km/s) = -2.01121 3.27794 1.83030
# Velocity P-wave (km/s) = 3.78748 5.84099 4.92251
#
# Compressibility (1/GPa) = 0.02502937
#
# Stress axis : x y z
#
# Youngs Moduli (GPa) = 49.65857 57.43293 71.35402
#
# Poissons Ratio (x) = 0.38907 0.34535
# Poissons Ratio (y) = 0.33640 0.11795
# Poissons Ratio (z) = 0.24034 0.09494
#
# Static dielectric constant tensor:
#      x y z
#    x 1.748290 0.000000 0.000000 
#    y 0.000000 1.679150 0.000000 
#    z 0.000000 0.000000 1.723510 
# 
# From -- ./inp_files/32115.got.cif
#   From: 2010.05.17/outbox.cif.g08.bks.cpg/sg59_17_cif.got.tgz:32115.got - 2010.06.03 14:40:33.
