data_PCOD9451616
_publ_section_title
;
Structure prediction by ZEFSAII (Michael W. Deem and Ramdas Pophale) SiO2 
 PCOD9451616
Probable space group: P M M N
;
_chemical_formula_sum "Si O2"
_cell_formula_units_Z 64
_cell_length_a 18.595690
_cell_length_b 16.158274
_cell_length_c 11.123650
_cell_angle_alpha 90.000000
_cell_angle_beta 90.000000
_cell_angle_gamma 90.000000
_cell_volume 3342.370438
_symmetry_space_group_name_H-M "P M M N"
_symmetry_group_IT_number 59
_space_group.IT_coordinate_system_code '2'
_symmetry_cell_setting 'orthorhombic'
loop_
_space_group_symop_operation_xyz
x,y,z
1/2-x,1/2-y,z
1/2+x,-y,-z
-x,1/2+y,-z
-x,-y,-z
1/2+x,1/2+y,-z
1/2-x,y,z
x,1/2-y,z
loop_
_atom_site_type_symbol
_atom_site_label
_atom_site_fract_x
_atom_site_fract_y
_atom_site_fract_z
Si Si1 0.064048 0.988294 0.594831
Si Si2 0.667157 0.569675 0.070925
Si Si3 0.079783 0.158392 0.738503
Si Si4 0.087309 0.841688 0.196473
Si Si5 0.668069 0.895858 0.784482
Si Si6 0.938007 0.065350 0.034747
Si Si7 0.667774 0.056893 0.610858
Si Si8 0.505892 0.657068 0.756378
O O1 0.132195 0.959909 0.517321
O O2 0.031868 0.916979 0.681616
O O3 0.082211 0.077208 0.654348
O O4 0.000000 0.000000 0.500000
O O5 0.750000 0.560496 0.102286
O O6 0.631798 0.642455 0.148557
O O7 0.621630 0.488044 0.103344
O O8 0.662091 0.583592 0.927044
O O9 0.093934 0.250000 0.684446
O O10 0.998321 0.158956 0.786216
O O11 0.113514 0.750000 0.170488
O O12 0.122230 0.875866 0.316826
O O13 0.099898 0.900286 0.083692
O O14 0.750000 0.859970 0.768582
O O15 0.592995 0.849835 0.754657
O O16 0.665481 0.975740 0.697110
O O17 0.976019 0.137436 0.109982
O O18 0.000000 0.000000 0.000000
O O19 0.750000 0.082298 0.599236
O O20 0.485848 0.750000 0.718225
#
# Coordination Sequence:
#
# PCOD9451616 Si02
#       8
#     8   8   8   8   8   8   8   8
#     4  12  23  43  66  91 122 168 218 270 312 369
#     4  11  22  37  65  96 131 170 205 253 321 387
#     4  11  23  41  67  96 126 164 215 265 314 375
#     4  11  21  35  62  97 125 157 210 271 319 375
#     4  10  20  38  63  94 128 162 202 255 321 387
#     4  12  19  38  64  90 127 170 211 256 312 383
#     4  11  23  41  64  89 122 165 211 264 329 383
#     4  12  24  39  64  96 129 170 214 260 314 374
#
# _framework density 19.148087
#
# number of rings (size 3 to 8) (size 9 to 14) (size 15 to 20)
#    0.000    0.750    7.500    0.375    0.000    3.750 
#    0.000    1.250    0.000    1.875    0.000    0.000 
#    0.000    0.000    0.000    0.000    0.000    0.000 
#
# Total GULP energy -357020.818109 kJ/mol
# GULP energy per Si atom -5578.450283 kJ/mol
# Density = 1.910451 g / cm^3
# Si number density = 19.148087 Si / 1000 Ang^3
#
#
#
# Elastic Constant Matrix: (Units=GPa)
#
#
# Indices 1 2 3 4 5 6 
#
# 1 118.8035 37.5771 25.4007 0.0000 0.0000 0.0000
# 2 37.5771 127.2770 39.4827 0.0000 0.0000 0.0000
# 3 25.4007 39.4827 66.3088 0.0000 0.0000 0.0000
# 4 0.0000 0.0000 0.0000 12.3763 0.0000 0.0000
# 5 0.0000 0.0000 0.0000 0.0000 31.0115 0.0000
# 6 0.0000 0.0000 0.0000 0.0000 0.0000 -14.9307
#
#
#
# Elastic Compliance Matrix: (Units=1/GPa)
#
#
# Indices 1 2 3 4 5 6 
#
# 1 0.009596 -0.002076 -0.002439 0.000000 0.000000 0.000000
# 2 -0.002076 0.010086 -0.005210 0.000000 0.000000 0.000000
# 3 -0.002439 -0.005210 0.019118 0.000000 0.000000 0.000000
# 4 0.000000 0.000000 0.000000 0.080800 0.000000 0.000000
# 5 0.000000 0.000000 0.000000 0.000000 0.032246 0.000000
# 6 0.000000 0.000000 0.000000 0.000000 0.000000 -0.066976
#
#
# Mechanical properties :
#
#
# Convention : Reuss Voigt Hill
#
# Bulk Modulus (GPa) = 51.68628 57.47891 54.58260
# Shear Modulus (GPa) = 45.13838 19.68668 32.41253
#
# Velocity S-wave (km/s) = 4.86050 3.20992 4.11874
# Velocity P-wave (km/s) = 7.65185 6.61977 7.15445
#
# Compressibility (1/GPa) = 0.01934749
#
# Stress axis : x y z
#
# Youngs Moduli (GPa) = 104.21526 99.14578 52.30712
#
# Poissons Ratio (x) = 0.20585 0.12760
# Poissons Ratio (y) = 0.21637 0.27254
# Poissons Ratio (z) = 0.25423 0.51658
#
# Static dielectric constant tensor:
#      x y z
#    x 1.659180 0.000000 0.000000 
#    y 0.000000 1.668840 0.000000 
#    z 0.000000 0.000000 1.720000 
# 
# From -- ./inp_files/17824.got.cif
#   From: 2010.05.17/outbox.cif.g08.bks.cpg/sg59_9_cif.got.tgz:17824.got - 2010.06.03 14:40:33.
