data_PCOD9451399
_publ_section_title
;
Structure prediction by ZEFSAII (Michael W. Deem and Ramdas Pophale) SiO2 
 PCOD9451399
Probable space group: P M M N
;
_chemical_formula_sum "Si O2"
_cell_formula_units_Z 56
_cell_length_a 21.949297
_cell_length_b 8.616522
_cell_length_c 14.775103
_cell_angle_alpha 90.000000
_cell_angle_beta 90.000000
_cell_angle_gamma 90.000000
_cell_volume 2794.365002
_symmetry_space_group_name_H-M "P M M N"
_symmetry_group_IT_number 59
_space_group.IT_coordinate_system_code '2'
_symmetry_cell_setting 'orthorhombic'
loop_
_space_group_symop_operation_xyz
x,y,z
1/2-x,1/2-y,z
1/2+x,-y,-z
-x,1/2+y,-z
-x,-y,-z
1/2+x,1/2+y,-z
1/2-x,y,z
x,1/2-y,z
loop_
_atom_site_type_symbol
_atom_site_label
_atom_site_fract_x
_atom_site_fract_y
_atom_site_fract_z
Si Si1 0.320463 0.566250 0.754959
Si Si2 0.250000 0.064878 0.274963
Si Si3 0.250000 0.566356 0.073158
Si Si4 0.377103 0.063007 0.042699
Si Si5 0.821190 0.933131 0.443171
Si Si6 0.946522 0.934230 0.775543
Si Si7 0.433042 0.066952 0.858866
Si Si8 0.868400 0.434002 0.623202
O O1 0.250000 0.526348 0.775392
O O2 0.328693 0.750000 0.770242
O O3 0.330743 0.526120 0.649354
O O4 0.368632 0.470386 0.812506
O O5 0.250000 0.250000 0.285375
O O6 0.250000 0.020329 0.169764
O O7 0.190220 0.995576 0.321606
O O8 0.250000 0.750000 0.087092
O O9 0.187907 0.514943 0.025066
O O10 0.369846 0.250000 0.041799
O O11 0.402558 0.017020 0.141019
O O12 0.424521 0.021582 0.963859
O O13 0.750000 0.957133 0.470434
O O14 0.829207 0.750000 0.426386
O O15 0.863465 0.989165 0.524694
O O16 0.939668 0.750000 0.763855
O O17 0.925836 0.016938 0.683856
O O18 0.014043 0.975531 0.807887
O O19 0.446292 0.250000 0.853977
O O20 0.865176 0.250000 0.614231
#
# Coordination Sequence:
#
# PCOD9451399 Si02
#       8
#     8   4   4   8   8   8   8   8
#     4  10  22  41  64  91 123 157 201 257 308 361
#     4  12  22  36  56  83 124 165 202 248 304 360
#     4  12  24  36  58  91 124 159 202 256 306 358
#     4  10  23  41  62  87 123 165 204 250 305 364
#     4  10  20  36  61  91 124 161 200 247 306 368
#     4  11  23  41  63  87 122 167 206 250 303 361
#     4  11  24  42  64  89 119 160 209 255 303 363
#     4  12  23  36  59  92 126 162 204 248 299 362
#
# _framework density 20.040330000000001
#
# number of rings (size 3 to 8) (size 9 to 14) (size 15 to 20)
#    0.000    1.143    2.143    4.714    1.000    3.143 
#    0.000    0.714    0.000    0.000    0.000    0.000 
#    0.000    0.000    0.000    0.000    0.000    0.000 
#
# Total GULP energy -313250.603627 kJ/mol
# GULP energy per Si atom -5593.760779 kJ/mol
# Density = 1.999472 g / cm^3
# Si number density = 20.040330 Si / 1000 Ang^3
#
#
#
# Elastic Constant Matrix: (Units=GPa)
#
#
# Indices 1 2 3 4 5 6 
#
# 1 51.7503 -2.3063 -1.2373 0.0000 0.0000 0.0000
# 2 -2.3063 40.7751 -7.2876 0.0000 0.0000 0.0000
# 3 -1.2373 -7.2876 36.7738 0.0000 0.0000 0.0000
# 4 0.0000 0.0000 0.0000 25.3060 0.0000 0.0000
# 5 0.0000 0.0000 0.0000 0.0000 25.2308 0.0000
# 6 0.0000 0.0000 0.0000 0.0000 0.0000 24.7688
#
#
#
# Elastic Compliance Matrix: (Units=1/GPa)
#
#
# Indices 1 2 3 4 5 6 
#
# 1 0.019401 0.001259 0.000902 0.000000 0.000000 0.000000
# 2 0.001259 0.025507 0.005097 0.000000 0.000000 0.000000
# 3 0.000902 0.005097 0.028234 0.000000 0.000000 0.000000
# 4 0.000000 0.000000 0.000000 0.039516 0.000000 0.000000
# 5 0.000000 0.000000 0.000000 0.000000 0.039634 0.000000
# 6 0.000000 0.000000 0.000000 0.000000 0.000000 0.040373
#
#
# Mechanical properties :
#
#
# Convention : Reuss Voigt Hill
#
# Bulk Modulus (GPa) = 11.40799 11.95964 11.68382
# Shear Modulus (GPa) = 24.11161 24.40316 24.25739
#
# Velocity S-wave (km/s) = 3.47241 3.49335 3.48290
# Velocity P-wave (km/s) = 4.66709 4.71720 4.69222
#
# Compressibility (1/GPa) = 0.08765784
#
# Stress axis : x y z
#
# Youngs Moduli (GPa) = 51.54315 39.20501 35.41864
#
# Poissons Ratio (x) = -0.04934 -0.03196
# Poissons Ratio (y) = -0.06487 -0.18053
# Poissons Ratio (z) = -0.04650 -0.19983
#
# Static dielectric constant tensor:
#      x y z
#    x 1.678550 0.000000 0.000000 
#    y 0.000000 1.658870 0.000000 
#    z 0.000000 0.000000 1.706640 
# 
# From -- ./inp_files/24374.got.cif
#   From: 2010.05.17/outbox.cif.g08.bks.cpg/sg59_13_cif.got.tgz:24374.got - 2010.06.03 14:40:33.
