data_PCOD9451428
_publ_section_title
;
Structure prediction by ZEFSAII (Michael W. Deem and Ramdas Pophale) SiO2 
 PCOD9451428
Probable space group: P M M N
;
_chemical_formula_sum "Si O2"
_cell_formula_units_Z 40
_cell_length_a 7.768055
_cell_length_b 15.508287
_cell_length_c 15.065931
_cell_angle_alpha 90.000000
_cell_angle_beta 90.000000
_cell_angle_gamma 90.000000
_cell_volume 1814.981052
_symmetry_space_group_name_H-M "P M M N"
_symmetry_group_IT_number 59
_space_group.IT_coordinate_system_code '2'
_symmetry_cell_setting 'orthorhombic'
loop_
_space_group_symop_operation_xyz
x,y,z
1/2-x,1/2-y,z
1/2+x,-y,-z
-x,1/2+y,-z
-x,-y,-z
1/2+x,1/2+y,-z
1/2-x,y,z
x,1/2-y,z
loop_
_atom_site_type_symbol
_atom_site_label
_atom_site_fract_x
_atom_site_fract_y
_atom_site_fract_z
Si Si1 0.460189 0.387858 0.165660
Si Si2 0.552023 0.066043 0.774205
Si Si3 0.050686 0.750000 0.483940
Si Si4 0.947677 0.937982 0.419559
Si Si5 0.458665 0.250000 0.311787
Si Si6 0.550559 0.250000 0.818427
Si Si7 0.959181 0.750000 0.979207
O O1 0.250000 0.389469 0.166451
O O2 0.525070 0.485156 0.173430
O O3 0.509549 0.332537 0.252557
O O4 0.509749 0.333218 0.079374
O O5 0.750000 0.073836 0.805196
O O6 0.550975 0.044344 0.670170
O O7 0.470412 0.160159 0.786030
O O8 0.250000 0.750000 0.457530
O O9 0.970898 0.838455 0.447804
O O10 0.033787 0.750000 0.590389
O O11 0.750000 0.954561 0.398185
O O12 0.000000 0.000000 0.500000
O O13 0.250000 0.250000 0.319786
O O14 0.750000 0.250000 0.786632
O O15 0.540210 0.250000 0.924468
O O16 0.750000 0.750000 0.987423
#
# Coordination Sequence:
#
# PCOD9451428 Si02
#       7
#     8   8   4   8   4   4   4
#     4   8  16  32  56  80 104 139 183 231 284 340
#     4  10  20  37  57  78 110 150 189 231 283 340
#     4  12  24  38  57  84 118 157 200 245 294 345
#     4  12  25  41  61  88 120 155 198 244 294 351
#     4   9  16  31  55  81 106 138 185 238 293 344
#     4  10  22  36  53  80 114 149 184 227 282 339
#     4   9  18  35  57  81 106 138 183 230 279 342
#
# _framework density 22.038796999999999
#
# number of rings (size 3 to 8) (size 9 to 14) (size 15 to 20)
#    0.000    2.000    0.000    5.700    0.000    4.000 
#    0.000    3.000    0.000    0.000    0.000    0.000 
#    0.000    0.000    0.000    0.000    0.000    0.000 
#
# Total GULP energy -223530.232893 kJ/mol
# GULP energy per Si atom -5588.255822 kJ/mol
# Density = 2.198864 g / cm^3
# Si number density = 22.038797 Si / 1000 Ang^3
#
#
#
# Elastic Constant Matrix: (Units=GPa)
#
#
# Indices 1 2 3 4 5 6 
#
# 1 50.8080 1.8444 -16.0496 0.0000 0.0000 0.0000
# 2 1.8444 171.4591 23.1192 0.0000 0.0000 0.0000
# 3 -16.0496 23.1192 72.5593 0.0000 0.0000 0.0000
# 4 0.0000 0.0000 0.0000 1.9332 0.0000 0.0000
# 5 0.0000 0.0000 0.0000 0.0000 24.9719 0.0000
# 6 0.0000 0.0000 0.0000 0.0000 0.0000 5.0182
#
#
#
# Elastic Compliance Matrix: (Units=1/GPa)
#
#
# Indices 1 2 3 4 5 6 
#
# 1 0.021293 -0.000903 0.004998 0.000000 0.000000 0.000000
# 2 -0.000903 0.006132 -0.002154 0.000000 0.000000 0.000000
# 3 0.004998 -0.002154 0.015573 0.000000 0.000000 0.000000
# 4 0.000000 0.000000 0.000000 0.517280 0.000000 0.000000
# 5 0.000000 0.000000 0.000000 0.000000 0.040045 0.000000
# 6 0.000000 0.000000 0.000000 0.000000 0.000000 0.199274
#
#
# Mechanical properties :
#
#
# Convention : Reuss Voigt Hill
#
# Bulk Modulus (GPa) = 21.33040 34.73938 28.03489
# Shear Modulus (GPa) = 6.16262 25.44549 15.80405
#
# Velocity S-wave (km/s) = 1.67402 3.40159 2.68078
# Velocity P-wave (km/s) = 3.66552 5.58792 4.72551
#
# Compressibility (1/GPa) = 0.04688144
#
# Stress axis : x y z
#
# Youngs Moduli (GPa) = 46.96289 163.06826 64.21168
#
# Poissons Ratio (x) = 0.14724 -0.32091
# Poissons Ratio (y) = 0.04240 0.13829
# Poissons Ratio (z) = -0.23470 0.35119
#
# Static dielectric constant tensor:
#      x y z
#    x 1.795630 0.000000 0.000000 
#    y 0.000000 1.851790 0.000000 
#    z 0.000000 0.000000 1.763790 
# 
# From -- ./inp_files/20026.got.cif
#   From: 2010.05.17/outbox.cif.g08.bks.cpg/sg59_11_cif.got.tgz:20026.got - 2010.06.03 14:40:33.
