data_PCOD9451211
_publ_section_title
;
Structure prediction by ZEFSAII (Michael W. Deem and Ramdas Pophale) SiO2 
 PCOD9451211
Probable space group: P M M N
;
_chemical_formula_sum "Si O2"
_cell_formula_units_Z 40
_cell_length_a 26.293193
_cell_length_b 8.804451
_cell_length_c 9.728152
_cell_angle_alpha 90.000000
_cell_angle_beta 90.000000
_cell_angle_gamma 90.000000
_cell_volume 2252.039262
_symmetry_space_group_name_H-M "P M M N"
_symmetry_group_IT_number 59
_space_group.IT_coordinate_system_code '2'
_symmetry_cell_setting 'orthorhombic'
loop_
_space_group_symop_operation_xyz
x,y,z
1/2-x,1/2-y,z
1/2+x,-y,-z
-x,1/2+y,-z
-x,-y,-z
1/2+x,1/2+y,-z
1/2-x,y,z
x,1/2-y,z
loop_
_atom_site_type_symbol
_atom_site_label
_atom_site_fract_x
_atom_site_fract_y
_atom_site_fract_z
Si Si1 0.155740 0.067374 0.594259
Si Si2 0.954079 0.068002 0.413089
Si Si3 0.043914 0.568747 0.908062
Si Si4 0.250000 0.933152 0.097086
Si Si5 0.658380 0.433965 0.102637
Si Si6 0.250000 0.432999 0.401560
O O1 0.153292 0.250000 0.599991
O O2 0.200066 0.022107 0.488585
O O3 0.100910 0.001582 0.551085
O O4 0.167528 0.004088 0.746848
O O5 0.951982 0.250000 0.427583
O O6 0.963116 0.031284 0.252462
O O7 0.000000 0.000000 0.500000
O O8 0.041883 0.750000 0.921562
O O9 0.101542 0.520492 0.943841
O O10 0.000000 0.500000 0.000000
O O11 0.250000 0.750000 0.107046
O O12 0.250000 0.000298 0.249089
O O13 0.299292 0.978253 0.007688
O O14 0.659160 0.250000 0.117471
O O15 0.250000 0.250000 0.392511
#
# Coordination Sequence:
#
# PCOD9451211 Si02
#       6
#     8   8   8   4   8   4
#     4  10  20  36  57  80 106 142 183 221 266 323
#     4  10  21  37  56  81 110 141 179 223 267 317
#     4   9  19  34  52  76 106 136 171 213 258 309
#     4  10  21  36  56  80 106 138 179 224 272 320
#     4   9  19  36  55  78 105 135 176 223 264 314
#     4  10  23  38  52  78 114 142 175 224 272 318
#
# _framework density 17.761680999999999
#
# number of rings (size 3 to 8) (size 9 to 14) (size 15 to 20)
#    0.000    2.400    0.000    3.000    0.000    8.000 
#    0.000    4.000    0.000    0.000    0.000    0.000 
#    0.000    0.000    0.000    0.000    0.000    0.000 
#
# Total GULP energy -223231.150618 kJ/mol
# GULP energy per Si atom -5580.778765 kJ/mol
# Density = 1.772125 g / cm^3
# Si number density = 17.761681 Si / 1000 Ang^3
#
#
#
# Elastic Constant Matrix: (Units=GPa)
#
#
# Indices 1 2 3 4 5 6 
#
# 1 208.8486 56.7792 138.9264 0.0000 0.0000 0.0000
# 2 56.7792 31.7274 44.8282 0.0000 0.0000 0.0000
# 3 138.9264 44.8282 126.2308 0.0000 0.0000 0.0000
# 4 0.0000 0.0000 0.0000 36.4682 0.0000 0.0000
# 5 0.0000 0.0000 0.0000 0.0000 39.5891 0.0000
# 6 0.0000 0.0000 0.0000 0.0000 0.0000 30.1853
#
#
#
# Elastic Compliance Matrix: (Units=1/GPa)
#
#
# Indices 1 2 3 4 5 6 
#
# 1 0.019067 -0.008977 -0.017797 0.000000 0.000000 0.000000
# 2 -0.008977 0.067487 -0.014087 0.000000 0.000000 0.000000
# 3 -0.017797 -0.014087 0.032512 0.000000 0.000000 0.000000
# 4 0.000000 0.000000 0.000000 0.027421 0.000000 0.000000
# 5 0.000000 0.000000 0.000000 0.000000 0.025259 0.000000
# 6 0.000000 0.000000 0.000000 0.000000 0.000000 0.033129
#
#
# Mechanical properties :
#
#
# Convention : Reuss Voigt Hill
#
# Bulk Modulus (GPa) = 26.77766 94.20826 60.49296
# Shear Modulus (GPa) = 16.71986 29.66673 23.19330
#
# Velocity S-wave (km/s) = 3.07146 4.09132 3.61751
# Velocity P-wave (km/s) = 5.26187 8.68757 7.18196
#
# Compressibility (1/GPa) = 0.03734457
#
# Stress axis : x y z
#
# Youngs Moduli (GPa) = 52.44570 14.81757 30.75829
#
# Poissons Ratio (x) = 0.13302 0.54741
# Poissons Ratio (y) = 0.47081 0.43329
# Poissons Ratio (z) = 0.93338 0.20873
#
# Static dielectric constant tensor:
#      x y z
#    x 1.604970 0.000000 0.000000 
#    y 0.000000 1.615060 0.000000 
#    z 0.000000 0.000000 1.573920 
# 
# From -- ./inp_files/5950.got.cif
#   From: 2010.05.17/outbox.cif.g08.bks.cpg/sg59_3_cif.got.tgz:5950.got - 2010.06.03 14:40:33.
