data_PCOD9451866
_publ_section_title
;
Structure prediction by ZEFSAII (Michael W. Deem and Ramdas Pophale) SiO2 
 PCOD9451866
Probable space group: P M M N
;
_chemical_formula_sum "Si O2"
_cell_formula_units_Z 64
_cell_length_a 8.841158
_cell_length_b 18.856532
_cell_length_c 21.645860
_cell_angle_alpha 90.000000
_cell_angle_beta 90.000000
_cell_angle_gamma 90.000000
_cell_volume 3608.658786
_symmetry_space_group_name_H-M "P M M N"
_symmetry_group_IT_number 59
_space_group.IT_coordinate_system_code '2'
_symmetry_cell_setting 'orthorhombic'
loop_
_space_group_symop_operation_xyz
x,y,z
1/2-x,1/2-y,z
1/2+x,-y,-z
-x,1/2+y,-z
-x,-y,-z
1/2+x,1/2+y,-z
1/2-x,y,z
x,1/2-y,z
loop_
_atom_site_type_symbol
_atom_site_label
_atom_site_fract_x
_atom_site_fract_y
_atom_site_fract_z
Si Si1 0.430602 0.962726 0.683738
Si Si2 0.071689 0.666547 0.883279
Si Si3 0.070129 0.332341 0.248666
Si Si4 0.930315 0.031350 0.562312
Si Si5 0.432820 0.921861 0.003891
Si Si6 0.568028 0.668696 0.381023
Si Si7 0.569258 0.894866 0.247939
Si Si8 0.567399 0.167971 0.876446
O O1 0.250000 0.964371 0.674993
O O2 0.485996 0.887185 0.707321
O O3 0.510107 0.985968 0.620541
O O4 0.467778 0.023802 0.734349
O O5 0.250000 0.653270 0.870552
O O6 0.056106 0.750000 0.897802
O O7 0.025058 0.621139 0.942222
O O8 0.978392 0.651300 0.821650
O O9 0.250000 0.339536 0.255512
O O10 0.028719 0.250000 0.260255
O O11 0.750000 0.029677 0.559657
O O12 0.987979 0.111095 0.576025
O O13 0.000000 0.000000 0.500000
O O14 0.250000 0.925720 0.005494
O O15 0.482520 0.878810 0.064845
O O16 0.500000 0.000000 0.000000
O O17 0.750000 0.660142 0.386760
O O18 0.528939 0.750000 0.394431
O O19 0.530219 0.649775 0.309683
O O20 0.750000 0.889700 0.239238
O O21 0.489520 0.865922 0.187254
O O22 0.750000 0.168127 0.876418
O O23 0.517177 0.250000 0.881596
#
# Coordination Sequence:
#
# PCOD9451866 Si02
#       8
#     8   8   8   8   8   8   8   8
#     4  10  21  38  59  83 113 149 187 226 270 326
#     4   9  18  35  57  75  97 137 184 226 273 332
#     4  10  21  36  56  84 114 141 177 230 287 336
#     4  11  22  38  60  86 118 154 192 232 276 326
#     4  10  22  37  52  73 101 137 180 227 276 328
#     4   9  18  35  58  84 116 152 190 232 277 325
#     4   9  19  34  54  81 111 143 179 220 268 322
#     4  10  21  36  53  75 105 140 177 221 273 327
#
# _framework density 17.735122
#
# number of rings (size 3 to 8) (size 9 to 14) (size 15 to 20)
#    0.000    2.250    0.000    3.375    1.750    6.750 
#    0.000    0.625    0.000    6.000    0.000    0.000 
#    0.000    0.000    0.000    0.000    0.000    0.000 
#
# Total GULP energy -357296.464299 kJ/mol
# GULP energy per Si atom -5582.757255 kJ/mol
# Density = 1.769476 g / cm^3
# Si number density = 17.735122 Si / 1000 Ang^3
#
#
#
# Elastic Constant Matrix: (Units=GPa)
#
#
# Indices 1 2 3 4 5 6 
#
# 1 55.0797 61.0589 49.9206 0.0000 0.0000 0.0000
# 2 61.0589 137.1956 97.3275 0.0000 0.0000 0.0000
# 3 49.9206 97.3275 109.8800 0.0000 0.0000 0.0000
# 4 0.0000 0.0000 0.0000 25.1697 0.0000 0.0000
# 5 0.0000 0.0000 0.0000 0.0000 32.4708 0.0000
# 6 0.0000 0.0000 0.0000 0.0000 0.0000 32.7130
#
#
#
# Elastic Compliance Matrix: (Units=1/GPa)
#
#
# Indices 1 2 3 4 5 6 
#
# 1 0.037262 -0.012308 -0.006027 0.000000 0.000000 0.000000
# 2 -0.012308 0.023678 -0.015382 0.000000 0.000000 0.000000
# 3 -0.006027 -0.015382 0.025464 0.000000 0.000000 0.000000
# 4 0.000000 0.000000 0.000000 0.039730 0.000000 0.000000
# 5 0.000000 0.000000 0.000000 0.000000 0.030797 0.000000
# 6 0.000000 0.000000 0.000000 0.000000 0.000000 0.030569
#
#
# Mechanical properties :
#
#
# Convention : Reuss Voigt Hill
#
# Bulk Modulus (GPa) = 52.71273 79.86326 66.28799
# Shear Modulus (GPa) = 19.13828 24.32725 21.73277
#
# Velocity S-wave (km/s) = 3.28856 3.70766 3.50438
# Velocity P-wave (km/s) = 6.64878 7.96605 7.33703
#
# Compressibility (1/GPa) = 0.01897075
#
# Stress axis : x y z
#
# Youngs Moduli (GPa) = 26.83705 42.23272 39.27180
#
# Poissons Ratio (x) = 0.51979 0.23669
# Poissons Ratio (y) = 0.33030 0.60407
# Poissons Ratio (z) = 0.16175 0.64961
#
# Static dielectric constant tensor:
#      x y z
#    x 1.596150 0.000000 0.000000 
#    y 0.000000 1.601970 0.000000 
#    z 0.000000 0.000000 1.574000 
# 
# From -- ./inp_files/29492.got.cif
#   From: 2010.05.17/outbox.cif.g08.bks.cpg/sg59_15_cif.got.tgz:29492.got - 2010.06.03 14:40:33.
