data_PCOD9451925
_publ_section_title
;
Structure prediction by ZEFSAII (Michael W. Deem and Ramdas Pophale) SiO2 
 PCOD9451925
Probable space group: P M M N
;
_chemical_formula_sum "Si O2"
_cell_formula_units_Z 56
_cell_length_a 19.739717
_cell_length_b 8.885337
_cell_length_c 17.961184
_cell_angle_alpha 90.000000
_cell_angle_beta 90.000000
_cell_angle_gamma 90.000000
_cell_volume 3150.284586
_symmetry_space_group_name_H-M "P M M N"
_symmetry_group_IT_number 59
_space_group.IT_coordinate_system_code '2'
_symmetry_cell_setting 'orthorhombic'
loop_
_space_group_symop_operation_xyz
x,y,z
1/2-x,1/2-y,z
1/2+x,-y,-z
-x,1/2+y,-z
-x,-y,-z
1/2+x,1/2+y,-z
1/2-x,y,z
x,1/2-y,z
loop_
_atom_site_type_symbol
_atom_site_label
_atom_site_fract_x
_atom_site_fract_y
_atom_site_fract_z
Si Si1 0.551348 0.928340 0.193138
Si Si2 0.670716 0.924993 0.929391
Si Si3 0.066778 0.572569 0.963091
Si Si4 0.907540 0.927403 0.782526
Si Si5 0.427869 0.931636 0.648892
Si Si6 0.828380 0.068421 0.483085
Si Si7 0.917500 0.929425 0.613723
O O1 0.559351 0.750000 0.191136
O O2 0.579475 0.002123 0.118051
O O3 0.472056 0.974152 0.195037
O O4 0.580106 0.995594 0.270012
O O5 0.750000 0.944915 0.939709
O O6 0.652956 0.750000 0.946483
O O7 0.650074 0.949624 0.843466
O O8 0.627730 0.031760 0.982058
O O9 0.056519 0.750000 0.956082
O O10 0.000000 0.500000 0.000000
O O11 0.928028 0.750000 0.784690
O O12 0.889857 0.960008 0.697052
O O13 0.428256 0.750000 0.656798
O O14 0.369076 0.975865 0.591632
O O15 0.502677 0.973714 0.616809
O O16 0.750000 0.017053 0.484637
O O17 0.827998 0.250000 0.485259
O O18 0.872622 0.009635 0.552062
O O19 0.915100 0.750000 0.600763
#
# Coordination Sequence:
#
# PCOD9451925 Si02
#       7
#     8   8   8   8   8   8   8
#     4  11  21  34  57  87 111 138 181 234 286 335
#     4  10  21  37  57  82 115 154 192 231 281 339
#     4  12  23  37  59  85 114 149 192 237 280 331
#     4   9  18  34  55  80 112 147 182 224 276 335
#     4   9  19  37  57  78 108 144 184 231 280 334
#     4  10  21  36  54  78 109 146 185 228 282 334
#     4   9  18  32  54  82 109 142 185 226 270 327
#
# _framework density 17.776173
#
# number of rings (size 3 to 8) (size 9 to 14) (size 15 to 20)
#    0.000    2.000    1.429    3.857    0.000    4.000 
#    0.000    2.143    0.000    2.571    0.000    0.000 
#    0.000    0.000    0.000    0.000    0.000    0.000 
#
# Total GULP energy -312562.970604 kJ/mol
# GULP energy per Si atom -5581.481618 kJ/mol
# Density = 1.773571 g / cm^3
# Si number density = 17.776173 Si / 1000 Ang^3
#
#
#
# Elastic Constant Matrix: (Units=GPa)
#
#
# Indices 1 2 3 4 5 6 
#
# 1 69.8997 36.3886 63.2866 0.0000 0.0000 0.0000
# 2 36.3886 67.6255 53.2186 0.0000 0.0000 0.0000
# 3 63.2866 53.2186 133.6382 0.0000 0.0000 0.0000
# 4 0.0000 0.0000 0.0000 30.1249 0.0000 0.0000
# 5 0.0000 0.0000 0.0000 0.0000 20.4021 0.0000
# 6 0.0000 0.0000 0.0000 0.0000 0.0000 22.5516
#
#
#
# Elastic Compliance Matrix: (Units=1/GPa)
#
#
# Indices 1 2 3 4 5 6 
#
# 1 0.026857 -0.006470 -0.010142 0.000000 0.000000 0.000000
# 2 -0.006470 0.023095 -0.006133 0.000000 0.000000 0.000000
# 3 -0.010142 -0.006133 0.014728 0.000000 0.000000 0.000000
# 4 0.000000 0.000000 0.000000 0.033195 0.000000 0.000000
# 5 0.000000 0.000000 0.000000 0.000000 0.049015 0.000000
# 6 0.000000 0.000000 0.000000 0.000000 0.000000 0.044343
#
#
# Mechanical properties :
#
#
# Convention : Reuss Voigt Hill
#
# Bulk Modulus (GPa) = 52.11062 64.10564 58.10813
# Shear Modulus (GPa) = 20.56596 22.50036 21.53316
#
# Velocity S-wave (km/s) = 3.40507 3.56161 3.48422
# Velocity P-wave (km/s) = 6.69611 7.28385 6.99615
#
# Compressibility (1/GPa) = 0.01918995
#
# Stress axis : x y z
#
# Youngs Moduli (GPa) = 37.23441 43.29858 67.89696
#
# Poissons Ratio (x) = 0.28015 0.68861
# Poissons Ratio (y) = 0.24091 0.41643
# Poissons Ratio (z) = 0.37763 0.26556
#
# Static dielectric constant tensor:
#      x y z
#    x 1.588430 0.000000 0.000000 
#    y 0.000000 1.626120 0.000000 
#    z 0.000000 0.000000 1.607440 
# 
# From -- ./inp_files/28095.got.cif
#   From: 2010.05.17/outbox.cif.g08.bks.cpg/sg59_15_cif.got.tgz:28095.got - 2010.06.03 14:40:33.
