data_PCOD9451564
_publ_section_title
;
Structure prediction by ZEFSAII (Michael W. Deem and Ramdas Pophale) SiO2 
 PCOD9451564
Probable space group: P M M N
;
_chemical_formula_sum "Si O2"
_cell_formula_units_Z 58
_cell_length_a 31.309529
_cell_length_b 7.479986
_cell_length_c 11.782650
_cell_angle_alpha 90.000000
_cell_angle_beta 90.000000
_cell_angle_gamma 90.000000
_cell_volume 2759.435815
_symmetry_space_group_name_H-M "P M M N"
_symmetry_group_IT_number 59
_space_group.IT_coordinate_system_code '2'
_symmetry_cell_setting 'orthorhombic'
loop_
_space_group_symop_operation_xyz
x,y,z
1/2-x,1/2-y,z
1/2+x,-y,-z
-x,1/2+y,-z
-x,-y,-z
1/2+x,1/2+y,-z
1/2-x,y,z
x,1/2-y,z
loop_
_atom_site_type_symbol
_atom_site_label
_atom_site_fract_x
_atom_site_fract_y
_atom_site_fract_z
Si Si1 0.512022 0.545096 0.332056
Si Si2 0.916615 0.035716 0.687954
Si Si3 0.904288 0.537305 0.439772
Si Si4 0.319351 0.031914 0.685134
Si Si5 0.383285 0.537853 0.071865
Si Si6 0.797760 0.536124 0.054942
Si Si7 0.750000 0.250000 0.392550
Si Si8 0.960042 0.036880 0.082632
O O1 0.506011 0.750000 0.369808
O O2 0.464908 0.462965 0.325424
O O3 0.548979 0.461365 0.409477
O O4 0.530650 0.545028 0.204743
O O5 0.919738 0.250000 0.700110
O O6 0.894618 0.967634 0.802859
O O7 0.893017 0.999664 0.570084
O O8 0.907753 0.750000 0.426387
O O9 0.867071 0.483151 0.354186
O O10 0.313414 0.250000 0.672184
O O11 0.310926 0.985076 0.817041
O O12 0.286944 0.909047 0.615515
O O13 0.390900 0.750000 0.074979
O O14 0.335021 0.512393 0.031749
O O15 0.417190 0.468434 0.978964
O O16 0.750000 0.466662 0.030550
O O17 0.795497 0.750000 0.054751
O O18 0.956797 0.250000 0.099332
O O19 0.000000 0.000000 0.000000
#
# Coordination Sequence:
#
# PCOD9451564 Si02
#       8
#     8   8   8   8   8   8   2   8
#     4  10  20  38  58  82 119 158 196 246 303 342
#     4  10  21  38  57  80 119 160 201 248 290 352
#     4  10  22  38  60  86 118 156 199 252 297 351
#     4  10  22  40  61  96 128 151 199 252 303 370
#     4  10  22  37  56  84 117 154 196 244 294 350
#     4  10  21  39  62  87 119 150 186 244 303 360
#     4  12  22  36  72  94 118 172 186 240 332 364
#     4  11  21  35  55  83 117 151 192 237 287 353
#
# _framework density 21.018791
#
# number of rings (size 3 to 8) (size 9 to 14) (size 15 to 20)
#    0.000    1.793    2.069    1.862    1.931    4.138 
#    0.000    0.000    1.517    0.000    0.000    0.000 
#    0.000    0.000    0.000    0.000    0.000    0.000 
#
# Total GULP energy -323394.225487 kJ/mol
# GULP energy per Si atom -5575.762508 kJ/mol
# Density = 2.097095 g / cm^3
# Si number density = 21.018791 Si / 1000 Ang^3
#
#
#
# Elastic Constant Matrix: (Units=GPa)
#
#
# Indices 1 2 3 4 5 6 
#
# 1 140.4800 9.3926 42.6956 0.0000 0.0000 0.0000
# 2 9.3926 75.0949 -9.4852 0.0000 0.0000 0.0000
# 3 42.6956 -9.4852 75.7321 0.0000 0.0000 0.0000
# 4 0.0000 0.0000 0.0000 19.0370 0.0000 0.0000
# 5 0.0000 0.0000 0.0000 0.0000 12.6845 0.0000
# 6 0.0000 0.0000 0.0000 0.0000 0.0000 7.5849
#
#
#
# Elastic Compliance Matrix: (Units=1/GPa)
#
#
# Indices 1 2 3 4 5 6 
#
# 1 0.008813 -0.001758 -0.005189 0.000000 0.000000 0.000000
# 2 -0.001758 0.013881 0.002729 0.000000 0.000000 0.000000
# 3 -0.005189 0.002729 0.016472 0.000000 0.000000 0.000000
# 4 0.000000 0.000000 0.000000 0.052529 0.000000 0.000000
# 5 0.000000 0.000000 0.000000 0.000000 0.078836 0.000000
# 6 0.000000 0.000000 0.000000 0.000000 0.000000 0.131840
#
#
# Mechanical properties :
#
#
# Convention : Reuss Voigt Hill
#
# Bulk Modulus (GPa) = 32.53947 41.83478 37.18712
# Shear Modulus (GPa) = 15.57397 24.44156 20.00777
#
# Velocity S-wave (km/s) = 2.72500 3.41375 3.08863
# Velocity P-wave (km/s) = 5.04139 5.95693 5.51818
#
# Compressibility (1/GPa) = 0.03073191
#
# Stress axis : x y z
#
# Youngs Moduli (GPa) = 113.46956 72.04048 60.71088
#
# Poissons Ratio (x) = 0.12662 0.31501
# Poissons Ratio (y) = 0.19944 -0.16571
# Poissons Ratio (z) = 0.58875 -0.19663
#
# Static dielectric constant tensor:
#      x y z
#    x 1.779600 0.000000 0.000000 
#    y 0.000000 1.803380 0.000000 
#    z 0.000000 0.000000 1.744230 
# 
# From -- ./inp_files/14812.got.cif
#   From: 2010.05.17/outbox.cif.g08.bks.cpg/sg59_8_cif.got.tgz:14812.got - 2010.06.03 14:40:33.
