data_PCOD9451635
_publ_section_title
;
Structure prediction by ZEFSAII (Michael W. Deem and Ramdas Pophale) SiO2 
 PCOD9451635
Probable space group: P M M N
;
_chemical_formula_sum "Si O2"
_cell_formula_units_Z 56
_cell_length_a 14.740946
_cell_length_b 22.903212
_cell_length_c 9.175623
_cell_angle_alpha 90.000000
_cell_angle_beta 90.000000
_cell_angle_gamma 90.000000
_cell_volume 3097.828063
_symmetry_space_group_name_H-M "P M M N"
_symmetry_group_IT_number 59
_space_group.IT_coordinate_system_code '2'
_symmetry_cell_setting 'orthorhombic'
loop_
_space_group_symop_operation_xyz
x,y,z
1/2-x,1/2-y,z
1/2+x,-y,-z
-x,1/2+y,-z
-x,-y,-z
1/2+x,1/2+y,-z
1/2-x,y,z
x,1/2-y,z
loop_
_atom_site_type_symbol
_atom_site_label
_atom_site_fract_x
_atom_site_fract_y
_atom_site_fract_z
Si Si1 0.356987 0.426261 0.651252
Si Si2 0.357590 0.684224 0.900555
Si Si3 0.146467 0.679518 0.217038
Si Si4 0.857303 0.024296 0.583873
Si Si5 0.997996 0.002381 0.826331
Si Si6 0.026512 0.181112 0.578963
Si Si7 0.443984 0.890951 0.658929
O O1 0.250000 0.428029 0.679272
O O2 0.374068 0.462488 0.500438
O O3 0.415267 0.461079 0.770290
O O4 0.395901 0.361061 0.641176
O O5 0.250000 0.689155 0.915995
O O6 0.394974 0.750000 0.880534
O O7 0.377571 0.644399 0.763602
O O8 0.386302 0.658611 0.057590
O O9 0.250000 0.659160 0.251575
O O10 0.153006 0.750000 0.203153
O O11 0.067786 0.669889 0.333639
O O12 0.750000 0.030399 0.604388
O O13 0.894731 0.071514 0.467684
O O14 0.912046 0.027806 0.735433
O O15 0.006996 0.937317 0.762120
O O16 0.000000 0.000000 0.000000
O O17 0.045792 0.250000 0.584237
O O18 0.007448 0.156541 0.418085
#
# Coordination Sequence:
#
# PCOD9451635 Si02
#       7
#     8   8   8   8   8   8   8
#     4  10  21  41  62  84 118 153 194 246 293 346
#     4   9  18  32  50  80 121 159 191 227 280 344
#     4   8  17  33  51  76 115 158 194 229 279 344
#     4  10  20  39  63  85 114 150 187 239 299 348
#     4  11  23  40  62  87 116 149 195 241 298 358
#     4  11  21  35  59  87 117 157 199 239 292 351
#     4  11  20  35  55  85 118 150 192 240 287 345
#
# _framework density 18.077182000000001
#
# number of rings (size 3 to 8) (size 9 to 14) (size 15 to 20)
#    0.000    2.000    2.857    2.571    2.000    2.571 
#    0.000    1.429    0.000    0.000    0.000    0.000 
#    0.000    0.000    0.000    0.000    0.000    0.000 
#
# Total GULP energy -312222.468051 kJ/mol
# GULP energy per Si atom -5575.401215 kJ/mol
# Density = 1.803604 g / cm^3
# Si number density = 18.077182 Si / 1000 Ang^3
#
#
#
# Elastic Constant Matrix: (Units=GPa)
#
#
# Indices 1 2 3 4 5 6 
#
# 1 83.0084 25.9331 48.6774 0.0000 0.0000 0.0000
# 2 25.9331 101.0171 46.5253 0.0000 0.0000 0.0000
# 3 48.6774 46.5253 135.4427 0.0000 0.0000 0.0000
# 4 0.0000 0.0000 0.0000 21.0999 0.0000 0.0000
# 5 0.0000 0.0000 0.0000 0.0000 18.4344 0.0000
# 6 0.0000 0.0000 0.0000 0.0000 0.0000 26.7874
#
#
#
# Elastic Compliance Matrix: (Units=1/GPa)
#
#
# Indices 1 2 3 4 5 6 
#
# 1 0.015500 -0.001679 -0.004994 0.000000 0.000000 0.000000
# 2 -0.001679 0.011942 -0.003499 0.000000 0.000000 0.000000
# 3 -0.004994 -0.003499 0.010380 0.000000 0.000000 0.000000
# 4 0.000000 0.000000 0.000000 0.047394 0.000000 0.000000
# 5 0.000000 0.000000 0.000000 0.000000 0.054246 0.000000
# 6 0.000000 0.000000 0.000000 0.000000 0.000000 0.037331
#
#
# Mechanical properties :
#
#
# Convention : Reuss Voigt Hill
#
# Bulk Modulus (GPa) = 57.21357 62.41551 59.81454
# Shear Modulus (GPa) = 24.63519 26.48650 25.56084
#
# Velocity S-wave (km/s) = 3.69559 3.83193 3.76438
# Velocity P-wave (km/s) = 7.06598 7.36074 7.21487
#
# Compressibility (1/GPa) = 0.01747837
#
# Stress axis : x y z
#
# Youngs Moduli (GPa) = 64.51602 83.74012 96.34171
#
# Poissons Ratio (x) = 0.14061 0.48111
# Poissons Ratio (y) = 0.10833 0.33706
# Poissons Ratio (z) = 0.32218 0.29297
#
# Static dielectric constant tensor:
#      x y z
#    x 1.610950 0.000000 0.000000 
#    y 0.000000 1.673100 0.000000 
#    z 0.000000 0.000000 1.643560 
# 
# From -- ./inp_files/9350.got.cif
#   From: 2010.05.17/outbox.cif.g08.bks.cpg/sg59_5_cif.got.tgz:9350.got - 2010.06.03 14:40:33.
