data_PCOD9451280
_publ_section_title
;
Structure prediction by ZEFSAII (Michael W. Deem and Ramdas Pophale) SiO2 
 PCOD9451280
Probable space group: P M M N
;
_chemical_formula_sum "Si O2"
_cell_formula_units_Z 48
_cell_length_a 15.768982
_cell_length_b 9.207166
_cell_length_c 16.956672
_cell_angle_alpha 90.000000
_cell_angle_beta 90.000000
_cell_angle_gamma 90.000000
_cell_volume 2461.899104
_symmetry_space_group_name_H-M "P M M N"
_symmetry_group_IT_number 59
_space_group.IT_coordinate_system_code '2'
_symmetry_cell_setting 'orthorhombic'
loop_
_space_group_symop_operation_xyz
x,y,z
1/2-x,1/2-y,z
1/2+x,-y,-z
-x,1/2+y,-z
-x,-y,-z
1/2+x,1/2+y,-z
1/2-x,y,z
x,1/2-y,z
loop_
_atom_site_type_symbol
_atom_site_label
_atom_site_fract_x
_atom_site_fract_y
_atom_site_fract_z
Si Si1 0.430577 0.425531 0.218970
Si Si2 0.750000 0.925251 0.858991
Si Si3 0.250000 0.922572 0.716072
Si Si4 0.885403 0.423528 0.151587
Si Si5 0.394233 0.908276 0.523193
Si Si6 0.504510 0.585898 0.366288
Si Si7 0.750000 0.574737 0.042226
Si Si8 0.250000 0.084958 0.550685
O O1 0.430195 0.250000 0.234814
O O2 0.339448 0.467092 0.181786
O O3 0.514547 0.452645 0.164537
O O4 0.447813 0.520824 0.296910
O O5 0.750000 0.750000 0.857545
O O6 0.750000 0.968415 0.950553
O O7 0.250000 0.750000 0.706261
O O8 0.167430 0.960728 0.768883
O O9 0.250000 0.999351 0.632576
O O10 0.875388 0.250000 0.138432
O O11 0.833828 0.509640 0.084586
O O12 0.354090 0.750000 0.531808
O O13 0.457065 0.897874 0.450029
O O14 0.431389 0.959053 0.607039
O O15 0.330512 0.035599 0.501962
O O16 0.536801 0.750000 0.346840
O O17 0.750000 0.750000 0.048879
O O18 0.250000 0.250000 0.569256
#
# Coordination Sequence:
#
# PCOD9451280 Si02
#       8
#     8   4   4   8   8   8   4   4
#     4  10  20  37  60  82 111 151 188 226 278 339
#     4   9  21  39  57  83 115 149 190 229 272 332
#     4   9  17  31  50  76 110 143 181 231 286 344
#     4   9  19  35  57  83 109 143 183 221 274 342
#     4  10  21  37  55  76 108 149 184 223 283 341
#     4  10  21  37  57  81 107 137 185 239 277 323
#     4  10  20  36  58  84 116 146 178 228 278 326
#     4  12  23  32  49  79 111 142 185 236 276 322
#
# _framework density 19.497143000000001
#
# number of rings (size 3 to 8) (size 9 to 14) (size 15 to 20)
#    0.000    2.167    0.000    3.500    0.000    6.667 
#    0.000    3.750    0.000    0.000    0.000    0.000 
#    0.000    0.000    0.000    0.000    0.000    0.000 
#
# Total GULP energy -267360.007778 kJ/mol
# GULP energy per Si atom -5570.000162 kJ/mol
# Density = 1.945277 g / cm^3
# Si number density = 19.497143 Si / 1000 Ang^3
#
#
#
# Elastic Constant Matrix: (Units=GPa)
#
#
# Indices 1 2 3 4 5 6 
#
# 1 117.9535 29.7491 36.7252 0.0000 0.0000 0.0000
# 2 29.7491 72.4706 39.3740 0.0000 0.0000 0.0000
# 3 36.7252 39.3740 79.2776 0.0000 0.0000 0.0000
# 4 0.0000 0.0000 0.0000 24.8077 0.0000 0.0000
# 5 0.0000 0.0000 0.0000 0.0000 -0.4834 0.0000
# 6 0.0000 0.0000 0.0000 0.0000 0.0000 26.2256
#
#
#
# Elastic Compliance Matrix: (Units=1/GPa)
#
#
# Indices 1 2 3 4 5 6 
#
# 1 0.010159 -0.002210 -0.003609 0.000000 0.000000 0.000000
# 2 -0.002210 0.019379 -0.008601 0.000000 0.000000 0.000000
# 3 -0.003609 -0.008601 0.018557 0.000000 0.000000 0.000000
# 4 0.000000 0.000000 0.000000 0.040310 0.000000 0.000000
# 5 0.000000 0.000000 0.000000 0.000000 -2.068851 0.000000
# 6 0.000000 0.000000 0.000000 0.000000 0.000000 0.038131
#
#
# Mechanical properties :
#
#
# Convention : Reuss Voigt Hill
#
# Bulk Modulus (GPa) = 51.93081 53.48873 52.70977
# Shear Modulus (GPa) = -2.62184 21.03354 9.20585
#
# Velocity S-wave (km/s) = -1.16088 3.28807 2.17529
# Velocity P-wave (km/s) = 4.98959 6.47371 5.77949
#
# Compressibility (1/GPa) = 0.01925639
#
# Stress axis : x y z
#
# Youngs Moduli (GPa) = 98.43734 51.60284 53.88680
#
# Poissons Ratio (x) = 0.11402 0.19446
# Poissons Ratio (y) = 0.21750 0.46349
# Poissons Ratio (z) = 0.35522 0.44384
#
# Static dielectric constant tensor:
#      x y z
#    x 1.912500 0.000000 0.000000 
#    y 0.000000 1.706280 0.000000 
#    z 0.000000 0.000000 1.656560 
# 
# From -- ./inp_files/23794.got.cif
#   From: 2010.05.17/outbox.cif.g08.bks.cpg/sg59_12_cif.got.tgz:23794.got - 2010.06.03 14:40:33.
