data_PCOD9451343
_publ_section_title
;
Structure prediction by ZEFSAII (Michael W. Deem and Ramdas Pophale) SiO2 
 PCOD9451343
Probable space group: P M M N
;
_chemical_formula_sum "Si O2"
_cell_formula_units_Z 48
_cell_length_a 9.324948
_cell_length_b 18.148290
_cell_length_c 16.169259
_cell_angle_alpha 90.000000
_cell_angle_beta 90.000000
_cell_angle_gamma 90.000000
_cell_volume 2736.353784
_symmetry_space_group_name_H-M "P M M N"
_symmetry_group_IT_number 59
_space_group.IT_coordinate_system_code '2'
_symmetry_cell_setting 'orthorhombic'
loop_
_space_group_symop_operation_xyz
x,y,z
1/2-x,1/2-y,z
1/2+x,-y,-z
-x,1/2+y,-z
-x,-y,-z
1/2+x,1/2+y,-z
1/2-x,y,z
x,1/2-y,z
loop_
_atom_site_type_symbol
_atom_site_label
_atom_site_fract_x
_atom_site_fract_y
_atom_site_fract_z
Si Si1 0.578178 0.617511 0.887105
Si Si2 0.917463 0.613023 0.521962
Si Si3 0.921978 0.042738 0.816500
Si Si4 0.919266 0.250000 0.203915
Si Si5 0.418532 0.750000 0.598758
Si Si6 0.082266 0.961340 0.377571
Si Si7 0.921645 0.663817 0.075864
O O1 0.750000 0.626199 0.873993
O O2 0.538438 0.534743 0.860103
O O3 0.494756 0.678081 0.833995
O O4 0.548672 0.634231 0.983256
O O5 0.750000 0.631398 0.514699
O O6 0.930719 0.542624 0.582820
O O7 0.006289 0.679020 0.560486
O O8 0.983213 0.590029 0.433817
O O9 0.750000 0.050785 0.824585
O O10 0.955678 0.038543 0.718941
O O11 0.999223 0.110991 0.859923
O O12 0.750000 0.250000 0.184340
O O13 0.936434 0.250000 0.302486
O O14 0.250000 0.750000 0.580128
O O15 0.250000 0.939638 0.385638
O O16 0.750000 0.659769 0.088228
O O17 0.963556 0.750000 0.081578
#
# Coordination Sequence:
#
# PCOD9451343 Si02
#       7
#     8   8   8   4   4   8   8
#     4  10  20  38  60  82 115 153 188 231 287 340
#     4  10  20  36  60  84 109 147 190 228 274 338
#     4  10  21  36  59  87 111 148 195 234 278 337
#     4  11  23  35  55  88 119 148 187 233 284 337
#     4  11  23  37  53  82 119 148 177 227 286 333
#     4   9  19  37  57  82 114 146 184 231 283 331
#     4  10  21  38  57  80 114 155 191 233 287 331
#
# _framework density 17.541592000000001
#
# number of rings (size 3 to 8) (size 9 to 14) (size 15 to 20)
#    0.000    2.000    0.833    2.500    0.000    5.667 
#    1.500    0.000    0.000    0.000    0.000    0.000 
#    0.000    0.000    0.000    0.000    0.000    0.000 
#
# Total GULP energy -268041.334624 kJ/mol
# GULP energy per Si atom -5584.194471 kJ/mol
# Density = 1.750167 g / cm^3
# Si number density = 17.541592 Si / 1000 Ang^3
#
#
#
# Elastic Constant Matrix: (Units=GPa)
#
#
# Indices 1 2 3 4 5 6 
#
# 1 74.6754 66.7341 74.5958 0.0000 0.0000 0.0000
# 2 66.7341 109.0904 96.3801 0.0000 0.0000 0.0000
# 3 74.5958 96.3801 127.4616 0.0000 0.0000 0.0000
# 4 0.0000 0.0000 0.0000 23.0635 0.0000 0.0000
# 5 0.0000 0.0000 0.0000 0.0000 21.5331 0.0000
# 6 0.0000 0.0000 0.0000 0.0000 0.0000 35.5234
#
#
#
# Elastic Compliance Matrix: (Units=1/GPa)
#
#
# Indices 1 2 3 4 5 6 
#
# 1 0.035621 -0.010160 -0.013165 0.000000 0.000000 0.000000
# 2 -0.010160 0.030512 -0.017126 0.000000 0.000000 0.000000
# 3 -0.013165 -0.017126 0.028500 0.000000 0.000000 0.000000
# 4 0.000000 0.000000 0.000000 0.043359 0.000000 0.000000
# 5 0.000000 0.000000 0.000000 0.000000 0.046440 0.000000
# 6 0.000000 0.000000 0.000000 0.000000 0.000000 0.028150
#
#
# Mechanical properties :
#
#
# Convention : Reuss Voigt Hill
#
# Bulk Modulus (GPa) = 72.81991 87.40527 80.11259
# Shear Modulus (GPa) = 16.77504 20.92515 18.85009
#
# Velocity S-wave (km/s) = 3.09577 3.45757 3.28166
# Velocity P-wave (km/s) = 7.37436 8.11636 7.75424
#
# Compressibility (1/GPa) = 0.01373251
#
# Stress axis : x y z
#
# Youngs Moduli (GPa) = 28.07296 32.77353 35.08780
#
# Poissons Ratio (x) = 0.33297 0.46192
# Poissons Ratio (y) = 0.28522 0.60091
# Poissons Ratio (z) = 0.36958 0.56128
#
# Static dielectric constant tensor:
#      x y z
#    x 1.583600 0.000000 0.000000 
#    y 0.000000 1.571860 0.000000 
#    z 0.000000 0.000000 1.571430 
# 
# From -- ./inp_files/20508.got.cif
#   From: 2010.05.17/outbox.cif.g08.bks.cpg/sg59_11_cif.got.tgz:20508.got - 2010.06.03 14:40:33.
