data_PCOD9451483
_publ_section_title
;
Structure prediction by ZEFSAII (Michael W. Deem and Ramdas Pophale) SiO2 
 PCOD9451483
Probable space group: P M M N
;
_chemical_formula_sum "Si O2"
_cell_formula_units_Z 56
_cell_length_a 19.399212
_cell_length_b 8.734725
_cell_length_c 16.847574
_cell_angle_alpha 90.000000
_cell_angle_beta 90.000000
_cell_angle_gamma 90.000000
_cell_volume 2854.767199
_symmetry_space_group_name_H-M "P M M N"
_symmetry_group_IT_number 59
_space_group.IT_coordinate_system_code '2'
_symmetry_cell_setting 'orthorhombic'
loop_
_space_group_symop_operation_xyz
x,y,z
1/2-x,1/2-y,z
1/2+x,-y,-z
-x,1/2+y,-z
-x,-y,-z
1/2+x,1/2+y,-z
1/2-x,y,z
x,1/2-y,z
loop_
_atom_site_type_symbol
_atom_site_label
_atom_site_fract_x
_atom_site_fract_y
_atom_site_fract_z
Si Si1 0.542595 0.070153 0.426372
Si Si2 0.330103 0.564972 0.849783
Si Si3 0.832047 0.568209 0.503941
Si Si4 0.444074 0.432826 0.743832
Si Si5 0.328917 0.066084 0.316373
Si Si6 0.077520 0.935250 0.000342
Si Si7 0.417549 0.566701 0.175099
O O1 0.529060 0.250000 0.422304
O O2 0.500000 0.000000 0.500000
O O3 0.622093 0.031492 0.445999
O O4 0.530156 0.995230 0.340765
O O5 0.250000 0.516619 0.851673
O O6 0.331276 0.750000 0.847768
O O7 0.372533 0.502700 0.774472
O O8 0.372895 0.515304 0.928468
O O9 0.750000 0.548609 0.495245
O O10 0.846803 0.750000 0.492873
O O11 0.851403 0.524438 0.594447
O O12 0.438246 0.250000 0.739373
O O13 0.502828 0.474660 0.808168
O O14 0.250000 0.014584 0.307068
O O15 0.329760 0.250000 0.314251
O O16 0.373954 0.002352 0.246024
O O17 0.073159 0.750000 0.997334
O O18 0.105798 0.980156 0.087368
O O19 0.000000 0.000000 0.000000
O O20 0.412969 0.750000 0.179864
#
# Coordination Sequence:
#
# PCOD9451483 Si02
#       7
#     8   8   8   8   8   8   8
#     4  12  25  40  60  88 121 156 200 250 300 357
#     4  10  22  40  62  89 121 159 203 249 301 360
#     4   9  19  38  61  83 112 152 196 243 298 355
#     4  11  23  40  61  87 118 154 197 246 300 358
#     4   9  19  35  55  82 115 150 189 233 284 344
#     4  10  20  37  60  86 116 153 196 243 294 349
#     4  10  21  35  56  86 116 149 192 237 286 347
#
# _framework density 19.616311
#
# number of rings (size 3 to 8) (size 9 to 14) (size 15 to 20)
#    0.000    1.857    1.429    3.429    0.000    6.571 
#    0.000    2.857    0.000    0.000    0.000    0.000 
#    0.000    0.000    0.000    0.000    0.000    0.000 
#
# Total GULP energy -312702.617894 kJ/mol
# GULP energy per Si atom -5583.975320 kJ/mol
# Density = 1.957166 g / cm^3
# Si number density = 19.616311 Si / 1000 Ang^3
#
#
#
# Elastic Constant Matrix: (Units=GPa)
#
#
# Indices 1 2 3 4 5 6 
#
# 1 71.9793 23.6729 33.7664 0.0000 0.0000 0.0000
# 2 23.6729 18.6412 23.7936 0.0000 0.0000 0.0000
# 3 33.7664 23.7936 98.9997 0.0000 0.0000 0.0000
# 4 0.0000 0.0000 0.0000 26.8129 0.0000 0.0000
# 5 0.0000 0.0000 0.0000 0.0000 34.9887 0.0000
# 6 0.0000 0.0000 0.0000 0.0000 0.0000 31.0028
#
#
#
# Elastic Compliance Matrix: (Units=1/GPa)
#
#
# Indices 1 2 3 4 5 6 
#
# 1 0.023962 -0.028848 -0.001240 0.000000 0.000000 0.000000
# 2 -0.028848 0.112113 -0.017106 0.000000 0.000000 0.000000
# 3 -0.001240 -0.017106 0.014635 0.000000 0.000000 0.000000
# 4 0.000000 0.000000 0.000000 0.037295 0.000000 0.000000
# 5 0.000000 0.000000 0.000000 0.000000 0.028581 0.000000
# 6 0.000000 0.000000 0.000000 0.000000 0.000000 0.032255
#
#
# Mechanical properties :
#
#
# Convention : Reuss Voigt Hill
#
# Bulk Modulus (GPa) = 17.75450 39.12068 28.43759
# Shear Modulus (GPa) = 13.81203 25.78669 19.79936
#
# Velocity S-wave (km/s) = 2.65638 3.62961 3.18044
# Velocity P-wave (km/s) = 4.29873 6.12794 5.29295
#
# Compressibility (1/GPa) = 0.05632374
#
# Stress axis : x y z
#
# Youngs Moduli (GPa) = 41.73281 8.91953 68.32885
#
# Poissons Ratio (x) = 0.25731 0.08470
# Poissons Ratio (y) = 1.20390 1.16884
# Poissons Ratio (z) = 0.05173 0.15258
#
# Static dielectric constant tensor:
#      x y z
#    x 1.708150 0.000000 0.000000 
#    y 0.000000 1.663330 0.000000 
#    z 0.000000 0.000000 1.696200 
# 
# From -- ./inp_files/24308.got.cif
#   From: 2010.05.17/outbox.cif.g08.bks.cpg/sg59_13_cif.got.tgz:24308.got - 2010.06.03 14:40:33.
