data_PCOD9451391
_publ_section_title
;
Structure prediction by ZEFSAII (Michael W. Deem and Ramdas Pophale) SiO2 
 PCOD9451391
Probable space group: P M M N
;
_chemical_formula_sum "Si O2"
_cell_formula_units_Z 48
_cell_length_a 7.993463
_cell_length_b 16.566787
_cell_length_c 17.477903
_cell_angle_alpha 90.000000
_cell_angle_beta 90.000000
_cell_angle_gamma 90.000000
_cell_volume 2314.528764
_symmetry_space_group_name_H-M "P M M N"
_symmetry_group_IT_number 59
_space_group.IT_coordinate_system_code '2'
_symmetry_cell_setting 'orthorhombic'
loop_
_space_group_symop_operation_xyz
x,y,z
1/2-x,1/2-y,z
1/2+x,-y,-z
-x,1/2+y,-z
-x,-y,-z
1/2+x,1/2+y,-z
1/2-x,y,z
x,1/2-y,z
loop_
_atom_site_type_symbol
_atom_site_label
_atom_site_fract_x
_atom_site_fract_y
_atom_site_fract_z
Si Si1 0.044993 0.250000 0.559430
Si Si2 0.444637 0.057259 0.162674
Si Si3 0.056886 0.119487 0.855474
Si Si4 0.953970 0.750000 0.265454
Si Si5 0.454223 0.342521 0.308823
Si Si6 0.951576 0.588166 0.531072
Si Si7 0.445513 0.841393 0.976295
O O1 0.250000 0.250000 0.557510
O O2 0.988034 0.250000 0.647429
O O3 0.991904 0.166728 0.517899
O O4 0.250000 0.038842 0.177131
O O5 0.504663 0.117971 0.228668
O O6 0.542458 0.974004 0.163832
O O7 0.461533 0.098225 0.080015
O O8 0.250000 0.141913 0.868793
O O9 0.993918 0.173067 0.784917
O O10 0.964569 0.136816 0.934846
O O11 0.750000 0.750000 0.269552
O O12 0.250000 0.340526 0.309499
O O13 0.510794 0.250000 0.316283
O O14 0.508070 0.395114 0.381789
O O15 0.750000 0.590571 0.530553
O O16 0.000000 0.500000 0.500000
O O17 0.250000 0.844813 0.956295
O O18 0.506996 0.750000 0.964884
#
# Coordination Sequence:
#
# PCOD9451391 Si02
#       7
#     4   8   8   4   8   8   8
#     4   9  18  36  61  86 115 156 198 237 287 353
#     4  11  23  37  58  86 117 151 193 237 285 340
#     4  11  22  39  60  83 115 150 192 238 287 343
#     4   9  20  36  57  84 111 146 192 237 283 339
#     4   9  18  36  59  84 114 153 196 235 279 342
#     4  10  20  36  61  88 118 154 196 241 292 349
#     4  11  23  40  61  85 115 149 191 237 288 341
#
# _framework density 20.738562000000002
#
# number of rings (size 3 to 8) (size 9 to 14) (size 15 to 20)
#    0.000    1.833    1.667    2.500    2.333    1.667 
#    0.000    1.250    0.000    4.000    0.000    0.000 
#    0.000    0.000    0.000    0.000    0.000    0.000 
#
# Total GULP energy -268163.059304 kJ/mol
# GULP energy per Si atom -5586.730402 kJ/mol
# Density = 2.069136 g / cm^3
# Si number density = 20.738562 Si / 1000 Ang^3
#
#
#
# Elastic Constant Matrix: (Units=GPa)
#
#
# Indices 1 2 3 4 5 6 
#
# 1 21.3841 3.2838 1.6971 0.0000 0.0000 0.0000
# 2 3.2838 118.4507 27.5111 0.0000 0.0000 0.0000
# 3 1.6971 27.5111 105.2899 0.0000 0.0000 0.0000
# 4 0.0000 0.0000 0.0000 71.1852 0.0000 0.0000
# 5 0.0000 0.0000 0.0000 0.0000 4.3180 0.0000
# 6 0.0000 0.0000 0.0000 0.0000 0.0000 37.6147
#
#
#
# Elastic Compliance Matrix: (Units=1/GPa)
#
#
# Indices 1 2 3 4 5 6 
#
# 1 0.046983 -0.001199 -0.000444 0.000000 0.000000 0.000000
# 2 -0.001199 0.009018 -0.002337 0.000000 0.000000 0.000000
# 3 -0.000444 -0.002337 0.010115 0.000000 0.000000 0.000000
# 4 0.000000 0.000000 0.000000 0.014048 0.000000 0.000000
# 5 0.000000 0.000000 0.000000 0.000000 0.231589 0.000000
# 6 0.000000 0.000000 0.000000 0.000000 0.000000 0.026585
#
#
# Mechanical properties :
#
#
# Convention : Reuss Voigt Hill
#
# Bulk Modulus (GPa) = 17.19512 34.45653 25.82582
# Shear Modulus (GPa) = 13.67297 36.79909 25.23603
#
# Velocity S-wave (km/s) = 2.57047 4.21697 3.49214
# Velocity P-wave (km/s) = 4.13753 6.35305 5.36099
#
# Compressibility (1/GPa) = 0.05815605
#
# Stress axis : x y z
#
# Youngs Moduli (GPa) = 21.28426 110.88458 98.85927
#
# Poissons Ratio (x) = 0.13300 0.04389
# Poissons Ratio (y) = 0.02553 0.23104
# Poissons Ratio (z) = 0.00945 0.25914
#
# Static dielectric constant tensor:
#      x y z
#    x 1.740060 0.000000 0.000000 
#    y 0.000000 1.715420 0.000000 
#    z 0.000000 0.000000 1.717650 
# 
# From -- ./inp_files/25631.got.cif
#   From: 2010.05.17/outbox.cif.g08.bks.cpg/sg59_13_cif.got.tgz:25631.got - 2010.06.03 14:40:33.
