data_PCOD9451217
_publ_section_title
;
Structure prediction by ZEFSAII (Michael W. Deem and Ramdas Pophale) SiO2 
 PCOD9451217
Probable space group: P M M N
;
_chemical_formula_sum "Si O2"
_cell_formula_units_Z 56
_cell_length_a 8.012089
_cell_length_b 21.340026
_cell_length_c 16.626050
_cell_angle_alpha 90.000000
_cell_angle_beta 90.000000
_cell_angle_gamma 90.000000
_cell_volume 2842.691896
_symmetry_space_group_name_H-M "P M M N"
_symmetry_group_IT_number 59
_space_group.IT_coordinate_system_code '2'
_symmetry_cell_setting 'orthorhombic'
loop_
_space_group_symop_operation_xyz
x,y,z
1/2-x,1/2-y,z
1/2+x,-y,-z
-x,1/2+y,-z
-x,-y,-z
1/2+x,1/2+y,-z
1/2-x,y,z
x,1/2-y,z
loop_
_atom_site_type_symbol
_atom_site_label
_atom_site_fract_x
_atom_site_fract_y
_atom_site_fract_z
Si Si1 0.051226 0.498612 0.907012
Si Si2 0.547467 0.080540 0.445614
Si Si3 0.052924 0.054529 0.618101
Si Si4 0.546101 0.319931 0.315767
Si Si5 0.947094 0.112660 0.787728
Si Si6 0.045378 0.750000 0.160811
Si Si7 0.046530 0.750000 0.973850
Si Si8 0.954338 0.136046 0.139753
O O1 0.250000 0.500431 0.902853
O O2 0.987173 0.564968 0.872363
O O3 0.999888 0.437770 0.855712
O O4 0.000000 0.500000 0.000000
O O5 0.250000 0.921623 0.550887
O O6 0.483810 0.091288 0.535729
O O7 0.491983 0.133798 0.385066
O O8 0.488314 0.014752 0.406587
O O9 0.250000 0.048750 0.630523
O O10 0.984843 0.084712 0.699485
O O11 0.750000 0.320829 0.315034
O O12 0.490376 0.250000 0.331604
O O13 0.493508 0.340790 0.227317
O O14 0.750000 0.117860 0.795679
O O15 0.013687 0.183747 0.801062
O O16 0.250000 0.750000 0.164654
O O17 0.997032 0.750000 0.066730
O O18 0.250000 0.750000 0.971990
O O19 0.992500 0.687091 0.926770
O O20 0.750000 0.135562 0.137562
#
# Coordination Sequence:
#
# PCOD9451217 Si02
#       8
#     8   8   8   8   8   4   4   8
#     4  11  22  36  55  83 117 150 188 237 287 337
#     4   9  18  33  54  80 111 144 180 223 268 323
#     4  10  20  36  57  81 109 142 183 227 277 337
#     4   9  15  26  46  77 109 136 172 219 267 313
#     4  11  22  39  60  83 110 144 190 241 291 342
#     4   9  20  36  55  78 105 140 188 241 285 335
#     4   9  14  26  48  74 105 142 182 223 269 319
#     4   9  16  27  48  78 111 143 177 222 272 323
#
# _framework density 19.699639000000001
#
# number of rings (size 3 to 8) (size 9 to 14) (size 15 to 20)
#    0.000    2.286    0.714    3.000    0.000    5.143 
#    1.286    1.429    0.000    0.000    0.000    1.500 
#    0.000    0.000    0.000    0.000    0.000    0.000 
#
# Total GULP energy -312412.227254 kJ/mol
# GULP energy per Si atom -5578.789772 kJ/mol
# Density = 1.965480 g / cm^3
# Si number density = 19.699639 Si / 1000 Ang^3
#
#
#
# Elastic Constant Matrix: (Units=GPa)
#
#
# Indices 1 2 3 4 5 6 
#
# 1 19.6080 13.7499 5.1752 0.0000 0.0000 0.0000
# 2 13.7499 153.8113 97.1969 0.0000 0.0000 0.0000
# 3 5.1752 97.1969 159.1717 0.0000 0.0000 0.0000
# 4 0.0000 0.0000 0.0000 39.9060 0.0000 0.0000
# 5 0.0000 0.0000 0.0000 0.0000 24.6197 0.0000
# 6 0.0000 0.0000 0.0000 0.0000 0.0000 16.9843
#
#
#
# Elastic Compliance Matrix: (Units=1/GPa)
#
#
# Indices 1 2 3 4 5 6 
#
# 1 0.054787 -0.006142 0.001969 0.000000 0.000000 0.000000
# 2 -0.006142 0.011275 -0.006685 0.000000 0.000000 0.000000
# 3 0.001969 -0.006685 0.010301 0.000000 0.000000 0.000000
# 4 0.000000 0.000000 0.000000 0.025059 0.000000 0.000000
# 5 0.000000 0.000000 0.000000 0.000000 0.040618 0.000000
# 6 0.000000 0.000000 0.000000 0.000000 0.000000 0.058878
#
#
# Mechanical properties :
#
#
# Convention : Reuss Voigt Hill
#
# Bulk Modulus (GPa) = 18.29936 62.75944 40.52940
# Shear Modulus (GPa) = 20.75984 30.73327 25.74656
#
# Velocity S-wave (km/s) = 3.24978 3.95409 3.61911
# Velocity P-wave (km/s) = 4.83640 7.26455 6.17108
#
# Compressibility (1/GPa) = 0.05464673
#
# Stress axis : x y z
#
# Youngs Moduli (GPa) = 18.25249 88.69005 97.07896
#
# Poissons Ratio (x) = 0.54475 -0.19118
# Poissons Ratio (y) = 0.11211 0.64901
# Poissons Ratio (z) = -0.03595 0.59293
#
# Static dielectric constant tensor:
#      x y z
#    x 1.723780 0.000000 0.000000 
#    y 0.000000 1.710020 0.000000 
#    z 0.000000 0.000000 1.629010 
# 
# From -- ./inp_files/21153.got.cif
#   From: 2010.05.17/outbox.cif.g08.bks.cpg/sg59_11_cif.got.tgz:21153.got - 2010.06.03 14:40:33.
