data_PCOD9451534
_publ_section_title
;
Structure prediction by ZEFSAII (Michael W. Deem and Ramdas Pophale) SiO2 
 PCOD9451534
Probable space group: P M M N
;
_chemical_formula_sum "Si O2"
_cell_formula_units_Z 48
_cell_length_a 8.598128
_cell_length_b 15.516036
_cell_length_c 19.481720
_cell_angle_alpha 90.000000
_cell_angle_beta 90.000000
_cell_angle_gamma 90.000000
_cell_volume 2599.034126
_symmetry_space_group_name_H-M "P M M N"
_symmetry_group_IT_number 59
_space_group.IT_coordinate_system_code '2'
_symmetry_cell_setting 'orthorhombic'
loop_
_space_group_symop_operation_xyz
x,y,z
1/2-x,1/2-y,z
1/2+x,-y,-z
-x,1/2+y,-z
-x,-y,-z
1/2+x,1/2+y,-z
1/2-x,y,z
x,1/2-y,z
loop_
_atom_site_type_symbol
_atom_site_label
_atom_site_fract_x
_atom_site_fract_y
_atom_site_fract_z
Si Si1 0.437940 0.849446 0.326814
Si Si2 0.437875 0.590828 0.173417
Si Si3 0.936420 0.401400 0.170413
Si Si4 0.565139 0.750000 0.923833
Si Si5 0.563492 0.997901 0.423208
Si Si6 0.438099 0.750000 0.077476
Si Si7 0.939432 0.152301 0.324494
O O1 0.250000 0.852983 0.330541
O O2 0.484801 0.750000 0.336253
O O3 0.483453 0.881072 0.250565
O O4 0.507596 0.913412 0.382749
O O5 0.250000 0.584989 0.172113
O O6 0.508527 0.498273 0.156773
O O7 0.485101 0.665340 0.120421
O O8 0.750000 0.396802 0.168252
O O9 0.987104 0.375006 0.247659
O O10 0.003747 0.333513 0.116746
O O11 0.750000 0.750000 0.923298
O O12 0.504407 0.750000 0.001419
O O13 0.750000 0.999284 0.424818
O O14 0.500000 0.000000 0.500000
O O15 0.509069 0.081274 0.379403
O O16 0.250000 0.750000 0.074122
O O17 0.750000 0.152344 0.325009
O O18 0.990789 0.250000 0.339084
#
# Coordination Sequence:
#
# PCOD9451534 Si02
#       7
#     8   8   8   4   8   4   8
#     4  10  20  37  62  90 120 158 200 248 303 359
#     4  10  20  37  63  93 122 155 202 251 297 355
#     4  11  21  38  64  91 119 157 200 247 304 364
#     4  12  26  42  60  90 125 158 199 254 305 355
#     4  11  23  39  59  88 123 160 200 250 302 357
#     4  10  22  42  64  88 123 166 201 244 301 357
#     4   9  18  35  60  86 112 149 198 242 288 353
#
# _framework density 18.468399000000002
#
# number of rings (size 3 to 8) (size 9 to 14) (size 15 to 20)
#    0.000    1.667    3.333    1.750    0.000    2.333 
#    0.000    1.667    0.000    0.000    0.000    0.000 
#    0.000    0.000    0.000    0.000    0.000    0.000 
#
# Total GULP energy -268190.889778 kJ/mol
# GULP energy per Si atom -5587.310204 kJ/mol
# Density = 1.842636 g / cm^3
# Si number density = 18.468399 Si / 1000 Ang^3
#
#
#
# Elastic Constant Matrix: (Units=GPa)
#
#
# Indices 1 2 3 4 5 6 
#
# 1 34.7901 48.7531 47.3225 0.0000 0.0000 0.0000
# 2 48.7531 215.5784 118.6391 0.0000 0.0000 0.0000
# 3 47.3225 118.6391 193.1530 0.0000 0.0000 0.0000
# 4 0.0000 0.0000 0.0000 34.3204 0.0000 0.0000
# 5 0.0000 0.0000 0.0000 0.0000 25.9681 0.0000
# 6 0.0000 0.0000 0.0000 0.0000 0.0000 29.5504
#
#
#
# Elastic Compliance Matrix: (Units=1/GPa)
#
#
# Indices 1 2 3 4 5 6 
#
# 1 0.048827 -0.006736 -0.007825 0.000000 0.000000 0.000000
# 2 -0.006736 0.007937 -0.003225 0.000000 0.000000 0.000000
# 3 -0.007825 -0.003225 0.009075 0.000000 0.000000 0.000000
# 4 0.000000 0.000000 0.000000 0.029137 0.000000 0.000000
# 5 0.000000 0.000000 0.000000 0.000000 0.038509 0.000000
# 6 0.000000 0.000000 0.000000 0.000000 0.000000 0.033840
#
#
# Mechanical properties :
#
#
# Convention : Reuss Voigt Hill
#
# Bulk Modulus (GPa) = 33.03882 96.99455 65.01669
# Shear Modulus (GPa) = 23.47573 33.22157 28.34865
#
# Velocity S-wave (km/s) = 3.56916 4.24587 3.92213
# Velocity P-wave (km/s) = 5.90876 8.75613 7.46938
#
# Compressibility (1/GPa) = 0.03026743
#
# Stress axis : x y z
#
# Youngs Moduli (GPa) = 20.48036 125.99944 110.19202
#
# Poissons Ratio (x) = 0.84870 0.86230
# Poissons Ratio (y) = 0.13795 0.35532
# Poissons Ratio (z) = 0.16027 0.40629
#
# Static dielectric constant tensor:
#      x y z
#    x 1.633890 0.000000 0.000000 
#    y 0.000000 1.616860 0.000000 
#    z 0.000000 0.000000 1.604640 
# 
# From -- ./inp_files/25550.got.cif
#   From: 2010.05.17/outbox.cif.g08.bks.cpg/sg59_13_cif.got.tgz:25550.got - 2010.06.03 14:40:33.
