data_PCOD9451663
_publ_section_title
;
Structure prediction by ZEFSAII (Michael W. Deem and Ramdas Pophale) SiO2 
 PCOD9451663
Probable space group: P M M N
;
_chemical_formula_sum "Si O2"
_cell_formula_units_Z 34
_cell_length_a 24.884381
_cell_length_b 14.039944
_cell_length_c 4.859554
_cell_angle_alpha 90.000000
_cell_angle_beta 90.000000
_cell_angle_gamma 90.000000
_cell_volume 1697.808213
_symmetry_space_group_name_H-M "P M M N"
_symmetry_group_IT_number 59
_space_group.IT_coordinate_system_code '2'
_symmetry_cell_setting 'orthorhombic'
loop_
_space_group_symop_operation_xyz
x,y,z
1/2-x,1/2-y,z
1/2+x,-y,-z
-x,1/2+y,-z
-x,-y,-z
1/2+x,1/2+y,-z
1/2-x,y,z
x,1/2-y,z
loop_
_atom_site_type_symbol
_atom_site_label
_atom_site_fract_x
_atom_site_fract_y
_atom_site_fract_z
Si Si1 0.690959 0.940340 0.723493
Si Si2 0.621972 0.515019 0.238735
Si Si3 0.956711 0.137249 0.001577
Si Si4 0.527262 0.862583 0.501182
Si Si5 0.250000 0.250000 0.411236
O O1 0.750000 0.977599 0.808685
O O2 0.664283 0.002147 0.483428
O O3 0.704046 0.835074 0.605241
O O4 0.653026 0.934628 0.987909
O O5 0.592528 0.424296 0.107875
O O6 0.576685 0.579769 0.381956
O O7 0.946835 0.250000 0.034400
O O8 0.008678 0.113388 0.191302
O O9 0.975228 0.118542 0.690916
O O10 0.538625 0.750000 0.485181
#
# Coordination Sequence:
#
# PCOD9451663 Si02
#       5
#     8   8   8   8   2
#     4  10  24  37  58  81 113 140 181 230 277 334
#     4  12  21  36  61  81 110 152 189 218 275 334
#     4  10  21  38  53  82 116 149 183 229 270 316
#     4  10  21  32  55  83 116 145 184 225 270 329
#     4   8  24  42  56  82 122 134 180 230 292 322
#
# _framework density 20.025818000000001
#
# number of rings (size 3 to 8) (size 9 to 14) (size 15 to 20)
#    0.706    0.941    0.000    4.941    3.294    0.941 
#    0.000    0.000    0.000    4.235    0.000    0.000 
#    0.000    0.000    0.000    0.000    0.000    0.000 
#
# Total GULP energy -189368.685077 kJ/mol
# GULP energy per Si atom -5569.667208 kJ/mol
# Density = 1.998024 g / cm^3
# Si number density = 20.025818 Si / 1000 Ang^3
#
#
#
# Elastic Constant Matrix: (Units=GPa)
#
#
# Indices 1 2 3 4 5 6 
#
# 1 77.4904 19.6930 0.2176 0.0000 0.0000 0.0000
# 2 19.6930 38.3137 -12.6633 0.0000 0.0000 0.0000
# 3 0.2176 -12.6633 59.3837 0.0000 0.0000 0.0000
# 4 0.0000 0.0000 0.0000 13.7376 0.0000 0.0000
# 5 0.0000 0.0000 0.0000 0.0000 13.3128 0.0000
# 6 0.0000 0.0000 0.0000 0.0000 0.0000 15.7153
#
#
#
# Elastic Compliance Matrix: (Units=1/GPa)
#
#
# Indices 1 2 3 4 5 6 
#
# 1 0.015027 -0.008329 -0.001831 0.000000 0.000000 0.000000
# 2 -0.008329 0.032696 0.007003 0.000000 0.000000 0.000000
# 3 -0.001831 0.007003 0.018340 0.000000 0.000000 0.000000
# 4 0.000000 0.000000 0.000000 0.072793 0.000000 0.000000
# 5 0.000000 0.000000 0.000000 0.000000 0.075115 0.000000
# 6 0.000000 0.000000 0.000000 0.000000 0.000000 0.063632
#
#
# Mechanical properties :
#
#
# Convention : Reuss Voigt Hill
#
# Bulk Modulus (GPa) = 16.73705 21.07582 18.90644
# Shear Modulus (GPa) = 16.45641 19.74918 18.10279
#
# Velocity S-wave (km/s) = 2.86974 3.14377 3.00988
# Velocity P-wave (km/s) = 4.39960 4.87082 4.64119
#
# Compressibility (1/GPa) = 0.05974767
#
# Stress axis : x y z
#
# Youngs Moduli (GPa) = 66.54871 30.58498 54.52664
#
# Poissons Ratio (x) = 0.25474 0.09985
# Poissons Ratio (y) = 0.55427 -0.38184
# Poissons Ratio (z) = 0.12186 -0.21418
#
# Static dielectric constant tensor:
#      x y z
#    x 1.741540 0.000000 0.000000 
#    y 0.000000 1.693850 0.000000 
#    z 0.000000 0.000000 1.725750 
# 
# From -- ./inp_files/1993.got.cif
#   From: 2010.05.17/outbox.cif.g08.bks.cpg/sg59_1_cif.got.tgz:1993.got - 2010.06.03 14:40:33.
