data_PCOD9451095
_publ_section_title
;
Structure prediction by ZEFSAII (Michael W. Deem and Ramdas Pophale) SiO2 
 PCOD9451095
Probable space group: P M M N
;
_chemical_formula_sum "Si O2"
_cell_formula_units_Z 40
_cell_length_a 8.811344
_cell_length_b 10.864998
_cell_length_c 19.568609
_cell_angle_alpha 90.000000
_cell_angle_beta 90.000000
_cell_angle_gamma 90.000000
_cell_volume 1873.405380
_symmetry_space_group_name_H-M "P M M N"
_symmetry_group_IT_number 59
_space_group.IT_coordinate_system_code '2'
_symmetry_cell_setting 'orthorhombic'
loop_
_space_group_symop_operation_xyz
x,y,z
1/2-x,1/2-y,z
1/2+x,-y,-z
-x,1/2+y,-z
-x,-y,-z
1/2+x,1/2+y,-z
1/2-x,y,z
x,1/2-y,z
loop_
_atom_site_type_symbol
_atom_site_label
_atom_site_fract_x
_atom_site_fract_y
_atom_site_fract_z
Si Si1 0.567580 0.392794 0.452101
Si Si2 0.080876 0.104288 0.795720
Si Si3 0.432873 0.750000 0.793372
Si Si4 0.929157 0.547524 0.695236
Si Si5 0.935564 0.250000 0.050739
Si Si6 0.079184 0.602027 0.068255
O O1 0.500000 0.500000 0.500000
O O2 0.750000 0.398624 0.454511
O O3 0.523844 0.250000 0.469217
O O4 0.509361 0.422392 0.375907
O O5 0.250000 0.053707 0.783107
O O6 0.094792 0.250000 0.803143
O O7 0.019014 0.054348 0.868561
O O8 0.973851 0.080200 0.730785
O O9 0.250000 0.750000 0.790342
O O10 0.502531 0.863168 0.752469
O O11 0.483264 0.750000 0.871781
O O12 0.750000 0.562115 0.687424
O O13 0.750000 0.250000 0.049259
O O14 0.985184 0.127405 0.008550
O O15 0.250000 0.550451 0.067142
O O16 0.096157 0.750000 0.085337
#
# Coordination Sequence:
#
# PCOD9451095 Si02
#       6
#     8   8   4   8   4   8
#     4  11  25  47  76 107 142 182 222 272 333 398
#     4  10  20  35  58  88 122 163 213 271 331 385
#     4  11  21  39  63  89 124 165 214 267 325 387
#     4  12  25  41  64  94 129 172 216 261 320 388
#     4   7  14  29  55  83 114 159 208 265 327 387
#     4   7  12  27  50  76 110 152 200 257 319 377
#
# _framework density 21.351492
#
# number of rings (size 3 to 8) (size 9 to 14) (size 15 to 20)
#    0.600    1.600    1.000    3.300    0.000    3.200 
#    0.000    3.000    0.000    0.000    0.000    0.000 
#    0.000    0.000    0.000    0.000    0.000    0.000 
#
# Total GULP energy -222993.775181 kJ/mol
# GULP energy per Si atom -5574.844380 kJ/mol
# Density = 2.130290 g / cm^3
# Si number density = 21.351492 Si / 1000 Ang^3
#
#
#
# Elastic Constant Matrix: (Units=GPa)
#
#
# Indices 1 2 3 4 5 6 
#
# 1 93.5389 30.8331 45.7238 0.0000 0.0000 0.0000
# 2 30.8331 82.2595 72.9045 0.0000 0.0000 0.0000
# 3 45.7238 72.9045 156.6482 0.0000 0.0000 0.0000
# 4 0.0000 0.0000 0.0000 -253.4287 0.0000 0.0000
# 5 0.0000 0.0000 0.0000 0.0000 36.2216 0.0000
# 6 0.0000 0.0000 0.0000 0.0000 0.0000 26.4554
#
#
#
# Elastic Compliance Matrix: (Units=1/GPa)
#
#
# Indices 1 2 3 4 5 6 
#
# 1 0.012771 -0.002524 -0.002553 0.000000 0.000000 0.000000
# 2 -0.002524 0.021190 -0.009125 0.000000 0.000000 0.000000
# 3 -0.002553 -0.009125 0.011376 0.000000 0.000000 0.000000
# 4 0.000000 0.000000 0.000000 -0.003946 0.000000 0.000000
# 5 0.000000 0.000000 0.000000 0.000000 0.027608 0.000000
# 6 0.000000 0.000000 0.000000 0.000000 0.000000 0.037799
#
#
# Mechanical properties :
#
#
# Convention : Reuss Voigt Hill
#
# Bulk Modulus (GPa) = 59.05945 70.15216 64.60580
# Shear Modulus (GPa) = 35.49958 -25.95134 4.77412
#
# Velocity S-wave (km/s) = 4.08196 -3.49009 1.49694
# Velocity P-wave (km/s) = 7.06662 4.08488 5.77163
#
# Compressibility (1/GPa) = 0.01693209
#
# Stress axis : x y z
#
# Youngs Moduli (GPa) = 78.30428 47.19148 87.90633
#
# Poissons Ratio (x) = 0.11913 0.22441
# Poissons Ratio (y) = 0.19767 0.80216
# Poissons Ratio (z) = 0.19989 0.43063
#
# Static dielectric constant tensor:
#      x y z
#    x 1.765700 0.000000 0.000000 
#    y 0.000000 2.173670 0.000000 
#    z 0.000000 0.000000 1.775920 
# 
# From -- ./inp_files/28751.got.cif
#   From: 2010.05.17/outbox.cif.g08.bks.cpg/sg59_15_cif.got.tgz:28751.got - 2010.06.03 14:40:33.
