data_PCOD9451512
_publ_section_title
;
Structure prediction by ZEFSAII (Michael W. Deem and Ramdas Pophale) SiO2 
 PCOD9451512
Probable space group: P M M N
;
_chemical_formula_sum "Si O2"
_cell_formula_units_Z 40
_cell_length_a 8.349990
_cell_length_b 20.922672
_cell_length_c 11.879484
_cell_angle_alpha 90.000000
_cell_angle_beta 90.000000
_cell_angle_gamma 90.000000
_cell_volume 2075.394584
_symmetry_space_group_name_H-M "P M M N"
_symmetry_group_IT_number 59
_space_group.IT_coordinate_system_code '2'
_symmetry_cell_setting 'orthorhombic'
loop_
_space_group_symop_operation_xyz
x,y,z
1/2-x,1/2-y,z
1/2+x,-y,-z
-x,1/2+y,-z
-x,-y,-z
1/2+x,1/2+y,-z
1/2-x,y,z
x,1/2-y,z
loop_
_atom_site_type_symbol
_atom_site_label
_atom_site_fract_x
_atom_site_fract_y
_atom_site_fract_z
Si Si1 0.056736 0.250000 0.368744
Si Si2 0.055855 0.073882 0.998161
Si Si3 0.562040 0.250000 0.625410
Si Si4 0.555136 0.876671 0.761027
Si Si5 0.557646 0.495613 0.627100
Si Si6 0.059896 0.127215 0.759424
O O1 0.250000 0.250000 0.362575
O O2 0.998427 0.186783 0.302910
O O3 0.014709 0.250000 0.500744
O O4 0.250000 0.072478 0.997336
O O5 0.002887 0.110969 0.110746
O O6 0.001447 0.110294 0.885393
O O7 0.000000 0.000000 0.000000
O O8 0.750000 0.250000 0.607402
O O9 0.514129 0.311982 0.697641
O O10 0.750000 0.873626 0.762862
O O11 0.510994 0.939643 0.691272
O O12 0.500000 0.500000 0.500000
O O13 0.750000 0.489266 0.632398
O O14 0.478589 0.435180 0.686407
O O15 0.250000 0.137555 0.764887
#
# Coordination Sequence:
#
# PCOD9451512 Si02
#       6
#     4   8   4   8   8   8
#     4  10  20  39  64  88 120 159 201 252 305 366
#     4  10  20  37  61  90 122 158 201 251 304 360
#     4  12  26  43  62  86 122 163 201 252 309 368
#     4   9  19  35  59  88 118 156 198 245 302 356
#     4  11  21  35  57  86 122 159 206 257 304 361
#     4  11  23  39  62  90 120 159 204 252 306 368
#
# _framework density 19.273441999999999
#
# number of rings (size 3 to 8) (size 9 to 14) (size 15 to 20)
#    0.000    1.600    2.000    3.300    0.000    3.200 
#    0.000    5.000    0.000    1.200    0.000    0.000 
#    0.000    0.000    0.000    0.000    0.000    0.000 
#
# Total GULP energy -223470.198918 kJ/mol
# GULP energy per Si atom -5586.754973 kJ/mol
# Density = 1.922958 g / cm^3
# Si number density = 19.273442 Si / 1000 Ang^3
#
#
#
# Elastic Constant Matrix: (Units=GPa)
#
#
# Indices 1 2 3 4 5 6 
#
# 1 13.1696 3.2619 0.6148 0.0000 0.0000 0.0000
# 2 3.2619 161.7743 88.0333 0.0000 0.0000 0.0000
# 3 0.6148 88.0333 199.3256 0.0000 0.0000 0.0000
# 4 0.0000 0.0000 0.0000 43.6774 0.0000 0.0000
# 5 0.0000 0.0000 0.0000 0.0000 18.6504 0.0000
# 6 0.0000 0.0000 0.0000 0.0000 0.0000 16.1868
#
#
#
# Elastic Compliance Matrix: (Units=1/GPa)
#
#
# Indices 1 2 3 4 5 6 
#
# 1 0.076366 -0.001858 0.000585 0.000000 0.000000 0.000000
# 2 -0.001858 0.008182 -0.003608 0.000000 0.000000 0.000000
# 3 0.000585 -0.003608 0.006609 0.000000 0.000000 0.000000
# 4 0.000000 0.000000 0.000000 0.022895 0.000000 0.000000
# 5 0.000000 0.000000 0.000000 0.000000 0.053618 0.000000
# 6 0.000000 0.000000 0.000000 0.000000 0.000000 0.061779
#
#
# Mechanical properties :
#
#
# Convention : Reuss Voigt Hill
#
# Bulk Modulus (GPa) = 12.28587 62.00995 37.14791
# Shear Modulus (GPa) = 18.77286 34.52691 26.64988
#
# Velocity S-wave (km/s) = 3.12433 4.23711 3.72254
# Velocity P-wave (km/s) = 4.40495 7.49541 6.14755
#
# Compressibility (1/GPa) = 0.08139430
#
# Stress axis : x y z
#
# Youngs Moduli (GPa) = 13.09491 122.21477 151.31748
#
# Poissons Ratio (x) = 0.22710 -0.08855
# Poissons Ratio (y) = 0.02433 0.54596
# Poissons Ratio (z) = -0.00766 0.44096
#
# Static dielectric constant tensor:
#      x y z
#    x 1.675540 0.000000 0.000000 
#    y 0.000000 1.636550 0.000000 
#    z 0.000000 0.000000 1.661280 
# 
# From -- ./inp_files/14129.got.cif
#   From: 2010.05.17/outbox.cif.g08.bks.cpg/sg59_8_cif.got.tgz:14129.got - 2010.06.03 14:40:33.
