data_PCOD9451947
_publ_section_title
;
Structure prediction by ZEFSAII (Michael W. Deem and Ramdas Pophale) SiO2 
 PCOD9451947
Probable space group: P M M N
;
_chemical_formula_sum "Si O2"
_cell_formula_units_Z 56
_cell_length_a 7.904517
_cell_length_b 23.474230
_cell_length_c 14.394122
_cell_angle_alpha 90.000000
_cell_angle_beta 90.000000
_cell_angle_gamma 90.000000
_cell_volume 2670.864604
_symmetry_space_group_name_H-M "P M M N"
_symmetry_group_IT_number 59
_space_group.IT_coordinate_system_code '2'
_symmetry_cell_setting 'orthorhombic'
loop_
_space_group_symop_operation_xyz
x,y,z
1/2-x,1/2-y,z
1/2+x,-y,-z
-x,1/2+y,-z
-x,-y,-z
1/2+x,1/2+y,-z
1/2-x,y,z
x,1/2-y,z
loop_
_atom_site_type_symbol
_atom_site_label
_atom_site_fract_x
_atom_site_fract_y
_atom_site_fract_z
Si Si1 0.453728 0.120854 0.193959
Si Si2 0.453577 0.464510 0.355635
Si Si3 0.545455 0.922797 0.442543
Si Si4 0.551515 0.351710 0.847450
Si Si5 0.956169 0.250000 0.978078
Si Si6 0.551978 0.686617 0.350320
Si Si7 0.047832 0.434020 0.998513
Si Si8 0.047735 0.750000 0.812337
O O1 0.250000 0.117678 0.191441
O O2 0.514695 0.074442 0.270322
O O3 0.514432 0.100884 0.090693
O O4 0.496539 0.186389 0.221886
O O5 0.250000 0.460845 0.354363
O O6 0.515816 0.441305 0.455634
O O7 0.498114 0.531211 0.363486
O O8 0.750000 0.921633 0.445630
O O9 0.477508 0.860517 0.418315
O O10 0.750000 0.342632 0.829719
O O11 0.489737 0.304602 0.920705
O O12 0.460261 0.340646 0.751474
O O13 0.524848 0.409490 0.902624
O O14 0.750000 0.250000 0.982453
O O15 0.020259 0.250000 0.082020
O O16 0.750000 0.691865 0.373533
O O17 0.477140 0.750000 0.350636
O O18 0.250000 0.428275 0.996501
O O19 0.000000 0.500000 0.000000
O O20 0.250000 0.750000 0.811285
#
# Coordination Sequence:
#
# PCOD9451947 Si02
#       8
#     8   8   8   8   4   8   8   4
#     4  10  22  39  58  84 115 149 190 233 281 339
#     4   9  19  38  61  85 111 145 188 233 285 343
#     4   9  19  37  60  85 111 145 187 235 289 341
#     4  11  21  37  57  79 109 148 191 230 273 330
#     4   9  18  33  53  76 103 140 184 223 265 317
#     4  10  21  36  54  83 118 150 189 235 285 342
#     4  11  24  39  55  82 117 152 189 233 283 332
#     4  11  21  37  59  82 111 150 192 235 281 331
#
# _framework density 20.966992000000001
#
# number of rings (size 3 to 8) (size 9 to 14) (size 15 to 20)
#    0.000    2.000    2.143    1.071    2.000    1.714 
#    1.286    0.000    0.000    0.000    0.000    0.000 
#    0.000    0.000    0.000    0.000    0.000    0.000 
#
# Total GULP energy -312370.175430 kJ/mol
# GULP energy per Si atom -5578.038847 kJ/mol
# Density = 2.091927 g / cm^3
# Si number density = 20.966992 Si / 1000 Ang^3
#
#
#
# Elastic Constant Matrix: (Units=GPa)
#
#
# Indices 1 2 3 4 5 6 
#
# 1 27.0018 -2.1942 1.6271 0.0000 0.0000 0.0000
# 2 -2.1942 140.5788 32.1703 0.0000 0.0000 0.0000
# 3 1.6271 32.1703 47.9450 0.0000 0.0000 0.0000
# 4 0.0000 0.0000 0.0000 32.2240 0.0000 0.0000
# 5 0.0000 0.0000 0.0000 0.0000 8.2647 0.0000
# 6 0.0000 0.0000 0.0000 0.0000 0.0000 22.1075
#
#
#
# Elastic Compliance Matrix: (Units=1/GPa)
#
#
# Indices 1 2 3 4 5 6 
#
# 1 0.037236 0.001028 -0.001954 0.000000 0.000000 0.000000
# 2 0.001028 0.008432 -0.005693 0.000000 0.000000 0.000000
# 3 -0.001954 -0.005693 0.024743 0.000000 0.000000 0.000000
# 4 0.000000 0.000000 0.000000 0.031033 0.000000 0.000000
# 5 0.000000 0.000000 0.000000 0.000000 0.120997 0.000000
# 6 0.000000 0.000000 0.000000 0.000000 0.000000 0.045234
#
#
# Mechanical properties :
#
#
# Convention : Reuss Voigt Hill
#
# Bulk Modulus (GPa) = 17.49013 30.97021 24.23017
# Shear Modulus (GPa) = 16.66837 24.78072 20.72454
#
# Velocity S-wave (km/s) = 2.82260 3.44160 3.14735
# Velocity P-wave (km/s) = 4.35690 5.53134 4.97887
#
# Compressibility (1/GPa) = 0.05717512
#
# Stress axis : x y z
#
# Youngs Moduli (GPa) = 26.85586 118.59232 40.41497
#
# Poissons Ratio (x) = -0.12194 0.07895
# Poissons Ratio (y) = -0.02761 0.23007
# Poissons Ratio (z) = 0.05247 0.67512
#
# Static dielectric constant tensor:
#      x y z
#    x 1.758420 0.000000 0.000000 
#    y 0.000000 1.791080 0.000000 
#    z 0.000000 0.000000 1.754770 
# 
# From -- ./inp_files/21093.got.cif
#   From: 2010.05.17/outbox.cif.g08.bks.cpg/sg59_11_cif.got.tgz:21093.got - 2010.06.03 14:40:33.
