data_PCOD9451891
_publ_section_title
;
Structure prediction by ZEFSAII (Michael W. Deem and Ramdas Pophale) SiO2 
 PCOD9451891
Probable space group: P M M N
;
_chemical_formula_sum "Si O2"
_cell_formula_units_Z 48
_cell_length_a 8.143821
_cell_length_b 9.679653
_cell_length_c 31.776285
_cell_angle_alpha 90.000000
_cell_angle_beta 90.000000
_cell_angle_gamma 90.000000
_cell_volume 2504.904253
_symmetry_space_group_name_H-M "P M M N"
_symmetry_group_IT_number 59
_space_group.IT_coordinate_system_code '2'
_symmetry_cell_setting 'orthorhombic'
loop_
_space_group_symop_operation_xyz
x,y,z
1/2-x,1/2-y,z
1/2+x,-y,-z
-x,1/2+y,-z
-x,-y,-z
1/2+x,1/2+y,-z
1/2-x,y,z
x,1/2-y,z
loop_
_atom_site_type_symbol
_atom_site_label
_atom_site_fract_x
_atom_site_fract_y
_atom_site_fract_z
Si Si1 0.552377 0.591583 0.368914
Si Si2 0.054470 0.406806 0.039158
Si Si3 0.049787 0.091793 0.787968
Si Si4 0.048715 0.591277 0.709714
Si Si5 0.554011 0.092255 0.538956
Si Si6 0.448336 0.408077 0.883496
O O1 0.750000 0.595978 0.366483
O O2 0.491810 0.750000 0.364264
O O3 0.494239 0.494132 0.331258
O O4 0.505822 0.541328 0.415463
O O5 0.250000 0.398283 0.037494
O O6 0.987640 0.250000 0.037020
O O7 0.006143 0.484165 0.081985
O O8 0.000000 0.500000 0.000000
O O9 0.250000 0.089930 0.787931
O O10 0.001235 0.250000 0.778412
O O11 0.997870 0.058891 0.835719
O O12 0.994734 0.987296 0.752002
O O13 0.250000 0.590505 0.709713
O O14 0.996048 0.750000 0.708630
O O15 0.750000 0.095921 0.539831
O O16 0.491652 0.250000 0.534104
O O17 0.500000 0.000000 0.500000
O O18 0.250000 0.407752 0.883762
O O19 0.501193 0.250000 0.893277
#
# Coordination Sequence:
#
# PCOD9451891 Si02
#       6
#     8   8   8   8   8   8
#     4   9  17  30  48  69  96 131 167 203 247 297
#     4  11  24  39  55  77 104 134 170 211 255 305
#     4   8  14  26  45  70 101 134 165 200 244 293
#     4   9  16  25  41  69 101 130 164 206 247 288
#     4  10  21  36  54  76 101 130 166 208 253 303
#     4   9  18  33  54  80 107 135 171 213 254 299
#
# _framework density 19.162409
#
# number of rings (size 3 to 8) (size 9 to 14) (size 15 to 20)
#    0.000    2.667    0.000    3.000    0.000    8.000 
#    0.000    3.333    0.000    1.000    0.000    2.333 
#    0.000    0.000    0.000    0.000    0.000    0.000 
#
# Total GULP energy -267814.696252 kJ/mol
# GULP energy per Si atom -5579.472839 kJ/mol
# Density = 1.911879 g / cm^3
# Si number density = 19.162409 Si / 1000 Ang^3
#
#
#
# Elastic Constant Matrix: (Units=GPa)
#
#
# Indices 1 2 3 4 5 6 
#
# 1 13.1679 14.9800 14.2669 0.0000 0.0000 0.0000
# 2 14.9800 152.8797 137.1864 0.0000 0.0000 0.0000
# 3 14.2669 137.1864 191.5516 0.0000 0.0000 0.0000
# 4 0.0000 0.0000 0.0000 38.1840 0.0000 0.0000
# 5 0.0000 0.0000 0.0000 0.0000 20.4553 0.0000
# 6 0.0000 0.0000 0.0000 0.0000 0.0000 15.4291
#
#
#
# Elastic Compliance Matrix: (Units=1/GPa)
#
#
# Indices 1 2 3 4 5 6 
#
# 1 0.085542 -0.007457 -0.001031 0.000000 0.000000 0.000000
# 2 -0.007457 0.018955 -0.013020 0.000000 0.000000 0.000000
# 3 -0.001031 -0.013020 0.014622 0.000000 0.000000 0.000000
# 4 0.000000 0.000000 0.000000 0.026189 0.000000 0.000000
# 5 0.000000 0.000000 0.000000 0.000000 0.048887 0.000000
# 6 0.000000 0.000000 0.000000 0.000000 0.000000 0.064813
#
#
# Mechanical properties :
#
#
# Convention : Reuss Voigt Hill
#
# Bulk Modulus (GPa) = 13.13996 76.71842 44.92919
# Shear Modulus (GPa) = 15.27224 27.55810 21.41517
#
# Velocity S-wave (km/s) = 2.82616 3.79639 3.34662
# Velocity P-wave (km/s) = 4.18589 7.70322 6.19924
#
# Compressibility (1/GPa) = 0.07610372
#
# Stress axis : x y z
#
# Youngs Moduli (GPa) = 11.69019 52.75546 68.38955
#
# Poissons Ratio (x) = 0.39340 0.07048
# Poissons Ratio (y) = 0.08717 0.89044
# Poissons Ratio (z) = 0.01205 0.68688
#
# Static dielectric constant tensor:
#      x y z
#    x 1.686520 0.000000 0.000000 
#    y 0.000000 1.669290 0.000000 
#    z 0.000000 0.000000 1.647560 
# 
# From -- ./inp_files/32773.got.cif
#   From: 2010.05.17/outbox.cif.g08.bks.cpg/sg59_17_cif.got.tgz:32773.got - 2010.06.03 14:40:33.
