data_PCOD9451741
_publ_section_title
;
Structure prediction by ZEFSAII (Michael W. Deem and Ramdas Pophale) SiO2 
 PCOD9451741
Probable space group: P M M N
;
_chemical_formula_sum "Si O2"
_cell_formula_units_Z 64
_cell_length_a 7.950624
_cell_length_b 15.463758
_cell_length_c 25.342550
_cell_angle_alpha 90.000000
_cell_angle_beta 90.000000
_cell_angle_gamma 90.000000
_cell_volume 3115.778469
_symmetry_space_group_name_H-M "P M M N"
_symmetry_group_IT_number 59
_space_group.IT_coordinate_system_code '2'
_symmetry_cell_setting 'orthorhombic'
loop_
_space_group_symop_operation_xyz
x,y,z
1/2-x,1/2-y,z
1/2+x,-y,-z
-x,1/2+y,-z
-x,-y,-z
1/2+x,1/2+y,-z
1/2-x,y,z
x,1/2-y,z
loop_
_atom_site_type_symbol
_atom_site_label
_atom_site_fract_x
_atom_site_fract_y
_atom_site_fract_z
Si Si1 0.548738 0.402396 0.385025
Si Si2 0.546105 0.500805 0.920109
Si Si3 0.950129 0.898235 0.501515
Si Si4 0.049090 0.504112 0.199743
Si Si5 0.546469 0.602562 0.387914
Si Si6 0.546298 0.344646 0.270817
Si Si7 0.951865 0.157166 0.727417
Si Si8 0.452201 0.649207 0.999992
O O1 0.750000 0.404083 0.382258
O O2 0.507282 0.362791 0.442054
O O3 0.490160 0.502234 0.384747
O O4 0.487186 0.359515 0.331182
O O5 0.750000 0.499524 0.920738
O O6 0.484463 0.497602 0.859944
O O7 0.493620 0.589939 0.948967
O O8 0.488850 0.415181 0.952626
O O9 0.750000 0.892598 0.501215
O O10 0.011195 0.862043 0.445027
O O11 0.000000 0.000000 0.500000
O O12 0.250000 0.516257 0.195638
O O13 0.978976 0.580261 0.236825
O O14 0.016708 0.416946 0.231532
O O15 0.750000 0.604136 0.388010
O O16 0.489312 0.646220 0.334376
O O17 0.750000 0.348429 0.271673
O O18 0.493759 0.250000 0.253148
O O19 0.750000 0.156112 0.732372
O O20 0.015890 0.250000 0.745520
O O21 0.250000 0.654360 0.003935
O O22 0.513324 0.750000 0.999787
#
# Coordination Sequence:
#
# PCOD9451741 Si02
#       8
#     8   8   8   8   8   8   8   8
#     4   9  17  31  50  73 100 130 168 214 265 320
#     4   9  19  35  55  81 112 146 181 218 265 312
#     4   9  17  28  46  73 100 129 167 211 263 323
#     4  10  21  37  56  79 109 143 179 222 266 311
#     4   9  17  31  50  72  99 133 169 210 262 321
#     4  10  21  37  56  77 104 140 180 222 269 320
#     4  10  21  35  52  76 103 134 175 220 265 313
#     4   9  18  34  57  84 113 146 183 220 259 306
#
# _framework density 20.540613
#
# number of rings (size 3 to 8) (size 9 to 14) (size 15 to 20)
#    0.000    2.625    1.250    1.125    0.000    5.250 
#    0.000    5.625    0.000    2.250    0.000    3.500 
#    0.000    0.000    0.000    0.000    0.000    0.000 
#
# Total GULP energy -356787.411215 kJ/mol
# GULP energy per Si atom -5574.803300 kJ/mol
# Density = 2.049386 g / cm^3
# Si number density = 20.540613 Si / 1000 Ang^3
#
#
#
# Elastic Constant Matrix: (Units=GPa)
#
#
# Indices 1 2 3 4 5 6 
#
# 1 8.8392 5.7582 3.9805 0.0000 0.0000 0.0000
# 2 5.7582 150.0739 88.3728 0.0000 0.0000 0.0000
# 3 3.9805 88.3728 186.9477 0.0000 0.0000 0.0000
# 4 0.0000 0.0000 0.0000 -92.5031 0.0000 0.0000
# 5 0.0000 0.0000 0.0000 0.0000 25.0780 0.0000
# 6 0.0000 0.0000 0.0000 0.0000 0.0000 13.1192
#
#
#
# Elastic Compliance Matrix: (Units=1/GPa)
#
#
# Indices 1 2 3 4 5 6 
#
# 1 0.116067 -0.004155 -0.000507 0.000000 0.000000 0.000000
# 2 -0.004155 0.009382 -0.004347 0.000000 0.000000 0.000000
# 3 -0.000507 -0.004347 0.007415 0.000000 0.000000 0.000000
# 4 0.000000 0.000000 0.000000 -0.010810 0.000000 0.000000
# 5 0.000000 0.000000 0.000000 0.000000 0.039876 0.000000
# 6 0.000000 0.000000 0.000000 0.000000 0.000000 0.076224
#
#
# Mechanical properties :
#
#
# Convention : Reuss Voigt Hill
#
# Bulk Modulus (GPa) = 8.70725 60.23153 34.46939
# Shear Modulus (GPa) = 16.98065 5.65546 11.31805
#
# Velocity S-wave (km/s) = 2.87834 1.66111 2.34990
# Velocity P-wave (km/s) = 3.91084 5.75029 4.91734
#
# Compressibility (1/GPa) = 0.11484677
#
# Stress axis : x y z
#
# Youngs Moduli (GPa) = 8.61571 106.58236 134.86803
#
# Poissons Ratio (x) = 0.44280 0.06843
# Poissons Ratio (y) = 0.03579 0.58624
# Poissons Ratio (z) = 0.00437 0.46329
#
# Static dielectric constant tensor:
#      x y z
#    x 1.743470 0.000000 0.000000 
#    y 0.000000 1.746270 0.000000 
#    z 0.000000 0.000000 1.740570 
# 
# From -- ./inp_files/31622.got.cif
#   From: 2010.05.17/outbox.cif.g08.bks.cpg/sg59_16_cif.got.tgz:31622.got - 2010.06.03 14:40:33.
