data_PCOD9451346
_publ_section_title
;
Structure prediction by ZEFSAII (Michael W. Deem and Ramdas Pophale) SiO2 
 PCOD9451346
Probable space group: P M M N
;
_chemical_formula_sum "Si O2"
_cell_formula_units_Z 64
_cell_length_a 29.032314
_cell_length_b 9.010674
_cell_length_c 12.646177
_cell_angle_alpha 90.000000
_cell_angle_beta 90.000000
_cell_angle_gamma 90.000000
_cell_volume 3308.248969
_symmetry_space_group_name_H-M "P M M N"
_symmetry_group_IT_number 59
_space_group.IT_coordinate_system_code '2'
_symmetry_cell_setting 'orthorhombic'
loop_
_space_group_symop_operation_xyz
x,y,z
1/2-x,1/2-y,z
1/2+x,-y,-z
-x,1/2+y,-z
-x,-y,-z
1/2+x,1/2+y,-z
1/2-x,y,z
x,1/2-y,z
loop_
_atom_site_type_symbol
_atom_site_label
_atom_site_fract_x
_atom_site_fract_y
_atom_site_fract_z
Si Si1 0.199250 0.073794 0.702755
Si Si2 0.071120 0.079581 0.505295
Si Si3 0.836155 0.075739 0.499275
Si Si4 0.196238 0.927669 0.065418
Si Si5 0.975887 0.570793 0.102000
Si Si6 0.486336 0.923016 0.331711
Si Si7 0.805318 0.920715 0.712523
Si Si8 0.131759 0.070778 0.889191
O O1 0.250000 0.048497 0.751255
O O2 0.194920 0.250000 0.682147
O O3 0.158375 0.029728 0.781416
O O4 0.195510 0.988299 0.593199
O O5 0.087313 0.250000 0.499242
O O6 0.032357 0.072408 0.596118
O O7 0.112284 0.970142 0.532364
O O8 0.049177 0.026399 0.394451
O O9 0.830380 0.250000 0.510505
O O10 0.826328 0.995617 0.609660
O O11 0.250000 0.969139 0.043882
O O12 0.193233 0.750000 0.063082
O O13 0.184237 0.988827 0.181452
O O14 0.161309 0.998659 0.982474
O O15 0.977487 0.750000 0.093721
O O16 0.001340 0.531988 0.212299
O O17 0.921902 0.527676 0.109123
O O18 0.000000 0.500000 0.000000
O O19 0.470656 0.750000 0.331638
O O20 0.750000 0.922231 0.700056
O O21 0.820277 0.750000 0.723054
O O22 0.133989 0.250000 0.898008
#
# Coordination Sequence:
#
# PCOD9451346 Si02
#       8
#     8   8   8   8   8   8   8   8
#     4  10  21  38  61  87 116 153 196 241 290 346
#     4  10  20  36  60  85 110 144 186 232 280 336
#     4  12  24  36  54  83 119 153 186 229 283 341
#     4  10  21  37  58  86 119 152 189 238 295 350
#     4  10  22  39  59  83 114 151 190 237 291 346
#     4   9  19  38  60  82 110 143 183 233 287 338
#     4  10  21  38  59  80 106 145 190 232 276 331
#     4  10  21  39  62  86 114 153 200 243 286 344
#
# _framework density 19.345582
#
# number of rings (size 3 to 8) (size 9 to 14) (size 15 to 20)
#    0.000    1.875    0.000    3.750    0.000    8.750 
#    0.000    3.750    0.000    0.000    0.000    0.000 
#    0.000    0.000    0.000    0.000    0.000    0.000 
#
# Total GULP energy -357540.214941 kJ/mol
# GULP energy per Si atom -5586.565858 kJ/mol
# Density = 1.930155 g / cm^3
# Si number density = 19.345582 Si / 1000 Ang^3
#
#
#
# Elastic Constant Matrix: (Units=GPa)
#
#
# Indices 1 2 3 4 5 6 
#
# 1 64.9915 17.2098 30.6917 0.0000 0.0000 0.0000
# 2 17.2098 26.2555 26.9150 0.0000 0.0000 0.0000
# 3 30.6917 26.9150 107.4619 0.0000 0.0000 0.0000
# 4 0.0000 0.0000 0.0000 9.1384 0.0000 0.0000
# 5 0.0000 0.0000 0.0000 0.0000 -74.3889 0.0000
# 6 0.0000 0.0000 0.0000 0.0000 0.0000 102.0600
#
#
#
# Elastic Compliance Matrix: (Units=1/GPa)
#
#
# Indices 1 2 3 4 5 6 
#
# 1 0.019388 -0.009461 -0.003168 0.000000 0.000000 0.000000
# 2 -0.009461 0.055861 -0.011289 0.000000 0.000000 0.000000
# 3 -0.003168 -0.011289 0.013038 0.000000 0.000000 0.000000
# 4 0.000000 0.000000 0.000000 0.109428 0.000000 0.000000
# 5 0.000000 0.000000 0.000000 0.000000 -0.013443 0.000000
# 6 0.000000 0.000000 0.000000 0.000000 0.000000 0.009798
#
#
# Mechanical properties :
#
#
# Convention : Reuss Voigt Hill
#
# Bulk Modulus (GPa) = 24.72086 38.70465 31.71276
# Shear Modulus (GPa) = 19.57792 15.62139 17.59966
#
# Velocity S-wave (km/s) = 3.18466 2.84472 3.01948
# Velocity P-wave (km/s) = 5.13118 5.55341 5.34647
#
# Compressibility (1/GPa) = 0.04045166
#
# Stress axis : x y z
#
# Youngs Moduli (GPa) = 51.57880 17.90145 76.70018
#
# Poissons Ratio (x) = 0.16937 0.24296
# Poissons Ratio (y) = 0.48799 0.86587
# Poissons Ratio (z) = 0.16338 0.20209
#
# Static dielectric constant tensor:
#      x y z
#    x 1.699770 0.000000 0.000000 
#    y 0.000000 1.647200 0.000000 
#    z 0.000000 0.000000 1.649310 
# 
# From -- ./inp_files/19309.got.cif
#   From: 2010.05.17/outbox.cif.g08.bks.cpg/sg59_10_cif.got.tgz:19309.got - 2010.06.03 14:40:33.
