data_PCOD9451868
_publ_section_title
;
Structure prediction by ZEFSAII (Michael W. Deem and Ramdas Pophale) SiO2 
 PCOD9451868
Probable space group: P M M N
;
_chemical_formula_sum "Si O2"
_cell_formula_units_Z 56
_cell_length_a 15.411732
_cell_length_b 7.628931
_cell_length_c 22.320518
_cell_angle_alpha 90.000000
_cell_angle_beta 90.000000
_cell_angle_gamma 90.000000
_cell_volume 2624.335797
_symmetry_space_group_name_H-M "P M M N"
_symmetry_group_IT_number 59
_space_group.IT_coordinate_system_code '2'
_symmetry_cell_setting 'orthorhombic'
loop_
_space_group_symop_operation_xyz
x,y,z
1/2-x,1/2-y,z
1/2+x,-y,-z
-x,1/2+y,-z
-x,-y,-z
1/2+x,1/2+y,-z
1/2-x,y,z
x,1/2-y,z
loop_
_atom_site_type_symbol
_atom_site_label
_atom_site_fract_x
_atom_site_fract_y
_atom_site_fract_z
Si Si1 0.655096 0.536051 0.690980
Si Si2 0.509738 0.453011 0.916150
Si Si3 0.153391 0.037797 0.698411
Si Si4 0.113316 0.453481 0.439322
Si Si5 0.492431 0.045939 0.220514
Si Si6 0.410746 0.463955 0.567745
Si Si7 0.650797 0.544515 0.007230
O O1 0.750000 0.494894 0.715028
O O2 0.646862 0.750000 0.687568
O O3 0.647702 0.469678 0.622682
O O4 0.579670 0.471221 0.734139
O O5 0.512744 0.250000 0.934004
O O6 0.506513 0.464898 0.844962
O O7 0.420734 0.528699 0.945381
O O8 0.597321 0.531344 0.944912
O O9 0.250000 0.981841 0.714423
O O10 0.150001 0.250000 0.699156
O O11 0.132082 0.983478 0.630157
O O12 0.082624 0.971287 0.744646
O O13 0.140258 0.250000 0.440253
O O14 0.133654 0.524090 0.505635
O O15 0.009038 0.466790 0.433418
O O16 0.472402 0.250000 0.211262
O O17 0.414129 0.250000 0.566107
O O18 0.750000 0.472786 0.006258
O O19 0.659935 0.750000 0.021527
#
# Coordination Sequence:
#
# PCOD9451868 Si02
#       7
#     8   8   8   8   8   8   8
#     4   9  18  32  51  75 102 136 180 227 273 323
#     4  10  21  37  59  88 119 151 186 225 273 320
#     4  10  21  36  53  75 105 142 183 230 285 337
#     4   9  16  29  50  74  98 130 173 223 278 336
#     4  11  22  37  56  79 111 149 189 228 270 323
#     4   9  17  29  49  74 100 130 170 223 283 338
#     4   9  19  38  63  89 117 149 184 223 268 320
#
# _framework density 21.338733000000001
#
# number of rings (size 3 to 8) (size 9 to 14) (size 15 to 20)
#    0.000    2.429    1.429    0.857    0.000    2.857 
#    0.000    5.714    0.000    3.429    0.000    4.000 
#    0.000    0.000    0.000    0.000    0.000    0.000 
#
# Total GULP energy -312393.735276 kJ/mol
# GULP energy per Si atom -5578.459559 kJ/mol
# Density = 2.129016 g / cm^3
# Si number density = 21.338733 Si / 1000 Ang^3
#
#
#
# Elastic Constant Matrix: (Units=GPa)
#
#
# Indices 1 2 3 4 5 6 
#
# 1 140.8655 -3.0911 56.7950 0.0000 0.0000 0.0000
# 2 -3.0911 45.8019 -4.3029 0.0000 0.0000 0.0000
# 3 56.7950 -4.3029 137.7687 0.0000 0.0000 0.0000
# 4 0.0000 0.0000 0.0000 34.1815 0.0000 0.0000
# 5 0.0000 0.0000 0.0000 0.0000 -47.4441 0.0000
# 6 0.0000 0.0000 0.0000 0.0000 0.0000 11.4640
#
#
#
# Elastic Compliance Matrix: (Units=1/GPa)
#
#
# Indices 1 2 3 4 5 6 
#
# 1 0.008517 0.000246 -0.003503 0.000000 0.000000 0.000000
# 2 0.000246 0.021904 0.000583 0.000000 0.000000 0.000000
# 3 -0.003503 0.000583 0.008721 0.000000 0.000000 0.000000
# 4 0.000000 0.000000 0.000000 0.029256 0.000000 0.000000
# 5 0.000000 0.000000 0.000000 0.000000 -0.021077 0.000000
# 6 0.000000 0.000000 0.000000 0.000000 0.000000 0.087229
#
#
# Mechanical properties :
#
#
# Convention : Reuss Voigt Hill
#
# Bulk Modulus (GPa) = 29.59223 47.02644 38.30934
# Shear Modulus (GPa) = 33.07666 17.97596 25.52631
#
# Velocity S-wave (km/s) = 3.94137 2.90558 3.46243
# Velocity P-wave (km/s) = 5.88307 5.77429 5.82893
#
# Compressibility (1/GPa) = 0.03379265
#
# Stress axis : x y z
#
# Youngs Moduli (GPa) = 117.41374 45.65273 114.66540
#
# Poissons Ratio (x) = -0.01122 0.40172
# Poissons Ratio (y) = -0.02884 -0.06683
# Poissons Ratio (z) = 0.41135 -0.02661
#
# Static dielectric constant tensor:
#      x y z
#    x 1.770150 0.000000 0.000000 
#    y 0.000000 1.845570 0.000000 
#    z 0.000000 0.000000 1.756800 
# 
# From -- ./inp_files/29084.got.cif
#   From: 2010.05.17/outbox.cif.g08.bks.cpg/sg59_15_cif.got.tgz:29084.got - 2010.06.03 14:40:33.
