data_PCOD9451938
_publ_section_title
;
Structure prediction by ZEFSAII (Michael W. Deem and Ramdas Pophale) SiO2 
 PCOD9451938
Probable space group: P M M N
;
_chemical_formula_sum "Si O2"
_cell_formula_units_Z 56
_cell_length_a 16.460075
_cell_length_b 7.946392
_cell_length_c 20.010091
_cell_angle_alpha 90.000000
_cell_angle_beta 90.000000
_cell_angle_gamma 90.000000
_cell_volume 2617.284051
_symmetry_space_group_name_H-M "P M M N"
_symmetry_group_IT_number 59
_space_group.IT_coordinate_system_code '2'
_symmetry_cell_setting 'orthorhombic'
loop_
_space_group_symop_operation_xyz
x,y,z
1/2-x,1/2-y,z
1/2+x,-y,-z
-x,1/2+y,-z
-x,-y,-z
1/2+x,1/2+y,-z
1/2-x,y,z
x,1/2-y,z
loop_
_atom_site_type_symbol
_atom_site_label
_atom_site_fract_x
_atom_site_fract_y
_atom_site_fract_z
Si Si1 0.344204 0.552033 0.920269
Si Si2 0.339475 0.454614 0.655299
Si Si3 0.161459 0.948416 0.349749
Si Si4 0.603568 0.943138 0.790645
Si Si5 0.926203 0.944322 0.212574
Si Si6 0.846747 0.950418 0.934501
Si Si7 0.000460 0.453380 0.577339
O O1 0.250000 0.493794 0.919339
O O2 0.345795 0.750000 0.905758
O O3 0.393187 0.462457 0.862026
O O4 0.376348 0.524691 0.995358
O O5 0.250000 0.517059 0.635917
O O6 0.337486 0.250000 0.649880
O O7 0.359293 0.493920 0.732658
O O8 0.416515 0.514347 0.612412
O O9 0.250000 0.020851 0.368137
O O10 0.163723 0.750000 0.365115
O O11 0.081556 0.018382 0.386631
O O12 0.147943 0.968179 0.270464
O O13 0.632301 0.750000 0.791717
O O14 0.617411 0.015586 0.864865
O O15 0.507728 0.951355 0.777774
O O16 0.948074 0.750000 0.226232
O O17 0.750000 0.979826 0.931172
O O18 0.861381 0.750000 0.937795
O O19 0.000454 0.250000 0.584008
O O20 0.000000 0.500000 0.500000
#
# Coordination Sequence:
#
# PCOD9451938 Si02
#       7
#     8   8   8   8   8   8   8
#     4  10  21  36  54  80 113 147 190 246 301 352
#     4   9  18  35  60  86 113 149 194 239 282 337
#     4  10  21  39  62  87 119 159 199 238 288 355
#     4  11  22  36  57  85 117 149 193 251 302 345
#     4  11  21  36  58  82 112 152 198 242 294 357
#     4   9  19  36  55  76 106 147 193 240 293 354
#     4  10  21  39  60  88 122 154 192 235 284 344
#
# _framework density 21.396224
#
# number of rings (size 3 to 8) (size 9 to 14) (size 15 to 20)
#    0.000    2.000    1.429    2.143    0.000    5.143 
#    0.000    1.429    0.000    1.714    0.000    0.000 
#    0.000    0.000    0.000    0.000    0.000    0.000 
#
# Total GULP energy -312732.040931 kJ/mol
# GULP energy per Si atom -5584.500731 kJ/mol
# Density = 2.134753 g / cm^3
# Si number density = 21.396224 Si / 1000 Ang^3
#
#
#
# Elastic Constant Matrix: (Units=GPa)
#
#
# Indices 1 2 3 4 5 6 
#
# 1 119.4784 16.8470 55.4299 0.0000 0.0000 0.0000
# 2 16.8470 17.3695 3.1233 0.0000 0.0000 0.0000
# 3 55.4299 3.1233 120.1234 0.0000 0.0000 0.0000
# 4 0.0000 0.0000 0.0000 27.6697 0.0000 0.0000
# 5 0.0000 0.0000 0.0000 0.0000 12.7099 0.0000
# 6 0.0000 0.0000 0.0000 0.0000 0.0000 10.2794
#
#
#
# Elastic Compliance Matrix: (Units=1/GPa)
#
#
# Indices 1 2 3 4 5 6 
#
# 1 0.012473 -0.011115 -0.005467 0.000000 0.000000 0.000000
# 2 -0.011115 0.067747 0.003367 0.000000 0.000000 0.000000
# 3 -0.005467 0.003367 0.010760 0.000000 0.000000 0.000000
# 4 0.000000 0.000000 0.000000 0.036141 0.000000 0.000000
# 5 0.000000 0.000000 0.000000 0.000000 0.078679 0.000000
# 6 0.000000 0.000000 0.000000 0.000000 0.000000 0.097282
#
#
# Mechanical properties :
#
#
# Convention : Reuss Voigt Hill
#
# Bulk Modulus (GPa) = 15.49139 45.30798 30.39968
# Shear Modulus (GPa) = 14.24388 22.23653 18.24021
#
# Velocity S-wave (km/s) = 2.58295 3.22727 2.92292
# Velocity P-wave (km/s) = 4.01889 5.92526 5.06262
#
# Compressibility (1/GPa) = 0.06455198
#
# Stress axis : x y z
#
# Youngs Moduli (GPa) = 80.17234 14.76070 92.93900
#
# Poissons Ratio (x) = 0.16407 0.50806
# Poissons Ratio (y) = 0.89112 -0.31297
# Poissons Ratio (z) = 0.43827 -0.04971
#
# Static dielectric constant tensor:
#      x y z
#    x 1.784380 0.000000 0.000000 
#    y 0.000000 1.755090 0.000000 
#    z 0.000000 0.000000 1.754950 
# 
# From -- ./inp_files/30300.got.cif
#   From: 2010.05.17/outbox.cif.g08.bks.cpg/sg59_16_cif.got.tgz:30300.got - 2010.06.03 14:40:33.
