data_PCOD9451013
_publ_section_title
;
Structure prediction by ZEFSAII (Michael W. Deem and Ramdas Pophale) SiO2 
 PCOD9451013
Probable space group: P M M N
;
_chemical_formula_sum "Si O2"
_cell_formula_units_Z 64
_cell_length_a 8.473136
_cell_length_b 15.110485
_cell_length_c 25.036529
_cell_angle_alpha 90.000000
_cell_angle_beta 90.000000
_cell_angle_gamma 90.000000
_cell_volume 3205.506785
_symmetry_space_group_name_H-M "P M M N"
_symmetry_group_IT_number 59
_space_group.IT_coordinate_system_code '2'
_symmetry_cell_setting 'orthorhombic'
loop_
_space_group_symop_operation_xyz
x,y,z
1/2-x,1/2-y,z
1/2+x,-y,-z
-x,1/2+y,-z
-x,-y,-z
1/2+x,1/2+y,-z
1/2-x,y,z
x,1/2-y,z
loop_
_atom_site_type_symbol
_atom_site_label
_atom_site_fract_x
_atom_site_fract_y
_atom_site_fract_z
Si Si1 0.437677 0.961295 0.875133
Si Si2 0.065136 0.593176 0.478625
Si Si3 0.939517 0.851535 0.971408
Si Si4 0.559638 0.973459 0.678408
Si Si5 0.563207 0.653937 0.584771
Si Si6 0.061857 0.150661 0.636237
Si Si7 0.559914 0.648567 0.776135
Si Si8 0.057885 0.348311 0.903663
O O1 0.250000 0.960959 0.867194
O O2 0.476731 0.920703 0.933045
O O3 0.514964 0.898114 0.831346
O O4 0.495052 0.063418 0.873173
O O5 0.250000 0.586230 0.467818
O O6 0.000000 0.500000 0.500000
O O7 0.028331 0.653789 0.529399
O O8 0.984211 0.626009 0.424602
O O9 0.750000 0.863121 0.967518
O O10 0.975090 0.750000 0.954798
O O11 0.983631 0.859403 0.033695
O O12 0.750000 0.972397 0.678619
O O13 0.508735 0.922639 0.624405
O O14 0.503205 0.915266 0.728332
O O15 0.503759 0.073915 0.674306
O O16 0.750000 0.640967 0.573306
O O17 0.548040 0.750000 0.611738
O O18 0.250000 0.150437 0.640218
O O19 0.003183 0.250000 0.647864
O O20 0.750000 0.652238 0.772414
O O21 0.501768 0.750000 0.772707
O O22 0.250000 0.347466 0.901626
O O23 0.004366 0.250000 0.886156
#
# Coordination Sequence:
#
# PCOD9451013 Si02
#       8
#     8   8   8   8   8   8   8   8
#     4  11  21  32  52  82 112 144 184 233 282 325
#     4  12  23  36  56  84 118 155 191 229 275 328
#     4   9  17  31  52  76 106 147 188 225 273 337
#     4  10  21  39  63  85 107 142 188 236 279 325
#     4  10  20  35  57  85 114 143 178 225 282 338
#     4  11  24  41  61  86 118 154 188 227 278 335
#     4  10  22  41  62  83 110 146 184 222 274 339
#     4   8  16  32  52  75 106 146 189 228 272 330
#
# _framework density 19.965641999999999
#
# number of rings (size 3 to 8) (size 9 to 14) (size 15 to 20)
#    0.000    1.875    1.250    4.125    0.000    6.750 
#    0.000    1.250    0.000    7.500    0.000    0.000 
#    0.000    0.000    0.000    0.000    0.000    0.000 
#
# Total GULP energy -357333.439275 kJ/mol
# GULP energy per Si atom -5583.334989 kJ/mol
# Density = 1.992020 g / cm^3
# Si number density = 19.965642 Si / 1000 Ang^3
#
#
#
# Elastic Constant Matrix: (Units=GPa)
#
#
# Indices 1 2 3 4 5 6 
#
# 1 13.4211 18.1575 5.8148 0.0000 0.0000 0.0000
# 2 18.1575 185.3002 50.5713 0.0000 0.0000 0.0000
# 3 5.8148 50.5713 50.3129 0.0000 0.0000 0.0000
# 4 0.0000 0.0000 0.0000 30.9351 0.0000 0.0000
# 5 0.0000 0.0000 0.0000 0.0000 16.5927 0.0000
# 6 0.0000 0.0000 0.0000 0.0000 0.0000 25.3381
#
#
#
# Elastic Compliance Matrix: (Units=1/GPa)
#
#
# Indices 1 2 3 4 5 6 
#
# 1 0.086047 -0.007879 -0.002025 0.000000 0.000000 0.000000
# 2 -0.007879 0.008158 -0.007289 0.000000 0.000000 0.000000
# 3 -0.002025 -0.007289 0.027436 0.000000 0.000000 0.000000
# 4 0.000000 0.000000 0.000000 0.032326 0.000000 0.000000
# 5 0.000000 0.000000 0.000000 0.000000 0.060268 0.000000
# 6 0.000000 0.000000 0.000000 0.000000 0.000000 0.039466
#
#
# Mechanical properties :
#
#
# Convention : Reuss Voigt Hill
#
# Bulk Modulus (GPa) = 11.46077 44.23570 27.84824
# Shear Modulus (GPa) = 15.76430 26.20589 20.98510
#
# Velocity S-wave (km/s) = 2.81298 3.62684 3.24552
# Velocity P-wave (km/s) = 4.03772 6.30418 5.29367
#
# Compressibility (1/GPa) = 0.08725415
#
# Stress axis : x y z
#
# Youngs Moduli (GPa) = 11.62161 122.57764 36.44780
#
# Poissons Ratio (x) = 0.96578 0.07381
# Poissons Ratio (y) = 0.09157 0.26568
# Poissons Ratio (z) = 0.02354 0.89352
#
# Static dielectric constant tensor:
#      x y z
#    x 1.667230 0.000000 0.000000 
#    y 0.000000 1.713400 0.000000 
#    z 0.000000 0.000000 1.714100 
# 
# From -- ./inp_files/31559.got.cif
#   From: 2010.05.17/outbox.cif.g08.bks.cpg/sg59_16_cif.got.tgz:31559.got - 2010.06.03 14:40:33.
