data_PCOD9451471
_publ_section_title
;
Structure prediction by ZEFSAII (Michael W. Deem and Ramdas Pophale) SiO2 
 PCOD9451471
Probable space group: P M M N
;
_chemical_formula_sum "Si O2"
_cell_formula_units_Z 64
_cell_length_a 18.834195
_cell_length_b 13.327177
_cell_length_c 14.279031
_cell_angle_alpha 90.000000
_cell_angle_beta 90.000000
_cell_angle_gamma 90.000000
_cell_volume 3584.131743
_symmetry_space_group_name_H-M "P M M N"
_symmetry_group_IT_number 59
_space_group.IT_coordinate_system_code '2'
_symmetry_cell_setting 'orthorhombic'
loop_
_space_group_symop_operation_xyz
x,y,z
1/2-x,1/2-y,z
1/2+x,-y,-z
-x,1/2+y,-z
-x,-y,-z
1/2+x,1/2+y,-z
1/2-x,y,z
x,1/2-y,z
loop_
_atom_site_type_symbol
_atom_site_label
_atom_site_fract_x
_atom_site_fract_y
_atom_site_fract_z
Si Si1 0.832345 0.028063 0.077451
Si Si2 0.438563 0.015419 0.382555
Si Si3 0.667378 0.988781 0.769247
Si Si4 0.453825 0.867196 0.229476
Si Si5 0.034604 0.868820 0.017996
Si Si6 0.118987 0.130765 0.048532
Si Si7 0.069974 0.632743 0.548122
Si Si8 0.166505 0.865488 0.730410
O O1 0.750000 0.056913 0.058528
O O2 0.847484 0.058622 0.184377
O O3 0.843714 0.914005 0.044083
O O4 0.892013 0.083734 0.015775
O O5 0.375217 0.057435 0.318788
O O6 0.490748 0.098581 0.422812
O O7 0.481067 0.941081 0.310717
O O8 0.410385 0.942099 0.463850
O O9 0.750000 0.997508 0.753457
O O10 0.628507 0.096891 0.778690
O O11 0.651837 0.923984 0.861598
O O12 0.461199 0.750000 0.250932
O O13 0.483885 0.889138 0.126643
O O14 0.043949 0.750000 0.011141
O O15 0.965100 0.895144 0.957843
O O16 0.126224 0.250000 0.054282
O O17 0.073031 0.750000 0.521225
O O18 0.119654 0.618176 0.638611
O O19 0.250000 0.872230 0.706951
O O20 0.153061 0.750000 0.763204
#
# Coordination Sequence:
#
# PCOD9451471 Si02
#       8
#     8   8   8   8   8   8   8   8
#     4  11  21  34  54  79 112 149 183 230 282 330
#     4   9  21  36  56  86 111 145 185 228 281 340
#     4  10  22  38  56  83 114 147 185 233 285 337
#     4   9  19  35  54  81 113 142 180 230 284 341
#     4  10  21  35  55  81 109 146 187 229 281 339
#     4  11  24  38  56  81 111 156 201 234 271 327
#     4  10  20  37  60  83 112 147 185 231 280 335
#     4   9  20  35  54  83 111 138 176 224 281 338
#
# _framework density 17.856486
#
# number of rings (size 3 to 8) (size 9 to 14) (size 15 to 20)
#    0.750    1.375    1.250    1.500    3.500    3.000 
#    0.000    1.250    0.000    0.000    0.000    0.000 
#    0.000    0.000    0.000    0.000    0.000    0.000 
#
# Total GULP energy -356458.195519 kJ/mol
# GULP energy per Si atom -5569.659305 kJ/mol
# Density = 1.781584 g / cm^3
# Si number density = 17.856486 Si / 1000 Ang^3
#
#
#
# Elastic Constant Matrix: (Units=GPa)
#
#
# Indices 1 2 3 4 5 6 
#
# 1 36.1434 7.4655 18.3460 0.0000 0.0000 0.0000
# 2 7.4655 52.4054 21.1009 0.0000 0.0000 0.0000
# 3 18.3460 21.1009 69.0139 0.0000 0.0000 0.0000
# 4 0.0000 0.0000 0.0000 18.5267 0.0000 0.0000
# 5 0.0000 0.0000 0.0000 0.0000 20.9370 0.0000
# 6 0.0000 0.0000 0.0000 0.0000 0.0000 17.8866
#
#
#
# Elastic Compliance Matrix: (Units=1/GPa)
#
#
# Indices 1 2 3 4 5 6 
#
# 1 0.032060 -0.001295 -0.008127 0.000000 0.000000 0.000000
# 2 -0.001295 0.021813 -0.006325 0.000000 0.000000 0.000000
# 3 -0.008127 -0.006325 0.018584 0.000000 0.000000 0.000000
# 4 0.000000 0.000000 0.000000 0.053976 0.000000 0.000000
# 5 0.000000 0.000000 0.000000 0.000000 0.047762 0.000000
# 6 0.000000 0.000000 0.000000 0.000000 0.000000 0.055908
#
#
# Mechanical properties :
#
#
# Convention : Reuss Voigt Hill
#
# Bulk Modulus (GPa) = 24.41175 27.93193 26.17184
# Shear Modulus (GPa) = 18.16518 18.84674 18.50596
#
# Velocity S-wave (km/s) = 3.19296 3.25230 3.22277
# Velocity P-wave (km/s) = 5.22437 5.45708 5.34199
#
# Compressibility (1/GPa) = 0.04096388
#
# Stress axis : x y z
#
# Youngs Moduli (GPa) = 31.19152 45.84362 53.80964
#
# Poissons Ratio (x) = 0.05937 0.43729
# Poissons Ratio (y) = 0.04039 0.34035
# Poissons Ratio (z) = 0.25348 0.28997
#
# Static dielectric constant tensor:
#      x y z
#    x 1.599490 0.000000 0.000000 
#    y 0.000000 1.623250 0.000000 
#    z 0.000000 0.000000 1.629550 
# 
# From -- ./inp_files/24021.got.cif
#   From: 2010.05.17/outbox.cif.g08.bks.cpg/sg59_13_cif.got.tgz:24021.got - 2010.06.03 14:40:33.
