data_PCOD9451658
_publ_section_title
;
Structure prediction by ZEFSAII (Michael W. Deem and Ramdas Pophale) SiO2 
 PCOD9451658
Probable space group: P M M N
;
_chemical_formula_sum "Si O2"
_cell_formula_units_Z 30
_cell_length_a 11.457216
_cell_length_b 23.022526
_cell_length_c 4.934970
_cell_angle_alpha 90.000000
_cell_angle_beta 90.000000
_cell_angle_gamma 90.000000
_cell_volume 1301.717040
_symmetry_space_group_name_H-M "P M M N"
_symmetry_group_IT_number 59
_space_group.IT_coordinate_system_code '2'
_symmetry_cell_setting 'orthorhombic'
loop_
_space_group_symop_operation_xyz
x,y,z
1/2-x,1/2-y,z
1/2+x,-y,-z
-x,1/2+y,-z
-x,-y,-z
1/2+x,1/2+y,-z
1/2-x,y,z
x,1/2-y,z
loop_
_atom_site_type_symbol
_atom_site_label
_atom_site_fract_x
_atom_site_fract_y
_atom_site_fract_z
Si Si1 0.567115 0.750000 0.788018
Si Si2 0.526919 0.422948 0.787717
Si Si3 0.619920 0.185657 0.480656
Si Si4 0.380233 0.451367 0.290948
Si Si5 0.250000 0.250000 0.713523
O O1 0.479228 0.695561 0.746676
O O2 0.649628 0.750000 0.525462
O O3 0.646723 0.750000 0.050641
O O4 0.587035 0.364889 0.685470
O O5 0.414982 0.433195 0.592751
O O6 0.608524 0.478956 0.735805
O O7 0.478153 0.426924 0.089485
O O8 0.750000 0.175187 0.368841
O O9 0.621651 0.250000 0.615255
O O10 0.250000 0.431648 0.223002
#
# Coordination Sequence:
#
# PCOD9451658 Si02
#       5
#     4   8   8   8   2
#     4   9  21  40  62  88 119 167 198 254 294 363
#     4  10  21  39  60  91 116 155 203 248 307 354
#     4   9  20  43  65  92 125 160 210 254 303 366
#     4  10  21  39  62  85 120 155 201 252 302 361
#     4  10  20  42  58  82 128 162 208 236 296 362
#
# _framework density 23.046482000000001
#
# number of rings (size 3 to 8) (size 9 to 14) (size 15 to 20)
#    0.800    1.600    0.000    1.600    0.000    2.133 
#   14.400    9.333    0.000    0.000    0.000    0.000 
#    0.000    0.000    0.000    0.000    0.000    0.000 
#
# Total GULP energy -167052.491544 kJ/mol
# GULP energy per Si atom -5568.416385 kJ/mol
# Density = 2.299403 g / cm^3
# Si number density = 23.046482 Si / 1000 Ang^3
#
#
#
# Elastic Constant Matrix: (Units=GPa)
#
#
# Indices 1 2 3 4 5 6 
#
# 1 148.7680 11.3355 20.9996 0.0000 0.0000 0.0000
# 2 11.3355 111.6047 7.0939 0.0000 0.0000 0.0000
# 3 20.9996 7.0939 109.7719 0.0000 0.0000 0.0000
# 4 0.0000 0.0000 0.0000 14.5333 0.0000 0.0000
# 5 0.0000 0.0000 0.0000 0.0000 -163.4510 0.0000
# 6 0.0000 0.0000 0.0000 0.0000 0.0000 -0.9231
#
#
#
# Elastic Compliance Matrix: (Units=1/GPa)
#
#
# Indices 1 2 3 4 5 6 
#
# 1 0.006951 -0.000624 -0.001289 0.000000 0.000000 0.000000
# 2 -0.000624 0.009053 -0.000466 0.000000 0.000000 0.000000
# 3 -0.001289 -0.000466 0.009387 0.000000 0.000000 0.000000
# 4 0.000000 0.000000 0.000000 0.068808 0.000000 0.000000
# 5 0.000000 0.000000 0.000000 0.000000 -0.006118 0.000000
# 6 0.000000 0.000000 0.000000 0.000000 0.000000 -1.083342
#
#
# Mechanical properties :
#
#
# Convention : Reuss Voigt Hill
#
# Bulk Modulus (GPa) = 48.46669 49.88916 49.17793
# Shear Modulus (GPa) = -5.08324 -7.92046 -6.50185
#
# Velocity S-wave (km/s) = -1.48675 -1.85585 -1.68146
# Velocity P-wave (km/s) = 4.25774 4.13545 4.19704
#
# Compressibility (1/GPa) = 0.02063273
#
# Stress axis : x y z
#
# Youngs Moduli (GPa) = 143.85488 110.45836 106.53509
#
# Poissons Ratio (x) = 0.06894 0.13738
# Poissons Ratio (y) = 0.08978 0.04961
# Poissons Ratio (z) = 0.18550 0.05144
#
# Static dielectric constant tensor:
#      x y z
#    x 1.828850 0.000000 0.000000 
#    y 0.000000 1.912560 0.000000 
#    z 0.000000 0.000000 1.802950 
# 
# From -- ./inp_files/1144.got.cif
#   From: 2010.05.17/outbox.cif.g08.bks.cpg/sg59_1_cif.got.tgz:1144.got - 2010.06.03 14:40:33.
