data_PCOD9451456
_publ_section_title
;
Structure prediction by ZEFSAII (Michael W. Deem and Ramdas Pophale) SiO2 
 PCOD9451456
Probable space group: P M M N
;
_chemical_formula_sum "Si O2"
_cell_formula_units_Z 48
_cell_length_a 19.494046
_cell_length_b 8.902382
_cell_length_c 15.436646
_cell_angle_alpha 90.000000
_cell_angle_beta 90.000000
_cell_angle_gamma 90.000000
_cell_volume 2678.928714
_symmetry_space_group_name_H-M "P M M N"
_symmetry_group_IT_number 59
_space_group.IT_coordinate_system_code '2'
_symmetry_cell_setting 'orthorhombic'
loop_
_space_group_symop_operation_xyz
x,y,z
1/2-x,1/2-y,z
1/2+x,-y,-z
-x,1/2+y,-z
-x,-y,-z
1/2+x,1/2+y,-z
1/2-x,y,z
x,1/2-y,z
loop_
_atom_site_type_symbol
_atom_site_label
_atom_site_fract_x
_atom_site_fract_y
_atom_site_fract_z
Si Si1 0.829720 0.431050 0.113216
Si Si2 0.669427 0.429518 0.435550
Si Si3 0.669850 0.929212 0.622020
Si Si4 0.431603 0.569140 0.238784
Si Si5 0.590113 0.929802 0.275240
Si Si6 0.069035 0.930757 0.039317
O O1 0.750000 0.474061 0.112221
O O2 0.833424 0.250000 0.123646
O O3 0.869283 0.506766 0.192535
O O4 0.868286 0.470172 0.023997
O O5 0.750000 0.463881 0.418055
O O6 0.661817 0.250000 0.436461
O O7 0.652450 0.496112 0.529700
O O8 0.622985 0.500321 0.361135
O O9 0.750000 0.964018 0.639896
O O10 0.662821 0.750000 0.615027
O O11 0.621564 0.992499 0.696780
O O12 0.423640 0.750000 0.243908
O O13 0.509802 0.532431 0.265012
O O14 0.421052 0.522577 0.138806
O O15 0.596389 0.750000 0.277497
O O16 0.061770 0.750000 0.039161
O O17 0.000000 0.000000 0.000000
#
# Coordination Sequence:
#
# PCOD9451456 Si02
#       6
#     8   8   8   8   8   8
#     4  10  21  36  56  84 115 150 193 238 286 341
#     4  10  21  38  60  84 113 152 193 233 284 343
#     4  10  22  40  61  86 114 146 189 239 288 338
#     4  10  22  38  58  85 115 152 193 232 283 345
#     4  11  22  36  56  85 118 151 190 235 284 339
#     4  10  20  37  59  82 112 151 193 236 282 337
#
# _framework density 17.917611000000001
#
# number of rings (size 3 to 8) (size 9 to 14) (size 15 to 20)
#    0.000    1.833    1.667    2.000    0.000    7.667 
#    0.000    1.667    0.000    0.000    0.000    0.000 
#    0.000    0.000    0.000    0.000    0.000    0.000 
#
# Total GULP energy -268155.130844 kJ/mol
# GULP energy per Si atom -5586.565226 kJ/mol
# Density = 1.787683 g / cm^3
# Si number density = 17.917611 Si / 1000 Ang^3
#
#
#
# Elastic Constant Matrix: (Units=GPa)
#
#
# Indices 1 2 3 4 5 6 
#
# 1 135.0799 60.1491 119.9170 0.0000 0.0000 0.0000
# 2 60.1491 39.2094 66.6059 0.0000 0.0000 0.0000
# 3 119.9170 66.6059 204.6525 0.0000 0.0000 0.0000
# 4 0.0000 0.0000 0.0000 30.7650 0.0000 0.0000
# 5 0.0000 0.0000 0.0000 0.0000 40.2299 0.0000
# 6 0.0000 0.0000 0.0000 0.0000 0.0000 29.6790
#
#
#
# Elastic Compliance Matrix: (Units=1/GPa)
#
#
# Indices 1 2 3 4 5 6 
#
# 1 0.025401 -0.030601 -0.004924 0.000000 0.000000 0.000000
# 2 -0.030601 0.093905 -0.012631 0.000000 0.000000 0.000000
# 3 -0.004924 -0.012631 0.011883 0.000000 0.000000 0.000000
# 4 0.000000 0.000000 0.000000 0.032504 0.000000 0.000000
# 5 0.000000 0.000000 0.000000 0.000000 0.024857 0.000000
# 6 0.000000 0.000000 0.000000 0.000000 0.000000 0.033694
#
#
# Mechanical properties :
#
#
# Convention : Reuss Voigt Hill
#
# Bulk Modulus (GPa) = 28.67388 96.92065 62.79727
# Shear Modulus (GPa) = 15.14317 28.95276 22.04797
#
# Velocity S-wave (km/s) = 2.91031 4.02417 3.51168
# Velocity P-wave (km/s) = 5.22792 8.70642 7.18098
#
# Compressibility (1/GPa) = 0.03487495
#
# Stress axis : x y z
#
# Youngs Moduli (GPa) = 39.36889 10.64909 84.15564
#
# Poissons Ratio (x) = 0.32587 0.41441
# Poissons Ratio (y) = 1.20473 1.06300
# Poissons Ratio (z) = 0.19387 0.13451
#
# Static dielectric constant tensor:
#      x y z
#    x 1.589410 0.000000 0.000000 
#    y 0.000000 1.599960 0.000000 
#    z 0.000000 0.000000 1.584310 
# 
# From -- ./inp_files/20313.got.cif
#   From: 2010.05.17/outbox.cif.g08.bks.cpg/sg59_11_cif.got.tgz:20313.got - 2010.06.03 14:40:33.
