data_PCOD9451782
_publ_section_title
;
Structure prediction by ZEFSAII (Michael W. Deem and Ramdas Pophale) SiO2 
 PCOD9451782
Probable space group: P M M N
;
_chemical_formula_sum "Si O2"
_cell_formula_units_Z 40
_cell_length_a 7.803270
_cell_length_b 9.306908
_cell_length_c 29.779460
_cell_angle_alpha 90.000000
_cell_angle_beta 90.000000
_cell_angle_gamma 90.000000
_cell_volume 2162.712913
_symmetry_space_group_name_H-M "P M M N"
_symmetry_group_IT_number 59
_space_group.IT_coordinate_system_code '2'
_symmetry_cell_setting 'orthorhombic'
loop_
_space_group_symop_operation_xyz
x,y,z
1/2-x,1/2-y,z
1/2+x,-y,-z
-x,1/2+y,-z
-x,-y,-z
1/2+x,1/2+y,-z
1/2-x,y,z
x,1/2-y,z
loop_
_atom_site_type_symbol
_atom_site_label
_atom_site_fract_x
_atom_site_fract_y
_atom_site_fract_z
Si Si1 0.548370 0.421727 0.365287
Si Si2 0.044902 0.415402 0.045210
Si Si3 0.750000 0.922155 0.704179
Si Si4 0.943454 0.580153 0.134359
Si Si5 0.455792 0.087145 0.544643
Si Si6 0.750000 0.422728 0.799247
O O1 0.750000 0.454135 0.356047
O O2 0.536328 0.250000 0.373130
O O3 0.419249 0.458228 0.325030
O O4 0.491358 0.504174 0.410257
O O5 0.250000 0.417058 0.050439
O O6 0.987713 0.250000 0.042041
O O7 0.967500 0.492833 0.088591
O O8 0.000000 0.500000 0.000000
O O9 0.750000 0.750000 0.711011
O O10 0.750000 0.001382 0.751480
O O11 0.750000 0.560864 0.151215
O O12 0.968700 0.750000 0.124443
O O13 0.084006 0.537925 0.171069
O O14 0.250000 0.094164 0.546690
O O15 0.523237 0.250000 0.542952
O O16 0.500000 0.000000 0.500000
O O17 0.750000 0.250000 0.793388
#
# Coordination Sequence:
#
# PCOD9451782 Si02
#       6
#     8   8   4   8   8   4
#     4   9  19  37  57  79 112 149 187 237 290 338
#     4  11  23  37  56  85 120 157 197 239 286 344
#     4  10  22  38  60  86 112 148 194 240 289 348
#     4  10  21  39  62  86 115 153 195 239 290 344
#     4  10  21  35  53  80 113 149 189 233 283 341
#     4  10  22  40  60  86 118 150 188 242 297 344
#
# _framework density 18.495289
#
# number of rings (size 3 to 8) (size 9 to 14) (size 15 to 20)
#    0.000    2.000    1.000    1.800    1.400    7.600 
#    0.000    0.000    0.000    0.000    0.000    0.000 
#    0.000    0.000    0.000    0.000    0.000    0.000 
#
# Total GULP energy -223391.811108 kJ/mol
# GULP energy per Si atom -5584.795278 kJ/mol
# Density = 1.845319 g / cm^3
# Si number density = 18.495289 Si / 1000 Ang^3
#
#
#
# Elastic Constant Matrix: (Units=GPa)
#
#
# Indices 1 2 3 4 5 6 
#
# 1 100.3627 54.2309 76.5222 0.0000 0.0000 0.0000
# 2 54.2309 82.4710 86.1884 0.0000 0.0000 0.0000
# 3 76.5222 86.1884 186.9884 0.0000 0.0000 0.0000
# 4 0.0000 0.0000 0.0000 42.7446 0.0000 0.0000
# 5 0.0000 0.0000 0.0000 0.0000 28.7913 0.0000
# 6 0.0000 0.0000 0.0000 0.0000 0.0000 20.1616
#
#
#
# Elastic Compliance Matrix: (Units=1/GPa)
#
#
# Indices 1 2 3 4 5 6 
#
# 1 0.016491 -0.007315 -0.003377 0.000000 0.000000 0.000000
# 2 -0.007315 0.026640 -0.009285 0.000000 0.000000 0.000000
# 3 -0.003377 -0.009285 0.011010 0.000000 0.000000 0.000000
# 4 0.000000 0.000000 0.000000 0.023395 0.000000 0.000000
# 5 0.000000 0.000000 0.000000 0.000000 0.034733 0.000000
# 6 0.000000 0.000000 0.000000 0.000000 0.000000 0.049599
#
#
# Mechanical properties :
#
#
# Convention : Reuss Voigt Hill
#
# Bulk Modulus (GPa) = 70.49307 89.30057 79.89682
# Shear Modulus (GPa) = 24.20706 28.53154 26.36930
#
# Velocity S-wave (km/s) = 3.62169 3.93190 3.77998
# Velocity P-wave (km/s) = 7.46228 8.30668 7.89577
#
# Compressibility (1/GPa) = 0.01418579
#
# Stress axis : x y z
#
# Youngs Moduli (GPa) = 60.63746 37.53821 90.82726
#
# Poissons Ratio (x) = 0.27459 0.30674
# Poissons Ratio (y) = 0.44356 0.84337
# Poissons Ratio (z) = 0.20479 0.34856
#
# Static dielectric constant tensor:
#      x y z
#    x 1.701800 0.000000 0.000000 
#    y 0.000000 1.633520 0.000000 
#    z 0.000000 0.000000 1.580520 
# 
# From -- ./inp_files/32416.got.cif
#   From: 2010.05.17/outbox.cif.g08.bks.cpg/sg59_17_cif.got.tgz:32416.got - 2010.06.03 14:40:33.
