data_PCOD9451996
_publ_section_title
;
Structure prediction by ZEFSAII (Michael W. Deem and Ramdas Pophale) SiO2 
 PCOD9451996
Probable space group: P M M N
;
_chemical_formula_sum "Si O2"
_cell_formula_units_Z 64
_cell_length_a 8.957855
_cell_length_b 14.724629
_cell_length_c 26.896869
_cell_angle_alpha 90.000000
_cell_angle_beta 90.000000
_cell_angle_gamma 90.000000
_cell_volume 3547.726379
_symmetry_space_group_name_H-M "P M M N"
_symmetry_group_IT_number 59
_space_group.IT_coordinate_system_code '2'
_symmetry_cell_setting 'orthorhombic'
loop_
_space_group_symop_operation_xyz
x,y,z
1/2-x,1/2-y,z
1/2+x,-y,-z
-x,1/2+y,-z
-x,-y,-z
1/2+x,1/2+y,-z
1/2-x,y,z
x,1/2-y,z
loop_
_atom_site_type_symbol
_atom_site_label
_atom_site_fract_x
_atom_site_fract_y
_atom_site_fract_z
Si Si1 0.929071 0.493520 0.945817
Si Si2 0.071511 0.998001 0.421281
Si Si3 0.429515 0.643983 0.507365
Si Si4 0.075800 0.859011 0.233822
Si Si5 0.929192 0.354528 0.238399
Si Si6 0.070861 0.145091 0.133663
Si Si7 0.570946 0.512824 0.313113
Si Si8 0.575537 0.858871 0.129112
O O1 0.750000 0.489991 0.949392
O O2 0.971446 0.579986 0.911561
O O3 0.991142 0.407585 0.915635
O O4 0.000000 0.500000 0.000000
O O5 0.250000 0.004201 0.417210
O O6 0.035976 0.911750 0.456883
O O7 0.998873 0.986977 0.367572
O O8 0.007904 0.087109 0.448970
O O9 0.250000 0.639720 0.514417
O O10 0.472457 0.750000 0.505334
O O11 0.250000 0.885045 0.233123
O O12 0.066660 0.750000 0.238297
O O13 0.992458 0.906410 0.279216
O O14 0.999307 0.884615 0.181602
O O15 0.750000 0.357131 0.233466
O O16 0.974314 0.250000 0.247664
O O17 0.970644 0.421191 0.283011
O O18 0.999602 0.383640 0.185987
O O19 0.250000 0.141447 0.138679
O O20 0.027459 0.250000 0.124613
O O21 0.750000 0.517953 0.316176
O O22 0.750000 0.884176 0.129302
O O23 0.565083 0.750000 0.124437
#
# Coordination Sequence:
#
# PCOD9451996 Si02
#       8
#     8   8   8   8   8   8   8   8
#     4  11  23  37  55  80 109 141 179 224 275 330
#     4  10  21  36  55  83 114 143 182 229 276 326
#     4   9  19  38  61  80 104 143 186 228 277 330
#     4  10  21  37  57  81 110 145 184 226 274 328
#     4   9  19  35  54  77 105 139 178 216 258 313
#     4   9  19  36  56  77 103 136 173 215 265 319
#     4  11  22  35  54  81 115 151 183 222 271 322
#     4  10  21  38  59  81 108 143 182 226 276 331
#
# _framework density 18.039722999999999
#
# number of rings (size 3 to 8) (size 9 to 14) (size 15 to 20)
#    0.000    2.125    0.000    2.625    0.000    7.750 
#    0.000    3.750    0.000    0.000    0.000    0.000 
#    0.000    0.000    0.000    0.000    0.000    0.000 
#
# Total GULP energy -357418.998431 kJ/mol
# GULP energy per Si atom -5584.671850 kJ/mol
# Density = 1.799866 g / cm^3
# Si number density = 18.039723 Si / 1000 Ang^3
#
#
#
# Elastic Constant Matrix: (Units=GPa)
#
#
# Indices 1 2 3 4 5 6 
#
# 1 67.0670 47.5570 71.9800 0.0000 0.0000 0.0000
# 2 47.5570 86.8518 64.0016 0.0000 0.0000 0.0000
# 3 71.9800 64.0016 178.1677 0.0000 0.0000 0.0000
# 4 0.0000 0.0000 0.0000 86.7588 0.0000 0.0000
# 5 0.0000 0.0000 0.0000 0.0000 39.3117 0.0000
# 6 0.0000 0.0000 0.0000 0.0000 0.0000 27.0058
#
#
#
# Elastic Compliance Matrix: (Units=1/GPa)
#
#
# Indices 1 2 3 4 5 6 
#
# 1 0.032666 -0.011100 -0.009210 0.000000 0.000000 0.000000
# 2 -0.011100 0.019431 -0.002496 0.000000 0.000000 0.000000
# 3 -0.009210 -0.002496 0.010230 0.000000 0.000000 0.000000
# 4 0.000000 0.000000 0.000000 0.011526 0.000000 0.000000
# 5 0.000000 0.000000 0.000000 0.000000 0.025438 0.000000
# 6 0.000000 0.000000 0.000000 0.000000 0.000000 0.037029
#
#
# Mechanical properties :
#
#
# Convention : Reuss Voigt Hill
#
# Bulk Modulus (GPa) = 59.82274 77.68486 68.75380
# Shear Modulus (GPa) = 26.66639 40.51844 33.59241
#
# Velocity S-wave (km/s) = 3.84891 4.74441 4.31993
# Velocity P-wave (km/s) = 7.27914 8.55390 7.94214
#
# Compressibility (1/GPa) = 0.01671605
#
# Stress axis : x y z
#
# Youngs Moduli (GPa) = 30.61308 51.46469 97.75298
#
# Poissons Ratio (x) = 0.57126 0.90027
# Poissons Ratio (y) = 0.33980 0.24395
# Poissons Ratio (z) = 0.28194 0.12843
#
# Static dielectric constant tensor:
#      x y z
#    x 1.601940 0.000000 0.000000 
#    y 0.000000 1.629360 0.000000 
#    z 0.000000 0.000000 1.573180 
# 
# From -- ./inp_files/31526.got.cif
#   From: 2010.05.17/outbox.cif.g08.bks.cpg/sg59_16_cif.got.tgz:31526.got - 2010.06.03 14:40:33.
