data_PCOD9451333
_publ_section_title
;
Structure prediction by ZEFSAII (Michael W. Deem and Ramdas Pophale) SiO2 
 PCOD9451333
Probable space group: P M M N
;
_chemical_formula_sum "Si O2"
_cell_formula_units_Z 64
_cell_length_a 22.246921
_cell_length_b 9.046673
_cell_length_c 15.487568
_cell_angle_alpha 90.000000
_cell_angle_beta 90.000000
_cell_angle_gamma 90.000000
_cell_volume 3117.037531
_symmetry_space_group_name_H-M "P M M N"
_symmetry_group_IT_number 59
_space_group.IT_coordinate_system_code '2'
_symmetry_cell_setting 'orthorhombic'
loop_
_space_group_symop_operation_xyz
x,y,z
1/2-x,1/2-y,z
1/2+x,-y,-z
-x,1/2+y,-z
-x,-y,-z
1/2+x,1/2+y,-z
1/2-x,y,z
x,1/2-y,z
loop_
_atom_site_type_symbol
_atom_site_label
_atom_site_fract_x
_atom_site_fract_y
_atom_site_fract_z
Si Si1 0.316680 0.575963 0.466567
Si Si2 0.636092 0.076818 0.717257
Si Si3 0.512453 0.079938 0.128186
Si Si4 0.628136 0.926910 0.891280
Si Si5 0.988646 0.920253 0.671880
Si Si6 0.679202 0.423760 0.253953
Si Si7 0.599425 0.925380 0.401934
Si Si8 0.132491 0.426145 0.917193
O O1 0.250000 0.535761 0.497822
O O2 0.326731 0.750000 0.486576
O O3 0.319824 0.559906 0.363509
O O4 0.367310 0.480577 0.512398
O O5 0.625022 0.250000 0.731133
O O6 0.655274 0.005036 0.807647
O O7 0.574634 0.999694 0.685867
O O8 0.522012 0.250000 0.099053
O O9 0.443554 0.037697 0.108996
O O10 0.517974 0.078274 0.232138
O O11 0.562439 0.972516 0.090396
O O12 0.632197 0.750000 0.879894
O O13 0.653058 0.964869 0.985661
O O14 0.980196 0.750000 0.646245
O O15 0.033811 0.003790 0.609042
O O16 0.750000 0.438124 0.272436
O O17 0.663231 0.250000 0.257817
O O18 0.640363 0.512489 0.323662
O O19 0.665642 0.487310 0.158914
O O20 0.595665 0.750000 0.397880
O O21 0.138637 0.250000 0.905577
#
# Coordination Sequence:
#
# PCOD9451333 Si02
#       8
#     8   8   8   8   8   8   8   8
#     4  10  23  44  66  87 115 153 196 243 297 353
#     4  10  21  38  62  90 118 153 200 250 293 344
#     4   9  17  31  52  79 114 155 193 229 280 347
#     4   9  20  36  54  81 118 157 192 235 294 349
#     4  10  20  36  59  87 124 163 192 231 294 359
#     4  11  24  41  59  80 114 160 201 241 296 356
#     4  12  24  38  62  93 120 149 192 242 293 354
#     4  11  21  33  54  83 115 152 197 244 288 338
#
# _framework density 20.532316999999999
#
# number of rings (size 3 to 8) (size 9 to 14) (size 15 to 20)
#    0.000    1.750    1.250    4.125    0.000    7.250 
#    0.000    0.625    0.000    2.250    0.000    0.000 
#    0.000    0.000    0.000    0.000    0.000    0.000 
#
# Total GULP energy -357734.339876 kJ/mol
# GULP energy per Si atom -5589.599061 kJ/mol
# Density = 2.048558 g / cm^3
# Si number density = 20.532317 Si / 1000 Ang^3
#
#
#
# Elastic Constant Matrix: (Units=GPa)
#
#
# Indices 1 2 3 4 5 6 
#
# 1 17.4804 18.5406 13.0872 0.0000 0.0000 0.0000
# 2 18.5406 79.3167 38.9552 0.0000 0.0000 0.0000
# 3 13.0872 38.9552 83.5613 0.0000 0.0000 0.0000
# 4 0.0000 0.0000 0.0000 31.9397 0.0000 0.0000
# 5 0.0000 0.0000 0.0000 0.0000 3.7755 0.0000
# 6 0.0000 0.0000 0.0000 0.0000 0.0000 3.7373
#
#
#
# Elastic Compliance Matrix: (Units=1/GPa)
#
#
# Indices 1 2 3 4 5 6 
#
# 1 0.077517 -0.015767 -0.004790 0.000000 0.000000 0.000000
# 2 -0.015767 0.019559 -0.006649 0.000000 0.000000 0.000000
# 3 -0.004790 -0.006649 0.015817 0.000000 0.000000 0.000000
# 4 0.000000 0.000000 0.000000 0.031309 0.000000 0.000000
# 5 0.000000 0.000000 0.000000 0.000000 0.264867 0.000000
# 6 0.000000 0.000000 0.000000 0.000000 0.000000 0.267570
#
#
# Mechanical properties :
#
#
# Convention : Reuss Voigt Hill
#
# Bulk Modulus (GPa) = 17.09969 35.72492 26.41230
# Shear Modulus (GPa) = 6.66184 15.20887 10.93535
#
# Velocity S-wave (km/s) = 1.80322 2.72459 2.31030
# Velocity P-wave (km/s) = 3.56114 5.22828 4.47307
#
# Compressibility (1/GPa) = 0.05848061
#
# Stress axis : x y z
#
# Youngs Moduli (GPa) = 12.90046 51.12821 63.22344
#
# Poissons Ratio (x) = 0.80615 0.30284
# Poissons Ratio (y) = 0.20341 0.42035
# Poissons Ratio (z) = 0.06179 0.33993
#
# Static dielectric constant tensor:
#      x y z
#    x 1.721720 0.000000 0.000000 
#    y 0.000000 1.683890 0.000000 
#    z 0.000000 0.000000 1.762580 
# 
# From -- ./inp_files/24797.got.cif
#   From: 2010.05.17/outbox.cif.g08.bks.cpg/sg59_13_cif.got.tgz:24797.got - 2010.06.03 14:40:33.
