data_PCOD9451705
_publ_section_title
;
Structure prediction by ZEFSAII (Michael W. Deem and Ramdas Pophale) SiO2 
 PCOD9451705
Probable space group: P M M N
;
_chemical_formula_sum "Si O2"
_cell_formula_units_Z 56
_cell_length_a 14.183184
_cell_length_b 9.946402
_cell_length_c 18.296317
_cell_angle_alpha 90.000000
_cell_angle_beta 90.000000
_cell_angle_gamma 90.000000
_cell_volume 2581.091623
_symmetry_space_group_name_H-M "P M M N"
_symmetry_group_IT_number 59
_space_group.IT_coordinate_system_code '2'
_symmetry_cell_setting 'orthorhombic'
loop_
_space_group_symop_operation_xyz
x,y,z
1/2-x,1/2-y,z
1/2+x,-y,-z
-x,1/2+y,-z
-x,-y,-z
1/2+x,1/2+y,-z
1/2-x,y,z
x,1/2-y,z
loop_
_atom_site_type_symbol
_atom_site_label
_atom_site_fract_x
_atom_site_fract_y
_atom_site_fract_z
Si Si1 0.865038 0.595101 0.390325
Si Si2 0.642651 0.603513 0.136877
Si Si3 0.083924 0.406103 0.022907
Si Si4 0.634783 0.095553 0.521761
Si Si5 0.137200 0.402251 0.185287
Si Si6 0.134791 0.903080 0.312030
Si Si7 0.365232 0.903569 0.744516
O O1 0.750000 0.599195 0.390871
O O2 0.897311 0.750000 0.386917
O O3 0.895163 0.515176 0.463073
O O4 0.891808 0.504405 0.320818
O O5 0.750000 0.613774 0.163817
O O6 0.596577 0.750000 0.151562
O O7 0.647188 0.586662 0.049733
O O8 0.603021 0.475653 0.180010
O O9 0.056602 0.250000 0.030006
O O10 0.121423 0.448526 0.101912
O O11 0.000000 0.500000 0.000000
O O12 0.750000 0.096330 0.520661
O O13 0.606313 0.250000 0.504100
O O14 0.606011 0.063550 0.604987
O O15 0.250000 0.396881 0.194197
O O16 0.101656 0.250000 0.193074
O O17 0.100812 0.497900 0.249079
O O18 0.250000 0.905592 0.311977
O O19 0.106637 0.750000 0.296475
O O20 0.250000 0.895152 0.743812
O O21 0.398106 0.750000 0.736116
#
# Coordination Sequence:
#
# PCOD9451705 Si02
#       7
#     8   8   8   8   8   8   8
#     4   9  15  21  31  50  78 113 150 183 217 260
#     4   9  17  31  50  68  88 117 153 190 227 269
#     4  10  21  35  50  69  93 120 149 185 230 276
#     4   8  13  21  32  48  76 113 147 179 218 262
#     4   9  17  30  48  68  90 118 153 190 227 269
#     4   8  14  24  38  58  84 114 148 185 225 267
#     4   9  16  25  38  58  84 113 146 184 225 267
#
# _framework density 21.696247
#
# number of rings (size 3 to 8) (size 9 to 14) (size 15 to 20)
#    0.000    3.143    0.000    2.143    0.000    6.857 
#    0.000    2.857    0.000    4.286    0.000    0.000 
#    0.000    1.143    0.000    3.714    0.000    8.286 
#
# Total GULP energy -312453.045987 kJ/mol
# GULP energy per Si atom -5579.518678 kJ/mol
# Density = 2.164687 g / cm^3
# Si number density = 21.696247 Si / 1000 Ang^3
#
#
#
# Elastic Constant Matrix: (Units=GPa)
#
#
# Indices 1 2 3 4 5 6 
#
# 1 47.4104 18.0208 9.5574 0.0000 0.0000 0.0000
# 2 18.0208 174.1316 135.7114 0.0000 0.0000 0.0000
# 3 9.5574 135.7114 179.0327 0.0000 0.0000 0.0000
# 4 0.0000 0.0000 0.0000 42.5976 0.0000 0.0000
# 5 0.0000 0.0000 0.0000 0.0000 22.6697 0.0000
# 6 0.0000 0.0000 0.0000 0.0000 0.0000 7.5014
#
#
#
# Elastic Compliance Matrix: (Units=1/GPa)
#
#
# Indices 1 2 3 4 5 6 
#
# 1 0.022089 -0.003340 0.001353 0.000000 0.000000 0.000000
# 2 -0.003340 0.014539 -0.010842 0.000000 0.000000 0.000000
# 3 0.001353 -0.010842 0.013732 0.000000 0.000000 0.000000
# 4 0.000000 0.000000 0.000000 0.023475 0.000000 0.000000
# 5 0.000000 0.000000 0.000000 0.000000 0.044112 0.000000
# 6 0.000000 0.000000 0.000000 0.000000 0.000000 0.133309
#
#
# Mechanical properties :
#
#
# Convention : Reuss Voigt Hill
#
# Bulk Modulus (GPa) = 40.48508 80.79489 60.63999
# Shear Modulus (GPa) = 17.53468 30.37275 23.95371
#
# Velocity S-wave (km/s) = 2.84595 3.74559 3.32633
# Velocity P-wave (km/s) = 5.43136 7.48505 6.53933
#
# Compressibility (1/GPa) = 0.02470046
#
# Stress axis : x y z
#
# Youngs Moduli (GPa) = 45.27055 68.78286 72.82239
#
# Poissons Ratio (x) = 0.22977 -0.09852
# Poissons Ratio (y) = 0.15122 0.78956
# Poissons Ratio (z) = -0.06125 0.74576
#
# Static dielectric constant tensor:
#      x y z
#    x 1.871280 0.000000 0.000000 
#    y 0.000000 1.765770 0.000000 
#    z 0.000000 0.000000 1.801100 
# 
# From -- ./inp_files/28089.got.cif
#   From: 2010.05.17/outbox.cif.g08.bks.cpg/sg59_15_cif.got.tgz:28089.got - 2010.06.03 14:40:33.
