data_PCOD9451799
_publ_section_title
;
Structure prediction by ZEFSAII (Michael W. Deem and Ramdas Pophale) SiO2 
 PCOD9451799
Probable space group: P M M N
;
_chemical_formula_sum "Si O2"
_cell_formula_units_Z 48
_cell_length_a 7.809143
_cell_length_b 19.501763
_cell_length_c 15.620119
_cell_angle_alpha 90.000000
_cell_angle_beta 90.000000
_cell_angle_gamma 90.000000
_cell_volume 2378.820038
_symmetry_space_group_name_H-M "P M M N"
_symmetry_group_IT_number 59
_space_group.IT_coordinate_system_code '2'
_symmetry_cell_setting 'orthorhombic'
loop_
_space_group_symop_operation_xyz
x,y,z
1/2-x,1/2-y,z
1/2+x,-y,-z
-x,1/2+y,-z
-x,-y,-z
1/2+x,1/2+y,-z
1/2-x,y,z
x,1/2-y,z
loop_
_atom_site_type_symbol
_atom_site_label
_atom_site_fract_x
_atom_site_fract_y
_atom_site_fract_z
Si Si1 0.051072 0.077906 0.225103
Si Si2 0.549427 0.926778 0.271925
Si Si3 0.047837 0.828336 0.618449
Si Si4 0.540705 0.828762 0.929155
Si Si5 0.040899 0.171024 0.877185
Si Si6 0.044688 0.075210 0.535770
O O1 0.250000 0.062108 0.209211
O O2 0.980821 0.118671 0.142977
O O3 0.038069 0.127858 0.306569
O O4 0.963370 0.006227 0.246328
O O5 0.750000 0.908750 0.278252
O O6 0.476660 0.879316 0.196614
O O7 0.476565 0.917567 0.367364
O O8 0.250000 0.827708 0.637019
O O9 0.985582 0.750000 0.615674
O O10 0.020989 0.867411 0.529175
O O11 0.750000 0.828964 0.926911
O O12 0.488442 0.750000 0.911189
O O13 0.487118 0.846803 0.025867
O O14 0.250000 0.168520 0.878178
O O15 0.993006 0.250000 0.860671
O O16 0.250000 0.079725 0.537454
O O17 0.000000 0.000000 0.500000
#
# Coordination Sequence:
#
# PCOD9451799 Si02
#       6
#     8   8   8   8   8   8
#     4  11  21  33  54  82 112 147 184 223 271 332
#     4  10  21  35  55  82 110 141 180 227 277 330
#     4  11  24  40  58  82 112 145 185 234 283 330
#     4   8  15  29  50  77 108 141 180 225 271 321
#     4   8  15  31  54  78 106 141 181 226 273 324
#     4  11  22  37  58  81 111 149 187 229 277 332
#
# _framework density 20.178070999999999
#
# number of rings (size 3 to 8) (size 9 to 14) (size 15 to 20)
#    0.000    2.167    1.667    3.000    0.000    4.000 
#    0.000    1.667    0.000    1.500    0.000    4.667 
#    0.000    0.000    0.000    0.000    0.000    0.000 
#
# Total GULP energy -268017.421036 kJ/mol
# GULP energy per Si atom -5583.696272 kJ/mol
# Density = 2.013214 g / cm^3
# Si number density = 20.178071 Si / 1000 Ang^3
#
#
#
# Elastic Constant Matrix: (Units=GPa)
#
#
# Indices 1 2 3 4 5 6 
#
# 1 28.7032 -16.4401 -11.7569 0.0000 0.0000 0.0000
# 2 -16.4401 106.5123 84.1692 0.0000 0.0000 0.0000
# 3 -11.7569 84.1692 172.1811 0.0000 0.0000 0.0000
# 4 0.0000 0.0000 0.0000 42.7104 0.0000 0.0000
# 5 0.0000 0.0000 0.0000 0.0000 8.9275 0.0000
# 6 0.0000 0.0000 0.0000 0.0000 0.0000 -1.8162
#
#
#
# Elastic Compliance Matrix: (Units=1/GPa)
#
#
# Indices 1 2 3 4 5 6 
#
# 1 0.038239 0.006255 -0.000447 0.000000 0.000000 0.000000
# 2 0.006255 0.016321 -0.007551 0.000000 0.000000 0.000000
# 3 -0.000447 -0.007551 0.009469 0.000000 0.000000 0.000000
# 4 0.000000 0.000000 0.000000 0.023413 0.000000 0.000000
# 5 0.000000 0.000000 0.000000 0.000000 0.112014 0.000000
# 6 0.000000 0.000000 0.000000 0.000000 0.000000 -0.550610
#
#
# Mechanical properties :
#
#
# Convention : Reuss Voigt Hill
#
# Bulk Modulus (GPa) = 16.51712 46.59345 31.55528
# Shear Modulus (GPa) = -15.26782 26.72598 5.72908
#
# Velocity S-wave (km/s) = -2.75372 3.64332 1.68684
# Velocity P-wave (km/s) = 1.38101 6.39059 4.41206
#
# Compressibility (1/GPa) = 0.06054324
#
# Stress axis : x y z
#
# Youngs Moduli (GPa) = 26.15130 61.26889 105.60989
#
# Poissons Ratio (x) = -0.38325 0.04718
# Poissons Ratio (y) = -0.16358 0.79751
# Poissons Ratio (z) = 0.01168 0.46267
#
# Static dielectric constant tensor:
#      x y z
#    x 1.758730 0.000000 0.000000 
#    y 0.000000 1.670200 0.000000 
#    z 0.000000 0.000000 1.715260 
# 
# From -- ./inp_files/20311.got.cif
#   From: 2010.05.17/outbox.cif.g08.bks.cpg/sg59_11_cif.got.tgz:20311.got - 2010.06.03 14:40:33.
