data_PCOD9451332
_publ_section_title
;
Structure prediction by ZEFSAII (Michael W. Deem and Ramdas Pophale) SiO2 
 PCOD9451332
Probable space group: P M M N
;
_chemical_formula_sum "Si O2"
_cell_formula_units_Z 40
_cell_length_a 8.425466
_cell_length_b 16.496065
_cell_length_c 14.183390
_cell_angle_alpha 90.000000
_cell_angle_beta 90.000000
_cell_angle_gamma 90.000000
_cell_volume 1971.307319
_symmetry_space_group_name_H-M "P M M N"
_symmetry_group_IT_number 59
_space_group.IT_coordinate_system_code '2'
_symmetry_cell_setting 'orthorhombic'
loop_
_space_group_symop_operation_xyz
x,y,z
1/2-x,1/2-y,z
1/2+x,-y,-z
-x,1/2+y,-z
-x,-y,-z
1/2+x,1/2+y,-z
1/2-x,y,z
x,1/2-y,z
loop_
_atom_site_type_symbol
_atom_site_label
_atom_site_fract_x
_atom_site_fract_y
_atom_site_fract_z
Si Si1 0.441778 0.157381 0.451669
Si Si2 0.560875 0.098329 0.641355
Si Si3 0.559307 0.582522 0.949823
Si Si4 0.066234 0.250000 0.754463
Si Si5 0.064648 0.750000 0.039284
Si Si6 0.942593 0.927985 0.734740
O O1 0.250000 0.150113 0.456373
O O2 0.485003 0.250000 0.473415
O O3 0.515431 0.100697 0.531566
O O4 0.492761 0.134985 0.345857
O O5 0.750000 0.108904 0.650468
O O6 0.473108 0.171900 0.692224
O O7 0.515261 0.015716 0.693406
O O8 0.750000 0.579392 0.950004
O O9 0.500819 0.583962 0.841122
O O10 0.500000 0.500000 0.000000
O O11 0.507924 0.666399 0.999003
O O12 0.250000 0.250000 0.782166
O O13 0.962916 0.250000 0.848705
O O14 0.250000 0.750000 0.017412
O O15 0.750000 0.924003 0.738661
#
# Coordination Sequence:
#
# PCOD9451332 Si02
#       6
#     8   8   8   4   4   8
#     4  10  20  36  59  87 122 162 206 249 295 361
#     4  11  21  37  60  90 126 160 199 252 313 370
#     4  11  23  43  69  97 129 170 221 273 330 391
#     4  12  24  40  63  90 117 158 213 258 310 374
#     4  12  26  44  65  94 131 168 213 272 334 392
#     4   9  21  38  61  89 120 163 207 250 306 372
#
# _framework density 20.291103
#
# number of rings (size 3 to 8) (size 9 to 14) (size 15 to 20)
#    0.000    1.400    1.000    4.800    1.400    1.600 
#    0.000    6.000    0.000    0.000    0.000    0.000 
#    0.000    0.000    0.000    0.000    0.000    0.000 
#
# Total GULP energy -223571.622466 kJ/mol
# GULP energy per Si atom -5589.290562 kJ/mol
# Density = 2.024492 g / cm^3
# Si number density = 20.291103 Si / 1000 Ang^3
#
#
#
# Elastic Constant Matrix: (Units=GPa)
#
#
# Indices 1 2 3 4 5 6 
#
# 1 46.2622 18.5902 1.3734 0.0000 0.0000 0.0000
# 2 18.5902 93.0923 35.8288 0.0000 0.0000 0.0000
# 3 1.3734 35.8288 138.4989 0.0000 0.0000 0.0000
# 4 0.0000 0.0000 0.0000 -25.9189 0.0000 0.0000
# 5 0.0000 0.0000 0.0000 0.0000 31.1415 0.0000
# 6 0.0000 0.0000 0.0000 0.0000 0.0000 22.2439
#
#
#
# Elastic Compliance Matrix: (Units=1/GPa)
#
#
# Indices 1 2 3 4 5 6 
#
# 1 0.023651 -0.005145 0.001096 0.000000 0.000000 0.000000
# 2 -0.005145 0.013049 -0.003325 0.000000 0.000000 0.000000
# 3 0.001096 -0.003325 0.008069 0.000000 0.000000 0.000000
# 4 0.000000 0.000000 0.000000 -0.038582 0.000000 0.000000
# 5 0.000000 0.000000 0.000000 0.000000 0.032111 0.000000
# 6 0.000000 0.000000 0.000000 0.000000 0.000000 0.044956
#
#
# Mechanical properties :
#
#
# Convention : Reuss Voigt Hill
#
# Bulk Modulus (GPa) = 33.30787 43.27091 38.28939
# Shear Modulus (GPa) = 46.29231 20.29737 33.29484
#
# Velocity S-wave (km/s) = 4.78159 3.16620 4.05515
# Velocity P-wave (km/s) = 6.85095 5.89388 6.39035
#
# Compressibility (1/GPa) = 0.03002293
#
# Stress axis : x y z
#
# Youngs Moduli (GPa) = 42.28173 76.63394 123.92379
#
# Poissons Ratio (x) = 0.39428 -0.13588
# Poissons Ratio (y) = 0.21754 0.41201
# Poissons Ratio (z) = -0.04636 0.25478
#
# Static dielectric constant tensor:
#      x y z
#    x 1.782920 0.000000 0.000000 
#    y 0.000000 1.701300 0.000000 
#    z 0.000000 0.000000 1.704370 
# 
# From -- ./inp_files/19984.got.cif
#   From: 2010.05.17/outbox.cif.g08.bks.cpg/sg59_10_cif.got.tgz:19984.got - 2010.06.03 14:40:33.
