data_PCOD9451843
_publ_section_title
;
Structure prediction by ZEFSAII (Michael W. Deem and Ramdas Pophale) SiO2 
 PCOD9451843
Probable space group: P M M N
;
_chemical_formula_sum "Si O2"
_cell_formula_units_Z 48
_cell_length_a 10.370581
_cell_length_b 7.601688
_cell_length_c 31.266976
_cell_angle_alpha 90.000000
_cell_angle_beta 90.000000
_cell_angle_gamma 90.000000
_cell_volume 2464.898320
_symmetry_space_group_name_H-M "P M M N"
_symmetry_group_IT_number 59
_space_group.IT_coordinate_system_code '2'
_symmetry_cell_setting 'orthorhombic'
loop_
_space_group_symop_operation_xyz
x,y,z
1/2-x,1/2-y,z
1/2+x,-y,-z
-x,1/2+y,-z
-x,-y,-z
1/2+x,1/2+y,-z
1/2-x,y,z
x,1/2-y,z
loop_
_atom_site_type_symbol
_atom_site_label
_atom_site_fract_x
_atom_site_fract_y
_atom_site_fract_z
Si Si1 0.896933 0.965067 0.799539
Si Si2 0.895349 0.541149 0.035911
Si Si3 0.602809 0.964649 0.702006
Si Si4 0.395270 0.958475 0.867235
Si Si5 0.394677 0.539278 0.535585
Si Si6 0.397814 0.964861 0.632164
O O1 0.750000 0.019734 0.809113
O O2 0.896928 0.750000 0.800282
O O3 0.928028 0.017310 0.750759
O O4 0.000201 0.029263 0.833994
O O5 0.750000 0.471538 0.026805
O O6 0.886312 0.750000 0.038110
O O7 0.934109 0.479408 0.083289
O O8 0.000000 0.500000 0.000000
O O9 0.750000 0.018501 0.692425
O O10 0.601571 0.750000 0.701460
O O11 0.499960 0.026122 0.667208
O O12 0.250000 0.031728 0.862550
O O13 0.387119 0.750000 0.859033
O O14 0.500000 0.500000 0.500000
O O15 0.250000 0.474208 0.524956
O O16 0.387033 0.750000 0.538278
O O17 0.428535 0.477638 0.583612
O O18 0.250000 0.016064 0.641595
O O19 0.400707 0.750000 0.632625
#
# Coordination Sequence:
#
# PCOD9451843 Si02
#       6
#     8   8   8   8   8   8
#     4   8  14  24  38  59  88 118 146 178 217 261
#     4  10  21  36  53  73  97 125 157 194 235 276
#     4   8  13  21  34  55  83 112 142 177 217 262
#     4   9  17  29  45  66  92 120 150 184 221 264
#     4   9  18  31  45  64  90 118 151 191 233 278
#     4   8  14  24  37  55  82 113 143 179 222 266
#
# _framework density 19.473421999999999
#
# number of rings (size 3 to 8) (size 9 to 14) (size 15 to 20)
#    0.000    3.333    0.000    2.500    0.000    3.333 
#    0.000    6.667    0.000    0.000    0.000    1.167 
#    0.000    4.000    0.000    0.000    0.000    0.000 
#
# Total GULP energy -267551.450411 kJ/mol
# GULP energy per Si atom -5573.988550 kJ/mol
# Density = 1.942910 g / cm^3
# Si number density = 19.473422 Si / 1000 Ang^3
#
#
#
# Elastic Constant Matrix: (Units=GPa)
#
#
# Indices 1 2 3 4 5 6 
#
# 1 165.0812 3.7560 160.9898 0.0000 0.0000 0.0000
# 2 3.7560 39.3961 0.8419 0.0000 0.0000 0.0000
# 3 160.9898 0.8419 187.5306 0.0000 0.0000 0.0000
# 4 0.0000 0.0000 0.0000 11.1006 0.0000 0.0000
# 5 0.0000 0.0000 0.0000 0.0000 45.9873 0.0000
# 6 0.0000 0.0000 0.0000 0.0000 0.0000 6.9403
#
#
#
# Elastic Compliance Matrix: (Units=1/GPa)
#
#
# Indices 1 2 3 4 5 6 
#
# 1 0.037534 -0.002890 -0.032209 0.000000 0.000000 0.000000
# 2 -0.002890 0.025608 0.002366 0.000000 0.000000 0.000000
# 3 -0.032209 0.002366 0.032972 0.000000 0.000000 0.000000
# 4 0.000000 0.000000 0.000000 0.090086 0.000000 0.000000
# 5 0.000000 0.000000 0.000000 0.000000 0.021745 0.000000
# 6 0.000000 0.000000 0.000000 0.000000 0.000000 0.144087
#
#
# Mechanical properties :
#
#
# Convention : Reuss Voigt Hill
#
# Bulk Modulus (GPa) = 32.62788 80.35371 56.49079
# Shear Modulus (GPa) = 11.69005 27.90031 19.79518
#
# Velocity S-wave (km/s) = 2.45278 3.78926 3.19175
# Velocity P-wave (km/s) = 4.98126 7.77801 6.53110
#
# Compressibility (1/GPa) = 0.03064864
#
# Stress axis : x y z
#
# Youngs Moduli (GPa) = 26.64244 39.05003 30.32844
#
# Poissons Ratio (x) = 0.11286 0.97685
# Poissons Ratio (y) = 0.07700 -0.07176
# Poissons Ratio (z) = 0.85813 -0.09240
#
# Static dielectric constant tensor:
#      x y z
#    x 1.682270 0.000000 0.000000 
#    y 0.000000 1.771150 0.000000 
#    z 0.000000 0.000000 1.664530 
# 
# From -- ./inp_files/32594.got.cif
#   From: 2010.05.17/outbox.cif.g08.bks.cpg/sg59_17_cif.got.tgz:32594.got - 2010.06.03 14:40:33.
