data_PCOD9451524
_publ_section_title
;
Structure prediction by ZEFSAII (Michael W. Deem and Ramdas Pophale) SiO2 
 PCOD9451524
Probable space group: P M M N
;
_chemical_formula_sum "Si O2"
_cell_formula_units_Z 48
_cell_length_a 8.686826
_cell_length_b 17.525578
_cell_length_c 16.391565
_cell_angle_alpha 90.000000
_cell_angle_beta 90.000000
_cell_angle_gamma 90.000000
_cell_volume 2495.478847
_symmetry_space_group_name_H-M "P M M N"
_symmetry_group_IT_number 59
_space_group.IT_coordinate_system_code '2'
_symmetry_cell_setting 'orthorhombic'
loop_
_space_group_symop_operation_xyz
x,y,z
1/2-x,1/2-y,z
1/2+x,-y,-z
-x,1/2+y,-z
-x,-y,-z
1/2+x,1/2+y,-z
1/2-x,y,z
x,1/2-y,z
loop_
_atom_site_type_symbol
_atom_site_label
_atom_site_fract_x
_atom_site_fract_y
_atom_site_fract_z
Si Si1 0.074427 0.750000 0.867236
Si Si2 0.069305 0.949971 0.119348
Si Si3 0.435175 0.552257 0.308815
Si Si4 0.931229 0.750000 0.693865
Si Si5 0.565347 0.839564 0.441162
Si Si6 0.427212 0.383991 0.037492
Si Si7 0.066039 0.600276 0.607750
O O1 0.250000 0.750000 0.837874
O O2 0.961810 0.750000 0.790024
O O3 0.038504 0.676799 0.921833
O O4 0.250000 0.928637 0.113569
O O5 0.021281 0.945382 0.213384
O O6 0.057199 0.036778 0.086977
O O7 0.972344 0.900304 0.055853
O O8 0.250000 0.551601 0.313704
O O9 0.501985 0.623603 0.358480
O O10 0.498606 0.475483 0.350846
O O11 0.750000 0.750000 0.674749
O O12 0.007454 0.674478 0.656557
O O13 0.750000 0.845613 0.443972
O O14 0.524289 0.750000 0.449413
O O15 0.494438 0.887056 0.516040
O O16 0.250000 0.358710 0.043639
O O17 0.250000 0.596695 0.608112
#
# Coordination Sequence:
#
# PCOD9451524 Si02
#       7
#     4   8   8   4   8   8   8
#     4  12  24  38  58  89 124 159 202 248 298 359
#     4   9  20  39  61  87 118 158 201 247 301 359
#     4  11  23  40  64  92 124 163 209 257 306 366
#     4  12  24  40  62  91 128 163 202 254 312 365
#     4  11  24  43  64  87 122 165 208 259 313 364
#     4  10  20  37  62  88 120 159 200 249 304 360
#     4  12  24  40  64  93 125 161 206 252 307 371
#
# _framework density 19.234784999999999
#
# number of rings (size 3 to 8) (size 9 to 14) (size 15 to 20)
#    0.000    1.167    0.833    6.000    0.000    4.333 
#    1.500    0.000    0.000    0.000    0.000    0.000 
#    0.000    0.000    0.000    0.000    0.000    0.000 
#
# Total GULP energy -268480.406386 kJ/mol
# GULP energy per Si atom -5593.341800 kJ/mol
# Density = 1.919101 g / cm^3
# Si number density = 19.234785 Si / 1000 Ang^3
#
#
#
# Elastic Constant Matrix: (Units=GPa)
#
#
# Indices 1 2 3 4 5 6 
#
# 1 70.2055 5.9010 24.3304 0.0000 0.0000 0.0000
# 2 5.9010 19.8553 19.3214 0.0000 0.0000 0.0000
# 3 24.3304 19.3214 141.5695 0.0000 0.0000 0.0000
# 4 0.0000 0.0000 0.0000 22.3780 0.0000 0.0000
# 5 0.0000 0.0000 0.0000 0.0000 35.0750 0.0000
# 6 0.0000 0.0000 0.0000 0.0000 0.0000 6.0825
#
#
#
# Elastic Compliance Matrix: (Units=1/GPa)
#
#
# Indices 1 2 3 4 5 6 
#
# 1 0.015235 -0.002283 -0.002307 0.000000 0.000000 0.000000
# 2 -0.002283 0.058420 -0.007581 0.000000 0.000000 0.000000
# 3 -0.002307 -0.007581 0.008495 0.000000 0.000000 0.000000
# 4 0.000000 0.000000 0.000000 0.044687 0.000000 0.000000
# 5 0.000000 0.000000 0.000000 0.000000 0.028510 0.000000
# 6 0.000000 0.000000 0.000000 0.000000 0.000000 0.164407
#
#
# Mechanical properties :
#
#
# Convention : Reuss Voigt Hill
#
# Bulk Modulus (GPa) = 17.29852 36.74845 27.02348
# Shear Modulus (GPa) = 13.76026 24.84559 19.30292
#
# Velocity S-wave (km/s) = 2.67757 3.59792 3.17131
# Velocity P-wave (km/s) = 4.30953 6.03380 5.24303
#
# Compressibility (1/GPa) = 0.05780842
#
# Stress axis : x y z
#
# Youngs Moduli (GPa) = 65.63735 17.11746 117.72001
#
# Poissons Ratio (x) = 0.03908 0.27155
# Poissons Ratio (y) = 0.14986 0.89241
# Poissons Ratio (z) = 0.15141 0.12976
#
# Static dielectric constant tensor:
#      x y z
#    x 1.644630 0.000000 0.000000 
#    y 0.000000 1.645680 0.000000 
#    z 0.000000 0.000000 1.655630 
# 
# From -- ./inp_files/20538.got.cif
#   From: 2010.05.17/outbox.cif.g08.bks.cpg/sg59_11_cif.got.tgz:20538.got - 2010.06.03 14:40:33.
