data_PCOD9451382
_publ_section_title
;
Structure prediction by ZEFSAII (Michael W. Deem and Ramdas Pophale) SiO2 
 PCOD9451382
Probable space group: P M M N
;
_chemical_formula_sum "Si O2"
_cell_formula_units_Z 64
_cell_length_a 14.480764
_cell_length_b 18.606188
_cell_length_c 11.803491
_cell_angle_alpha 90.000000
_cell_angle_beta 90.000000
_cell_angle_gamma 90.000000
_cell_volume 3180.236031
_symmetry_space_group_name_H-M "P M M N"
_symmetry_group_IT_number 59
_space_group.IT_coordinate_system_code '2'
_symmetry_cell_setting 'orthorhombic'
loop_
_space_group_symop_operation_xyz
x,y,z
1/2-x,1/2-y,z
1/2+x,-y,-z
-x,1/2+y,-z
-x,-y,-z
1/2+x,1/2+y,-z
1/2-x,y,z
x,1/2-y,z
loop_
_atom_site_type_symbol
_atom_site_label
_atom_site_fract_x
_atom_site_fract_y
_atom_site_fract_z
Si Si1 0.936686 0.113074 0.785762
Si Si2 0.988488 0.434242 0.413291
Si Si3 0.644925 0.955819 0.743111
Si Si4 0.644896 0.334495 0.553562
Si Si5 0.616274 0.829397 0.917719
Si Si6 0.647626 0.884515 0.165115
Si Si7 0.899785 0.168916 0.036670
Si Si8 0.150184 0.546068 0.793057
O O1 0.883383 0.150326 0.683054
O O2 0.047784 0.128197 0.775444
O O3 0.909346 0.028626 0.778605
O O4 0.903513 0.143052 0.906778
O O5 0.932414 0.373034 0.478138
O O6 0.926548 0.450979 0.303137
O O7 0.000000 0.500000 0.500000
O O8 0.089699 0.421098 0.362006
O O9 0.750000 0.975411 0.714728
O O10 0.645519 0.896153 0.841281
O O11 0.750000 0.361012 0.533134
O O12 0.643870 0.250000 0.531274
O O13 0.645986 0.750000 0.878998
O O14 0.505562 0.829608 0.921585
O O15 0.645908 0.842500 0.047091
O O16 0.750000 0.870968 0.219176
O O17 0.643301 0.970177 0.142359
O O18 0.862660 0.250000 0.044579
O O19 0.854619 0.110583 0.118176
O O20 0.250000 0.547817 0.735232
#
# Coordination Sequence:
#
# PCOD9451382 Si02
#       8
#     8   8   8   8   8   8   8   8
#     4  11  21  41  65  96 131 169 215 271 320 389
#     4  12  24  44  66  91 126 168 217 277 327 383
#     4  12  24  39  66  95 122 165 220 274 328 386
#     4  11  25  45  70  97 128 172 222 272 333 401
#     4  10  21  38  59  88 130 172 212 258 313 385
#     4  10  20  36  60  92 127 170 213 253 312 383
#     4  10  21  37  61  93 132 172 206 255 323 390
#     4  11  22  38  62  92 126 163 208 261 320 385
#
# _framework density 20.124293000000002
#
# number of rings (size 3 to 8) (size 9 to 14) (size 15 to 20)
#    0.000    1.125    3.750    2.250    0.000    7.250 
#    0.000    0.625    0.000    0.750    0.000    0.000 
#    0.000    0.000    0.000    0.000    0.000    0.000 
#
# Total GULP energy -357191.001120 kJ/mol
# GULP energy per Si atom -5581.109392 kJ/mol
# Density = 2.007849 g / cm^3
# Si number density = 20.124293 Si / 1000 Ang^3
#
#
#
# Elastic Constant Matrix: (Units=GPa)
#
#
# Indices 1 2 3 4 5 6 
#
# 1 124.0068 11.3990 22.3573 0.0000 0.0000 0.0000
# 2 11.3990 71.3245 18.1245 0.0000 0.0000 0.0000
# 3 22.3573 18.1245 56.5654 0.0000 0.0000 0.0000
# 4 0.0000 0.0000 0.0000 14.6650 0.0000 0.0000
# 5 0.0000 0.0000 0.0000 0.0000 10.0021 0.0000
# 6 0.0000 0.0000 0.0000 0.0000 0.0000 15.0849
#
#
#
# Elastic Compliance Matrix: (Units=1/GPa)
#
#
# Indices 1 2 3 4 5 6 
#
# 1 0.008703 -0.000563 -0.003260 0.000000 0.000000 0.000000
# 2 -0.000563 0.015300 -0.004680 0.000000 0.000000 0.000000
# 3 -0.003260 -0.004680 0.020467 0.000000 0.000000 0.000000
# 4 0.000000 0.000000 0.000000 0.068190 0.000000 0.000000
# 5 0.000000 0.000000 0.000000 0.000000 0.099979 0.000000
# 6 0.000000 0.000000 0.000000 0.000000 0.000000 0.066291
#
#
# Mechanical properties :
#
#
# Convention : Reuss Voigt Hill
#
# Bulk Modulus (GPa) = 36.40981 39.51760 37.96371
# Shear Modulus (GPa) = 16.38866 21.28480 18.83673
#
# Velocity S-wave (km/s) = 2.85682 3.25571 3.06276
# Velocity P-wave (km/s) = 5.38643 5.81483 5.60472
#
# Compressibility (1/GPa) = 0.02746512
#
# Stress axis : x y z
#
# Youngs Moduli (GPa) = 114.89635 65.36135 48.86023
#
# Poissons Ratio (x) = 0.03678 0.15927
# Poissons Ratio (y) = 0.06465 0.22866
# Poissons Ratio (z) = 0.37453 0.30588
#
# Static dielectric constant tensor:
#      x y z
#    x 1.755850 0.000000 0.000000 
#    y 0.000000 1.747680 0.000000 
#    z 0.000000 0.000000 1.678180 
# 
# From -- ./inp_files/17262.got.cif
#   From: 2010.05.17/outbox.cif.g08.bks.cpg/sg59_9_cif.got.tgz:17262.got - 2010.06.03 14:40:33.
