data_PCOD9451910
_publ_section_title
;
Structure prediction by ZEFSAII (Michael W. Deem and Ramdas Pophale) SiO2 
 PCOD9451910
Probable space group: P M M N
;
_chemical_formula_sum "Si O2"
_cell_formula_units_Z 64
_cell_length_a 13.427914
_cell_length_b 19.116429
_cell_length_c 11.213883
_cell_angle_alpha 90.000000
_cell_angle_beta 90.000000
_cell_angle_gamma 90.000000
_cell_volume 2878.533843
_symmetry_space_group_name_H-M "P M M N"
_symmetry_group_IT_number 59
_space_group.IT_coordinate_system_code '2'
_symmetry_cell_setting 'orthorhombic'
loop_
_space_group_symop_operation_xyz
x,y,z
1/2-x,1/2-y,z
1/2+x,-y,-z
-x,1/2+y,-z
-x,-y,-z
1/2+x,1/2+y,-z
1/2-x,y,z
x,1/2-y,z
loop_
_atom_site_type_symbol
_atom_site_label
_atom_site_fract_x
_atom_site_fract_y
_atom_site_fract_z
Si Si1 0.129719 0.327218 0.425239
Si Si2 0.870886 0.527322 0.683684
Si Si3 0.870885 0.390318 0.300153
Si Si4 0.131961 0.883162 0.432080
Si Si5 0.630064 0.963548 0.190053
Si Si6 0.371036 0.969736 0.061097
Si Si7 0.953797 0.827491 0.307180
Si Si8 0.371507 0.672914 0.950712
O O1 0.250000 0.327363 0.418926
O O2 0.095448 0.250000 0.383525
O O3 0.094514 0.395643 0.353426
O O4 0.099769 0.334301 0.563559
O O5 0.750000 0.530284 0.685224
O O6 0.894952 0.464538 0.592547
O O7 0.903266 0.502775 0.814761
O O8 0.750000 0.388547 0.296456
O O9 0.895160 0.364253 0.432281
O O10 0.896632 0.471753 0.277538
O O11 0.903377 0.346797 0.184310
O O12 0.250000 0.875361 0.415238
O O13 0.069510 0.838255 0.339233
O O14 0.750000 0.957666 0.194375
O O15 0.584310 0.890793 0.228548
O O16 0.602567 0.986028 0.055946
O O17 0.250000 0.968316 0.064419
O O18 0.402812 0.890056 0.036539
O O19 0.934011 0.750000 0.259932
O O20 0.250000 0.673347 0.950551
O O21 0.406289 0.750000 0.984395
#
# Coordination Sequence:
#
# PCOD9451910 Si02
#       8
#     8   8   8   8   8   8   8   8
#     4   9  18  33  54  81 112 142 174 221 277 328
#     4   9  17  32  54  79 109 146 185 217 256 323
#     4   8  15  28  48  75 103 133 172 216 268 326
#     4  10  21  36  54  77 106 141 179 221 268 319
#     4   9  17  32  54  80 110 139 173 224 273 314
#     4   8  15  29  50  78 110 144 185 225 261 312
#     4  11  23  36  52  77 107 142 185 225 271 331
#     4   8  13  23  43  71 102 137 179 228 273 309
#
# _framework density 22.233540999999999
#
# number of rings (size 3 to 8) (size 9 to 14) (size 15 to 20)
#    0.000    3.000    0.000    2.625    0.000    5.500 
#    0.000    3.125    0.000    4.500    0.000    0.000 
#    0.000    0.000    0.000    0.000    0.000    0.000 
#
# Total GULP energy -357840.906655 kJ/mol
# GULP energy per Si atom -5591.264166 kJ/mol
# Density = 2.218294 g / cm^3
# Si number density = 22.233541 Si / 1000 Ang^3
#
#
#
# Elastic Constant Matrix: (Units=GPa)
#
#
# Indices 1 2 3 4 5 6 
#
# 1 59.0295 16.9218 11.4106 0.0000 0.0000 0.0000
# 2 16.9218 171.0356 47.5124 0.0000 0.0000 0.0000
# 3 11.4106 47.5124 73.7130 0.0000 0.0000 0.0000
# 4 0.0000 0.0000 0.0000 23.9564 0.0000 0.0000
# 5 0.0000 0.0000 0.0000 0.0000 31.1825 0.0000
# 6 0.0000 0.0000 0.0000 0.0000 0.0000 22.9628
#
#
#
# Elastic Compliance Matrix: (Units=1/GPa)
#
#
# Indices 1 2 3 4 5 6 
#
# 1 0.017664 -0.001204 -0.001959 0.000000 0.000000 0.000000
# 2 -0.001204 0.007204 -0.004457 0.000000 0.000000 0.000000
# 3 -0.001959 -0.004457 0.016742 0.000000 0.000000 0.000000
# 4 0.000000 0.000000 0.000000 0.041742 0.000000 0.000000
# 5 0.000000 0.000000 0.000000 0.000000 0.032069 0.000000
# 6 0.000000 0.000000 0.000000 0.000000 0.000000 0.043549
#
#
# Mechanical properties :
#
#
# Convention : Reuss Voigt Hill
#
# Bulk Modulus (GPa) = 37.91914 50.60752 44.26333
# Shear Modulus (GPa) = 27.32241 30.81591 29.06916
#
# Velocity S-wave (km/s) = 3.50935 3.72695 3.61979
# Velocity P-wave (km/s) = 5.78901 6.42895 6.11736
#
# Compressibility (1/GPa) = 0.02637191
#
# Stress axis : x y z
#
# Youngs Moduli (GPa) = 56.61134 138.81278 59.72950
#
# Poissons Ratio (x) = 0.16707 0.11699
# Poissons Ratio (y) = 0.06814 0.26622
# Poissons Ratio (z) = 0.11088 0.61870
#
# Static dielectric constant tensor:
#      x y z
#    x 1.878100 0.000000 0.000000 
#    y 0.000000 1.792970 0.000000 
#    z 0.000000 0.000000 1.778670 
# 
# From -- ./inp_files/17180.got.cif
#   From: 2010.05.17/outbox.cif.g08.bks.cpg/sg59_9_cif.got.tgz:17180.got - 2010.06.03 14:40:33.
