data_PCOD9451413
_publ_section_title
;
Structure prediction by ZEFSAII (Michael W. Deem and Ramdas Pophale) SiO2 
 PCOD9451413
Probable space group: P M M N
;
_chemical_formula_sum "Si O2"
_cell_formula_units_Z 48
_cell_length_a 15.762584
_cell_length_b 7.683001
_cell_length_c 19.610460
_cell_angle_alpha 90.000000
_cell_angle_beta 90.000000
_cell_angle_gamma 90.000000
_cell_volume 2374.904141
_symmetry_space_group_name_H-M "P M M N"
_symmetry_group_IT_number 59
_space_group.IT_coordinate_system_code '2'
_symmetry_cell_setting 'orthorhombic'
loop_
_space_group_symop_operation_xyz
x,y,z
1/2-x,1/2-y,z
1/2+x,-y,-z
-x,1/2+y,-z
-x,-y,-z
1/2+x,1/2+y,-z
1/2-x,y,z
x,1/2-y,z
loop_
_atom_site_type_symbol
_atom_site_label
_atom_site_fract_x
_atom_site_fract_y
_atom_site_fract_z
Si Si1 0.849269 0.539715 0.180450
Si Si2 0.750000 0.543291 0.410468
Si Si3 0.146394 0.942077 0.970190
Si Si4 0.147877 0.250000 0.223690
Si Si5 0.100274 0.960241 0.330075
Si Si6 0.145866 0.250000 0.067826
Si Si7 0.750000 0.458529 0.568448
Si Si8 0.089493 0.461410 0.673462
O O1 0.750000 0.490228 0.188207
O O2 0.851951 0.750000 0.177520
O O3 0.881358 0.473624 0.107666
O O4 0.897131 0.480516 0.248377
O O5 0.750000 0.750000 0.397375
O O6 0.750000 0.519637 0.491120
O O7 0.665464 0.473248 0.373999
O O8 0.250000 0.953318 0.967589
O O9 0.122384 0.750000 0.992400
O O10 0.117634 0.084125 0.024125
O O11 0.250000 0.250000 0.223375
O O12 0.119551 0.422798 0.264146
O O13 0.117408 0.250000 0.145728
O O14 0.107184 0.750000 0.317474
O O15 0.167612 0.010595 0.388083
O O16 0.004364 0.002444 0.351663
O O17 0.250000 0.250000 0.068720
O O18 0.750000 0.250000 0.566196
O O19 0.094497 0.250000 0.675047
#
# Coordination Sequence:
#
# PCOD9451413 Si02
#       8
#     8   4   8   4   8   4   4   8
#     4   9  14  26  52  79 113 156 198 239 292 353
#     4  10  20  36  62  94 124 157 198 240 295 365
#     4   9  16  27  45  76 114 152 190 235 298 356
#     4  11  22  38  66  91 111 151 210 252 308 351
#     4  10  22  41  63  87 120 158 202 251 299 355
#     4   9  18  32  50  82 113 143 190 255 296 346
#     4  10  22  40  60  84 120 159 196 247 306 352
#     4   9  18  35  58  90 123 158 201 246 296 355
#
# _framework density 20.211341999999998
#
# number of rings (size 3 to 8) (size 9 to 14) (size 15 to 20)
#    0.000    2.500    2.500    0.000    1.167    1.333 
#    3.000    1.667    0.000    1.000    0.000    0.000 
#    0.000    0.000    0.000    0.000    0.000    0.000 
#
# Total GULP energy -267911.879851 kJ/mol
# GULP energy per Si atom -5581.497497 kJ/mol
# Density = 2.016534 g / cm^3
# Si number density = 20.211342 Si / 1000 Ang^3
#
#
#
# Elastic Constant Matrix: (Units=GPa)
#
#
# Indices 1 2 3 4 5 6 
#
# 1 109.3549 33.8442 74.5683 0.0000 0.0000 0.0000
# 2 33.8442 70.6574 48.6953 0.0000 0.0000 0.0000
# 3 74.5683 48.6953 163.6037 0.0000 0.0000 0.0000
# 4 0.0000 0.0000 0.0000 -32.5782 0.0000 0.0000
# 5 0.0000 0.0000 0.0000 0.0000 -2.1743 0.0000
# 6 0.0000 0.0000 0.0000 0.0000 0.0000 0.8907
#
#
#
# Elastic Compliance Matrix: (Units=1/GPa)
#
#
# Indices 1 2 3 4 5 6 
#
# 1 0.013708 -0.002843 -0.005402 0.000000 0.000000 0.000000
# 2 -0.002843 0.018395 -0.004179 0.000000 0.000000 0.000000
# 3 -0.005402 -0.004179 0.009818 0.000000 0.000000 0.000000
# 4 0.000000 0.000000 0.000000 -0.030695 0.000000 0.000000
# 5 0.000000 0.000000 0.000000 0.000000 -0.459915 0.000000
# 6 0.000000 0.000000 0.000000 0.000000 0.000000 1.122735
#
#
# Mechanical properties :
#
#
# Convention : Reuss Voigt Hill
#
# Bulk Modulus (GPa) = 58.57249 73.09240 65.83245
# Shear Modulus (GPa) = 7.09638 5.66151 6.37894
#
# Velocity S-wave (km/s) = 1.87582 1.67548 1.77847
# Velocity P-wave (km/s) = 5.80814 6.32341 6.07125
#
# Compressibility (1/GPa) = 0.01707286
#
# Stress axis : x y z
#
# Youngs Moduli (GPa) = 72.95133 54.36299 101.85210
#
# Poissons Ratio (x) = 0.15457 0.55016
# Poissons Ratio (y) = 0.20742 0.42565
# Poissons Ratio (z) = 0.39405 0.22719
#
# Static dielectric constant tensor:
#      x y z
#    x 1.734790 0.000000 0.000000 
#    y 0.000000 1.730400 0.000000 
#    z 0.000000 0.000000 1.675730 
# 
# From -- ./inp_files/27516.got.cif
#   From: 2010.05.17/outbox.cif.g08.bks.cpg/sg59_14_cif.got.tgz:27516.got - 2010.06.03 14:40:33.
