data_PCOD9451058
_publ_section_title
;
Structure prediction by ZEFSAII (Michael W. Deem and Ramdas Pophale) SiO2 
 PCOD9451058
Probable space group: P M M N
;
_chemical_formula_sum "Si O2"
_cell_formula_units_Z 48
_cell_length_a 19.258015
_cell_length_b 8.884234
_cell_length_c 15.422277
_cell_angle_alpha 90.000000
_cell_angle_beta 90.000000
_cell_angle_gamma 90.000000
_cell_volume 2638.639192
_symmetry_space_group_name_H-M "P M M N"
_symmetry_group_IT_number 59
_space_group.IT_coordinate_system_code '2'
_symmetry_cell_setting 'orthorhombic'
loop_
_space_group_symop_operation_xyz
x,y,z
1/2-x,1/2-y,z
1/2+x,-y,-z
-x,1/2+y,-z
-x,-y,-z
1/2+x,1/2+y,-z
1/2-x,y,z
x,1/2-y,z
loop_
_atom_site_type_symbol
_atom_site_label
_atom_site_fract_x
_atom_site_fract_y
_atom_site_fract_z
Si Si1 0.576369 0.069995 0.897801
Si Si2 0.416797 0.929336 0.404732
Si Si3 0.169243 0.069827 0.253848
Si Si4 0.584903 0.929790 0.084983
Si Si5 0.566079 0.069540 0.394948
Si Si6 0.669684 0.431189 0.240613
O O1 0.583486 0.250000 0.897278
O O2 0.494455 0.033349 0.886863
O O3 0.622512 0.999310 0.822432
O O4 0.596919 0.004959 0.991603
O O5 0.412365 0.750000 0.393644
O O6 0.409866 0.965096 0.506958
O O7 0.360809 0.008840 0.344315
O O8 0.493530 0.986180 0.378588
O O9 0.250000 0.028268 0.243246
O O10 0.163583 0.250000 0.251624
O O11 0.590188 0.750000 0.076888
O O12 0.637079 0.991774 0.156513
O O13 0.554015 0.250000 0.390754
O O14 0.623271 0.028617 0.323992
O O15 0.750000 0.472301 0.252473
O O16 0.665757 0.250000 0.230402
#
# Coordination Sequence:
#
# PCOD9451058 Si02
#       6
#     8   8   8   8   8   8
#     4  10  21  38  61  85 107 138 182 227 270 322
#     4  10  20  35  58  85 110 141 184 231 276 324
#     4  11  24  39  55  79 113 150 184 223 275 330
#     4  10  21  37  58  84 111 140 177 222 273 325
#     4   9  19  36  58  82 110 145 184 228 274 321
#     4  10  21  36  54  78 109 146 185 222 264 317
#
# _framework density 18.191196000000001
#
# number of rings (size 3 to 8) (size 9 to 14) (size 15 to 20)
#    0.000    2.000    0.000    3.000    0.000    9.000 
#    0.000    1.667    0.000    0.000    0.000    0.000 
#    0.000    0.000    0.000    0.000    0.000    0.000 
#
# Total GULP energy -268176.338910 kJ/mol
# GULP energy per Si atom -5587.007061 kJ/mol
# Density = 1.814979 g / cm^3
# Si number density = 18.191196 Si / 1000 Ang^3
#
#
#
# Elastic Constant Matrix: (Units=GPa)
#
#
# Indices 1 2 3 4 5 6 
#
# 1 45.7923 20.3701 22.5346 0.0000 0.0000 0.0000
# 2 20.3701 29.1961 15.6348 0.0000 0.0000 0.0000
# 3 22.5346 15.6348 44.1198 0.0000 0.0000 0.0000
# 4 0.0000 0.0000 0.0000 31.8249 0.0000 0.0000
# 5 0.0000 0.0000 0.0000 0.0000 -4.7936 0.0000
# 6 0.0000 0.0000 0.0000 0.0000 0.0000 29.7630
#
#
#
# Elastic Compliance Matrix: (Units=1/GPa)
#
#
# Indices 1 2 3 4 5 6 
#
# 1 0.035973 -0.018833 -0.011700 0.000000 0.000000 0.000000
# 2 -0.018833 0.052133 -0.008855 0.000000 0.000000 0.000000
# 3 -0.011700 -0.008855 0.031779 0.000000 0.000000 0.000000
# 4 0.000000 0.000000 0.000000 0.031422 0.000000 0.000000
# 5 0.000000 0.000000 0.000000 0.000000 -0.208610 0.000000
# 6 0.000000 0.000000 0.000000 0.000000 0.000000 0.033599
#
#
# Mechanical properties :
#
#
# Convention : Reuss Voigt Hill
#
# Bulk Modulus (GPa) = 24.32536 26.24303 25.28419
# Shear Modulus (GPa) = 72.70126 15.39677 44.04902
#
# Velocity S-wave (km/s) = 6.32865 2.91243 4.92616
# Velocity P-wave (km/s) = 8.17334 5.07614 6.80333
#
# Compressibility (1/GPa) = 0.04110937
#
# Stress axis : x y z
#
# Youngs Moduli (GPa) = 27.79885 19.18167 31.46693
#
# Poissons Ratio (x) = 0.36125 0.36815
# Poissons Ratio (y) = 0.52353 0.27865
# Poissons Ratio (z) = 0.32524 0.16986
#
# Static dielectric constant tensor:
#      x y z
#    x 1.599360 0.000000 0.000000 
#    y 0.000000 1.606950 0.000000 
#    z 0.000000 0.000000 1.602720 
# 
# From -- ./inp_files/20435.got.cif
#   From: 2010.05.17/outbox.cif.g08.bks.cpg/sg59_11_cif.got.tgz:20435.got - 2010.06.03 14:40:33.
