data_PCOD9451423
_publ_section_title
;
Structure prediction by ZEFSAII (Michael W. Deem and Ramdas Pophale) SiO2 
 PCOD9451423
Probable space group: P M M N
;
_chemical_formula_sum "Si O2"
_cell_formula_units_Z 48
_cell_length_a 7.399530
_cell_length_b 17.463852
_cell_length_c 16.869978
_cell_angle_alpha 90.000000
_cell_angle_beta 90.000000
_cell_angle_gamma 90.000000
_cell_volume 2180.011044
_symmetry_space_group_name_H-M "P M M N"
_symmetry_group_IT_number 59
_space_group.IT_coordinate_system_code '2'
_symmetry_cell_setting 'orthorhombic'
loop_
_space_group_symop_operation_xyz
x,y,z
1/2-x,1/2-y,z
1/2+x,-y,-z
-x,1/2+y,-z
-x,-y,-z
1/2+x,1/2+y,-z
1/2-x,y,z
x,1/2-y,z
loop_
_atom_site_type_symbol
_atom_site_label
_atom_site_fract_x
_atom_site_fract_y
_atom_site_fract_z
Si Si1 0.042562 0.058482 0.122431
Si Si2 0.467808 0.250000 0.676440
Si Si3 0.970398 0.896684 0.043476
Si Si4 0.959255 0.090546 0.591351
Si Si5 0.030026 0.250000 0.857994
Si Si6 0.468492 0.838108 0.567733
Si Si7 0.962575 0.954779 0.701411
O O1 0.250000 0.084498 0.131874
O O2 0.960633 0.056031 0.210227
O O3 0.966460 0.105857 0.047893
O O4 0.037457 0.972762 0.087116
O O5 0.250000 0.250000 0.673373
O O6 0.532215 0.327329 0.634489
O O7 0.528469 0.250000 0.767343
O O8 0.750000 0.900735 0.042446
O O9 0.026945 0.824607 0.094559
O O10 0.750000 0.068993 0.578846
O O11 0.036821 0.108248 0.504291
O O12 0.038760 0.024790 0.648086
O O13 0.250000 0.250000 0.856789
O O14 0.250000 0.836310 0.562401
O O15 0.530420 0.750000 0.560269
O O16 0.518781 0.878355 0.649659
O O17 0.750000 0.972888 0.712847
#
# Coordination Sequence:
#
# PCOD9451423 Si02
#       7
#     8   4   8   8   4   8   8
#     4   9  18  33  51  77 105 132 171 214 257 304
#     4  11  21  31  51  82 109 132 176 227 259 307
#     4   9  17  32  53  72 101 140 172 207 254 309
#     4  10  20  37  56  75 108 144 172 211 271 324
#     4   9  18  31  47  74 103 132 170 207 251 305
#     4  10  21  38  56  74 103 143 179 212 262 322
#     4  10  21  35  55  83 107 135 179 224 262 311
#
# _framework density 22.018236000000002
#
# number of rings (size 3 to 8) (size 9 to 14) (size 15 to 20)
#    0.000    2.333    0.833    1.750    0.000    2.333 
#    1.500    1.250    0.000    0.000    0.000    0.000 
#    0.000    0.000    0.000    0.000    0.000    0.000 
#
# Total GULP energy -268014.300632 kJ/mol
# GULP energy per Si atom -5583.631263 kJ/mol
# Density = 2.196812 g / cm^3
# Si number density = 22.018236 Si / 1000 Ang^3
#
#
#
# Elastic Constant Matrix: (Units=GPa)
#
#
# Indices 1 2 3 4 5 6 
#
# 1 77.3639 -11.0462 -1.3952 0.0000 0.0000 0.0000
# 2 -11.0462 27.6003 25.7989 0.0000 0.0000 0.0000
# 3 -1.3952 25.7989 206.3742 0.0000 0.0000 0.0000
# 4 0.0000 0.0000 0.0000 20.4974 0.0000 0.0000
# 5 0.0000 0.0000 0.0000 0.0000 -12.1570 0.0000
# 6 0.0000 0.0000 0.0000 0.0000 0.0000 10.1676
#
#
#
# Elastic Compliance Matrix: (Units=1/GPa)
#
#
# Indices 1 2 3 4 5 6 
#
# 1 0.013792 0.006152 -0.000676 0.000000 0.000000 0.000000
# 2 0.006152 0.043769 -0.005430 0.000000 0.000000 0.000000
# 3 -0.000676 -0.005430 0.005520 0.000000 0.000000 0.000000
# 4 0.000000 0.000000 0.000000 0.048787 0.000000 0.000000
# 5 0.000000 0.000000 0.000000 0.000000 -0.082257 0.000000
# 6 0.000000 0.000000 0.000000 0.000000 0.000000 0.098352
#
#
# Mechanical properties :
#
#
# Convention : Reuss Voigt Hill
#
# Bulk Modulus (GPa) = 15.82967 37.56148 26.69558
# Shear Modulus (GPa) = 33.57320 23.56699 28.57009
#
# Velocity S-wave (km/s) = 3.90909 3.27515 3.60608
# Velocity P-wave (km/s) = 5.25163 5.60343 5.43038
#
# Compressibility (1/GPa) = 0.06317249
#
# Stress axis : x y z
#
# Youngs Moduli (GPa) = 72.50542 22.84717 181.16581
#
# Poissons Ratio (x) = -0.14054 0.12242
# Poissons Ratio (y) = -0.44602 0.98373
# Poissons Ratio (z) = 0.04900 0.12406
#
# Static dielectric constant tensor:
#      x y z
#    x 1.835030 0.000000 0.000000 
#    y 0.000000 1.749190 0.000000 
#    z 0.000000 0.000000 1.812060 
# 
# From -- ./inp_files/20525.got.cif
#   From: 2010.05.17/outbox.cif.g08.bks.cpg/sg59_11_cif.got.tgz:20525.got - 2010.06.03 14:40:33.
