data_PCOD9451390
_publ_section_title
;
Structure prediction by ZEFSAII (Michael W. Deem and Ramdas Pophale) SiO2 
 PCOD9451390
Probable space group: P M M N
;
_chemical_formula_sum "Si O2"
_cell_formula_units_Z 64
_cell_length_a 7.845778
_cell_length_b 31.661809
_cell_length_c 12.179173
_cell_angle_alpha 90.000000
_cell_angle_beta 90.000000
_cell_angle_gamma 90.000000
_cell_volume 3025.446932
_symmetry_space_group_name_H-M "P M M N"
_symmetry_group_IT_number 59
_space_group.IT_coordinate_system_code '2'
_symmetry_cell_setting 'orthorhombic'
loop_
_space_group_symop_operation_xyz
x,y,z
1/2-x,1/2-y,z
1/2+x,-y,-z
-x,1/2+y,-z
-x,-y,-z
1/2+x,1/2+y,-z
1/2-x,y,z
x,1/2-y,z
loop_
_atom_site_type_symbol
_atom_site_label
_atom_site_fract_x
_atom_site_fract_y
_atom_site_fract_z
Si Si1 0.552308 0.368675 0.898012
Si Si2 0.541249 0.122249 0.145386
Si Si3 0.947061 0.552299 0.242155
Si Si4 0.451986 0.297294 0.733394
Si Si5 0.452433 0.161308 0.508602
Si Si6 0.947491 0.433149 0.512542
Si Si7 0.040929 0.960663 0.721986
Si Si8 0.456209 0.703076 0.714849
O O1 0.750000 0.358410 0.911532
O O2 0.536254 0.410255 0.822961
O O3 0.475213 0.329133 0.833774
O O4 0.482366 0.377149 0.019522
O O5 0.750000 0.121236 0.146565
O O6 0.485791 0.080522 0.211087
O O7 0.486518 0.164869 0.207226
O O8 0.750000 0.553856 0.208782
O O9 0.014330 0.504866 0.225340
O O10 0.958493 0.559973 0.372921
O O11 0.250000 0.293456 0.715227
O O12 0.520951 0.250000 0.750630
O O13 0.519809 0.319033 0.622245
O O14 0.250000 0.153149 0.518954
O O15 0.540164 0.116600 0.485060
O O16 0.483777 0.192552 0.407888
O O17 0.750000 0.444463 0.529587
O O18 0.014504 0.457245 0.405135
O O19 0.250000 0.960898 0.719457
O O20 0.250000 0.702576 0.714928
O O21 0.512356 0.750000 0.748346
#
# Coordination Sequence:
#
# PCOD9451390 Si02
#       8
#     8   8   8   8   8   8   8   8
#     4  11  23  38  60  85 112 150 197 246 285 329
#     4   9  19  38  59  82 113 149 196 245 287 328
#     4  11  22  37  58  85 118 154 188 229 290 349
#     4  10  22  40  60  82 115 155 188 228 286 345
#     4  11  21  35  58  87 119 153 184 226 286 345
#     4  11  20  35  61  88 115 148 189 234 282 339
#     4   9  19  36  60  85 114 152 188 233 288 342
#     4  10  20  36  61  88 115 150 190 234 284 340
#
# _framework density 21.153898999999999
#
# number of rings (size 3 to 8) (size 9 to 14) (size 15 to 20)
#    0.000    1.750    2.500    2.250    0.000    2.500 
#    0.000    4.375    0.000    0.000    0.000    0.000 
#    0.000    0.000    0.000    0.000    0.000    0.000 
#
# Total GULP energy -357632.007195 kJ/mol
# GULP energy per Si atom -5588.000112 kJ/mol
# Density = 2.110575 g / cm^3
# Si number density = 21.153899 Si / 1000 Ang^3
#
#
#
# Elastic Constant Matrix: (Units=GPa)
#
#
# Indices 1 2 3 4 5 6 
#
# 1 27.2212 -7.8074 -9.8529 0.0000 0.0000 0.0000
# 2 -7.8074 109.8404 20.6390 0.0000 0.0000 0.0000
# 3 -9.8529 20.6390 101.1959 0.0000 0.0000 0.0000
# 4 0.0000 0.0000 0.0000 4.4588 0.0000 0.0000
# 5 0.0000 0.0000 0.0000 0.0000 -13.7951 0.0000
# 6 0.0000 0.0000 0.0000 0.0000 0.0000 5.2827
#
#
#
# Elastic Compliance Matrix: (Units=1/GPa)
#
#
# Indices 1 2 3 4 5 6 
#
# 1 0.038545 0.002116 0.003321 0.000000 0.000000 0.000000
# 2 0.002116 0.009583 -0.001748 0.000000 0.000000 0.000000
# 3 0.003321 -0.001748 0.010562 0.000000 0.000000 0.000000
# 4 0.000000 0.000000 0.000000 0.224274 0.000000 0.000000
# 5 0.000000 0.000000 0.000000 0.000000 -0.072490 0.000000
# 6 0.000000 0.000000 0.000000 0.000000 0.000000 0.189299
#
#
# Mechanical properties :
#
#
# Convention : Reuss Voigt Hill
#
# Bulk Modulus (GPa) = 15.13612 27.13500 21.13556
# Shear Modulus (GPa) = 12.06510 14.87453 13.46982
#
# Velocity S-wave (km/s) = 2.39079 2.65459 2.52613
# Velocity P-wave (km/s) = 3.84603 4.71710 4.30366
#
# Compressibility (1/GPa) = 0.06606714
#
# Stress axis : x y z
#
# Youngs Moduli (GPa) = 25.94367 104.35105 94.68064
#
# Poissons Ratio (x) = -0.22077 -0.31448
# Poissons Ratio (y) = -0.05489 0.16555
# Poissons Ratio (z) = -0.08617 0.18246
#
# Static dielectric constant tensor:
#      x y z
#    x 1.720710 0.000000 0.000000 
#    y 0.000000 1.760110 0.000000 
#    z 0.000000 0.000000 1.741540 
# 
# From -- ./inp_files/14977.got.cif
#   From: 2010.05.17/outbox.cif.g08.bks.cpg/sg59_8_cif.got.tgz:14977.got - 2010.06.03 14:40:33.
