data_PCOD9451476
_publ_section_title
;
Structure prediction by ZEFSAII (Michael W. Deem and Ramdas Pophale) SiO2 
 PCOD9451476
Probable space group: P M M N
;
_chemical_formula_sum "Si O2"
_cell_formula_units_Z 64
_cell_length_a 7.944064
_cell_length_b 26.142059
_cell_length_c 14.978366
_cell_angle_alpha 90.000000
_cell_angle_beta 90.000000
_cell_angle_gamma 90.000000
_cell_volume 3110.620023
_symmetry_space_group_name_H-M "P M M N"
_symmetry_group_IT_number 59
_space_group.IT_coordinate_system_code '2'
_symmetry_cell_setting 'orthorhombic'
loop_
_space_group_symop_operation_xyz
x,y,z
1/2-x,1/2-y,z
1/2+x,-y,-z
-x,1/2+y,-z
-x,-y,-z
1/2+x,1/2+y,-z
1/2-x,y,z
x,1/2-y,z
loop_
_atom_site_type_symbol
_atom_site_label
_atom_site_fract_x
_atom_site_fract_y
_atom_site_fract_z
Si Si1 0.948206 0.631877 0.911342
Si Si2 0.048620 0.098093 0.589398
Si Si3 0.942726 0.017046 0.097124
Si Si4 0.455461 0.307612 0.262549
Si Si5 0.953747 0.599593 0.613613
Si Si6 0.546623 0.191486 0.711605
Si Si7 0.546232 0.994670 0.288595
Si Si8 0.546635 0.190645 0.913632
O O1 0.750000 0.622065 0.898583
O O2 0.003169 0.672093 0.835688
O O3 0.038998 0.578134 0.897751
O O4 0.977251 0.654819 0.009118
O O5 0.250000 0.091670 0.583477
O O6 0.983403 0.097465 0.488165
O O7 0.013993 0.151040 0.639637
O O8 0.982019 0.051487 0.649830
O O9 0.750000 0.001779 0.100936
O O10 0.022777 0.993878 0.187167
O O11 0.000000 0.000000 0.000000
O O12 0.250000 0.306534 0.264933
O O13 0.514986 0.250000 0.278714
O O14 0.511938 0.349719 0.334185
O O15 0.750000 0.601394 0.612183
O O16 0.004035 0.548921 0.667032
O O17 0.750000 0.191497 0.711562
O O18 0.491565 0.250000 0.694445
O O19 0.492624 0.177161 0.812702
O O20 0.750000 0.991000 0.285480
O O21 0.750000 0.188153 0.916496
O O22 0.498373 0.250000 0.929557
#
# Coordination Sequence:
#
# PCOD9451476 Si02
#       8
#     8   8   8   8   8   8   8   8
#     4  11  21  35  57  83 114 150 191 236 285 347
#     4  10  22  37  58  88 115 148 193 240 289 342
#     4  11  24  40  58  83 117 153 189 238 293 344
#     4   9  18  33  54  82 115 150 189 234 284 340
#     4  10  20  37  60  85 114 150 194 239 288 343
#     4   9  20  39  59  82 115 153 190 232 285 343
#     4  10  22  40  59  83 118 150 187 240 291 341
#     4   9  19  36  56  80 112 149 190 234 280 335
#
# _framework density 20.574676
#
# number of rings (size 3 to 8) (size 9 to 14) (size 15 to 20)
#    0.000    2.125    1.250    2.250    1.750    3.500 
#    0.000    2.500    0.000    1.125    0.000    0.000 
#    0.000    0.000    0.000    0.000    0.000    0.000 
#
# Total GULP energy -357431.562374 kJ/mol
# GULP energy per Si atom -5584.868162 kJ/mol
# Density = 2.052785 g / cm^3
# Si number density = 20.574676 Si / 1000 Ang^3
#
#
#
# Elastic Constant Matrix: (Units=GPa)
#
#
# Indices 1 2 3 4 5 6 
#
# 1 12.6549 -1.5436 11.6481 0.0000 0.0000 0.0000
# 2 -1.5436 111.8541 81.9017 0.0000 0.0000 0.0000
# 3 11.6481 81.9017 182.6017 0.0000 0.0000 0.0000
# 4 0.0000 0.0000 0.0000 -78.0566 0.0000 0.0000
# 5 0.0000 0.0000 0.0000 0.0000 13.7142 0.0000
# 6 0.0000 0.0000 0.0000 0.0000 0.0000 18.2546
#
#
#
# Elastic Compliance Matrix: (Units=1/GPa)
#
#
# Indices 1 2 3 4 5 6 
#
# 1 0.088479 0.007972 -0.009220 0.000000 0.000000 0.000000
# 2 0.007972 0.014030 -0.006802 0.000000 0.000000 0.000000
# 3 -0.009220 -0.006802 0.009115 0.000000 0.000000 0.000000
# 4 0.000000 0.000000 0.000000 -0.012811 0.000000 0.000000
# 5 0.000000 0.000000 0.000000 0.000000 0.072917 0.000000
# 6 0.000000 0.000000 0.000000 0.000000 0.000000 0.054781
#
#
# Mechanical properties :
#
#
# Convention : Reuss Voigt Hill
#
# Bulk Modulus (GPa) = 10.46832 54.56923 32.51877
# Shear Modulus (GPa) = 18.21809 5.12274 11.67042
#
# Velocity S-wave (km/s) = 2.97890 1.57963 2.38423
# Velocity P-wave (km/s) = 4.11471 5.46874 4.83931
#
# Compressibility (1/GPa) = 0.09552633
#
# Stress axis : x y z
#
# Youngs Moduli (GPa) = 11.30207 71.27347 109.70680
#
# Poissons Ratio (x) = -0.56818 1.01146
# Poissons Ratio (y) = -0.09010 0.74618
# Poissons Ratio (z) = 0.10420 0.48477
#
# Static dielectric constant tensor:
#      x y z
#    x 1.730490 0.000000 0.000000 
#    y 0.000000 1.697100 0.000000 
#    z 0.000000 0.000000 1.753450 
# 
# From -- ./inp_files/21479.got.cif
#   From: 2010.05.17/outbox.cif.g08.bks.cpg/sg59_11_cif.got.tgz:21479.got - 2010.06.03 14:40:33.
