data_PCOD9451519
_publ_section_title
;
Structure prediction by ZEFSAII (Michael W. Deem and Ramdas Pophale) SiO2 
 PCOD9451519
Probable space group: P M M N
;
_chemical_formula_sum "Si O2"
_cell_formula_units_Z 48
_cell_length_a 30.405422
_cell_length_b 8.859658
_cell_length_c 9.686606
_cell_angle_alpha 90.000000
_cell_angle_beta 90.000000
_cell_angle_gamma 90.000000
_cell_volume 2609.393813
_symmetry_space_group_name_H-M "P M M N"
_symmetry_group_IT_number 59
_space_group.IT_coordinate_system_code '2'
_symmetry_cell_setting 'orthorhombic'
loop_
_space_group_symop_operation_xyz
x,y,z
1/2-x,1/2-y,z
1/2+x,-y,-z
-x,1/2+y,-z
-x,-y,-z
1/2+x,1/2+y,-z
1/2-x,y,z
x,1/2-y,z
loop_
_atom_site_type_symbol
_atom_site_label
_atom_site_fract_x
_atom_site_fract_y
_atom_site_fract_z
Si Si1 0.550248 0.929431 0.839584
Si Si2 0.372702 0.069037 0.647629
Si Si3 0.373432 0.570217 0.343877
Si Si4 0.801888 0.070237 0.150841
Si Si5 0.455577 0.430302 0.839658
Si Si6 0.697776 0.928645 0.853050
O O1 0.554808 0.750000 0.819787
O O2 0.584733 0.015027 0.744333
O O3 0.500529 0.981939 0.809544
O O4 0.558067 0.963534 0.002002
O O5 0.369073 0.250000 0.640329
O O6 0.416566 0.032083 0.735149
O O7 0.375147 0.000394 0.495767
O O8 0.331641 0.002113 0.731350
O O9 0.372536 0.750000 0.351998
O O10 0.330789 0.509499 0.262843
O O11 0.750000 0.042394 0.175469
O O12 0.808753 0.250000 0.144422
O O13 0.813218 0.996771 0.003084
O O14 0.464098 0.250000 0.832409
O O15 0.750000 0.949914 0.831050
O O16 0.688330 0.750000 0.853059
#
# Coordination Sequence:
#
# PCOD9451519 Si02
#       6
#     8   8   8   8   8   8
#     4  10  20  37  62  88 114 146 188 236 286 344
#     4  11  23  39  59  83 116 156 196 238 285 341
#     4  12  25  39  57  83 118 155 192 238 291 345
#     4  10  21  38  61  89 119 151 190 236 285 338
#     4   9  20  38  60  86 113 145 188 236 285 338
#     4  10  21  39  63  88 114 148 192 238 284 339
#
# _framework density 18.395077000000001
#
# number of rings (size 3 to 8) (size 9 to 14) (size 15 to 20)
#    0.000    1.667    0.000    4.500    0.000    6.667 
#    0.000    0.000    0.000    0.000    0.000    0.000 
#    0.000    0.000    0.000    0.000    0.000    0.000 
#
# Total GULP energy -268371.781119 kJ/mol
# GULP energy per Si atom -5591.078773 kJ/mol
# Density = 1.835321 g / cm^3
# Si number density = 18.395077 Si / 1000 Ang^3
#
#
#
# Elastic Constant Matrix: (Units=GPa)
#
#
# Indices 1 2 3 4 5 6 
#
# 1 90.2512 72.1399 89.8282 0.0000 0.0000 0.0000
# 2 72.1399 103.6663 79.9386 0.0000 0.0000 0.0000
# 3 89.8282 79.9386 147.9368 0.0000 0.0000 0.0000
# 4 0.0000 0.0000 0.0000 32.9471 0.0000 0.0000
# 5 0.0000 0.0000 0.0000 0.0000 -32.3144 0.0000
# 6 0.0000 0.0000 0.0000 0.0000 0.0000 36.7710
#
#
#
# Elastic Compliance Matrix: (Units=1/GPa)
#
#
# Indices 1 2 3 4 5 6 
#
# 1 0.037742 -0.014730 -0.014958 0.000000 0.000000 0.000000
# 2 -0.014730 0.022286 -0.003098 0.000000 0.000000 0.000000
# 3 -0.014958 -0.003098 0.017516 0.000000 0.000000 0.000000
# 4 0.000000 0.000000 0.000000 0.030352 0.000000 0.000000
# 5 0.000000 0.000000 0.000000 0.000000 -0.030946 0.000000
# 6 0.000000 0.000000 0.000000 0.000000 0.000000 0.027195
#
#
# Mechanical properties :
#
#
# Convention : Reuss Voigt Hill
#
# Bulk Modulus (GPa) = 83.52680 91.74088 87.63384
# Shear Modulus (GPa) = 28.78425 14.14391 21.46408
#
# Velocity S-wave (km/s) = 3.96002 2.77591 3.41961
# Velocity P-wave (km/s) = 8.14952 7.76241 7.95832
#
# Compressibility (1/GPa) = 0.01197221
#
# Stress axis : x y z
#
# Youngs Moduli (GPa) = 26.49599 44.87195 57.09036
#
# Poissons Ratio (x) = 0.66096 0.85393
# Poissons Ratio (y) = 0.39028 0.17687
# Poissons Ratio (z) = 0.39632 0.13902
#
# Static dielectric constant tensor:
#      x y z
#    x 1.616470 0.000000 0.000000 
#    y 0.000000 1.610260 0.000000 
#    z 0.000000 0.000000 1.596320 
# 
# From -- ./inp_files/6188.got.cif
#   From: 2010.05.17/outbox.cif.g08.bks.cpg/sg59_4_cif.got.tgz:6188.got - 2010.06.03 14:40:33.
