data_PCOD9451904
_publ_section_title
;
Structure prediction by ZEFSAII (Michael W. Deem and Ramdas Pophale) SiO2 
 PCOD9451904
Probable space group: P M M N
;
_chemical_formula_sum "Si O2"
_cell_formula_units_Z 48
_cell_length_a 9.385672
_cell_length_b 9.048840
_cell_length_c 31.705122
_cell_angle_alpha 90.000000
_cell_angle_beta 90.000000
_cell_angle_gamma 90.000000
_cell_volume 2692.698390
_symmetry_space_group_name_H-M "P M M N"
_symmetry_group_IT_number 59
_space_group.IT_coordinate_system_code '2'
_symmetry_cell_setting 'orthorhombic'
loop_
_space_group_symop_operation_xyz
x,y,z
1/2-x,1/2-y,z
1/2+x,-y,-z
-x,1/2+y,-z
-x,-y,-z
1/2+x,1/2+y,-z
1/2-x,y,z
x,1/2-y,z
loop_
_atom_site_type_symbol
_atom_site_label
_atom_site_fract_x
_atom_site_fract_y
_atom_site_fract_z
Si Si1 0.579551 0.575669 0.038784
Si Si2 0.918851 0.425820 0.127428
Si Si3 0.583641 0.928355 0.538718
Si Si4 0.583334 0.572710 0.289192
Si Si5 0.416428 0.927487 0.622755
Si Si6 0.417827 0.927496 0.204847
O O1 0.750000 0.557052 0.033703
O O2 0.548379 0.750000 0.040112
O O3 0.539458 0.500668 0.083161
O O4 0.500000 0.500000 0.000000
O O5 0.750000 0.454912 0.133966
O O6 0.939027 0.250000 0.124815
O O7 0.006330 0.493449 0.165913
O O8 0.750000 0.968824 0.537777
O O9 0.573302 0.750000 0.535740
O O10 0.510729 0.973059 0.582867
O O11 0.500000 0.000000 0.500000
O O12 0.750000 0.535041 0.282003
O O13 0.573428 0.750000 0.293366
O O14 0.538374 0.499270 0.333114
O O15 0.491098 0.527367 0.248886
O O16 0.250000 0.966861 0.615403
O O17 0.424448 0.750000 0.626558
O O18 0.250000 0.958926 0.205556
O O19 0.436757 0.750000 0.200568
#
# Coordination Sequence:
#
# PCOD9451904 Si02
#       6
#     8   8   8   8   8   8
#     4  10  21  37  58  83 110 142 179 219 265 316
#     4  10  21  37  57  80 106 139 180 222 264 314
#     4  10  21  36  54  77 105 138 176 217 262 313
#     4   9  18  33  53  76 103 137 176 216 258 308
#     4   9  18  33  52  74 102 135 171 212 258 309
#     4  10  21  36  54  78 108 141 177 218 264 312
#
# _framework density 17.825984999999999
#
# number of rings (size 3 to 8) (size 9 to 14) (size 15 to 20)
#    0.000    2.333    0.000    2.000    0.000    6.667 
#    0.000    3.333    0.000    0.000    0.000    0.000 
#    0.000    0.000    0.000    0.000    0.000    0.000 
#
# Total GULP energy -267984.948802 kJ/mol
# GULP energy per Si atom -5583.019767 kJ/mol
# Density = 1.778541 g / cm^3
# Si number density = 17.825985 Si / 1000 Ang^3
#
#
#
# Elastic Constant Matrix: (Units=GPa)
#
#
# Indices 1 2 3 4 5 6 
#
# 1 98.7464 58.8072 117.7477 0.0000 0.0000 0.0000
# 2 58.8072 44.3100 78.2834 0.0000 0.0000 0.0000
# 3 117.7477 78.2834 226.3506 0.0000 0.0000 0.0000
# 4 0.0000 0.0000 0.0000 40.9116 0.0000 0.0000
# 5 0.0000 0.0000 0.0000 0.0000 39.2027 0.0000
# 6 0.0000 0.0000 0.0000 0.0000 0.0000 24.9972
#
#
#
# Elastic Compliance Matrix: (Units=1/GPa)
#
#
# Indices 1 2 3 4 5 6 
#
# 1 0.053997 -0.056655 -0.008495 0.000000 0.000000 0.000000
# 2 -0.056655 0.117463 -0.011153 0.000000 0.000000 0.000000
# 3 -0.008495 -0.011153 0.012694 0.000000 0.000000 0.000000
# 4 0.000000 0.000000 0.000000 0.024443 0.000000 0.000000
# 5 0.000000 0.000000 0.000000 0.000000 0.025508 0.000000
# 6 0.000000 0.000000 0.000000 0.000000 0.000000 0.040004
#
#
# Mechanical properties :
#
#
# Convention : Reuss Voigt Hill
#
# Bulk Modulus (GPa) = 31.69706 97.67597 64.68651
# Shear Modulus (GPa) = 11.43563 28.66022 20.04793
#
# Velocity S-wave (km/s) = 2.53556 4.01406 3.35721
# Velocity P-wave (km/s) = 5.13732 8.74052 7.16899
#
# Compressibility (1/GPa) = 0.03154867
#
# Stress axis : x y z
#
# Youngs Moduli (GPa) = 18.51970 8.51335 78.77598
#
# Poissons Ratio (x) = 0.48232 0.66921
# Poissons Ratio (y) = 1.04922 0.87857
# Poissons Ratio (z) = 0.15733 0.09495
#
# Static dielectric constant tensor:
#      x y z
#    x 1.597710 0.000000 0.000000 
#    y 0.000000 1.597190 0.000000 
#    z 0.000000 0.000000 1.571520 
# 
# From -- ./inp_files/32802.got.cif
#   From: 2010.05.17/outbox.cif.g08.bks.cpg/sg59_17_cif.got.tgz:32802.got - 2010.06.03 14:40:33.
