data_PCOD9451551
_publ_section_title
;
Structure prediction by ZEFSAII (Michael W. Deem and Ramdas Pophale) SiO2 
 PCOD9451551
Probable space group: P M M N
;
_chemical_formula_sum "Si O2"
_cell_formula_units_Z 24
_cell_length_a 12.899827
_cell_length_b 8.746236
_cell_length_c 11.215885
_cell_angle_alpha 90.000000
_cell_angle_beta 90.000000
_cell_angle_gamma 90.000000
_cell_volume 1265.431455
_symmetry_space_group_name_H-M "P M M N"
_symmetry_group_IT_number 59
_space_group.IT_coordinate_system_code '2'
_symmetry_cell_setting 'orthorhombic'
loop_
_space_group_symop_operation_xyz
x,y,z
1/2-x,1/2-y,z
1/2+x,-y,-z
-x,1/2+y,-z
-x,-y,-z
1/2+x,1/2+y,-z
1/2-x,y,z
x,1/2-y,z
loop_
_atom_site_type_symbol
_atom_site_label
_atom_site_fract_x
_atom_site_fract_y
_atom_site_fract_z
Si Si1 0.750000 0.929000 0.523697
Si Si2 0.750000 0.068601 0.783171
Si Si3 0.964480 0.934000 0.873907
Si Si4 0.134697 0.929127 0.680863
O O1 0.750000 0.750000 0.550097
O O2 0.750000 0.024395 0.643843
O O3 0.652242 0.975602 0.440053
O O4 0.750000 0.250000 0.798527
O O5 0.852145 0.996555 0.840894
O O6 0.964010 0.750000 0.878225
O O7 0.045832 0.980200 0.770102
O O8 0.000000 0.000000 0.000000
O O9 0.250000 0.939520 0.739885
O O10 0.118500 0.750000 0.651185
#
# Coordination Sequence:
#
# PCOD9451551 Si02
#       4
#     4   4   8   8
#     4  10  20  37  64  95 124 155 203 257 307 368
#     4  12  26  43  62  89 126 165 209 255 307 364
#     4  11  24  42  65  92 126 164 207 256 308 370
#     4   8  18  39  63  88 120 160 200 243 304 370
#
# _framework density 18.965862000000001
#
# number of rings (size 3 to 8) (size 9 to 14) (size 15 to 20)
#    1.000    1.000    0.000    3.500    2.333    4.000 
#    0.000    0.000    0.000    0.000    0.000    0.000 
#    0.000    0.000    0.000    0.000    0.000    0.000 
#
# Total GULP energy -133878.710453 kJ/mol
# GULP energy per Si atom -5578.279602 kJ/mol
# Density = 1.892269 g / cm^3
# Si number density = 18.965862 Si / 1000 Ang^3
#
#
#
# Elastic Constant Matrix: (Units=GPa)
#
#
# Indices 1 2 3 4 5 6 
#
# 1 122.6522 32.5709 62.8473 0.0000 0.0000 0.0000
# 2 32.5709 66.8197 32.2668 0.0000 0.0000 0.0000
# 3 62.8473 32.2668 115.4087 0.0000 0.0000 0.0000
# 4 0.0000 0.0000 0.0000 34.8933 0.0000 0.0000
# 5 0.0000 0.0000 0.0000 0.0000 31.6861 0.0000
# 6 0.0000 0.0000 0.0000 0.0000 0.0000 22.5084
#
#
#
# Elastic Compliance Matrix: (Units=1/GPa)
#
#
# Indices 1 2 3 4 5 6 
#
# 1 0.011829 -0.003070 -0.005584 0.000000 0.000000 0.000000
# 2 -0.003070 0.018098 -0.003388 0.000000 0.000000 0.000000
# 3 -0.005584 -0.003388 0.012653 0.000000 0.000000 0.000000
# 4 0.000000 0.000000 0.000000 0.028659 0.000000 0.000000
# 5 0.000000 0.000000 0.000000 0.000000 0.031560 0.000000
# 6 0.000000 0.000000 0.000000 0.000000 0.000000 0.044428
#
#
# Mechanical properties :
#
#
# Convention : Reuss Voigt Hill
#
# Bulk Modulus (GPa) = 54.06301 62.25007 58.15654
# Shear Modulus (GPa) = 28.17286 29.63059 28.90172
#
# Velocity S-wave (km/s) = 3.85834 3.95690 3.90793
# Velocity P-wave (km/s) = 6.95818 7.33277 7.14793
#
# Compressibility (1/GPa) = 0.01849693
#
# Stress axis : x y z
#
# Youngs Moduli (GPa) = 84.53524 55.25396 79.03408
#
# Poissons Ratio (x) = 0.16962 0.44129
# Poissons Ratio (y) = 0.25952 0.26779
# Poissons Ratio (z) = 0.47201 0.18722
#
# Static dielectric constant tensor:
#      x y z
#    x 1.650110 0.000000 0.000000 
#    y 0.000000 1.637400 0.000000 
#    z 0.000000 0.000000 1.636300 
# 
# From -- ./inp_files/15115.got.cif
#   From: 2010.05.17/outbox.cif.g08.bks.cpg/sg59_8_cif.got.tgz:15115.got - 2010.06.03 14:40:33.
