data_PCOD9451620
_publ_section_title
;
Structure prediction by ZEFSAII (Michael W. Deem and Ramdas Pophale) SiO2 
 PCOD9451620
Probable space group: P M M N
;
_chemical_formula_sum "Si O2"
_cell_formula_units_Z 48
_cell_length_a 14.785959
_cell_length_b 8.799688
_cell_length_c 20.047768
_cell_angle_alpha 90.000000
_cell_angle_beta 90.000000
_cell_angle_gamma 90.000000
_cell_volume 2608.451701
_symmetry_space_group_name_H-M "P M M N"
_symmetry_group_IT_number 59
_space_group.IT_coordinate_system_code '2'
_symmetry_cell_setting 'orthorhombic'
loop_
_space_group_symop_operation_xyz
x,y,z
1/2-x,1/2-y,z
1/2+x,-y,-z
-x,1/2+y,-z
-x,-y,-z
1/2+x,1/2+y,-z
1/2-x,y,z
x,1/2-y,z
loop_
_atom_site_type_symbol
_atom_site_label
_atom_site_fract_x
_atom_site_fract_y
_atom_site_fract_z
Si Si1 0.356101 0.430908 0.910631
Si Si2 0.444607 0.068003 0.319317
Si Si3 0.750000 0.930285 0.618636
Si Si4 0.250000 0.569178 0.527353
Si Si5 0.857524 0.429406 0.946330
Si Si6 0.557971 0.931378 0.438702
Si Si7 0.016664 0.068335 0.166837
O O1 0.250000 0.466106 0.901379
O O2 0.368205 0.250000 0.907201
O O3 0.418781 0.511928 0.856888
O O4 0.382343 0.488605 0.984445
O O5 0.459982 0.250000 0.326188
O O6 0.340766 0.039072 0.339975
O O7 0.462721 0.024796 0.242966
O O8 0.508675 0.981632 0.370986
O O9 0.750000 0.750000 0.600929
O O10 0.750000 0.025508 0.550900
O O11 0.250000 0.750000 0.535586
O O12 0.341109 0.498003 0.557490
O O13 0.750000 0.451692 0.936216
O O14 0.875069 0.250000 0.953171
O O15 0.912643 0.495448 0.884654
O O16 0.560329 0.750000 0.445264
O O17 0.500000 0.000000 0.500000
O O18 0.022366 0.250000 0.161821
#
# Coordination Sequence:
#
# PCOD9451620 Si02
#       7
#     8   8   4   4   8   8   8
#     4  10  21  39  62  85 113 154 202 252 300 353
#     4  10  23  41  62  90 124 163 201 245 297 358
#     4  10  20  38  64  90 122 159 200 245 296 356
#     4  12  24  40  66  96 122 157 204 253 304 360
#     4  10  21  37  59  88 120 155 197 248 297 351
#     4  12  24  41  65  93 125 161 203 253 302 358
#     4  11  23  38  60  88 121 160 197 241 298 359
#
# _framework density 18.401720000000001
#
# number of rings (size 3 to 8) (size 9 to 14) (size 15 to 20)
#    0.000    1.333    1.667    4.250    1.167    3.333 
#    1.500    0.000    0.000    0.000    0.000    0.000 
#    0.000    0.000    0.000    0.000    0.000    0.000 
#
# Total GULP energy -268427.194742 kJ/mol
# GULP energy per Si atom -5592.233224 kJ/mol
# Density = 1.835984 g / cm^3
# Si number density = 18.401720 Si / 1000 Ang^3
#
#
#
# Elastic Constant Matrix: (Units=GPa)
#
#
# Indices 1 2 3 4 5 6 
#
# 1 119.1954 55.0210 58.0672 0.0000 0.0000 0.0000
# 2 55.0210 81.1442 46.6951 0.0000 0.0000 0.0000
# 3 58.0672 46.6951 105.8814 0.0000 0.0000 0.0000
# 4 0.0000 0.0000 0.0000 33.3128 0.0000 0.0000
# 5 0.0000 0.0000 0.0000 0.0000 -2.1079 0.0000
# 6 0.0000 0.0000 0.0000 0.0000 0.0000 30.2625
#
#
#
# Elastic Compliance Matrix: (Units=1/GPa)
#
#
# Indices 1 2 3 4 5 6 
#
# 1 0.013687 -0.006648 -0.004574 0.000000 0.000000 0.000000
# 2 -0.006648 0.019744 -0.005061 0.000000 0.000000 0.000000
# 3 -0.004574 -0.005061 0.014185 0.000000 0.000000 0.000000
# 4 0.000000 0.000000 0.000000 0.030018 0.000000 0.000000
# 5 0.000000 0.000000 0.000000 0.000000 -0.474404 0.000000
# 6 0.000000 0.000000 0.000000 0.000000 0.000000 0.033044
#
#
# Mechanical properties :
#
#
# Convention : Reuss Voigt Hill
#
# Bulk Modulus (GPa) = 66.45122 69.53195 67.99158
# Shear Modulus (GPa) = -15.33078 22.05599 3.36261
#
# Velocity S-wave (km/s) = -2.88951 3.46581 1.35326
# Velocity P-wave (km/s) = 5.00574 7.34053 6.28255
#
# Compressibility (1/GPa) = 0.01504863
#
# Stress axis : x y z
#
# Youngs Moduli (GPa) = 73.06322 50.64717 70.49596
#
# Poissons Ratio (x) = 0.33672 0.32245
# Poissons Ratio (y) = 0.48575 0.35682
# Poissons Ratio (z) = 0.33419 0.25635
#
# Static dielectric constant tensor:
#      x y z
#    x 1.631770 0.000000 0.000000 
#    y 0.000000 1.617770 0.000000 
#    z 0.000000 0.000000 1.594240 
# 
# From -- ./inp_files/27459.got.cif
#   From: 2010.05.17/outbox.cif.g08.bks.cpg/sg59_14_cif.got.tgz:27459.got - 2010.06.03 14:40:33.
