data_PCOD9451039
_publ_section_title
;
Structure prediction by ZEFSAII (Michael W. Deem and Ramdas Pophale) SiO2 
 PCOD9451039
Probable space group: P M M N
;
_chemical_formula_sum "Si O2"
_cell_formula_units_Z 64
_cell_length_a 24.182343
_cell_length_b 8.843055
_cell_length_c 14.903405
_cell_angle_alpha 90.000000
_cell_angle_beta 90.000000
_cell_angle_gamma 90.000000
_cell_volume 3187.030404
_symmetry_space_group_name_H-M "P M M N"
_symmetry_group_IT_number 59
_space_group.IT_coordinate_system_code '2'
_symmetry_cell_setting 'orthorhombic'
loop_
_space_group_symop_operation_xyz
x,y,z
1/2-x,1/2-y,z
1/2+x,-y,-z
-x,1/2+y,-z
-x,-y,-z
1/2+x,1/2+y,-z
1/2-x,y,z
x,1/2-y,z
loop_
_atom_site_type_symbol
_atom_site_label
_atom_site_fract_x
_atom_site_fract_y
_atom_site_fract_z
Si Si1 0.107717 0.428240 0.876926
Si Si2 0.028214 0.429012 0.587548
Si Si3 0.144198 0.574287 0.554996
Si Si4 0.314212 0.930624 0.356898
Si Si5 0.311792 0.574592 0.745740
Si Si6 0.374789 0.429516 0.192856
Si Si7 0.313595 0.931173 0.026696
Si Si8 0.006431 0.566708 0.211107
O O1 0.106956 0.250000 0.896032
O O2 0.143876 0.464740 0.788948
O O3 0.141330 0.511719 0.955016
O O4 0.045354 0.476919 0.852217
O O5 0.020038 0.250000 0.584559
O O6 0.092184 0.471946 0.578502
O O7 0.005943 0.480706 0.685322
O O8 0.000000 0.500000 0.500000
O O9 0.125276 0.750000 0.549665
O O10 0.171209 0.536551 0.460125
O O11 0.185398 0.564939 0.638575
O O12 0.250000 0.965304 0.339372
O O13 0.322154 0.750000 0.342773
O O14 0.353624 0.020878 0.290651
O O15 0.250000 0.541525 0.777887
O O16 0.324693 0.750000 0.770081
O O17 0.375526 0.250000 0.183416
O O18 0.436105 0.496121 0.179803
O O19 0.332746 0.501732 0.121503
O O20 0.250000 0.976950 0.005779
O O21 0.314866 0.750000 0.029882
O O22 0.010066 0.750000 0.210173
#
# Coordination Sequence:
#
# PCOD9451039 Si02
#       8
#     8   8   8   8   8   8   8   8
#     4  11  23  41  65  94 127 164 206 256 308 362
#     4  11  22  37  57  84 120 164 213 260 309 367
#     4  10  20  35  57  86 120 161 209 256 304 363
#     4  10  21  39  62  88 123 168 213 258 314 378
#     4  10  20  35  57  87 124 164 205 249 300 363
#     4  12  26  42  65  95 124 159 207 264 320 371
#     4  11  25  46  71  97 126 164 206 249 308 380
#     4  10  23  43  63  87 126 170 210 252 309 378
#
# _framework density 20.081389999999999
#
# number of rings (size 3 to 8) (size 9 to 14) (size 15 to 20)
#    0.000    1.375    1.250    4.125    0.000   12.000 
#    0.000    0.000    0.000    2.250    0.000    0.000 
#    0.000    0.000    0.000    0.000    0.000    0.000 
#
# Total GULP energy -357713.167101 kJ/mol
# GULP energy per Si atom -5589.268236 kJ/mol
# Density = 2.003568 g / cm^3
# Si number density = 20.081390 Si / 1000 Ang^3
#
#
#
# Elastic Constant Matrix: (Units=GPa)
#
#
# Indices 1 2 3 4 5 6 
#
# 1 93.6771 30.5985 11.8647 0.0000 0.0000 0.0000
# 2 30.5985 38.6264 17.4414 0.0000 0.0000 0.0000
# 3 11.8647 17.4414 60.3573 0.0000 0.0000 0.0000
# 4 0.0000 0.0000 0.0000 26.3409 0.0000 0.0000
# 5 0.0000 0.0000 0.0000 0.0000 31.3160 0.0000
# 6 0.0000 0.0000 0.0000 0.0000 0.0000 29.1079
#
#
#
# Elastic Compliance Matrix: (Units=1/GPa)
#
#
# Indices 1 2 3 4 5 6 
#
# 1 0.014416 -0.011662 0.000536 0.000000 0.000000 0.000000
# 2 -0.011662 0.039208 -0.009038 0.000000 0.000000 0.000000
# 3 0.000536 -0.009038 0.019074 0.000000 0.000000 0.000000
# 4 0.000000 0.000000 0.000000 0.037964 0.000000 0.000000
# 5 0.000000 0.000000 0.000000 0.000000 0.031933 0.000000
# 6 0.000000 0.000000 0.000000 0.000000 0.000000 0.034355
#
#
# Mechanical properties :
#
#
# Convention : Reuss Voigt Hill
#
# Bulk Modulus (GPa) = 30.89124 34.71888 32.80506
# Shear Modulus (GPa) = 21.92329 26.20338 24.06334
#
# Velocity S-wave (km/s) = 3.30771 3.61620 3.46539
# Velocity P-wave (km/s) = 5.47762 5.89597 5.69064
#
# Compressibility (1/GPa) = 0.03237163
#
# Stress axis : x y z
#
# Youngs Moduli (GPa) = 69.36546 25.50479 52.42692
#
# Poissons Ratio (x) = 0.29744 -0.02811
# Poissons Ratio (y) = 0.80896 0.47381
# Poissons Ratio (z) = -0.03719 0.23050
#
# Static dielectric constant tensor:
#      x y z
#    x 1.728650 0.000000 0.000000 
#    y 0.000000 1.833040 0.000000 
#    z 0.000000 0.000000 1.732670 
# 
# From -- ./inp_files/24648.got.cif
#   From: 2010.05.17/outbox.cif.g08.bks.cpg/sg59_13_cif.got.tgz:24648.got - 2010.06.03 14:40:33.
