data_PCOD9451732
_publ_section_title
;
Structure prediction by ZEFSAII (Michael W. Deem and Ramdas Pophale) SiO2 
 PCOD9451732
Probable space group: P M M N
;
_chemical_formula_sum "Si O2"
_cell_formula_units_Z 64
_cell_length_a 22.944354
_cell_length_b 9.141581
_cell_length_c 15.751952
_cell_angle_alpha 90.000000
_cell_angle_beta 90.000000
_cell_angle_gamma 90.000000
_cell_volume 3303.935239
_symmetry_space_group_name_H-M "P M M N"
_symmetry_group_IT_number 59
_space_group.IT_coordinate_system_code '2'
_symmetry_cell_setting 'orthorhombic'
loop_
_space_group_symop_operation_xyz
x,y,z
1/2-x,1/2-y,z
1/2+x,-y,-z
-x,1/2+y,-z
-x,-y,-z
1/2+x,1/2+y,-z
1/2-x,y,z
x,1/2-y,z
loop_
_atom_site_type_symbol
_atom_site_label
_atom_site_fract_x
_atom_site_fract_y
_atom_site_fract_z
Si Si1 0.489291 0.916743 0.587432
Si Si2 0.999675 0.928286 0.773293
Si Si3 0.867539 0.427934 0.199941
Si Si4 0.319093 0.413088 0.448223
Si Si5 0.682685 0.073354 0.018997
Si Si6 0.179479 0.582591 0.283864
Si Si7 0.884239 0.574915 0.867398
Si Si8 0.650109 0.417244 0.384986
O O1 0.509825 0.750000 0.576873
O O2 0.514125 0.978095 0.676634
O O3 0.419932 0.912609 0.604951
O O4 0.500000 0.000000 0.500000
O O5 0.000625 0.750000 0.768894
O O6 0.949651 0.969128 0.839421
O O7 0.064690 0.975591 0.799581
O O8 0.868047 0.250000 0.202554
O O9 0.834626 0.470787 0.114662
O O10 0.838568 0.471569 0.289350
O O11 0.250000 0.402337 0.434243
O O12 0.344280 0.250000 0.441546
O O13 0.341265 0.519535 0.374353
O O14 0.327761 0.481113 0.540406
O O15 0.750000 0.034818 0.000864
O O16 0.677824 0.250000 0.012952
O O17 0.639649 0.999883 0.952001
O O18 0.250000 0.582612 0.282231
O O19 0.160252 0.750000 0.271622
O O20 0.156066 0.480151 0.209671
O O21 0.881836 0.750000 0.874865
O O22 0.671839 0.250000 0.394898
#
# Coordination Sequence:
#
# PCOD9451732 Si02
#       8
#     8   8   8   8   8   8   8   8
#     4   9  18  32  50  75 106 140 178 221 266 316
#     4   8  17  34  53  77 109 144 181 221 271 324
#     4   8  16  35  59  79 107 143 182 228 275 325
#     4  10  21  35  51  75 108 145 182 220 271 332
#     4  10  21  37  58  84 109 139 183 231 280 331
#     4  10  21  37  55  75 104 142 183 230 276 322
#     4  11  22  35  55  82 111 144 180 222 275 336
#     4   9  18  33  54  79 105 137 179 227 272 319
#
# _framework density 19.370840999999999
#
# number of rings (size 3 to 8) (size 9 to 14) (size 15 to 20)
#    0.000    2.625    0.000    3.000    1.750    4.750 
#    0.000    2.500    0.000    3.000    0.000    0.000 
#    0.000    0.000    0.000    0.000    0.000    0.000 
#
# Total GULP energy -356995.828380 kJ/mol
# GULP energy per Si atom -5578.059818 kJ/mol
# Density = 1.932675 g / cm^3
# Si number density = 19.370841 Si / 1000 Ang^3
#
#
#
# Elastic Constant Matrix: (Units=GPa)
#
#
# Indices 1 2 3 4 5 6 
#
# 1 21.2228 1.5729 -9.5565 0.0000 0.0000 0.0000
# 2 1.5729 28.1678 4.8282 0.0000 0.0000 0.0000
# 3 -9.5565 4.8282 81.3597 0.0000 0.0000 0.0000
# 4 0.0000 0.0000 0.0000 23.4972 0.0000 0.0000
# 5 0.0000 0.0000 0.0000 0.0000 33.7063 0.0000
# 6 0.0000 0.0000 0.0000 0.0000 0.0000 17.6599
#
#
#
# Elastic Compliance Matrix: (Units=1/GPa)
#
#
# Indices 1 2 3 4 5 6 
#
# 1 0.050161 -0.003850 0.006120 0.000000 0.000000 0.000000
# 2 -0.003850 0.036162 -0.002598 0.000000 0.000000 0.000000
# 3 0.006120 -0.002598 0.013164 0.000000 0.000000 0.000000
# 4 0.000000 0.000000 0.000000 0.042558 0.000000 0.000000
# 5 0.000000 0.000000 0.000000 0.000000 0.029668 0.000000
# 6 0.000000 0.000000 0.000000 0.000000 0.000000 0.056625
#
#
# Mechanical properties :
#
#
# Convention : Reuss Voigt Hill
#
# Bulk Modulus (GPa) = 10.11833 13.82662 11.97248
# Shear Modulus (GPa) = 19.08851 23.89973 21.49412
#
# Velocity S-wave (km/s) = 3.14255 3.51636 3.33470
# Velocity P-wave (km/s) = 4.28980 4.86207 4.58487
#
# Compressibility (1/GPa) = 0.09883055
#
# Stress axis : x y z
#
# Youngs Moduli (GPa) = 19.93600 27.65347 75.96382
#
# Poissons Ratio (x) = 0.10647 -0.46492
# Poissons Ratio (y) = 0.07676 0.19737
# Poissons Ratio (z) = -0.12201 0.07185
#
# Static dielectric constant tensor:
#      x y z
#    x 1.700010 0.000000 0.000000 
#    y 0.000000 1.678400 0.000000 
#    z 0.000000 0.000000 1.675970 
# 
# From -- ./inp_files/21613.got.cif
#   From: 2010.05.17/outbox.cif.g08.bks.cpg/sg59_11_cif.got.tgz:21613.got - 2010.06.03 14:40:33.
