data_PCOD9451016
_publ_section_title
;
Structure prediction by ZEFSAII (Michael W. Deem and Ramdas Pophale) SiO2 
 PCOD9451016
Probable space group: P M M N
;
_chemical_formula_sum "Si O2"
_cell_formula_units_Z 48
_cell_length_a 8.537823
_cell_length_b 14.222492
_cell_length_c 21.424317
_cell_angle_alpha 90.000000
_cell_angle_beta 90.000000
_cell_angle_gamma 90.000000
_cell_volume 2601.535945
_symmetry_space_group_name_H-M "P M M N"
_symmetry_group_IT_number 59
_space_group.IT_coordinate_system_code '2'
_symmetry_cell_setting 'orthorhombic'
loop_
_space_group_symop_operation_xyz
x,y,z
1/2-x,1/2-y,z
1/2+x,-y,-z
-x,1/2+y,-z
-x,-y,-z
1/2+x,1/2+y,-z
1/2-x,y,z
x,1/2-y,z
loop_
_atom_site_type_symbol
_atom_site_label
_atom_site_fract_x
_atom_site_fract_y
_atom_site_fract_z
Si Si1 0.062500 0.141518 0.218085
Si Si2 0.560173 0.140194 0.464400
Si Si3 0.437202 0.962880 0.660120
Si Si4 0.562538 0.459428 0.095009
Si Si5 0.060780 0.642238 0.033485
Si Si6 0.438840 0.859743 0.395872
O O1 0.250000 0.141945 0.217320
O O2 0.006852 0.250000 0.216813
O O3 0.005265 0.090283 0.280560
O O4 0.002239 0.085875 0.157789
O O5 0.750000 0.132656 0.465551
O O6 0.522538 0.250000 0.456153
O O7 0.502662 0.084195 0.404414
O O8 0.505434 0.112786 0.533832
O O9 0.250000 0.954992 0.661852
O O10 0.487190 0.071064 0.654229
O O11 0.750000 0.459866 0.097207
O O12 0.503328 0.564985 0.081577
O O13 0.513686 0.395946 0.035200
O O14 0.250000 0.640681 0.036097
O O15 0.009260 0.750000 0.042971
O O16 0.250000 0.868077 0.394260
O O17 0.476875 0.750000 0.386844
#
# Coordination Sequence:
#
# PCOD9451016 Si02
#       6
#     8   8   8   8   8   8
#     4  11  24  40  57  78 107 143 180 217 261 317
#     4   8  15  29  50  76 104 135 171 212 263 320
#     4  11  21  33  53  79 107 138 174 220 268 316
#     4  10  20  35  57  85 115 146 182 223 265 310
#     4   9  18  34  57  85 117 150 182 218 262 312
#     4   9  18  34  54  74 101 138 177 218 266 320
#
# _framework density 18.450637
#
# number of rings (size 3 to 8) (size 9 to 14) (size 15 to 20)
#    0.000    2.333    0.000    4.000    0.000    4.000 
#    0.000    1.667    0.000    7.000    0.000    0.000 
#    0.000    0.000    0.000    0.000    0.000    0.000 
#
# Total GULP energy -267890.545993 kJ/mol
# GULP energy per Si atom -5581.053042 kJ/mol
# Density = 1.840864 g / cm^3
# Si number density = 18.450637 Si / 1000 Ang^3
#
#
#
# Elastic Constant Matrix: (Units=GPa)
#
#
# Indices 1 2 3 4 5 6 
#
# 1 23.9434 36.2846 28.1655 0.0000 0.0000 0.0000
# 2 36.2846 160.0129 101.8582 0.0000 0.0000 0.0000
# 3 28.1655 101.8582 113.1000 0.0000 0.0000 0.0000
# 4 0.0000 0.0000 0.0000 27.1739 0.0000 0.0000
# 5 0.0000 0.0000 0.0000 0.0000 16.5827 0.0000
# 6 0.0000 0.0000 0.0000 0.0000 0.0000 21.6771
#
#
#
# Elastic Compliance Matrix: (Units=1/GPa)
#
#
# Indices 1 2 3 4 5 6 
#
# 1 0.065862 -0.010532 -0.006916 0.000000 0.000000 0.000000
# 2 -0.010532 0.016330 -0.012084 0.000000 0.000000 0.000000
# 3 -0.006916 -0.012084 0.021447 0.000000 0.000000 0.000000
# 4 0.000000 0.000000 0.000000 0.036800 0.000000 0.000000
# 5 0.000000 0.000000 0.000000 0.000000 0.060304 0.000000
# 6 0.000000 0.000000 0.000000 0.000000 0.000000 0.046132
#
#
# Mechanical properties :
#
#
# Convention : Reuss Voigt Hill
#
# Bulk Modulus (GPa) = 22.43464 69.96363 46.19914
# Shear Modulus (GPa) = 15.58614 21.80327 18.69470
#
# Velocity S-wave (km/s) = 2.90961 3.44133 3.18658
# Velocity P-wave (km/s) = 4.84494 7.33430 6.21552
#
# Compressibility (1/GPa) = 0.04457393
#
# Stress axis : x y z
#
# Youngs Moduli (GPa) = 15.18324 61.23697 46.62652
#
# Poissons Ratio (x) = 0.64496 0.32249
# Poissons Ratio (y) = 0.15991 0.56343
# Poissons Ratio (z) = 0.10501 0.73999
#
# Static dielectric constant tensor:
#      x y z
#    x 1.622350 0.000000 0.000000 
#    y 0.000000 1.641610 0.000000 
#    z 0.000000 0.000000 1.616580 
# 
# From -- ./inp_files/25473.got.cif
#   From: 2010.05.17/outbox.cif.g08.bks.cpg/sg59_13_cif.got.tgz:25473.got - 2010.06.03 14:40:33.
