data_PCOD9451650
_publ_section_title
;
Structure prediction by ZEFSAII (Michael W. Deem and Ramdas Pophale) SiO2 
 PCOD9451650
Probable space group: P M M N
;
_chemical_formula_sum "Si O2"
_cell_formula_units_Z 48
_cell_length_a 15.288819
_cell_length_b 9.191664
_cell_length_c 19.444545
_cell_angle_alpha 90.000000
_cell_angle_beta 90.000000
_cell_angle_gamma 90.000000
_cell_volume 2732.535827
_symmetry_space_group_name_H-M "P M M N"
_symmetry_group_IT_number 59
_space_group.IT_coordinate_system_code '2'
_symmetry_cell_setting 'orthorhombic'
loop_
_space_group_symop_operation_xyz
x,y,z
1/2-x,1/2-y,z
1/2+x,-y,-z
-x,1/2+y,-z
-x,-y,-z
1/2+x,1/2+y,-z
1/2-x,y,z
x,1/2-y,z
loop_
_atom_site_type_symbol
_atom_site_label
_atom_site_fract_x
_atom_site_fract_y
_atom_site_fract_z
Si Si1 0.049042 0.584949 0.297163
Si Si2 0.750000 0.924903 0.401150
Si Si3 0.750000 0.415346 0.256694
Si Si4 0.353617 0.078129 0.180996
Si Si5 0.977720 0.080362 0.929486
Si Si6 0.051061 0.426398 0.562716
Si Si7 0.609146 0.908493 0.189353
O O1 0.083708 0.750000 0.307091
O O2 0.117190 0.485914 0.255429
O O3 0.003875 0.534858 0.368124
O O4 0.969165 0.594332 0.243822
O O5 0.750000 0.750000 0.400635
O O6 0.845293 0.969182 0.432509
O O7 0.750000 0.983559 0.323619
O O8 0.750000 0.250000 0.278668
O O9 0.831688 0.458381 0.210351
O O10 0.250000 0.058408 0.172235
O O11 0.374101 0.250000 0.178751
O O12 0.405936 0.997343 0.119541
O O13 0.953610 0.250000 0.939999
O O14 0.066199 0.077770 0.884579
O O15 0.000000 0.000000 0.000000
O O16 0.049265 0.250000 0.557365
O O17 0.000000 0.500000 0.500000
O O18 0.653224 0.750000 0.194776
#
# Coordination Sequence:
#
# PCOD9451650 Si02
#       7
#     8   4   4   8   8   8   8
#     4   9  18  35  59  82 106 143 187 231 280 331
#     4  10  20  40  62  78 110 157 192 225 288 360
#     4  12  22  30  52  88 114 135 178 237 276 314
#     4  10  21  37  58  84 114 150 191 234 282 340
#     4  10  21  38  60  83 111 149 188 231 284 336
#     4  10  21  38  60  84 114 152 191 235 288 346
#     4   9  18  35  56  77 106 145 181 216 273 339
#
# _framework density 17.566102000000001
#
# number of rings (size 3 to 8) (size 9 to 14) (size 15 to 20)
#    0.000    2.167    1.667    2.750    0.000    6.000 
#    3.000    0.000    0.000    0.000    0.000    0.000 
#    0.000    0.000    0.000    0.000    0.000    0.000 
#
# Total GULP energy -267335.876199 kJ/mol
# GULP energy per Si atom -5569.497421 kJ/mol
# Density = 1.752612 g / cm^3
# Si number density = 17.566102 Si / 1000 Ang^3
#
#
#
# Elastic Constant Matrix: (Units=GPa)
#
#
# Indices 1 2 3 4 5 6 
#
# 1 92.6365 50.6412 49.1526 0.0000 0.0000 0.0000
# 2 50.6412 68.2549 45.9455 0.0000 0.0000 0.0000
# 3 49.1526 45.9455 139.9448 0.0000 0.0000 0.0000
# 4 0.0000 0.0000 0.0000 27.4727 0.0000 0.0000
# 5 0.0000 0.0000 0.0000 0.0000 11.5692 0.0000
# 6 0.0000 0.0000 0.0000 0.0000 0.0000 24.3458
#
#
#
# Elastic Compliance Matrix: (Units=1/GPa)
#
#
# Indices 1 2 3 4 5 6 
#
# 1 0.018874 -0.012248 -0.002608 0.000000 0.000000 0.000000
# 2 -0.012248 0.026756 -0.004482 0.000000 0.000000 0.000000
# 3 -0.002608 -0.004482 0.009533 0.000000 0.000000 0.000000
# 4 0.000000 0.000000 0.000000 0.036400 0.000000 0.000000
# 5 0.000000 0.000000 0.000000 0.000000 0.086436 0.000000
# 6 0.000000 0.000000 0.000000 0.000000 0.000000 0.041075
#
#
# Mechanical properties :
#
#
# Convention : Reuss Voigt Hill
#
# Bulk Modulus (GPa) = 60.65608 65.81275 63.23441
# Shear Modulus (GPa) = 18.99365 23.01736 21.00550
#
# Velocity S-wave (km/s) = 3.29183 3.62377 3.46178
# Velocity P-wave (km/s) = 7.00381 7.41998 7.21489
#
# Compressibility (1/GPa) = 0.01648639
#
# Stress axis : x y z
#
# Youngs Moduli (GPa) = 52.98224 37.37542 104.89586
#
# Poissons Ratio (x) = 0.45778 0.27357
# Poissons Ratio (y) = 0.64893 0.47017
# Poissons Ratio (z) = 0.13818 0.16753
#
# Static dielectric constant tensor:
#      x y z
#    x 1.600830 0.000000 0.000000 
#    y 0.000000 1.625980 0.000000 
#    z 0.000000 0.000000 1.586920 
# 
# From -- ./inp_files/27433.got.cif
#   From: 2010.05.17/outbox.cif.g08.bks.cpg/sg59_14_cif.got.tgz:27433.got - 2010.06.03 14:40:33.
