data_PCOD9451618
_publ_section_title
;
Structure prediction by ZEFSAII (Michael W. Deem and Ramdas Pophale) SiO2 
 PCOD9451618
Probable space group: P M M N
;
_chemical_formula_sum "Si O2"
_cell_formula_units_Z 36
_cell_length_a 15.294125
_cell_length_b 15.172926
_cell_length_c 8.661033
_cell_angle_alpha 90.000000
_cell_angle_beta 90.000000
_cell_angle_gamma 90.000000
_cell_volume 2009.850103
_symmetry_space_group_name_H-M "P M M N"
_symmetry_group_IT_number 59
_space_group.IT_coordinate_system_code '2'
_symmetry_cell_setting 'orthorhombic'
loop_
_space_group_symop_operation_xyz
x,y,z
1/2-x,1/2-y,z
1/2+x,-y,-z
-x,1/2+y,-z
-x,-y,-z
1/2+x,1/2+y,-z
1/2-x,y,z
x,1/2-y,z
loop_
_atom_site_type_symbol
_atom_site_label
_atom_site_fract_x
_atom_site_fract_y
_atom_site_fract_z
Si Si1 0.896777 0.750000 0.949363
Si Si2 0.750000 0.750000 0.202159
Si Si3 0.750000 0.750000 0.695790
Si Si4 0.853885 0.145812 0.150439
Si Si5 0.488218 0.904395 0.070128
Si Si6 0.930911 0.510184 0.361996
Si Si7 0.250000 0.402677 0.552010
O O1 0.836649 0.750000 0.799942
O O2 0.832904 0.750000 0.094118
O O3 0.954762 0.663998 0.971733
O O4 0.750000 0.663515 0.303992
O O5 0.750000 0.661775 0.594416
O O6 0.750000 0.127983 0.160243
O O7 0.867882 0.250000 0.184420
O O8 0.905475 0.079246 0.266344
O O9 0.890350 0.125611 0.976858
O O10 0.526004 0.918250 0.242413
O O11 0.500000 0.000000 0.000000
O O12 0.839110 0.542851 0.432949
O O13 0.000000 0.500000 0.500000
#
# Coordination Sequence:
#
# PCOD9451618 Si02
#       7
#     4   2   2   8   8   8   4
#     4  11  20  42  63  92 124 156 214 263 309 374
#     4  10  20  38  64  86 118 160 192 252 326 362
#     4  10  28  34  64  98 124 166 202 262 318 374
#     4  10  21  41  65  90 121 162 212 263 311 361
#     4  10  22  38  64  90 117 161 207 259 310 365
#     4  11  24  42  62  90 128 168 205 252 319 381
#     4  11  22  42  59  92 131 161 205 252 313 384
#
# _framework density 17.911784000000001
#
# number of rings (size 3 to 8) (size 9 to 14) (size 15 to 20)
#    0.000    1.556    4.444    0.000    6.222    0.000 
#    8.000    0.000    0.000    2.667    0.000    0.000 
#    0.000    0.000    0.000    0.000    0.000    0.000 
#
# Total GULP energy -200485.634529 kJ/mol
# GULP energy per Si atom -5569.045404 kJ/mol
# Density = 1.787102 g / cm^3
# Si number density = 17.911784 Si / 1000 Ang^3
#
#
#
# Elastic Constant Matrix: (Units=GPa)
#
#
# Indices 1 2 3 4 5 6 
#
# 1 142.4227 63.8380 72.4043 0.0000 0.0000 0.0000
# 2 63.8380 121.6753 47.2646 0.0000 0.0000 0.0000
# 3 72.4043 47.2646 109.0200 0.0000 0.0000 0.0000
# 4 0.0000 0.0000 0.0000 44.4656 0.0000 0.0000
# 5 0.0000 0.0000 0.0000 0.0000 55.6435 0.0000
# 6 0.0000 0.0000 0.0000 0.0000 0.0000 36.6655
#
#
#
# Elastic Compliance Matrix: (Units=1/GPa)
#
#
# Indices 1 2 3 4 5 6 
#
# 1 0.011915 -0.003821 -0.006256 0.000000 0.000000 0.000000
# 2 -0.003821 0.011108 -0.002278 0.000000 0.000000 0.000000
# 3 -0.006256 -0.002278 0.014316 0.000000 0.000000 0.000000
# 4 0.000000 0.000000 0.000000 0.022489 0.000000 0.000000
# 5 0.000000 0.000000 0.000000 0.000000 0.017972 0.000000
# 6 0.000000 0.000000 0.000000 0.000000 0.000000 0.027274
#
#
# Mechanical properties :
#
#
# Convention : Reuss Voigt Hill
#
# Bulk Modulus (GPa) = 79.19427 82.23687 80.71557
# Shear Modulus (GPa) = 37.31539 39.99566 38.65552
#
# Velocity S-wave (km/s) = 4.56926 4.73051 4.65058
# Velocity P-wave (km/s) = 8.49394 8.70912 8.60220
#
# Compressibility (1/GPa) = 0.01262718
#
# Stress axis : x y z
#
# Youngs Moduli (GPa) = 83.93082 90.02341 69.85414
#
# Poissons Ratio (x) = 0.34396 0.43704
# Poissons Ratio (y) = 0.32068 0.15915
# Poissons Ratio (z) = 0.52511 0.20510
#
# Static dielectric constant tensor:
#      x y z
#    x 1.654810 0.000000 0.000000 
#    y 0.000000 1.616670 0.000000 
#    z 0.000000 0.000000 1.619820 
# 
# From -- ./inp_files/8552.got.cif
#   From: 2010.05.17/outbox.cif.g08.bks.cpg/sg59_5_cif.got.tgz:8552.got - 2010.06.03 14:40:33.
