data_PCOD9451024
_publ_section_title
;
Structure prediction by ZEFSAII (Michael W. Deem and Ramdas Pophale) SiO2 
 PCOD9451024
Probable space group: P M M N
;
_chemical_formula_sum "Si O2"
_cell_formula_units_Z 48
_cell_length_a 15.936107
_cell_length_b 9.551000
_cell_length_c 16.623178
_cell_angle_alpha 90.000000
_cell_angle_beta 90.000000
_cell_angle_gamma 90.000000
_cell_volume 2530.143407
_symmetry_space_group_name_H-M "P M M N"
_symmetry_group_IT_number 59
_space_group.IT_coordinate_system_code '2'
_symmetry_cell_setting 'orthorhombic'
loop_
_space_group_symop_operation_xyz
x,y,z
1/2-x,1/2-y,z
1/2+x,-y,-z
-x,1/2+y,-z
-x,-y,-z
1/2+x,1/2+y,-z
1/2-x,y,z
x,1/2-y,z
loop_
_atom_site_type_symbol
_atom_site_label
_atom_site_fract_x
_atom_site_fract_y
_atom_site_fract_z
Si Si1 0.572124 0.082562 0.547405
Si Si2 0.898967 0.589336 0.177147
Si Si3 0.750000 0.584123 0.300221
Si Si4 0.849758 0.907151 0.871262
Si Si5 0.852214 0.086917 0.023849
Si Si6 0.750000 0.417566 0.465807
Si Si7 0.921609 0.089310 0.736311
O O1 0.559275 0.250000 0.537419
O O2 0.664622 0.047453 0.513579
O O3 0.569419 0.053082 0.642683
O O4 0.500000 0.000000 0.500000
O O5 0.882437 0.750000 0.150096
O O6 0.830284 0.554225 0.244778
O O7 0.889661 0.486609 0.102315
O O8 0.988539 0.584924 0.219871
O O9 0.750000 0.750000 0.319321
O O10 0.750000 0.496032 0.381081
O O11 0.750000 0.897411 0.882375
O O12 0.885298 0.750000 0.873844
O O13 0.866199 0.982655 0.786965
O O14 0.880976 0.004100 0.944297
O O15 0.750000 0.078171 0.029421
O O16 0.874574 0.250000 0.018259
O O17 0.750000 0.250000 0.453455
O O18 0.889483 0.250000 0.741404
#
# Coordination Sequence:
#
# PCOD9451024 Si02
#       7
#     8   8   4   8   8   4   8
#     4  10  22  41  63  89 122 158 199 249 302 359
#     4  10  20  35  57  85 116 151 191 237 287 341
#     4  10  20  36  60  87 116 151 192 237 288 349
#     4  10  22  39  59  83 114 152 195 242 291 342
#     4  10  20  35  57  85 115 152 194 235 286 343
#     4  10  22  38  60  89 118 155 198 245 302 357
#     4  10  22  38  59  86 115 152 197 239 289 348
#
# _framework density 18.971257000000001
#
# number of rings (size 3 to 8) (size 9 to 14) (size 15 to 20)
#    0.000    2.000    0.833    2.000    1.167    6.333 
#    0.000    0.000    0.000    0.000    0.000    0.000 
#    0.000    0.000    0.000    0.000    0.000    0.000 
#
# Total GULP energy -268126.247845 kJ/mol
# GULP energy per Si atom -5585.963497 kJ/mol
# Density = 1.892808 g / cm^3
# Si number density = 18.971257 Si / 1000 Ang^3
#
#
#
# Elastic Constant Matrix: (Units=GPa)
#
#
# Indices 1 2 3 4 5 6 
#
# 1 55.8415 41.8175 38.3691 0.0000 0.0000 0.0000
# 2 41.8175 121.6714 106.6139 0.0000 0.0000 0.0000
# 3 38.3691 106.6139 163.7945 0.0000 0.0000 0.0000
# 4 0.0000 0.0000 0.0000 37.4116 0.0000 0.0000
# 5 0.0000 0.0000 0.0000 0.0000 19.2391 0.0000
# 6 0.0000 0.0000 0.0000 0.0000 0.0000 24.8472
#
#
#
# Elastic Compliance Matrix: (Units=1/GPa)
#
#
# Indices 1 2 3 4 5 6 
#
# 1 0.024139 -0.007777 -0.000592 0.000000 0.000000 0.000000
# 2 -0.007777 0.021635 -0.012260 0.000000 0.000000 0.000000
# 3 -0.000592 -0.012260 0.014224 0.000000 0.000000 0.000000
# 4 0.000000 0.000000 0.000000 0.026730 0.000000 0.000000
# 5 0.000000 0.000000 0.000000 0.000000 0.051977 0.000000
# 6 0.000000 0.000000 0.000000 0.000000 0.000000 0.040246
#
#
# Mechanical properties :
#
#
# Convention : Reuss Voigt Hill
#
# Bulk Modulus (GPa) = 53.36719 79.43426 66.40072
# Shear Modulus (GPa) = 22.07922 26.60003 24.33963
#
# Velocity S-wave (km/s) = 3.41519 3.74856 3.58575
# Velocity P-wave (km/s) = 6.61385 7.79085 7.22635
#
# Compressibility (1/GPa) = 0.01873811
#
# Stress axis : x y z
#
# Youngs Moduli (GPa) = 41.42684 46.22159 70.30277
#
# Poissons Ratio (x) = 0.35948 0.04164
# Poissons Ratio (y) = 0.32219 0.86193
# Poissons Ratio (z) = 0.02454 0.56669
#
# Static dielectric constant tensor:
#      x y z
#    x 1.546220 0.000000 0.000000 
#    y 0.000000 1.655460 0.000000 
#    z 0.000000 0.000000 1.611500 
# 
# From -- ./inp_files/23735.got.cif
#   From: 2010.05.17/outbox.cif.g08.bks.cpg/sg59_12_cif.got.tgz:23735.got - 2010.06.03 14:40:33.
