data_PCOD9451734
_publ_section_title
;
Structure prediction by ZEFSAII (Michael W. Deem and Ramdas Pophale) SiO2 
 PCOD9451734
Probable space group: P M M N
;
_chemical_formula_sum "Si O2"
_cell_formula_units_Z 56
_cell_length_a 8.910487
_cell_length_b 15.709708
_cell_length_c 20.757476
_cell_angle_alpha 90.000000
_cell_angle_beta 90.000000
_cell_angle_gamma 90.000000
_cell_volume 2905.655339
_symmetry_space_group_name_H-M "P M M N"
_symmetry_group_IT_number 59
_space_group.IT_coordinate_system_code '2'
_symmetry_cell_setting 'orthorhombic'
loop_
_space_group_symop_operation_xyz
x,y,z
1/2-x,1/2-y,z
1/2+x,-y,-z
-x,1/2+y,-z
-x,-y,-z
1/2+x,1/2+y,-z
1/2-x,y,z
x,1/2-y,z
loop_
_atom_site_type_symbol
_atom_site_label
_atom_site_fract_x
_atom_site_fract_y
_atom_site_fract_z
Si Si1 0.568238 0.499411 0.570791
Si Si2 0.426504 0.599786 0.071064
Si Si3 0.928360 0.415533 0.068101
Si Si4 0.569641 0.348827 0.665993
Si Si5 0.416567 0.351232 0.797609
Si Si6 0.079798 0.351502 0.193910
Si Si7 0.932848 0.848103 0.664034
O O1 0.500000 0.500000 0.500000
O O2 0.750000 0.499537 0.567057
O O3 0.522552 0.415194 0.611007
O O4 0.521571 0.583772 0.610580
O O5 0.250000 0.610415 0.081234
O O6 0.473956 0.501215 0.067841
O O7 0.510546 0.634759 0.133021
O O8 0.462850 0.633434 0.998988
O O9 0.750000 0.434573 0.066737
O O10 0.974399 0.370831 0.133955
O O11 0.750000 0.349054 0.668612
O O12 0.522516 0.250000 0.654424
O O13 0.510138 0.379830 0.735510
O O14 0.250000 0.389253 0.796738
O O15 0.405993 0.250000 0.789754
O O16 0.250000 0.385260 0.182707
O O17 0.091754 0.250000 0.199752
O O18 0.023048 0.379487 0.264250
O O19 0.750000 0.846325 0.665306
O O20 0.982467 0.750000 0.653138
#
# Coordination Sequence:
#
# PCOD9451734 Si02
#       7
#     8   8   8   8   8   8   8
#     4  10  21  36  56  83 111 143 182 221 269 328
#     4  10  21  36  53  73 104 145 185 224 272 330
#     4  10  21  35  51  76 107 140 181 230 279 324
#     4   9  19  36  56  80 112 148 185 225 273 333
#     4  10  21  36  55  81 110 139 178 230 281 326
#     4   9  18  33  54  78 103 137 181 225 273 328
#     4   8  16  33  55  79 107 140 182 226 265 317
#
# _framework density 19.272760999999999
#
# number of rings (size 3 to 8) (size 9 to 14) (size 15 to 20)
#    0.000    2.571    0.000    2.143    2.000    4.571 
#    0.000    3.571    0.000    0.857    0.000    0.000 
#    0.000    0.000    0.000    0.000    0.000    0.000 
#
# Total GULP energy -312123.735814 kJ/mol
# GULP energy per Si atom -5573.638140 kJ/mol
# Density = 1.922890 g / cm^3
# Si number density = 19.272761 Si / 1000 Ang^3
#
#
#
# Elastic Constant Matrix: (Units=GPa)
#
#
# Indices 1 2 3 4 5 6 
#
# 1 21.4734 14.0743 36.3049 0.0000 0.0000 0.0000
# 2 14.0743 61.3984 62.2523 0.0000 0.0000 0.0000
# 3 36.3049 62.2523 192.1574 0.0000 0.0000 0.0000
# 4 0.0000 0.0000 0.0000 52.5087 0.0000 0.0000
# 5 0.0000 0.0000 0.0000 0.0000 35.1399 0.0000
# 6 0.0000 0.0000 0.0000 0.0000 0.0000 15.6202
#
#
#
# Elastic Compliance Matrix: (Units=1/GPa)
#
#
# Indices 1 2 3 4 5 6 
#
# 1 0.069040 -0.003873 -0.011789 0.000000 0.000000 0.000000
# 2 -0.003873 0.024471 -0.007196 0.000000 0.000000 0.000000
# 3 -0.011789 -0.007196 0.009763 0.000000 0.000000 0.000000
# 4 0.000000 0.000000 0.000000 0.019044 0.000000 0.000000
# 5 0.000000 0.000000 0.000000 0.000000 0.028458 0.000000
# 6 0.000000 0.000000 0.000000 0.000000 0.000000 0.064020
#
#
# Mechanical properties :
#
#
# Convention : Reuss Voigt Hill
#
# Bulk Modulus (GPa) = 17.37401 55.58802 36.48102
# Shear Modulus (GPa) = 17.87649 31.48026 24.67838
#
# Velocity S-wave (km/s) = 3.04888 4.04593 3.58226
# Velocity P-wave (km/s) = 4.62910 7.12260 6.00666
#
# Compressibility (1/GPa) = 0.05755724
#
# Stress axis : x y z
#
# Youngs Moduli (GPa) = 14.48444 40.86475 102.43060
#
# Poissons Ratio (x) = 0.15826 1.20758
# Poissons Ratio (y) = 0.05609 0.73710
# Poissons Ratio (z) = 0.17076 0.29406
#
# Static dielectric constant tensor:
#      x y z
#    x 1.669250 0.000000 0.000000 
#    y 0.000000 1.701150 0.000000 
#    z 0.000000 0.000000 1.689140 
# 
# From -- ./inp_files/29023.got.cif
#   From: 2010.05.17/outbox.cif.g08.bks.cpg/sg59_15_cif.got.tgz:29023.got - 2010.06.03 14:40:33.
