data_PCOD9451172
_publ_section_title
;
Structure prediction by ZEFSAII (Michael W. Deem and Ramdas Pophale) SiO2 
 PCOD9451172
Probable space group: P M M N
;
_chemical_formula_sum "Si O2"
_cell_formula_units_Z 48
_cell_length_a 8.457574
_cell_length_b 10.125966
_cell_length_c 29.541511
_cell_angle_alpha 90.000000
_cell_angle_beta 90.000000
_cell_angle_gamma 90.000000
_cell_volume 2529.967698
_symmetry_space_group_name_H-M "P M M N"
_symmetry_group_IT_number 59
_space_group.IT_coordinate_system_code '2'
_symmetry_cell_setting 'orthorhombic'
loop_
_space_group_symop_operation_xyz
x,y,z
1/2-x,1/2-y,z
1/2+x,-y,-z
-x,1/2+y,-z
-x,-y,-z
1/2+x,1/2+y,-z
1/2-x,y,z
x,1/2-y,z
loop_
_atom_site_type_symbol
_atom_site_label
_atom_site_fract_x
_atom_site_fract_y
_atom_site_fract_z
Si Si1 0.061022 0.904121 0.039865
Si Si2 0.440650 0.250000 0.538056
Si Si3 0.440870 0.899580 0.294348
Si Si4 0.440166 0.098866 0.216610
Si Si5 0.559207 0.250000 0.435817
Si Si6 0.061464 0.901360 0.884689
Si Si7 0.941148 0.977960 0.393274
O O1 0.250000 0.898797 0.036732
O O2 0.004211 0.750000 0.037921
O O3 0.012889 0.983218 0.085141
O O4 0.000000 0.000000 0.000000
O O5 0.250000 0.250000 0.535157
O O6 0.506467 0.250000 0.487725
O O7 0.490688 0.375329 0.567906
O O8 0.250000 0.902402 0.294249
O O9 0.492986 0.750000 0.285002
O O10 0.495464 0.998915 0.255247
O O11 0.496950 0.939908 0.344116
O O12 0.250000 0.085201 0.211197
O O13 0.472292 0.250000 0.230541
O O14 0.518018 0.077838 0.167783
O O15 0.750000 0.250000 0.435571
O O16 0.504232 0.379159 0.409415
O O17 0.250000 0.904581 0.890793
O O18 0.008269 0.750000 0.896792
O O19 0.750000 0.975178 0.391416
#
# Coordination Sequence:
#
# PCOD9451172 Si02
#       7
#     8   4   8   8   4   8   8
#     4  11  24  40  60  88 121 159 202 247 294 344
#     4  10  20  36  56  76 104 140 176 214 263 324
#     4  10  21  36  55  80 108 141 182 226 273 326
#     4   9  19  36  57  81 112 149 187 231 282 334
#     4  10  22  36  54  80 106 136 174 218 265 318
#     4  10  21  38  60  88 120 154 195 240 289 346
#     4  10  21  37  54  77 108 139 173 217 270 324
#
# _framework density 18.972574999999999
#
# number of rings (size 3 to 8) (size 9 to 14) (size 15 to 20)
#    0.000    2.000    0.833    2.000    1.167    7.000 
#    0.000    1.667    0.000    0.000    0.000    0.000 
#    0.000    0.000    0.000    0.000    0.000    0.000 
#
# Total GULP energy -267980.855878 kJ/mol
# GULP energy per Si atom -5582.934497 kJ/mol
# Density = 1.892939 g / cm^3
# Si number density = 18.972575 Si / 1000 Ang^3
#
#
#
# Elastic Constant Matrix: (Units=GPa)
#
#
# Indices 1 2 3 4 5 6 
#
# 1 18.2047 33.8276 18.1823 0.0000 0.0000 0.0000
# 2 33.8276 186.0752 89.3795 0.0000 0.0000 0.0000
# 3 18.1823 89.3795 104.9023 0.0000 0.0000 0.0000
# 4 0.0000 0.0000 0.0000 41.1414 0.0000 0.0000
# 5 0.0000 0.0000 0.0000 0.0000 34.8506 0.0000
# 6 0.0000 0.0000 0.0000 0.0000 0.0000 5.9022
#
#
#
# Elastic Compliance Matrix: (Units=1/GPa)
#
#
# Indices 1 2 3 4 5 6 
#
# 1 0.083370 -0.013907 -0.002601 0.000000 0.000000 0.000000
# 2 -0.013907 0.011417 -0.007317 0.000000 0.000000 0.000000
# 3 -0.002601 -0.007317 0.016218 0.000000 0.000000 0.000000
# 4 0.000000 0.000000 0.000000 0.024306 0.000000 0.000000
# 5 0.000000 0.000000 0.000000 0.000000 0.028694 0.000000
# 6 0.000000 0.000000 0.000000 0.000000 0.000000 0.169427
#
#
# Mechanical properties :
#
#
# Convention : Reuss Voigt Hill
#
# Bulk Modulus (GPa) = 15.78415 65.77344 40.77880
# Shear Modulus (GPa) = 12.43157 27.56503 19.99830
#
# Velocity S-wave (km/s) = 2.56254 3.81581 3.25016
# Velocity P-wave (km/s) = 4.13437 7.35913 5.96866
#
# Compressibility (1/GPa) = 0.06335470
#
# Stress axis : x y z
#
# Youngs Moduli (GPa) = 11.99469 87.58729 61.65957
#
# Poissons Ratio (x) = 1.21806 0.16039
# Poissons Ratio (y) = 0.16681 0.45118
# Poissons Ratio (z) = 0.03120 0.64090
#
# Static dielectric constant tensor:
#      x y z
#    x 1.656800 0.000000 0.000000 
#    y 0.000000 2.009250 0.000000 
#    z 0.000000 0.000000 1.613520 
# 
# From -- ./inp_files/33011.got.cif
#   From: 2010.05.17/outbox.cif.g08.bks.cpg/sg59_17_cif.got.tgz:33011.got - 2010.06.03 14:40:33.
