data_PCOD9451088
_publ_section_title
;
Structure prediction by ZEFSAII (Michael W. Deem and Ramdas Pophale) SiO2 
 PCOD9451088
Probable space group: P M M N
;
_chemical_formula_sum "Si O2"
_cell_formula_units_Z 64
_cell_length_a 22.668531
_cell_length_b 10.122844
_cell_length_c 13.962650
_cell_angle_alpha 90.000000
_cell_angle_beta 90.000000
_cell_angle_gamma 90.000000
_cell_volume 3204.009338
_symmetry_space_group_name_H-M "P M M N"
_symmetry_group_IT_number 59
_space_group.IT_coordinate_system_code '2'
_symmetry_cell_setting 'orthorhombic'
loop_
_space_group_symop_operation_xyz
x,y,z
1/2-x,1/2-y,z
1/2+x,-y,-z
-x,1/2+y,-z
-x,-y,-z
1/2+x,1/2+y,-z
1/2-x,y,z
x,1/2-y,z
loop_
_atom_site_type_symbol
_atom_site_label
_atom_site_fract_x
_atom_site_fract_y
_atom_site_fract_z
Si Si1 0.380419 0.092928 0.533082
Si Si2 0.983471 0.598464 0.136891
Si Si3 0.320655 0.395102 0.738358
Si Si4 0.317664 0.601641 0.902261
Si Si5 0.872543 0.409299 0.641246
Si Si6 0.319527 0.396921 0.202303
Si Si7 0.013033 0.092479 0.652990
Si Si8 0.403620 0.474960 0.037293
O O1 0.380587 0.250000 0.504010
O O2 0.344567 0.083208 0.632119
O O3 0.445734 0.044994 0.566690
O O4 0.355914 0.993920 0.453123
O O5 0.001174 0.750000 0.150719
O O6 0.965724 0.545948 0.241804
O O7 0.041303 0.523473 0.099823
O O8 0.934501 0.592820 0.054206
O O9 0.250000 0.391736 0.732774
O O10 0.342474 0.250000 0.770220
O O11 0.334507 0.503257 0.817402
O O12 0.250000 0.571675 0.932473
O O13 0.319013 0.750000 0.865327
O O14 0.362871 0.586552 0.989204
O O15 0.861472 0.250000 0.637681
O O16 0.841595 0.484393 0.729673
O O17 0.943337 0.430096 0.649120
O O18 0.250000 0.412726 0.181601
O O19 0.327329 0.250000 0.247233
O O20 0.359001 0.399143 0.106513
O O21 0.022452 0.250000 0.649275
#
# Coordination Sequence:
#
# PCOD9451088 Si02
#       8
#     8   8   8   8   8   8   8   8
#     4  10  20  36  61  88 118 157 202 250 306 366
#     4  10  20  35  58  87 121 158 194 243 299 356
#     4   9  19  36  58  84 115 153 196 244 299 361
#     4  10  21  36  56  85 121 158 197 246 302 359
#     4  11  23  40  61  87 120 155 201 254 307 366
#     4  11  25  44  64  88 122 164 210 258 305 358
#     4   9  18  35  58  85 119 156 194 241 299 359
#     4  11  21  36  60  86 119 158 205 247 296 358
#
# _framework density 19.974972999999999
#
# number of rings (size 3 to 8) (size 9 to 14) (size 15 to 20)
#    0.000    1.875    1.250    2.625    0.000    3.750 
#    0.000    3.125    0.000    0.000    0.000    0.000 
#    0.000    0.000    0.000    0.000    0.000    0.000 
#
# Total GULP energy -356847.484207 kJ/mol
# GULP energy per Si atom -5575.741941 kJ/mol
# Density = 1.992951 g / cm^3
# Si number density = 19.974973 Si / 1000 Ang^3
#
#
#
# Elastic Constant Matrix: (Units=GPa)
#
#
# Indices 1 2 3 4 5 6 
#
# 1 80.7325 29.7057 24.6311 0.0000 0.0000 0.0000
# 2 29.7057 98.1777 45.5825 0.0000 0.0000 0.0000
# 3 24.6311 45.5825 88.2596 0.0000 0.0000 0.0000
# 4 0.0000 0.0000 0.0000 31.6787 0.0000 0.0000
# 5 0.0000 0.0000 0.0000 0.0000 25.4929 0.0000
# 6 0.0000 0.0000 0.0000 0.0000 0.0000 10.3259
#
#
#
# Elastic Compliance Matrix: (Units=1/GPa)
#
#
# Indices 1 2 3 4 5 6 
#
# 1 0.014287 -0.003251 -0.002308 0.000000 0.000000 0.000000
# 2 -0.003251 0.014138 -0.006394 0.000000 0.000000 0.000000
# 3 -0.002308 -0.006394 0.015277 0.000000 0.000000 0.000000
# 4 0.000000 0.000000 0.000000 0.031567 0.000000 0.000000
# 5 0.000000 0.000000 0.000000 0.000000 0.039227 0.000000
# 6 0.000000 0.000000 0.000000 0.000000 0.000000 0.096844
#
#
# Mechanical properties :
#
#
# Convention : Reuss Voigt Hill
#
# Bulk Modulus (GPa) = 50.51889 51.88981 51.20435
# Shear Modulus (GPa) = 20.67436 24.64952 22.66194
#
# Velocity S-wave (km/s) = 3.22065 3.51667 3.37191
# Velocity P-wave (km/s) = 6.25908 6.52098 6.39137
#
# Compressibility (1/GPa) = 0.01979458
#
# Stress axis : x y z
#
# Youngs Moduli (GPa) = 69.99340 70.73033 65.45872
#
# Poissons Ratio (x) = 0.22996 0.15108
# Poissons Ratio (y) = 0.22757 0.41857
# Poissons Ratio (z) = 0.16155 0.45228
#
# Static dielectric constant tensor:
#      x y z
#    x 1.740840 0.000000 0.000000 
#    y 0.000000 1.702510 0.000000 
#    z 0.000000 0.000000 1.705370 
# 
# From -- ./inp_files/24774.got.cif
#   From: 2010.05.17/outbox.cif.g08.bks.cpg/sg59_13_cif.got.tgz:24774.got - 2010.06.03 14:40:33.
