data_PCOD9451040
_publ_section_title
;
Structure prediction by ZEFSAII (Michael W. Deem and Ramdas Pophale) SiO2 
 PCOD9451040
Probable space group: P M M N
;
_chemical_formula_sum "Si O2"
_cell_formula_units_Z 64
_cell_length_a 8.977592
_cell_length_b 14.240941
_cell_length_c 26.333780
_cell_angle_alpha 90.000000
_cell_angle_beta 90.000000
_cell_angle_gamma 90.000000
_cell_volume 3366.756867
_symmetry_space_group_name_H-M "P M M N"
_symmetry_group_IT_number 59
_space_group.IT_coordinate_system_code '2'
_symmetry_cell_setting 'orthorhombic'
loop_
_space_group_symop_operation_xyz
x,y,z
1/2-x,1/2-y,z
1/2+x,-y,-z
-x,1/2+y,-z
-x,-y,-z
1/2+x,1/2+y,-z
1/2-x,y,z
x,1/2-y,z
loop_
_atom_site_type_symbol
_atom_site_label
_atom_site_fract_x
_atom_site_fract_y
_atom_site_fract_z
Si Si1 0.427749 0.963881 0.877445
Si Si2 0.079996 0.635578 0.473439
Si Si3 0.923650 0.862282 0.973224
Si Si4 0.570993 0.970160 0.679153
Si Si5 0.572271 0.638819 0.577247
Si Si6 0.072416 0.140941 0.632818
Si Si7 0.571109 0.639268 0.782094
Si Si8 0.927495 0.359837 0.917547
O O1 0.250000 0.964803 0.879522
O O2 0.494824 0.913153 0.927184
O O3 0.486406 0.908336 0.828611
O O4 0.493413 0.069056 0.879313
O O5 0.250000 0.603101 0.469125
O O6 0.080140 0.750000 0.475503
O O7 0.006735 0.604041 0.526092
O O8 0.991424 0.612115 0.422394
O O9 0.750000 0.890860 0.976231
O O10 0.927990 0.750000 0.964468
O O11 0.005320 0.879923 0.026569
O O12 0.750000 0.980066 0.677925
O O13 0.526111 0.912644 0.628709
O O14 0.532494 0.912960 0.729661
O O15 0.496278 0.071410 0.674076
O O16 0.750000 0.628314 0.571070
O O17 0.541882 0.750000 0.582774
O O18 0.250000 0.134092 0.632019
O O19 0.031188 0.250000 0.641256
O O20 0.750000 0.630019 0.789942
O O21 0.537984 0.750000 0.778793
O O22 0.750000 0.374770 0.917903
O O23 0.956047 0.250000 0.906552
#
# Coordination Sequence:
#
# PCOD9451040 Si02
#       8
#     8   8   8   8   8   8   8   8
#     4  12  24  37  57  85 118 155 195 238 284 336
#     4   9  17  30  50  77 108 142 180 221 265 317
#     4  10  20  35  57  86 121 159 197 238 285 337
#     4  10  21  37  59  84 107 138 181 227 277 330
#     4   9  17  31  52  79 111 143 175 215 268 330
#     4  10  21  37  56  78 107 143 181 223 272 325
#     4  10  22  42  65  87 113 145 184 231 280 331
#     4  10  21  38  60  86 118 155 195 239 285 335
#
# _framework density 19.009391999999998
#
# number of rings (size 3 to 8) (size 9 to 14) (size 15 to 20)
#    0.000    2.000    0.000    3.750    0.000    8.500 
#    0.000    0.625    0.000    3.000    0.000    0.000 
#    0.000    0.000    0.000    0.000    0.000    0.000 
#
# Total GULP energy -357721.745703 kJ/mol
# GULP energy per Si atom -5589.402277 kJ/mol
# Density = 1.896613 g / cm^3
# Si number density = 19.009392 Si / 1000 Ang^3
#
#
#
# Elastic Constant Matrix: (Units=GPa)
#
#
# Indices 1 2 3 4 5 6 
#
# 1 86.6766 65.3434 61.0881 0.0000 0.0000 0.0000
# 2 65.3434 120.8416 81.1186 0.0000 0.0000 0.0000
# 3 61.0881 81.1186 91.6497 0.0000 0.0000 0.0000
# 4 0.0000 0.0000 0.0000 35.6536 0.0000 0.0000
# 5 0.0000 0.0000 0.0000 0.0000 26.8677 0.0000
# 6 0.0000 0.0000 0.0000 0.0000 0.0000 25.6814
#
#
#
# Elastic Compliance Matrix: (Units=1/GPa)
#
#
# Indices 1 2 3 4 5 6 
#
# 1 0.023059 -0.005301 -0.010678 0.000000 0.000000 0.000000
# 2 -0.005301 0.021608 -0.015592 0.000000 0.000000 0.000000
# 3 -0.010678 -0.015592 0.031829 0.000000 0.000000 0.000000
# 4 0.000000 0.000000 0.000000 0.028048 0.000000 0.000000
# 5 0.000000 0.000000 0.000000 0.000000 0.037219 0.000000
# 6 0.000000 0.000000 0.000000 0.000000 0.000000 0.038939
#
#
# Mechanical properties :
#
#
# Convention : Reuss Voigt Hill
#
# Bulk Modulus (GPa) = 74.88251 79.36311 77.12281
# Shear Modulus (GPa) = 20.13730 23.74839 21.94285
#
# Velocity S-wave (km/s) = 3.25827 3.53838 3.40121
# Velocity P-wave (km/s) = 7.32346 7.65072 7.48888
#
# Compressibility (1/GPa) = 0.01335425
#
# Stress axis : x y z
#
# Youngs Moduli (GPa) = 43.36708 46.27809 31.41806
#
# Poissons Ratio (x) = 0.24532 0.33548
# Poissons Ratio (y) = 0.22989 0.48988
# Poissons Ratio (z) = 0.46306 0.72158
#
# Static dielectric constant tensor:
#      x y z
#    x 1.635120 0.000000 0.000000 
#    y 0.000000 1.697510 0.000000 
#    z 0.000000 0.000000 1.620840 
# 
# From -- ./inp_files/31501.got.cif
#   From: 2010.05.17/outbox.cif.g08.bks.cpg/sg59_16_cif.got.tgz:31501.got - 2010.06.03 14:40:33.
