data_PCOD9451465
_publ_section_title
;
Structure prediction by ZEFSAII (Michael W. Deem and Ramdas Pophale) SiO2 
 PCOD9451465
Probable space group: P M M N
;
_chemical_formula_sum "Si O2"
_cell_formula_units_Z 48
_cell_length_a 8.486734
_cell_length_b 16.555127
_cell_length_c 18.582669
_cell_angle_alpha 90.000000
_cell_angle_beta 90.000000
_cell_angle_gamma 90.000000
_cell_volume 2610.845653
_symmetry_space_group_name_H-M "P M M N"
_symmetry_group_IT_number 59
_space_group.IT_coordinate_system_code '2'
_symmetry_cell_setting 'orthorhombic'
loop_
_space_group_symop_operation_xyz
x,y,z
1/2-x,1/2-y,z
1/2+x,-y,-z
-x,1/2+y,-z
-x,-y,-z
1/2+x,1/2+y,-z
1/2-x,y,z
x,1/2-y,z
loop_
_atom_site_type_symbol
_atom_site_label
_atom_site_fract_x
_atom_site_fract_y
_atom_site_fract_z
Si Si1 0.939339 0.504616 0.080860
Si Si2 0.059293 0.085243 0.531344
Si Si3 0.562682 0.250000 0.287104
Si Si4 0.941492 0.838383 0.166447
Si Si5 0.062500 0.413104 0.216772
Si Si6 0.940595 0.750000 0.549527
Si Si7 0.440352 0.433882 0.695707
O O1 0.750000 0.501531 0.081610
O O2 0.992993 0.590331 0.114150
O O3 0.001368 0.438429 0.137627
O O4 0.000000 0.500000 0.000000
O O5 0.250000 0.084627 0.528438
O O6 0.006527 0.166577 0.489561
O O7 0.010627 0.086439 0.615036
O O8 0.000000 0.000000 0.500000
O O9 0.750000 0.250000 0.292322
O O10 0.506406 0.170689 0.244911
O O11 0.493400 0.250000 0.367787
O O12 0.750000 0.836875 0.163466
O O13 0.001050 0.750000 0.147852
O O14 0.983600 0.864535 0.247317
O O15 0.250000 0.408916 0.215518
O O16 0.009388 0.483473 0.272145
O O17 0.750000 0.750000 0.547088
O O18 0.250000 0.441893 0.696653
#
# Coordination Sequence:
#
# PCOD9451465 Si02
#       7
#     8   8   4   8   8   4   8
#     4  10  20  37  59  85 118 152 187 230 281 336
#     4  10  21  35  53  79 112 149 191 237 289 343
#     4  12  24  40  60  82 111 146 193 246 290 342
#     4   8  15  29  53  82 107 138 182 228 272 322
#     4  11  22  38  60  85 112 150 192 235 287 345
#     4  10  22  38  56  84 117 154 195 242 294 352
#     4   9  18  33  55  81 110 146 189 234 282 338
#
# _framework density 18.384847000000001
#
# number of rings (size 3 to 8) (size 9 to 14) (size 15 to 20)
#    0.000    2.167    0.000    4.750    1.167    4.000 
#    1.500    0.000    0.000   12.000    0.000    0.000 
#    0.000    0.000    0.000    0.000    0.000    0.000 
#
# Total GULP energy -267874.256566 kJ/mol
# GULP energy per Si atom -5580.713678 kJ/mol
# Density = 1.834300 g / cm^3
# Si number density = 18.384847 Si / 1000 Ang^3
#
#
#
# Elastic Constant Matrix: (Units=GPa)
#
#
# Indices 1 2 3 4 5 6 
#
# 1 42.4895 24.8137 29.5648 0.0000 0.0000 0.0000
# 2 24.8137 146.8321 92.5495 0.0000 0.0000 0.0000
# 3 29.5648 92.5495 180.1130 0.0000 0.0000 0.0000
# 4 0.0000 0.0000 0.0000 12.8504 0.0000 0.0000
# 5 0.0000 0.0000 0.0000 0.0000 28.9060 0.0000
# 6 0.0000 0.0000 0.0000 0.0000 0.0000 18.9565
#
#
#
# Elastic Compliance Matrix: (Units=1/GPa)
#
#
# Indices 1 2 3 4 5 6 
#
# 1 0.027245 -0.002641 -0.003115 0.000000 0.000000 0.000000
# 2 -0.002641 0.010329 -0.004874 0.000000 0.000000 0.000000
# 3 -0.003115 -0.004874 0.008568 0.000000 0.000000 0.000000
# 4 0.000000 0.000000 0.000000 0.077819 0.000000 0.000000
# 5 0.000000 0.000000 0.000000 0.000000 0.034595 0.000000
# 6 0.000000 0.000000 0.000000 0.000000 0.000000 0.052752
#
#
# Mechanical properties :
#
#
# Convention : Reuss Voigt Hill
#
# Bulk Modulus (GPa) = 40.18972 73.69895 56.94434
# Shear Modulus (GPa) = 20.75885 26.97636 23.86760
#
# Velocity S-wave (km/s) = 3.36390 3.83471 3.60699
# Velocity P-wave (km/s) = 6.08239 7.73178 6.95615
#
# Compressibility (1/GPa) = 0.02488198
#
# Stress axis : x y z
#
# Youngs Moduli (GPa) = 36.70398 96.81637 116.71530
#
# Poissons Ratio (x) = 0.25566 0.36360
# Poissons Ratio (y) = 0.09692 0.56886
# Poissons Ratio (z) = 0.11434 0.47188
#
# Static dielectric constant tensor:
#      x y z
#    x 1.632120 0.000000 0.000000 
#    y 0.000000 1.627790 0.000000 
#    z 0.000000 0.000000 1.617560 
# 
# From -- ./inp_files/25609.got.cif
#   From: 2010.05.17/outbox.cif.g08.bks.cpg/sg59_13_cif.got.tgz:25609.got - 2010.06.03 14:40:33.
