data_PCOD9451563
_publ_section_title
;
Structure prediction by ZEFSAII (Michael W. Deem and Ramdas Pophale) SiO2 
 PCOD9451563
Probable space group: P M M N
;
_chemical_formula_sum "Si O2"
_cell_formula_units_Z 64
_cell_length_a 23.572225
_cell_length_b 18.351499
_cell_length_c 7.623217
_cell_angle_alpha 90.000000
_cell_angle_beta 90.000000
_cell_angle_gamma 90.000000
_cell_volume 3297.694384
_symmetry_space_group_name_H-M "P M M N"
_symmetry_group_IT_number 59
_space_group.IT_coordinate_system_code '2'
_symmetry_cell_setting 'orthorhombic'
loop_
_space_group_symop_operation_xyz
x,y,z
1/2-x,1/2-y,z
1/2+x,-y,-z
-x,1/2+y,-z
-x,-y,-z
1/2+x,1/2+y,-z
1/2-x,y,z
x,1/2-y,z
loop_
_atom_site_type_symbol
_atom_site_label
_atom_site_fract_x
_atom_site_fract_y
_atom_site_fract_z
Si Si1 0.184762 0.944552 0.922789
Si Si2 0.187560 0.421437 0.166283
Si Si3 0.398556 0.451369 0.712500
Si Si4 0.479140 0.578845 0.174205
Si Si5 0.685922 0.835982 0.202316
Si Si6 0.528041 0.163792 0.460976
Si Si7 0.908309 0.335656 0.110457
Si Si8 0.429322 0.061858 0.336696
O O1 0.250000 0.939401 0.863876
O O2 0.152998 0.868159 0.939409
O O3 0.144358 0.990629 0.793232
O O4 0.185206 0.994965 0.096584
O O5 0.250000 0.409160 0.246621
O O6 0.132005 0.409942 0.279305
O O7 0.183835 0.371069 0.992598
O O8 0.453031 0.432260 0.830095
O O9 0.361866 0.378016 0.690518
O O10 0.422752 0.476135 0.526696
O O11 0.465342 0.626305 0.349232
O O12 0.452164 0.499384 0.205099
O O13 0.452845 0.618833 0.007013
O O14 0.750000 0.850133 0.268091
O O15 0.676792 0.750000 0.195809
O O16 0.519566 0.250000 0.484799
O O17 0.577710 0.153826 0.316836
O O18 0.473801 0.125992 0.369518
O O19 0.913262 0.250000 0.072815
#
# Coordination Sequence:
#
# PCOD9451563 Si02
#       8
#     8   8   8   8   8   8   8   8
#     4  10  20  38  58  82 113 145 190 247 287 335
#     4   9  19  34  54  78 108 145 185 232 279 331
#     4  10  21  34  58  85 111 150 191 231 291 343
#     4  11  22  39  59  85 121 151 191 240 291 348
#     4   9  19  36  54  76 111 152 191 230 274 329
#     4  10  23  39  55  86 123 151 191 242 288 347
#     4  11  23  38  62  87 111 158 198 232 300 359
#     4  11  21  36  57  83 114 150 187 236 292 346
#
# _framework density 19.407496999999999
#
# number of rings (size 3 to 8) (size 9 to 14) (size 15 to 20)
#    0.000    1.875    1.250    4.500    3.500    5.250 
#    0.000    0.000    0.000    1.500    0.000    1.750 
#    0.000    0.000    0.000    0.000    0.000    0.000 
#
# Total GULP energy -357290.021205 kJ/mol
# GULP energy per Si atom -5582.656581 kJ/mol
# Density = 1.936332 g / cm^3
# Si number density = 19.407497 Si / 1000 Ang^3
#
#
#
# Elastic Constant Matrix: (Units=GPa)
#
#
# Indices 1 2 3 4 5 6 
#
# 1 100.7214 27.5075 9.3548 0.0000 0.0000 0.0000
# 2 27.5075 74.7703 26.0626 0.0000 0.0000 0.0000
# 3 9.3548 26.0626 56.4425 0.0000 0.0000 0.0000
# 4 0.0000 0.0000 0.0000 25.3936 0.0000 0.0000
# 5 0.0000 0.0000 0.0000 0.0000 19.6896 0.0000
# 6 0.0000 0.0000 0.0000 0.0000 0.0000 24.1473
#
#
#
# Elastic Compliance Matrix: (Units=1/GPa)
#
#
# Indices 1 2 3 4 5 6 
#
# 1 0.011037 -0.004080 0.000054 0.000000 0.000000 0.000000
# 2 -0.004080 0.017448 -0.007380 0.000000 0.000000 0.000000
# 3 0.000054 -0.007380 0.021116 0.000000 0.000000 0.000000
# 4 0.000000 0.000000 0.000000 0.039380 0.000000 0.000000
# 5 0.000000 0.000000 0.000000 0.000000 0.050788 0.000000
# 6 0.000000 0.000000 0.000000 0.000000 0.000000 0.041412
#
#
# Mechanical properties :
#
#
# Convention : Reuss Voigt Hill
#
# Bulk Modulus (GPa) = 37.32723 39.75378 38.54050
# Shear Modulus (GPa) = 23.48263 25.11338 24.29800
#
# Velocity S-wave (km/s) = 3.48225 3.60113 3.54219
# Velocity P-wave (km/s) = 5.95342 6.14972 6.05237
#
# Compressibility (1/GPa) = 0.02679009
#
# Stress axis : x y z
#
# Youngs Moduli (GPa) = 90.60044 57.31406 47.35730
#
# Poissons Ratio (x) = 0.23382 -0.00258
# Poissons Ratio (y) = 0.36961 0.34952
# Poissons Ratio (z) = -0.00493 0.42300
#
# Static dielectric constant tensor:
#      x y z
#    x 1.689330 0.000000 0.000000 
#    y 0.000000 1.682240 0.000000 
#    z 0.000000 0.000000 1.715180 
# 
# From -- ./inp_files/11611.got.cif
#   From: 2010.05.17/outbox.cif.g08.bks.cpg/sg59_6_cif.got.tgz:11611.got - 2010.06.03 14:40:33.
