data_PCOD9451253
_publ_section_title
;
Structure prediction by ZEFSAII (Michael W. Deem and Ramdas Pophale) SiO2 
 PCOD9451253
Probable space group: P M M N
;
_chemical_formula_sum "Si O2"
_cell_formula_units_Z 48
_cell_length_a 18.421465
_cell_length_b 8.151819
_cell_length_c 15.970708
_cell_angle_alpha 90.000000
_cell_angle_beta 90.000000
_cell_angle_gamma 90.000000
_cell_volume 2398.296440
_symmetry_space_group_name_H-M "P M M N"
_symmetry_group_IT_number 59
_space_group.IT_coordinate_system_code '2'
_symmetry_cell_setting 'orthorhombic'
loop_
_space_group_symop_operation_xyz
x,y,z
1/2-x,1/2-y,z
1/2+x,-y,-z
-x,1/2+y,-z
-x,-y,-z
1/2+x,1/2+y,-z
1/2-x,y,z
x,1/2-y,z
loop_
_atom_site_type_symbol
_atom_site_label
_atom_site_fract_x
_atom_site_fract_y
_atom_site_fract_z
Si Si1 0.333167 0.051936 0.165556
Si Si2 0.833928 0.049342 0.501146
Si Si3 0.916576 0.946271 0.000378
Si Si4 0.416047 0.948092 0.666614
Si Si5 0.082953 0.553710 0.331986
Si Si6 0.833111 0.051951 0.166947
O O1 0.250000 0.992609 0.167632
O O2 0.331422 0.250000 0.161838
O O3 0.374913 0.992298 0.082603
O O4 0.375981 0.003665 0.248824
O O5 0.750000 0.997747 0.500845
O O6 0.834269 0.250000 0.501082
O O7 0.875822 0.994890 0.417683
O O8 0.875286 0.994177 0.584796
O O9 0.914590 0.750000 0.998748
O O10 0.876105 0.004145 0.083783
O O11 0.000000 0.000000 0.000000
O O12 0.412668 0.750000 0.666862
O O13 0.374670 0.007008 0.749893
O O14 0.499854 0.997283 0.667676
O O15 0.084141 0.750000 0.333376
O O16 0.750000 0.992624 0.164436
O O17 0.831219 0.250000 0.170943
#
# Coordination Sequence:
#
# PCOD9451253 Si02
#       6
#     8   8   8   8   8   8
#     4  10  22  40  59  79 107 145 186 225 269 325
#     4   9  18  34  56  81 109 143 184 228 273 322
#     4  11  23  39  59  83 112 147 185 226 276 330
#     4  10  20  36  58  81 109 147 186 223 268 327
#     4  11  22  35  55  84 115 145 180 226 276 322
#     4  10  21  37  58  84 111 142 184 231 277 327
#
# _framework density 20.014206000000001
#
# number of rings (size 3 to 8) (size 9 to 14) (size 15 to 20)
#    0.000    1.833    0.000    4.000    0.000   10.000 
#    0.000    0.833    0.000    3.500    0.000    0.000 
#    0.000    0.000    0.000    0.000    0.000    0.000 
#
# Total GULP energy -268322.884376 kJ/mol
# GULP energy per Si atom -5590.060091 kJ/mol
# Density = 1.996865 g / cm^3
# Si number density = 20.014206 Si / 1000 Ang^3
#
#
#
# Elastic Constant Matrix: (Units=GPa)
#
#
# Indices 1 2 3 4 5 6 
#
# 1 243.8210 13.9717 151.0060 0.0000 0.0000 0.0000
# 2 13.9717 13.9030 16.1804 0.0000 0.0000 0.0000
# 3 151.0060 16.1804 246.6672 0.0000 0.0000 0.0000
# 4 0.0000 0.0000 0.0000 4.7646 0.0000 0.0000
# 5 0.0000 0.0000 0.0000 0.0000 48.9355 0.0000
# 6 0.0000 0.0000 0.0000 0.0000 0.0000 24.9655
#
#
#
# Elastic Compliance Matrix: (Units=1/GPa)
#
#
# Indices 1 2 3 4 5 6 
#
# 1 0.006663 -0.002110 -0.003940 0.000000 0.000000 0.000000
# 2 -0.002110 0.078540 -0.003860 0.000000 0.000000 0.000000
# 3 -0.003940 -0.003860 0.006720 0.000000 0.000000 0.000000
# 4 0.000000 0.000000 0.000000 0.209881 0.000000 0.000000
# 5 0.000000 0.000000 0.000000 0.000000 0.020435 0.000000
# 6 0.000000 0.000000 0.000000 0.000000 0.000000 0.040055
#
#
# Mechanical properties :
#
#
# Convention : Reuss Voigt Hill
#
# Bulk Modulus (GPa) = 13.86945 96.30083 55.08514
# Shear Modulus (GPa) = 12.31079 37.28199 24.79639
#
# Velocity S-wave (km/s) = 2.48282 4.32067 3.52368
# Velocity P-wave (km/s) = 3.89410 8.55053 6.64363
#
# Compressibility (1/GPa) = 0.07210093
#
# Stress axis : x y z
#
# Youngs Moduli (GPa) = 150.08973 12.73241 148.82000
#
# Poissons Ratio (x) = 0.02686 0.58641
# Poissons Ratio (y) = 0.31665 0.57450
# Poissons Ratio (z) = 0.59141 0.04915
#
# Static dielectric constant tensor:
#      x y z
#    x 1.663360 0.000000 0.000000 
#    y 0.000000 1.719270 0.000000 
#    z 0.000000 0.000000 1.673720 
# 
# From -- ./inp_files/20287.got.cif
#   From: 2010.05.17/outbox.cif.g08.bks.cpg/sg59_11_cif.got.tgz:20287.got - 2010.06.03 14:40:33.
