data_PCOD9451933
_publ_section_title
;
Structure prediction by ZEFSAII (Michael W. Deem and Ramdas Pophale) SiO2 
 PCOD9451933
Probable space group: P M M N
;
_chemical_formula_sum "Si O2"
_cell_formula_units_Z 56
_cell_length_a 8.795226
_cell_length_b 14.898246
_cell_length_c 23.131780
_cell_angle_alpha 90.000000
_cell_angle_beta 90.000000
_cell_angle_gamma 90.000000
_cell_volume 3031.036720
_symmetry_space_group_name_H-M "P M M N"
_symmetry_group_IT_number 59
_space_group.IT_coordinate_system_code '2'
_symmetry_cell_setting 'orthorhombic'
loop_
_space_group_symop_operation_xyz
x,y,z
1/2-x,1/2-y,z
1/2+x,-y,-z
-x,1/2+y,-z
-x,-y,-z
1/2+x,1/2+y,-z
1/2-x,y,z
x,1/2-y,z
loop_
_atom_site_type_symbol
_atom_site_label
_atom_site_fract_x
_atom_site_fract_y
_atom_site_fract_z
Si Si1 0.069226 0.356000 0.112564
Si Si2 0.065511 0.556117 0.661364
Si Si3 0.433271 0.946775 0.445047
Si Si4 0.424400 0.859453 0.008272
Si Si5 0.434583 0.750000 0.481690
Si Si6 0.066933 0.146970 0.870377
Si Si7 0.933435 0.014829 0.208068
Si Si8 0.934700 0.250000 0.384727
O O1 0.250000 0.366177 0.113469
O O2 0.032874 0.250000 0.117916
O O3 0.007145 0.387953 0.050359
O O4 0.995955 0.410036 0.164902
O O5 0.250000 0.551485 0.657754
O O6 0.018131 0.529720 0.726033
O O7 0.018945 0.658343 0.646534
O O8 0.995923 0.491823 0.612890
O O9 0.250000 0.951716 0.446676
O O10 0.480416 0.842550 0.451446
O O11 0.500000 0.000000 0.500000
O O12 0.250000 0.888812 0.007334
O O13 0.428028 0.750000 0.008116
O O14 0.503079 0.885915 0.068125
O O15 0.250000 0.750000 0.483134
O O16 0.486250 0.750000 0.548562
O O17 0.250000 0.146615 0.873943
O O18 0.017508 0.250000 0.861077
O O19 0.019894 0.080496 0.819322
O O20 0.750000 0.019102 0.207175
O O21 0.750000 0.250000 0.385573
#
# Coordination Sequence:
#
# PCOD9451933 Si02
#       8
#     8   8   8   8   4   8   8   4
#     4  10  21  36  54  79 113 147 179 225 282 332
#     4  10  21  38  58  84 114 149 188 226 271 327
#     4  11  21  37  60  85 116 150 187 232 277 327
#     4   9  17  31  54  82 107 136 181 232 278 331
#     4   9  18  34  58  84 114 150 183 218 277 336
#     4   9  18  35  56  77 106 143 181 228 284 332
#     4  10  22  37  56  81 109 146 190 226 268 331
#     4   9  16  32  58  82 112 150 179 212 269 334
#
# _framework density 18.475525999999999
#
# number of rings (size 3 to 8) (size 9 to 14) (size 15 to 20)
#    0.000    2.286    1.429    1.286    1.000    4.286 
#    1.286    2.500    0.000    0.000    0.000    0.000 
#    0.000    0.000    0.000    0.000    0.000    0.000 
#
# Total GULP energy -312623.673565 kJ/mol
# GULP energy per Si atom -5582.565599 kJ/mol
# Density = 1.843347 g / cm^3
# Si number density = 18.475526 Si / 1000 Ang^3
#
#
#
# Elastic Constant Matrix: (Units=GPa)
#
#
# Indices 1 2 3 4 5 6 
#
# 1 18.5112 36.1665 39.3186 0.0000 0.0000 0.0000
# 2 36.1665 142.5136 107.6186 0.0000 0.0000 0.0000
# 3 39.3186 107.6186 202.8043 0.0000 0.0000 0.0000
# 4 0.0000 0.0000 0.0000 31.5052 0.0000 0.0000
# 5 0.0000 0.0000 0.0000 0.0000 26.9184 0.0000
# 6 0.0000 0.0000 0.0000 0.0000 0.0000 19.4788
#
#
#
# Elastic Compliance Matrix: (Units=1/GPa)
#
#
# Indices 1 2 3 4 5 6 
#
# 1 0.122749 -0.021993 -0.012127 0.000000 0.000000 0.000000
# 2 -0.021993 0.015649 -0.004040 0.000000 0.000000 0.000000
# 3 -0.012127 -0.004040 0.009426 0.000000 0.000000 0.000000
# 4 0.000000 0.000000 0.000000 0.031741 0.000000 0.000000
# 5 0.000000 0.000000 0.000000 0.000000 0.037149 0.000000
# 6 0.000000 0.000000 0.000000 0.000000 0.000000 0.051338
#
#
# Mechanical properties :
#
#
# Convention : Reuss Voigt Hill
#
# Bulk Modulus (GPa) = 13.98543 81.11515 47.55029
# Shear Modulus (GPa) = 13.57930 27.62885 20.60407
#
# Velocity S-wave (km/s) = 2.71401 3.87127 3.34310
# Velocity P-wave (km/s) = 4.17220 7.99886 6.37923
#
# Compressibility (1/GPa) = 0.07150299
#
# Stress axis : x y z
#
# Youngs Moduli (GPa) = 8.14673 63.90086 106.08804
#
# Poissons Ratio (x) = 1.40535 1.28657
# Poissons Ratio (y) = 0.17917 0.42865
# Poissons Ratio (z) = 0.09880 0.25819
#
# Static dielectric constant tensor:
#      x y z
#    x 1.631650 0.000000 0.000000 
#    y 0.000000 1.658460 0.000000 
#    z 0.000000 0.000000 1.599740 
# 
# From -- ./inp_files/29237.got.cif
#   From: 2010.05.17/outbox.cif.g08.bks.cpg/sg59_15_cif.got.tgz:29237.got - 2010.06.03 14:40:33.
