data_PCOD9451236
_publ_section_title
;
Structure prediction by ZEFSAII (Michael W. Deem and Ramdas Pophale) SiO2 
 PCOD9451236
Probable space group: P M M N
;
_chemical_formula_sum "Si O2"
_cell_formula_units_Z 48
_cell_length_a 7.704447
_cell_length_b 17.735407
_cell_length_c 16.670337
_cell_angle_alpha 90.000000
_cell_angle_beta 90.000000
_cell_angle_gamma 90.000000
_cell_volume 2277.859907
_symmetry_space_group_name_H-M "P M M N"
_symmetry_group_IT_number 59
_space_group.IT_coordinate_system_code '2'
_symmetry_cell_setting 'orthorhombic'
loop_
_space_group_symop_operation_xyz
x,y,z
1/2-x,1/2-y,z
1/2+x,-y,-z
-x,1/2+y,-z
-x,-y,-z
1/2+x,1/2+y,-z
1/2-x,y,z
x,1/2-y,z
loop_
_atom_site_type_symbol
_atom_site_label
_atom_site_fract_x
_atom_site_fract_y
_atom_site_fract_z
Si Si1 0.455512 0.102483 0.792236
Si Si2 0.550216 0.917379 0.537658
Si Si3 0.037918 0.250000 0.704661
Si Si4 0.961356 0.750000 0.482720
Si Si5 0.462181 0.664993 0.863491
Si Si6 0.038513 0.554709 0.721098
Si Si7 0.543518 0.085326 0.976308
O O1 0.250000 0.101335 0.776737
O O2 0.527660 0.176264 0.750068
O O3 0.477147 0.102786 0.887762
O O4 0.523970 0.026640 0.751638
O O5 0.750000 0.910936 0.513987
O O6 0.475516 0.833145 0.514967
O O7 0.526406 0.926033 0.632944
O O8 0.500000 0.000000 0.500000
O O9 0.250000 0.250000 0.709640
O O10 0.996410 0.250000 0.611399
O O11 0.750000 0.750000 0.493878
O O12 0.250000 0.662409 0.865163
O O13 0.516802 0.750000 0.850032
O O14 0.516633 0.612801 0.790021
O O15 0.522724 0.635888 0.950167
O O16 0.250000 0.555150 0.718102
O O17 0.750000 0.093763 0.973097
O O18 0.500000 0.000000 0.000000
#
# Coordination Sequence:
#
# PCOD9451236 Si02
#       7
#     8   8   4   4   8   8   8
#     4  10  20  36  57  84 114 150 193 233 283 341
#     4  11  23  40  63  91 121 154 196 243 297 355
#     4   9  18  34  59  82 109 148 190 230 276 343
#     4   9  20  40  63  86 117 158 194 236 294 357
#     4   9  19  35  55  80 111 151 192 231 280 338
#     4  10  20  37  60  83 113 153 194 236 286 346
#     4  11  21  36  57  80 111 151 193 236 283 334
#
# _framework density 21.072410000000001
#
# number of rings (size 3 to 8) (size 9 to 14) (size 15 to 20)
#    0.000    2.000    1.667    2.000    2.333    3.333 
#    0.000    1.250    0.000    4.000    0.000    0.000 
#    0.000    0.000    0.000    0.000    0.000    0.000 
#
# Total GULP energy -267824.847232 kJ/mol
# GULP energy per Si atom -5579.684317 kJ/mol
# Density = 2.102445 g / cm^3
# Si number density = 21.072410 Si / 1000 Ang^3
#
#
#
# Elastic Constant Matrix: (Units=GPa)
#
#
# Indices 1 2 3 4 5 6 
#
# 1 28.5694 8.3371 -19.4211 0.0000 0.0000 0.0000
# 2 8.3371 246.0007 122.3419 0.0000 0.0000 0.0000
# 3 -19.4211 122.3419 159.5514 0.0000 0.0000 0.0000
# 4 0.0000 0.0000 0.0000 11.4662 0.0000 0.0000
# 5 0.0000 0.0000 0.0000 0.0000 28.6721 0.0000
# 6 0.0000 0.0000 0.0000 0.0000 0.0000 3.7447
#
#
#
# Elastic Compliance Matrix: (Units=1/GPa)
#
#
# Indices 1 2 3 4 5 6 
#
# 1 0.044131 -0.006736 0.010537 0.000000 0.000000 0.000000
# 2 -0.006736 0.007599 -0.006647 0.000000 0.000000 0.000000
# 3 0.010537 -0.006647 0.012647 0.000000 0.000000 0.000000
# 4 0.000000 0.000000 0.000000 0.087212 0.000000 0.000000
# 5 0.000000 0.000000 0.000000 0.000000 0.034877 0.000000
# 6 0.000000 0.000000 0.000000 0.000000 0.000000 0.267042
#
#
# Mechanical properties :
#
#
# Convention : Reuss Voigt Hill
#
# Bulk Modulus (GPa) = 17.04023 72.95972 44.99997
# Shear Modulus (GPa) = 10.44363 30.30084 20.37224
#
# Velocity S-wave (km/s) = 2.22864 3.79613 3.11267
# Velocity P-wave (km/s) = 3.83751 7.34252 5.85829
#
# Compressibility (1/GPa) = 0.05868466
#
# Stress axis : x y z
#
# Youngs Moduli (GPa) = 22.66000 131.60005 79.07271
#
# Poissons Ratio (x) = 0.88642 -0.83315
# Poissons Ratio (y) = 0.15263 0.52556
# Poissons Ratio (z) = -0.23876 0.87468
#
# Static dielectric constant tensor:
#      x y z
#    x 1.865180 0.000000 0.000000 
#    y 0.000000 1.757700 0.000000 
#    z 0.000000 0.000000 1.703200 
# 
# From -- ./inp_files/20544.got.cif
#   From: 2010.05.17/outbox.cif.g08.bks.cpg/sg59_11_cif.got.tgz:20544.got - 2010.06.03 14:40:33.
