data_PCOD9451801
_publ_section_title
;
Structure prediction by ZEFSAII (Michael W. Deem and Ramdas Pophale) SiO2 
 PCOD9451801
Probable space group: P M M N
;
_chemical_formula_sum "Si O2"
_cell_formula_units_Z 64
_cell_length_a 9.046883
_cell_length_b 23.450858
_cell_length_c 15.945681
_cell_angle_alpha 90.000000
_cell_angle_beta 90.000000
_cell_angle_gamma 90.000000
_cell_volume 3382.990532
_symmetry_space_group_name_H-M "P M M N"
_symmetry_group_IT_number 59
_space_group.IT_coordinate_system_code '2'
_symmetry_cell_setting 'orthorhombic'
loop_
_space_group_symop_operation_xyz
x,y,z
1/2-x,1/2-y,z
1/2+x,-y,-z
-x,1/2+y,-z
-x,-y,-z
1/2+x,1/2+y,-z
1/2-x,y,z
x,1/2-y,z
loop_
_atom_site_type_symbol
_atom_site_label
_atom_site_fract_x
_atom_site_fract_y
_atom_site_fract_z
Si Si1 0.913590 0.817693 0.964389
Si Si2 0.072295 0.887327 0.638300
Si Si3 0.929978 0.377735 0.694871
Si Si4 0.570195 0.184157 0.522939
Si Si5 0.082719 0.854628 0.124980
Si Si6 0.427960 0.499392 0.733346
Si Si7 0.071442 0.183122 0.213972
Si Si8 0.421316 0.509495 0.090347
O O1 0.750000 0.842741 0.972367
O O2 0.901062 0.750000 0.951489
O O3 0.996034 0.827504 0.049586
O O4 0.982056 0.838958 0.877224
O O5 0.250000 0.883201 0.640119
O O6 0.022433 0.859219 0.550649
O O7 0.035573 0.952021 0.664654
O O8 0.002917 0.849925 0.711558
O O9 0.750000 0.384320 0.696912
O O10 0.971484 0.342476 0.612604
O O11 0.974206 0.346019 0.780963
O O12 0.003383 0.439878 0.701516
O O13 0.750000 0.185680 0.521350
O O14 0.520298 0.250000 0.511502
O O15 0.250000 0.833769 0.122111
O O16 0.081114 0.922466 0.107342
O O17 0.250000 0.495086 0.741571
O O18 0.496207 0.513575 0.825783
O O19 0.250000 0.177379 0.214836
O O20 0.036913 0.250000 0.223125
O O21 0.250000 0.489790 0.087352
O O22 0.500000 0.500000 0.000000
#
# Coordination Sequence:
#
# PCOD9451801 Si02
#       8
#     8   8   8   8   8   8   8   8
#     4   9  19  34  50  72 103 140 180 217 264 328
#     4  10  21  35  55  83 112 143 185 233 278 333
#     4   9  19  37  58  80 108 143 185 231 279 338
#     4   9  18  35  60  86 110 141 184 234 288 340
#     4   9  19  33  50  75 104 133 173 224 269 313
#     4  10  21  36  53  80 116 150 186 230 280 332
#     4   9  19  35  52  73 105 143 181 224 276 335
#     4  10  21  36  54  78 109 145 186 229 271 322
#
# _framework density 18.918172999999999
#
# number of rings (size 3 to 8) (size 9 to 14) (size 15 to 20)
#    0.000    2.625    0.000    2.625    1.750    6.000 
#    0.000    3.125    0.000    1.125    0.000    0.000 
#    0.000    0.000    0.000    0.000    0.000    0.000 
#
# Total GULP energy -356667.219794 kJ/mol
# GULP energy per Si atom -5572.925309 kJ/mol
# Density = 1.887511 g / cm^3
# Si number density = 18.918173 Si / 1000 Ang^3
#
#
#
# Elastic Constant Matrix: (Units=GPa)
#
#
# Indices 1 2 3 4 5 6 
#
# 1 16.7160 6.1275 18.7592 0.0000 0.0000 0.0000
# 2 6.1275 35.3770 24.8827 0.0000 0.0000 0.0000
# 3 18.7592 24.8827 148.1003 0.0000 0.0000 0.0000
# 4 0.0000 0.0000 0.0000 33.4594 0.0000 0.0000
# 5 0.0000 0.0000 0.0000 0.0000 31.0558 0.0000
# 6 0.0000 0.0000 0.0000 0.0000 0.0000 22.3349
#
#
#
# Elastic Compliance Matrix: (Units=1/GPa)
#
#
# Indices 1 2 3 4 5 6 
#
# 1 0.071144 -0.006786 -0.007871 0.000000 0.000000 0.000000
# 2 -0.006786 0.032702 -0.004635 0.000000 0.000000 0.000000
# 3 -0.007871 -0.004635 0.008528 0.000000 0.000000 0.000000
# 4 0.000000 0.000000 0.000000 0.029887 0.000000 0.000000
# 5 0.000000 0.000000 0.000000 0.000000 0.032200 0.000000
# 6 0.000000 0.000000 0.000000 0.000000 0.000000 0.044773
#
#
# Mechanical properties :
#
#
# Convention : Reuss Voigt Hill
#
# Bulk Modulus (GPa) = 13.55208 33.30356 23.42782
# Shear Modulus (GPa) = 17.70444 27.39827 22.55136
#
# Velocity S-wave (km/s) = 3.06247 3.80972 3.45635
# Velocity P-wave (km/s) = 4.43667 6.08228 5.32345
#
# Compressibility (1/GPa) = 0.07378944
#
# Stress axis : x y z
#
# Youngs Moduli (GPa) = 14.05606 30.57890 117.26200
#
# Poissons Ratio (x) = 0.20751 0.92300
# Poissons Ratio (y) = 0.09539 0.54349
# Poissons Ratio (z) = 0.11064 0.14173
#
# Static dielectric constant tensor:
#      x y z
#    x 1.651410 0.000000 0.000000 
#    y 0.000000 1.667150 0.000000 
#    z 0.000000 0.000000 1.667930 
# 
# From -- ./inp_files/21463.got.cif
#   From: 2010.05.17/outbox.cif.g08.bks.cpg/sg59_11_cif.got.tgz:21463.got - 2010.06.03 14:40:33.
