data_PCOD9451137
_publ_section_title
;
Structure prediction by ZEFSAII (Michael W. Deem and Ramdas Pophale) SiO2 
 PCOD9451137
Probable space group: P M M N
;
_chemical_formula_sum "Si O2"
_cell_formula_units_Z 58
_cell_length_a 30.400872
_cell_length_b 7.509902
_cell_length_c 12.229131
_cell_angle_alpha 90.000000
_cell_angle_beta 90.000000
_cell_angle_gamma 90.000000
_cell_volume 2792.003175
_symmetry_space_group_name_H-M "P M M N"
_symmetry_group_IT_number 59
_space_group.IT_coordinate_system_code '2'
_symmetry_cell_setting 'orthorhombic'
loop_
_space_group_symop_operation_xyz
x,y,z
1/2-x,1/2-y,z
1/2+x,-y,-z
-x,1/2+y,-z
-x,-y,-z
1/2+x,1/2+y,-z
1/2-x,y,z
x,1/2-y,z
loop_
_atom_site_type_symbol
_atom_site_label
_atom_site_fract_x
_atom_site_fract_y
_atom_site_fract_z
Si Si1 0.200606 0.534396 0.146688
Si Si2 0.700687 0.034787 0.107452
Si Si3 0.126880 0.454726 0.721078
Si Si4 0.331533 0.470674 0.492585
Si Si5 0.951474 0.455037 0.896896
Si Si6 0.116736 0.050009 0.284175
Si Si7 0.548994 0.958028 0.136006
Si Si8 0.250000 0.750000 0.466543
O O1 0.250000 0.484671 0.181341
O O2 0.197720 0.750000 0.154915
O O3 0.162611 0.453680 0.218420
O O4 0.195118 0.486254 0.019508
O O5 0.750000 0.981478 0.141754
O O6 0.698599 0.250000 0.112795
O O7 0.663777 0.960008 0.185119
O O8 0.116379 0.250000 0.694709
O O9 0.149217 0.523941 0.611087
O O10 0.083473 0.536564 0.777533
O O11 0.324010 0.250000 0.488467
O O12 0.368896 0.516427 0.402697
O O13 0.288808 0.591249 0.468940
O O14 0.958563 0.250000 0.925815
O O15 0.918594 0.461608 0.795402
O O16 0.999439 0.533276 0.867935
O O17 0.933636 0.534462 0.010635
O O18 0.100478 0.250000 0.297996
O O19 0.544560 0.750000 0.164026
#
# Coordination Sequence:
#
# PCOD9451137 Si02
#       8
#     8   8   8   8   8   8   8   2
#     4   9  19  34  53  79 111 145 187 240 293 355
#     4   9  19  33  50  77 110 143 185 235 289 353
#     4  10  21  38  57  79 116 153 193 251 301 361
#     4  10  26  44  62  93 123 160 215 260 308 359
#     4  10  20  35  60  91 121 153 200 251 301 375
#     4  11  23  38  56  80 118 155 195 252 302 361
#     4   9  19  37  61  89 120 159 196 242 315 373
#     4  12  26  44  72  86 118 176 210 268 300 372
#
# _framework density 20.773616000000001
#
# number of rings (size 3 to 8) (size 9 to 14) (size 15 to 20)
#    0.000    2.207    0.000    2.690    4.828    4.414 
#    0.000    2.069    0.000    0.000    0.000    0.000 
#    0.000    0.000    0.000    0.000    0.000    0.000 
#
# Total GULP energy -322986.238674 kJ/mol
# GULP energy per Si atom -5568.728253 kJ/mol
# Density = 2.072633 g / cm^3
# Si number density = 20.773616 Si / 1000 Ang^3
#
#
#
# Elastic Constant Matrix: (Units=GPa)
#
#
# Indices 1 2 3 4 5 6 
#
# 1 59.8534 8.1372 23.3675 0.0000 0.0000 0.0000
# 2 8.1372 69.5166 3.8744 0.0000 0.0000 0.0000
# 3 23.3675 3.8744 41.9162 0.0000 0.0000 0.0000
# 4 0.0000 0.0000 0.0000 11.8704 0.0000 0.0000
# 5 0.0000 0.0000 0.0000 0.0000 -2.2486 0.0000
# 6 0.0000 0.0000 0.0000 0.0000 0.0000 -1.1280
#
#
#
# Elastic Compliance Matrix: (Units=1/GPa)
#
#
# Indices 1 2 3 4 5 6 
#
# 1 0.021594 -0.001866 -0.011866 0.000000 0.000000 0.000000
# 2 -0.001866 0.014621 -0.000311 0.000000 0.000000 0.000000
# 3 -0.011866 -0.000311 0.030501 0.000000 0.000000 0.000000
# 4 0.000000 0.000000 0.000000 0.084243 0.000000 0.000000
# 5 0.000000 0.000000 0.000000 0.000000 -0.444717 0.000000
# 6 0.000000 0.000000 0.000000 0.000000 0.000000 -0.886541
#
#
# Mechanical properties :
#
#
# Convention : Reuss Voigt Hill
#
# Bulk Modulus (GPa) = 25.88698 26.89383 26.39040
# Shear Modulus (GPa) = -4.38852 10.75923 3.18535
#
# Velocity S-wave (km/s) = -1.45504 2.27827 1.23963
# Velocity P-wave (km/s) = 3.10897 4.46037 3.84452
#
# Compressibility (1/GPa) = 0.03862946
#
# Stress axis : x y z
#
# Youngs Moduli (GPa) = 46.30982 68.39553 32.78612
#
# Poissons Ratio (x) = 0.12765 0.38903
# Poissons Ratio (y) = 0.08643 0.01020
# Poissons Ratio (z) = 0.54949 0.02127
#
# Static dielectric constant tensor:
#      x y z
#    x 1.742710 0.000000 0.000000 
#    y 0.000000 1.803630 0.000000 
#    z 0.000000 0.000000 1.755620 
# 
# From -- ./inp_files/19174.got.cif
#   From: 2010.05.17/outbox.cif.g08.bks.cpg/sg59_10_cif.got.tgz:19174.got - 2010.06.03 14:40:33.
