data_PCOD9451145
_publ_section_title
;
Structure prediction by ZEFSAII (Michael W. Deem and Ramdas Pophale) SiO2 
 PCOD9451145
Probable space group: P M M N
;
_chemical_formula_sum "Si O2"
_cell_formula_units_Z 64
_cell_length_a 18.477478
_cell_length_b 15.732760
_cell_length_c 11.742446
_cell_angle_alpha 90.000000
_cell_angle_beta 90.000000
_cell_angle_gamma 90.000000
_cell_volume 3413.549329
_symmetry_space_group_name_H-M "P M M N"
_symmetry_group_IT_number 59
_space_group.IT_coordinate_system_code '2'
_symmetry_cell_setting 'orthorhombic'
loop_
_space_group_symop_operation_xyz
x,y,z
1/2-x,1/2-y,z
1/2+x,-y,-z
-x,1/2+y,-z
-x,-y,-z
1/2+x,1/2+y,-z
1/2-x,y,z
x,1/2-y,z
loop_
_atom_site_type_symbol
_atom_site_label
_atom_site_fract_x
_atom_site_fract_y
_atom_site_fract_z
Si Si1 0.090505 0.347281 0.680111
Si Si2 0.666417 0.489296 0.723299
Si Si3 0.516958 0.851389 0.978774
Si Si4 0.330603 0.064639 0.022044
Si Si5 0.051214 0.426070 0.446416
Si Si6 0.563938 0.348311 0.803268
Si Si7 0.167088 0.510203 0.786276
Si Si8 0.447549 0.849736 0.737468
O O1 0.115293 0.250000 0.698040
O O2 0.086179 0.372538 0.548182
O O3 0.136359 0.419724 0.743378
O O4 0.008280 0.352840 0.726787
O O5 0.750000 0.484506 0.685884
O O6 0.665803 0.533728 0.847764
O O7 0.614245 0.535895 0.633524
O O8 0.628819 0.399194 0.747443
O O9 0.513517 0.750000 0.989859
O O10 0.599323 0.878072 0.997532
O O11 0.490781 0.873661 0.852866
O O12 0.463404 0.886582 0.075960
O O13 0.250000 0.103635 0.005341
O O14 0.335791 0.992539 0.924293
O O15 0.000000 0.500000 0.500000
O O16 0.999386 0.368774 0.368263
O O17 0.583939 0.250000 0.818126
O O18 0.250000 0.518711 0.751514
O O19 0.119727 0.586367 0.736268
O O20 0.428297 0.750000 0.742643
#
# Coordination Sequence:
#
# PCOD9451145 Si02
#       8
#     8   8   8   8   8   8   8   8
#     4  11  23  40  63  90 119 158 207 257 308 364
#     4  11  23  39  61  88 122 164 203 247 310 371
#     4  10  20  35  61  92 120 158 206 250 301 370
#     4  10  21  36  58  90 126 159 194 246 315 378
#     4  12  22  41  64  88 118 163 212 261 301 355
#     4  10  20  36  60  91 122 153 196 251 305 364
#     4  11  23  39  62  93 127 161 197 250 315 375
#     4  11  23  40  64  91 120 162 209 252 303 365
#
# _framework density 18.748812000000001
#
# number of rings (size 3 to 8) (size 9 to 14) (size 15 to 20)
#    0.000    1.250    5.000    1.125    0.000    2.500 
#    0.000    1.250    0.000    5.625    0.000    0.000 
#    0.000    0.000    0.000    0.000    0.000    0.000 
#
# Total GULP energy -357275.502611 kJ/mol
# GULP energy per Si atom -5582.429728 kJ/mol
# Density = 1.870614 g / cm^3
# Si number density = 18.748812 Si / 1000 Ang^3
#
#
#
# Elastic Constant Matrix: (Units=GPa)
#
#
# Indices 1 2 3 4 5 6 
#
# 1 126.1006 57.2515 27.8325 0.0000 0.0000 0.0000
# 2 57.2515 75.2882 30.5724 0.0000 0.0000 0.0000
# 3 27.8325 30.5724 97.3100 0.0000 0.0000 0.0000
# 4 0.0000 0.0000 0.0000 28.2599 0.0000 0.0000
# 5 0.0000 0.0000 0.0000 0.0000 21.9696 0.0000
# 6 0.0000 0.0000 0.0000 0.0000 0.0000 6.9803
#
#
#
# Elastic Compliance Matrix: (Units=1/GPa)
#
#
# Indices 1 2 3 4 5 6 
#
# 1 0.012148 -0.008971 -0.000656 0.000000 0.000000 0.000000
# 2 -0.008971 0.021850 -0.004299 0.000000 0.000000 0.000000
# 3 -0.000656 -0.004299 0.011815 0.000000 0.000000 0.000000
# 4 0.000000 0.000000 0.000000 0.035386 0.000000 0.000000
# 5 0.000000 0.000000 0.000000 0.000000 0.045517 0.000000
# 6 0.000000 0.000000 0.000000 0.000000 0.000000 0.143261
#
#
# Mechanical properties :
#
#
# Convention : Reuss Voigt Hill
#
# Bulk Modulus (GPa) = 55.67789 58.89019 57.28404
# Shear Modulus (GPa) = 16.45732 23.64479 20.05105
#
# Velocity S-wave (km/s) = 2.96595 3.55510 3.27380
# Velocity P-wave (km/s) = 6.44130 6.95197 6.70150
#
# Compressibility (1/GPa) = 0.01796045
#
# Stress axis : x y z
#
# Youngs Moduli (GPa) = 82.31716 45.76641 84.64090
#
# Poissons Ratio (x) = 0.41059 0.05552
# Poissons Ratio (y) = 0.73850 0.36385
# Poissons Ratio (z) = 0.05400 0.19674
#
# Static dielectric constant tensor:
#      x y z
#    x 1.623270 0.000000 0.000000 
#    y 0.000000 1.650150 0.000000 
#    z 0.000000 0.000000 1.684280 
# 
# From -- ./inp_files/17220.got.cif
#   From: 2010.05.17/outbox.cif.g08.bks.cpg/sg59_9_cif.got.tgz:17220.got - 2010.06.03 14:40:33.
