data_PCOD9451401
_publ_section_title
;
Structure prediction by ZEFSAII (Michael W. Deem and Ramdas Pophale) SiO2 
 PCOD9451401
Probable space group: P M M N
;
_chemical_formula_sum "Si O2"
_cell_formula_units_Z 64
_cell_length_a 15.667759
_cell_length_b 8.880190
_cell_length_c 24.253703
_cell_angle_alpha 90.000000
_cell_angle_beta 90.000000
_cell_angle_gamma 90.000000
_cell_volume 3374.482621
_symmetry_space_group_name_H-M "P M M N"
_symmetry_group_IT_number 59
_space_group.IT_coordinate_system_code '2'
_symmetry_cell_setting 'orthorhombic'
loop_
_space_group_symop_operation_xyz
x,y,z
1/2-x,1/2-y,z
1/2+x,-y,-z
-x,1/2+y,-z
-x,-y,-z
1/2+x,1/2+y,-z
1/2-x,y,z
x,1/2-y,z
loop_
_atom_site_type_symbol
_atom_site_label
_atom_site_fract_x
_atom_site_fract_y
_atom_site_fract_z
Si Si1 0.500107 0.929477 0.439398
Si Si2 0.101998 0.926921 0.256836
Si Si3 0.103328 0.073490 0.744390
Si Si4 0.497771 0.069577 0.060564
Si Si5 0.652822 0.429089 0.369817
Si Si6 0.346513 0.569445 0.860397
Si Si7 0.152287 0.931058 0.132627
Si Si8 0.847295 0.571239 0.629893
O O1 0.500613 0.750000 0.442332
O O2 0.500000 0.000000 0.500000
O O3 0.582940 0.986587 0.406309
O O4 0.417000 0.984994 0.406198
O O5 0.122958 0.750000 0.265407
O O6 0.135531 0.971455 0.196590
O O7 0.999450 0.941485 0.257078
O O8 0.139722 0.022054 0.306755
O O9 0.124285 0.250000 0.738848
O O10 0.141047 0.982723 0.693083
O O11 0.136020 0.010765 0.802387
O O12 0.496326 0.250000 0.056881
O O13 0.581808 0.024749 0.095534
O O14 0.415808 0.011492 0.094010
O O15 0.500000 0.000000 0.000000
O O16 0.750000 0.461223 0.387372
O O17 0.638509 0.250000 0.373211
O O18 0.250000 0.536499 0.879013
O O19 0.353437 0.750000 0.852093
O O20 0.250000 0.966213 0.118075
O O21 0.140464 0.750000 0.128487
O O22 0.750000 0.536812 0.613264
O O23 0.861156 0.750000 0.624669
#
# Coordination Sequence:
#
# PCOD9451401 Si02
#       8
#     8   8   8   8   8   8   8   8
#     4  12  26  45  68  92 122 163 208 259 309 362
#     4  10  20  36  61  92 126 164 202 246 304 364
#     4  11  21  35  61  95 127 160 199 248 304 361
#     4  11  24  41  62  86 117 156 203 256 303 358
#     4  11  24  42  65  93 127 166 206 251 305 365
#     4  10  22  40  61  86 118 159 202 246 302 364
#     4  10  21  39  63  89 121 160 200 245 301 364
#     4  11  24  41  64  95 129 165 206 253 303 360
#
# _framework density 18.965869999999999
#
# number of rings (size 3 to 8) (size 9 to 14) (size 15 to 20)
#    0.000    1.250    2.500    3.375    0.000    7.000 
#    0.000    1.250    0.000    0.000    0.000    0.000 
#    0.000    0.000    0.000    0.000    0.000    0.000 
#
# Total GULP energy -357955.258368 kJ/mol
# GULP energy per Si atom -5593.050912 kJ/mol
# Density = 1.892270 g / cm^3
# Si number density = 18.965870 Si / 1000 Ang^3
#
#
#
# Elastic Constant Matrix: (Units=GPa)
#
#
# Indices 1 2 3 4 5 6 
#
# 1 153.9178 85.3513 84.9527 0.0000 0.0000 0.0000
# 2 85.3513 93.1590 67.8283 0.0000 0.0000 0.0000
# 3 84.9527 67.8283 148.3748 0.0000 0.0000 0.0000
# 4 0.0000 0.0000 0.0000 38.7658 0.0000 0.0000
# 5 0.0000 0.0000 0.0000 0.0000 -7.0589 0.0000
# 6 0.0000 0.0000 0.0000 0.0000 0.0000 15.1760
#
#
#
# Elastic Compliance Matrix: (Units=1/GPa)
#
#
# Indices 1 2 3 4 5 6 
#
# 1 0.014192 -0.010621 -0.003270 0.000000 0.000000 0.000000
# 2 -0.010621 0.024039 -0.004908 0.000000 0.000000 0.000000
# 3 -0.003270 -0.004908 0.010856 0.000000 0.000000 0.000000
# 4 0.000000 0.000000 0.000000 0.025796 0.000000 0.000000
# 5 0.000000 0.000000 0.000000 0.000000 -0.141664 0.000000
# 6 0.000000 0.000000 0.000000 0.000000 0.000000 0.065893
#
#
# Mechanical properties :
#
#
# Convention : Reuss Voigt Hill
#
# Bulk Modulus (GPa) = 87.05055 96.85736 91.95395
# Shear Modulus (GPa) = 123.33875 19.86454 71.60164
#
# Velocity S-wave (km/s) = 8.07299 3.23984 6.15100
# Velocity P-wave (km/s) = 11.52804 8.07314 9.95166
#
# Compressibility (1/GPa) = 0.01148758
#
# Stress axis : x y z
#
# Youngs Moduli (GPa) = 70.46423 41.59931 92.11872
#
# Poissons Ratio (x) = 0.44184 0.30123
# Poissons Ratio (y) = 0.74842 0.45211
# Poissons Ratio (z) = 0.23042 0.20416
#
# Static dielectric constant tensor:
#      x y z
#    x 1.282150 0.000000 0.000000 
#    y 0.000000 1.636680 0.000000 
#    z 0.000000 0.000000 1.616350 
# 
# From -- ./inp_files/32168.got.cif
#   From: 2010.05.17/outbox.cif.g08.bks.cpg/sg59_17_cif.got.tgz:32168.got - 2010.06.03 14:40:33.
