data_PCOD9451937
_publ_section_title
;
Structure prediction by ZEFSAII (Michael W. Deem and Ramdas Pophale) SiO2 
 PCOD9451937
Probable space group: P M M N
;
_chemical_formula_sum "Si O2"
_cell_formula_units_Z 40
_cell_length_a 7.665246
_cell_length_b 13.633830
_cell_length_c 15.918284
_cell_angle_alpha 90.000000
_cell_angle_beta 90.000000
_cell_angle_gamma 90.000000
_cell_volume 1663.566708
_symmetry_space_group_name_H-M "P M M N"
_symmetry_group_IT_number 59
_space_group.IT_coordinate_system_code '2'
_symmetry_cell_setting 'orthorhombic'
loop_
_space_group_symop_operation_xyz
x,y,z
1/2-x,1/2-y,z
1/2+x,-y,-z
-x,1/2+y,-z
-x,-y,-z
1/2+x,1/2+y,-z
1/2-x,y,z
x,1/2-y,z
loop_
_atom_site_type_symbol
_atom_site_label
_atom_site_fract_x
_atom_site_fract_y
_atom_site_fract_z
Si Si1 0.451510 0.144454 0.069828
Si Si2 0.046013 0.367651 0.539551
Si Si3 0.038336 0.362157 0.354005
Si Si4 0.953990 0.427856 0.896734
Si Si5 0.953457 0.939719 0.284731
O O1 0.250000 0.144785 0.098867
O O2 0.528784 0.250000 0.094705
O O3 0.526699 0.039612 0.097757
O O4 0.456311 0.135836 0.968382
O O5 0.250000 0.397514 0.538771
O O6 0.041816 0.250000 0.540927
O O7 0.974115 0.394096 0.447550
O O8 0.966717 0.403995 0.626808
O O9 0.250000 0.362328 0.355282
O O10 0.983781 0.250000 0.338045
O O11 0.976640 0.442816 0.288686
O O12 0.750000 0.430306 0.919395
O O13 0.970134 0.396832 0.800497
O O14 0.750000 0.913999 0.284614
#
# Coordination Sequence:
#
# PCOD9451937 Si02
#       5
#     8   8   8   8   8
#     4   9  19  38  61  79  99 133 173 213 261 313
#     4   8  16  32  52  73  99 136 180 219 259 310
#     4   9  18  34  54  73  98 137 181 221 263 310
#     4  10  21  36  54  80 110 137 171 212 256 312
#     4  11  21  32  51  79 109 139 172 215 263 307
#
# _framework density 24.044723999999999
#
# number of rings (size 3 to 8) (size 9 to 14) (size 15 to 20)
#    0.000    2.600    0.000    3.000    0.000    3.200 
#    0.000    5.000    0.000    4.200    0.000    0.000 
#    0.000    0.000    0.000    0.000    0.000    0.000 
#
# Total GULP energy -223330.575678 kJ/mol
# GULP energy per Si atom -5583.264392 kJ/mol
# Density = 2.399000 g / cm^3
# Si number density = 24.044724 Si / 1000 Ang^3
#
#
#
# Elastic Constant Matrix: (Units=GPa)
#
#
# Indices 1 2 3 4 5 6 
#
# 1 56.5656 -1.1078 -6.4957 0.0000 0.0000 0.0000
# 2 -1.1078 44.9998 -11.1818 0.0000 0.0000 0.0000
# 3 -6.4957 -11.1818 86.4289 0.0000 0.0000 0.0000
# 4 0.0000 0.0000 0.0000 7.0037 0.0000 0.0000
# 5 0.0000 0.0000 0.0000 0.0000 18.9254 0.0000
# 6 0.0000 0.0000 0.0000 0.0000 0.0000 13.7447
#
#
#
# Elastic Compliance Matrix: (Units=1/GPa)
#
#
# Indices 1 2 3 4 5 6 
#
# 1 0.017860 0.000799 0.001446 0.000000 0.000000 0.000000
# 2 0.000799 0.022996 0.003035 0.000000 0.000000 0.000000
# 3 0.001446 0.003035 0.012072 0.000000 0.000000 0.000000
# 4 0.000000 0.000000 0.000000 0.142781 0.000000 0.000000
# 5 0.000000 0.000000 0.000000 0.000000 0.052839 0.000000
# 6 0.000000 0.000000 0.000000 0.000000 0.000000 0.072756
#
#
# Mechanical properties :
#
#
# Convention : Reuss Voigt Hill
#
# Bulk Modulus (GPa) = 15.75112 16.71374 16.23243
# Shear Modulus (GPa) = 15.06448 21.72006 18.39227
#
# Velocity S-wave (km/s) = 2.50575 3.00879 2.76872
# Velocity P-wave (km/s) = 3.86480 4.36310 4.12149
#
# Compressibility (1/GPa) = 0.06348754
#
# Stress axis : x y z
#
# Youngs Moduli (GPa) = 55.99022 43.48547 82.83951
#
# Poissons Ratio (x) = -0.03474 -0.11976
# Poissons Ratio (y) = -0.04473 -0.25143
# Poissons Ratio (z) = -0.08094 -0.13199
#
# Static dielectric constant tensor:
#      x y z
#    x 1.917990 0.000000 0.000000 
#    y 0.000000 1.942790 0.000000 
#    z 0.000000 0.000000 1.934500 
# 
# From -- ./inp_files/19862.got.cif
#   From: 2010.05.17/outbox.cif.g08.bks.cpg/sg59_10_cif.got.tgz:19862.got - 2010.06.03 14:40:33.
