data_PCOD9451474
_publ_section_title
;
Structure prediction by ZEFSAII (Michael W. Deem and Ramdas Pophale) SiO2 
 PCOD9451474
Probable space group: P M M N
;
_chemical_formula_sum "Si O2"
_cell_formula_units_Z 48
_cell_length_a 15.071348
_cell_length_b 8.419597
_cell_length_c 20.285450
_cell_angle_alpha 90.000000
_cell_angle_beta 90.000000
_cell_angle_gamma 90.000000
_cell_volume 2574.115614
_symmetry_space_group_name_H-M "P M M N"
_symmetry_group_IT_number 59
_space_group.IT_coordinate_system_code '2'
_symmetry_cell_setting 'orthorhombic'
loop_
_space_group_symop_operation_xyz
x,y,z
1/2-x,1/2-y,z
1/2+x,-y,-z
-x,1/2+y,-z
-x,-y,-z
1/2+x,1/2+y,-z
1/2-x,y,z
x,1/2-y,z
loop_
_atom_site_type_symbol
_atom_site_label
_atom_site_fract_x
_atom_site_fract_y
_atom_site_fract_z
Si Si1 0.511879 0.438400 0.827121
Si Si2 0.056068 0.942316 0.562783
Si Si3 0.355210 0.439924 0.064257
Si Si4 0.250000 0.556233 0.521421
Si Si5 0.250000 0.560342 0.368698
Si Si6 0.563635 0.560713 0.684302
Si Si7 0.648620 0.556174 0.084636
O O1 0.504877 0.250000 0.818018
O O2 0.588290 0.475293 0.880134
O O3 0.533815 0.513745 0.757147
O O4 0.420917 0.498015 0.860873
O O5 0.056210 0.750000 0.562248
O O6 0.158193 0.995509 0.555194
O O7 0.006188 0.996971 0.628883
O O8 0.000000 0.000000 0.500000
O O9 0.250000 0.466724 0.072682
O O10 0.370196 0.250000 0.068992
O O11 0.378285 0.492227 0.989628
O O12 0.250000 0.750000 0.521569
O O13 0.250000 0.504083 0.444912
O O14 0.250000 0.750000 0.369950
O O15 0.160873 0.504066 0.333082
O O16 0.567634 0.750000 0.679774
O O17 0.750000 0.505880 0.096534
O O18 0.648338 0.750000 0.084139
#
# Coordination Sequence:
#
# PCOD9451474 Si02
#       7
#     8   8   8   4   4   8   8
#     4  11  22  35  55  81 112 148 187 230 276 330
#     4  10  20  37  60  84 111 144 184 228 275 328
#     4   9  18  34  57  82 109 142 182 229 283 336
#     4   9  18  35  61  87 109 138 177 228 281 323
#     4  11  21  37  63  87 111 144 183 228 277 329
#     4  11  24  39  56  82 118 152 183 223 277 339
#     4   8  16  34  58  81 106 142 186 233 284 333
#
# _framework density 18.647181
#
# number of rings (size 3 to 8) (size 9 to 14) (size 15 to 20)
#    0.000    2.167    1.667    2.750    1.167    1.000 
#    1.500    1.250    0.000    3.500    0.000    0.000 
#    0.000    0.000    0.000    0.000    0.000    0.000 
#
# Total GULP energy -267969.606508 kJ/mol
# GULP energy per Si atom -5582.700136 kJ/mol
# Density = 1.860474 g / cm^3
# Si number density = 18.647181 Si / 1000 Ang^3
#
#
#
# Elastic Constant Matrix: (Units=GPa)
#
#
# Indices 1 2 3 4 5 6 
#
# 1 141.9156 20.7739 100.6072 0.0000 0.0000 0.0000
# 2 20.7739 17.5194 22.7674 0.0000 0.0000 0.0000
# 3 100.6072 22.7674 161.3104 0.0000 0.0000 0.0000
# 4 0.0000 0.0000 0.0000 16.2503 0.0000 0.0000
# 5 0.0000 0.0000 0.0000 0.0000 -11.1320 0.0000
# 6 0.0000 0.0000 0.0000 0.0000 0.0000 12.7222
#
#
#
# Elastic Compliance Matrix: (Units=1/GPa)
#
#
# Indices 1 2 3 4 5 6 
#
# 1 0.013132 -0.006035 -0.007339 0.000000 0.000000 0.000000
# 2 -0.006035 0.072674 -0.006493 0.000000 0.000000 0.000000
# 3 -0.007339 -0.006493 0.011693 0.000000 0.000000 0.000000
# 4 0.000000 0.000000 0.000000 0.061537 0.000000 0.000000
# 5 0.000000 0.000000 0.000000 0.000000 -0.089831 0.000000
# 6 0.000000 0.000000 0.000000 0.000000 0.000000 0.078603
#
#
# Mechanical properties :
#
#
# Convention : Reuss Voigt Hill
#
# Bulk Modulus (GPa) = 17.31143 67.67139 42.49141
# Shear Modulus (GPa) = 24.17822 15.34121 19.75972
#
# Velocity S-wave (km/s) = 3.60476 2.87140 3.25878
# Velocity P-wave (km/s) = 5.16038 6.88204 6.08243
#
# Compressibility (1/GPa) = 0.05776532
#
# Stress axis : x y z
#
# Youngs Moduli (GPa) = 76.14707 13.76005 85.52258
#
# Poissons Ratio (x) = 0.08304 0.62763
# Poissons Ratio (y) = 0.45954 0.55533
# Poissons Ratio (z) = 0.55883 0.08935
#
# Static dielectric constant tensor:
#      x y z
#    x 1.646030 0.000000 0.000000 
#    y 0.000000 1.638540 0.000000 
#    z 0.000000 0.000000 1.618430 
# 
# From -- ./inp_files/25567.got.cif
#   From: 2010.05.17/outbox.cif.g08.bks.cpg/sg59_13_cif.got.tgz:25567.got - 2010.06.03 14:40:33.
