data_PCOD9451315
_publ_section_title
;
Structure prediction by ZEFSAII (Michael W. Deem and Ramdas Pophale) SiO2 
 PCOD9451315
Probable space group: P M M N
;
_chemical_formula_sum "Si O2"
_cell_formula_units_Z 32
_cell_length_a 8.421046
_cell_length_b 15.027423
_cell_length_c 12.890977
_cell_angle_alpha 90.000000
_cell_angle_beta 90.000000
_cell_angle_gamma 90.000000
_cell_volume 1631.309572
_symmetry_space_group_name_H-M "P M M N"
_symmetry_group_IT_number 59
_space_group.IT_coordinate_system_code '2'
_symmetry_cell_setting 'orthorhombic'
loop_
_space_group_symop_operation_xyz
x,y,z
1/2-x,1/2-y,z
1/2+x,-y,-z
-x,1/2+y,-z
-x,-y,-z
1/2+x,1/2+y,-z
1/2-x,y,z
x,1/2-y,z
loop_
_atom_site_type_symbol
_atom_site_label
_atom_site_fract_x
_atom_site_fract_y
_atom_site_fract_z
Si Si1 0.440390 0.895670 0.227376
Si Si2 0.441454 0.898136 0.000462
Si Si3 0.057268 0.598316 0.773238
Si Si4 0.562656 0.750000 0.384063
Si Si5 0.558590 0.250000 0.382430
O O1 0.250000 0.890273 0.230826
O O2 0.508470 0.835367 0.318007
O O3 0.491770 0.998517 0.237368
O O4 0.494471 0.862148 0.112415
O O5 0.250000 0.895242 0.002259
O O6 0.490122 0.863492 0.887143
O O7 0.500000 0.000000 0.000000
O O8 0.250000 0.593382 0.771932
O O9 0.004354 0.663264 0.681680
O O10 0.750000 0.750000 0.392785
O O11 0.492119 0.750000 0.499042
O O12 0.750000 0.250000 0.378580
#
# Coordination Sequence:
#
# PCOD9451315 Si02
#       5
#     8   8   8   4   4
#     4  10  20  36  59  85 114 146 180 222 273 328
#     4   8  15  29  53  84 114 142 173 213 264 324
#     4   9  18  35  59  86 115 146 180 220 271 327
#     4  12  26  41  56  76 106 145 191 238 277 322
#     4  10  22  39  58  80 108 145 189 232 271 320
#
# _framework density 19.616143000000001
#
# number of rings (size 3 to 8) (size 9 to 14) (size 15 to 20)
#    0.000    2.500    0.000    1.875    0.000    4.000 
#    0.000    3.750    0.000    1.500    0.000    0.000 
#    0.000    0.000    0.000    0.000    0.000    0.000 
#
# Total GULP energy -178437.573533 kJ/mol
# GULP energy per Si atom -5576.174173 kJ/mol
# Density = 1.957150 g / cm^3
# Si number density = 19.616143 Si / 1000 Ang^3
#
#
#
# Elastic Constant Matrix: (Units=GPa)
#
#
# Indices 1 2 3 4 5 6 
#
# 1 18.6086 10.9152 19.2357 0.0000 0.0000 0.0000
# 2 10.9152 94.0508 73.6759 0.0000 0.0000 0.0000
# 3 19.2357 73.6759 205.9586 0.0000 0.0000 0.0000
# 4 0.0000 0.0000 0.0000 35.7787 0.0000 0.0000
# 5 0.0000 0.0000 0.0000 0.0000 20.5436 0.0000
# 6 0.0000 0.0000 0.0000 0.0000 0.0000 -24.3211
#
#
#
# Elastic Compliance Matrix: (Units=1/GPa)
#
#
# Indices 1 2 3 4 5 6 
#
# 1 0.060344 -0.003596 -0.004350 0.000000 0.000000 0.000000
# 2 -0.003596 0.014986 -0.005025 0.000000 0.000000 0.000000
# 3 -0.004350 -0.005025 0.007059 0.000000 0.000000 0.000000
# 4 0.000000 0.000000 0.000000 0.027950 0.000000 0.000000
# 5 0.000000 0.000000 0.000000 0.000000 0.048677 0.000000
# 6 0.000000 0.000000 0.000000 0.000000 0.000000 -0.041117
#
#
# Mechanical properties :
#
#
# Convention : Reuss Voigt Hill
#
# Bulk Modulus (GPa) = 17.71532 58.47462 38.09497
# Shear Modulus (GPa) = 30.73950 20.71965 25.72958
#
# Velocity S-wave (km/s) = 3.96289 3.25353 3.62560
# Velocity P-wave (km/s) = 5.47631 6.63235 6.08186
#
# Compressibility (1/GPa) = 0.05644832
#
# Stress axis : x y z
#
# Youngs Moduli (GPa) = 16.57162 66.72731 141.65998
#
# Poissons Ratio (x) = 0.23996 0.61615
# Poissons Ratio (y) = 0.05959 0.71185
# Poissons Ratio (z) = 0.07208 0.33531
#
# Static dielectric constant tensor:
#      x y z
#    x 1.663390 0.000000 0.000000 
#    y 0.000000 1.668490 0.000000 
#    z 0.000000 0.000000 1.719450 
# 
# From -- ./inp_files/13619.got.cif
#   From: 2010.05.17/outbox.cif.g08.bks.cpg/sg59_7_cif.got.tgz:13619.got - 2010.06.03 14:40:33.
