data_PCOD9451126
_publ_section_title
;
Structure prediction by ZEFSAII (Michael W. Deem and Ramdas Pophale) SiO2 
 PCOD9451126
Probable space group: P M M N
;
_chemical_formula_sum "Si O2"
_cell_formula_units_Z 48
_cell_length_a 18.671716
_cell_length_b 14.252432
_cell_length_c 9.187477
_cell_angle_alpha 90.000000
_cell_angle_beta 90.000000
_cell_angle_gamma 90.000000
_cell_volume 2444.947148
_symmetry_space_group_name_H-M "P M M N"
_symmetry_group_IT_number 59
_space_group.IT_coordinate_system_code '2'
_symmetry_cell_setting 'orthorhombic'
loop_
_space_group_symop_operation_xyz
x,y,z
1/2-x,1/2-y,z
1/2+x,-y,-z
-x,1/2+y,-z
-x,-y,-z
1/2+x,1/2+y,-z
1/2-x,y,z
x,1/2-y,z
loop_
_atom_site_type_symbol
_atom_site_label
_atom_site_fract_x
_atom_site_fract_y
_atom_site_fract_z
Si Si1 0.330349 0.360954 0.890371
Si Si2 0.543540 0.138843 0.769901
Si Si3 0.449313 0.643600 0.882885
Si Si4 0.335555 0.971371 0.380020
Si Si5 0.110346 0.358322 0.194205
Si Si6 0.092780 0.482423 0.682899
O O1 0.250000 0.385049 0.929559
O O2 0.338179 0.250000 0.877933
O O3 0.352044 0.405308 0.739776
O O4 0.376899 0.390144 0.028126
O O5 0.530444 0.250000 0.741763
O O6 0.621466 0.106239 0.714303
O O7 0.483873 0.071597 0.694158
O O8 0.539319 0.125145 0.945114
O O9 0.421052 0.750000 0.871522
O O10 0.524668 0.640656 0.795329
O O11 0.404424 0.564634 0.802922
O O12 0.250000 0.955376 0.395558
O O13 0.350044 0.070621 0.299568
O O14 0.379356 0.978605 0.530982
O O15 0.134778 0.250000 0.209890
#
# Coordination Sequence:
#
# PCOD9451126 Si02
#       6
#     8   8   8   8   8   8
#     4  10  20  35  59  90 124 161 200 250 310 365
#     4  11  23  42  68  94 120 160 211 262 310 365
#     4  10  21  39  67  97 120 150 207 267 311 358
#     4  12  27  42  58  90 131 172 207 245 308 378
#     4  10  20  38  62  91 124 159 203 255 309 369
#     4  12  22  40  63  93 124 162 206 256 306 369
#
# _framework density 19.632325999999999
#
# number of rings (size 3 to 8) (size 9 to 14) (size 15 to 20)
#    0.000    1.167    3.333    3.500    0.000    3.333 
#    0.000    0.833    0.000    3.500    0.000    0.000 
#    0.000    0.000    0.000    0.000    0.000    0.000 
#
# Total GULP energy -267834.270846 kJ/mol
# GULP energy per Si atom -5579.880643 kJ/mol
# Density = 1.958764 g / cm^3
# Si number density = 19.632326 Si / 1000 Ang^3
#
#
#
# Elastic Constant Matrix: (Units=GPa)
#
#
# Indices 1 2 3 4 5 6 
#
# 1 53.7815 51.0446 41.5192 0.0000 0.0000 0.0000
# 2 51.0446 82.1888 39.3419 0.0000 0.0000 0.0000
# 3 41.5192 39.3419 69.5936 0.0000 0.0000 0.0000
# 4 0.0000 0.0000 0.0000 7.5805 0.0000 0.0000
# 5 0.0000 0.0000 0.0000 0.0000 3.7179 0.0000
# 6 0.0000 0.0000 0.0000 0.0000 0.0000 22.9748
#
#
#
# Elastic Compliance Matrix: (Units=1/GPa)
#
#
# Indices 1 2 3 4 5 6 
#
# 1 0.061241 -0.028168 -0.020613 0.000000 0.000000 0.000000
# 2 -0.028168 0.029637 0.000051 0.000000 0.000000 0.000000
# 3 -0.020613 0.000051 0.026638 0.000000 0.000000 0.000000
# 4 0.000000 0.000000 0.000000 0.131918 0.000000 0.000000
# 5 0.000000 0.000000 0.000000 0.000000 0.268966 0.000000
# 6 0.000000 0.000000 0.000000 0.000000 0.000000 0.043526
#
#
# Mechanical properties :
#
#
# Convention : Reuss Voigt Hill
#
# Bulk Modulus (GPa) = 49.85927 52.15280 51.00604
# Shear Modulus (GPa) = 7.50671 11.76519 9.63595
#
# Velocity S-wave (km/s) = 1.95754 2.45067 2.21785
# Velocity P-wave (km/s) = 5.52819 5.88474 5.70925
#
# Compressibility (1/GPa) = 0.02005645
#
# Stress axis : x y z
#
# Youngs Moduli (GPa) = 16.32889 33.74174 37.54066
#
# Poissons Ratio (x) = 0.95044 0.77381
# Poissons Ratio (y) = 0.45995 -0.00191
# Poissons Ratio (z) = 0.33658 -0.00172
#
# Static dielectric constant tensor:
#      x y z
#    x 1.715860 0.000000 0.000000 
#    y 0.000000 1.707780 0.000000 
#    z 0.000000 0.000000 1.678000 
# 
# From -- ./inp_files/9016.got.cif
#   From: 2010.05.17/outbox.cif.g08.bks.cpg/sg59_5_cif.got.tgz:9016.got - 2010.06.03 14:40:33.
