data_PCOD9451054
_publ_section_title
;
Structure prediction by ZEFSAII (Michael W. Deem and Ramdas Pophale) SiO2 
 PCOD9451054
Probable space group: P M M N
;
_chemical_formula_sum "Si O2"
_cell_formula_units_Z 56
_cell_length_a 13.767004
_cell_length_b 16.650957
_cell_length_c 10.446445
_cell_angle_alpha 90.000000
_cell_angle_beta 90.000000
_cell_angle_gamma 90.000000
_cell_volume 2394.678196
_symmetry_space_group_name_H-M "P M M N"
_symmetry_group_IT_number 59
_space_group.IT_coordinate_system_code '2'
_symmetry_cell_setting 'orthorhombic'
loop_
_space_group_symop_operation_xyz
x,y,z
1/2-x,1/2-y,z
1/2+x,-y,-z
-x,1/2+y,-z
-x,-y,-z
1/2+x,1/2+y,-z
1/2-x,y,z
x,1/2-y,z
loop_
_atom_site_type_symbol
_atom_site_label
_atom_site_fract_x
_atom_site_fract_y
_atom_site_fract_z
Si Si1 0.140008 0.347178 0.023077
Si Si2 0.355079 0.130900 0.575583
Si Si3 0.927351 0.339668 0.609880
Si Si4 0.549738 0.153274 0.880693
Si Si5 0.863735 0.339765 0.148456
Si Si6 0.140223 0.425792 0.303698
Si Si7 0.572999 0.455267 0.369550
O O1 0.250000 0.365805 0.981654
O O2 0.132227 0.250000 0.036555
O O3 0.125249 0.387125 0.163316
O O4 0.058440 0.374650 0.921517
O O5 0.250000 0.158373 0.623540
O O6 0.455121 0.166980 0.623976
O O7 0.355995 0.138501 0.420839
O O8 0.368139 0.036431 0.608536
O O9 0.887273 0.250000 0.588835
O O10 0.900251 0.373178 0.749468
O O11 0.909443 0.395451 0.488573
O O12 0.545416 0.250000 0.868919
O O13 0.612986 0.134881 0.004500
O O14 0.750000 0.332941 0.165195
O O15 0.907526 0.250000 0.169656
O O16 0.899652 0.405562 0.245564
O O17 0.250000 0.462295 0.305408
O O18 0.042136 0.471919 0.347520
#
# Coordination Sequence:
#
# PCOD9451054 Si02
#       7
#     8   8   8   8   8   8   8
#     4   9  16  27  48  78 110 146 187 231 283 344
#     4  10  22  38  57  83 121 162 197 237 294 353
#     4  10  21  36  59  89 119 152 193 241 300 356
#     4   9  18  34  53  81 119 152 183 236 300 349
#     4  10  20  35  58  84 110 150 202 248 292 345
#     4   9  17  29  49  77 106 140 184 232 282 336
#     4  11  20  37  60  82 116 156 197 244 291 346
#
# _framework density 23.385189
#
# number of rings (size 3 to 8) (size 9 to 14) (size 15 to 20)
#    0.000    2.286    1.429    2.571    0.000    3.143 
#    0.000    6.429    0.000    4.286    0.000    0.000 
#    0.000    0.000    0.000    0.000    0.000    0.000 
#
# Total GULP energy -312568.732216 kJ/mol
# GULP energy per Si atom -5581.584504 kJ/mol
# Density = 2.333196 g / cm^3
# Si number density = 23.385189 Si / 1000 Ang^3
#
#
#
# Elastic Constant Matrix: (Units=GPa)
#
#
# Indices 1 2 3 4 5 6 
#
# 1 51.1788 -4.1136 -15.7333 0.0000 0.0000 0.0000
# 2 -4.1136 78.9973 48.6600 0.0000 0.0000 0.0000
# 3 -15.7333 48.6600 107.8283 0.0000 0.0000 0.0000
# 4 0.0000 0.0000 0.0000 17.6569 0.0000 0.0000
# 5 0.0000 0.0000 0.0000 0.0000 -6.8686 0.0000
# 6 0.0000 0.0000 0.0000 0.0000 0.0000 18.6607
#
#
#
# Elastic Compliance Matrix: (Units=1/GPa)
#
#
# Indices 1 2 3 4 5 6 
#
# 1 0.020523 -0.001075 0.003479 0.000000 0.000000 0.000000
# 2 -0.001075 0.017588 -0.008094 0.000000 0.000000 0.000000
# 3 0.003479 -0.008094 0.013434 0.000000 0.000000 0.000000
# 4 0.000000 0.000000 0.000000 0.056635 0.000000 0.000000
# 5 0.000000 0.000000 0.000000 0.000000 -0.145591 0.000000
# 6 0.000000 0.000000 0.000000 0.000000 0.000000 0.053589
#
#
# Mechanical properties :
#
#
# Convention : Reuss Voigt Hill
#
# Bulk Modulus (GPa) = 24.89604 32.84784 28.87194
# Shear Modulus (GPa) = 122.11403 19.83588 70.97496
#
# Velocity S-wave (km/s) = 7.23408 2.91559 5.51510
# Velocity P-wave (km/s) = 8.96912 5.04095 7.27517
#
# Compressibility (1/GPa) = 0.04016703
#
# Stress axis : x y z
#
# Youngs Moduli (GPa) = 48.72673 56.85588 74.43660
#
# Poissons Ratio (x) = 0.06109 -0.25899
# Poissons Ratio (y) = 0.05236 0.60248
# Poissons Ratio (z) = -0.16954 0.46019
#
# Static dielectric constant tensor:
#      x y z
#    x 1.904490 0.000000 0.000000 
#    y 0.000000 1.929860 0.000000 
#    z 0.000000 0.000000 1.883000 
# 
# From -- ./inp_files/9371.got.cif
#   From: 2010.05.17/outbox.cif.g08.bks.cpg/sg59_5_cif.got.tgz:9371.got - 2010.06.03 14:40:33.
