data_PCOD9451048
_publ_section_title
;
Structure prediction by ZEFSAII (Michael W. Deem and Ramdas Pophale) SiO2 
 PCOD9451048
Probable space group: P M M N
;
_chemical_formula_sum "Si O2"
_cell_formula_units_Z 64
_cell_length_a 7.795128
_cell_length_b 29.529618
_cell_length_c 12.800247
_cell_angle_alpha 90.000000
_cell_angle_beta 90.000000
_cell_angle_gamma 90.000000
_cell_volume 2946.452403
_symmetry_space_group_name_H-M "P M M N"
_symmetry_group_IT_number 59
_space_group.IT_coordinate_system_code '2'
_symmetry_cell_setting 'orthorhombic'
loop_
_space_group_symop_operation_xyz
x,y,z
1/2-x,1/2-y,z
1/2+x,-y,-z
-x,1/2+y,-z
-x,-y,-z
1/2+x,1/2+y,-z
1/2-x,y,z
x,1/2-y,z
loop_
_atom_site_type_symbol
_atom_site_label
_atom_site_fract_x
_atom_site_fract_y
_atom_site_fract_z
Si Si1 0.450734 0.798693 0.781097
Si Si2 0.457806 0.490214 0.832729
Si Si3 0.039524 0.872846 0.623735
Si Si4 0.543407 0.023277 0.390172
Si Si5 0.050735 0.572717 0.983409
Si Si6 0.054845 0.171639 0.999103
Si Si7 0.549074 0.198760 0.546000
Si Si8 0.447605 0.304288 0.776875
O O1 0.250000 0.797134 0.753914
O O2 0.526373 0.750000 0.747736
O O3 0.517357 0.843800 0.724653
O O4 0.467256 0.803645 0.904867
O O5 0.250000 0.486252 0.835531
O O6 0.515217 0.495938 0.713228
O O7 0.530698 0.449577 0.902262
O O8 0.503350 0.535502 0.898096
O O9 0.250000 0.875551 0.623705
O O10 0.980241 0.924649 0.616714
O O11 0.981469 0.840745 0.528220
O O12 0.750000 0.024663 0.382930
O O13 0.500000 0.000000 0.500000
O O14 0.250000 0.583477 0.963339
O O15 0.947862 0.618639 0.976904
O O16 0.250000 0.188897 0.993192
O O17 0.974979 0.177760 0.884523
O O18 0.750000 0.202493 0.520628
O O19 0.475235 0.250000 0.533684
O O20 0.532625 0.184930 0.666789
O O21 0.250000 0.320123 0.770049
O O22 0.448800 0.250000 0.785418
#
# Coordination Sequence:
#
# PCOD9451048 Si02
#       8
#     8   8   8   8   8   8   8   8
#     4  10  20  35  58  85 111 142 182 225 269 325
#     4   9  19  37  57  78 107 140 174 218 274 328
#     4   9  18  35  57  80 108 141 175 218 276 330
#     4  10  21  37  56  77 107 145 183 225 274 330
#     4  10  20  35  58  83 105 135 178 224 267 318
#     4  11  22  35  52  77 112 147 178 216 266 321
#     4   9  17  31  54  81 105 132 173 223 270 321
#     4   9  19  35  51  68  98 140 176 208 254 309
#
# _framework density 21.721035000000001
#
# number of rings (size 3 to 8) (size 9 to 14) (size 15 to 20)
#    0.000    2.375    0.000    2.250    0.000    7.250 
#    0.000    6.875    0.000    1.500    0.000    0.000 
#    0.000    0.000    0.000    0.000    0.000    0.000 
#
# Total GULP energy -357209.196189 kJ/mol
# GULP energy per Si atom -5581.393690 kJ/mol
# Density = 2.167160 g / cm^3
# Si number density = 21.721035 Si / 1000 Ang^3
#
#
#
# Elastic Constant Matrix: (Units=GPa)
#
#
# Indices 1 2 3 4 5 6 
#
# 1 26.5108 4.1199 0.6107 0.0000 0.0000 0.0000
# 2 4.1199 77.4196 33.0333 0.0000 0.0000 0.0000
# 3 0.6107 33.0333 132.7654 0.0000 0.0000 0.0000
# 4 0.0000 0.0000 0.0000 166.9478 0.0000 0.0000
# 5 0.0000 0.0000 0.0000 0.0000 39.4806 0.0000
# 6 0.0000 0.0000 0.0000 0.0000 0.0000 1.7325
#
#
#
# Elastic Compliance Matrix: (Units=1/GPa)
#
#
# Indices 1 2 3 4 5 6 
#
# 1 0.038051 -0.002182 0.000368 0.000000 0.000000 0.000000
# 2 -0.002182 0.014576 -0.003617 0.000000 0.000000 0.000000
# 3 0.000368 -0.003617 0.008430 0.000000 0.000000 0.000000
# 4 0.000000 0.000000 0.000000 0.005990 0.000000 0.000000
# 5 0.000000 0.000000 0.000000 0.000000 0.025329 0.000000
# 6 0.000000 0.000000 0.000000 0.000000 0.000000 0.577204
#
#
# Mechanical properties :
#
#
# Convention : Reuss Voigt Hill
#
# Bulk Modulus (GPa) = 19.92190 34.69151 27.30671
# Shear Modulus (GPa) = 7.17182 54.89430 31.03306
#
# Velocity S-wave (km/s) = 1.81905 5.03262 3.78393
# Velocity P-wave (km/s) = 3.68830 7.05519 5.62936
#
# Compressibility (1/GPa) = 0.05019601
#
# Stress axis : x y z
#
# Youngs Moduli (GPa) = 26.28044 68.60660 118.62065
#
# Poissons Ratio (x) = 0.14969 -0.04363
# Poissons Ratio (y) = 0.05734 0.42900
# Poissons Ratio (z) = -0.00967 0.24812
#
# Static dielectric constant tensor:
#      x y z
#    x 1.824980 0.000000 0.000000 
#    y 0.000000 1.841160 0.000000 
#    z 0.000000 0.000000 1.797340 
# 
# From -- ./inp_files/15049.got.cif
#   From: 2010.05.17/outbox.cif.g08.bks.cpg/sg59_8_cif.got.tgz:15049.got - 2010.06.03 14:40:33.
