data_PCOD9451179
_publ_section_title
;
Structure prediction by ZEFSAII (Michael W. Deem and Ramdas Pophale) SiO2 
 PCOD9451179
Probable space group: P M M N
;
_chemical_formula_sum "Si O2"
_cell_formula_units_Z 48
_cell_length_a 8.317977
_cell_length_b 9.705802
_cell_length_c 29.512035
_cell_angle_alpha 90.000000
_cell_angle_beta 90.000000
_cell_angle_gamma 90.000000
_cell_volume 2382.584432
_symmetry_space_group_name_H-M "P M M N"
_symmetry_group_IT_number 59
_space_group.IT_coordinate_system_code '2'
_symmetry_cell_setting 'orthorhombic'
loop_
_space_group_symop_operation_xyz
x,y,z
1/2-x,1/2-y,z
1/2+x,-y,-z
-x,1/2+y,-z
-x,-y,-z
1/2+x,1/2+y,-z
1/2-x,y,z
x,1/2-y,z
loop_
_atom_site_type_symbol
_atom_site_label
_atom_site_fract_x
_atom_site_fract_y
_atom_site_fract_z
Si Si1 0.556686 0.099763 0.207066
Si Si2 0.557087 0.589523 0.628953
Si Si3 0.942927 0.911184 0.456946
Si Si4 0.444841 0.091900 0.713500
Si Si5 0.055715 0.036146 0.106962
Si Si6 0.443480 0.750000 0.071340
Si Si7 0.556486 0.750000 0.968601
O O1 0.750000 0.098017 0.208417
O O2 0.502057 0.250000 0.224518
O O3 0.505308 0.087084 0.155073
O O4 0.499708 0.976195 0.239137
O O5 0.750000 0.592463 0.628275
O O6 0.500858 0.750000 0.626738
O O7 0.498769 0.496340 0.586992
O O8 0.499493 0.510266 0.673838
O O9 0.750000 0.906847 0.457219
O O10 0.999074 0.750000 0.457421
O O11 0.000000 0.000000 0.500000
O O12 0.250000 0.094781 0.713216
O O13 0.500415 0.250000 0.707634
O O14 0.250000 0.042184 0.108491
O O15 0.006240 0.122524 0.062849
O O16 0.997320 0.883473 0.097252
O O17 0.250000 0.750000 0.073462
O O18 0.488074 0.750000 0.018674
O O19 0.750000 0.750000 0.972398
#
# Coordination Sequence:
#
# PCOD9451179 Si02
#       7
#     8   8   8   8   8   4   4
#     4  10  21  37  58  84 112 146 189 233 282 342
#     4  11  24  41  62  91 125 162 207 253 300 359
#     4  11  24  41  63  93 128 167 212 260 309 361
#     4  10  22  40  62  89 120 153 194 245 298 355
#     4  10  21  37  55  79 111 144 181 226 278 336
#     4  10  22  36  54  80 110 142 180 226 277 334
#     4  10  20  36  56  78 106 144 184 226 273 330
#
# _framework density 20.146191000000002
#
# number of rings (size 3 to 8) (size 9 to 14) (size 15 to 20)
#    0.000    1.667    0.833    3.000    1.167    9.667 
#    0.000    0.000    0.000    0.000    0.000    0.000 
#    0.000    0.000    0.000    0.000    0.000    0.000 
#
# Total GULP energy -268048.114975 kJ/mol
# GULP energy per Si atom -5584.335729 kJ/mol
# Density = 2.010034 g / cm^3
# Si number density = 20.146191 Si / 1000 Ang^3
#
#
#
# Elastic Constant Matrix: (Units=GPa)
#
#
# Indices 1 2 3 4 5 6 
#
# 1 15.8301 23.9862 4.9278 0.0000 0.0000 0.0000
# 2 23.9862 195.7082 59.0112 0.0000 0.0000 0.0000
# 3 4.9278 59.0112 108.8231 0.0000 0.0000 0.0000
# 4 0.0000 0.0000 0.0000 38.4443 0.0000 0.0000
# 5 0.0000 0.0000 0.0000 0.0000 33.1907 0.0000
# 6 0.0000 0.0000 0.0000 0.0000 0.0000 -21.9517
#
#
#
# Elastic Compliance Matrix: (Units=1/GPa)
#
#
# Indices 1 2 3 4 5 6 
#
# 1 0.077930 -0.010146 0.001973 0.000000 0.000000 0.000000
# 2 -0.010146 0.007429 -0.003569 0.000000 0.000000 0.000000
# 3 0.001973 -0.003569 0.011035 0.000000 0.000000 0.000000
# 4 0.000000 0.000000 0.000000 0.026012 0.000000 0.000000
# 5 0.000000 0.000000 0.000000 0.000000 0.030129 0.000000
# 6 0.000000 0.000000 0.000000 0.000000 0.000000 -0.045555
#
#
# Mechanical properties :
#
#
# Convention : Reuss Voigt Hill
#
# Bulk Modulus (GPa) = 13.71551 55.13465 34.42508
# Shear Modulus (GPa) = 32.30620 25.43241 28.86930
#
# Velocity S-wave (km/s) = 4.00883 3.55687 3.78959
# Velocity P-wave (km/s) = 5.31511 6.65546 6.02269
#
# Compressibility (1/GPa) = 0.07291017
#
# Stress axis : x y z
#
# Youngs Moduli (GPa) = 12.83201 134.60045 90.61758
#
# Poissons Ratio (x) = 1.36567 -0.17879
# Poissons Ratio (y) = 0.13019 0.32344
# Poissons Ratio (z) = -0.02532 0.48043
#
# Static dielectric constant tensor:
#      x y z
#    x 1.700170 0.000000 0.000000 
#    y 0.000000 1.922880 0.000000 
#    z 0.000000 0.000000 1.665350 
# 
# From -- ./inp_files/32959.got.cif
#   From: 2010.05.17/outbox.cif.g08.bks.cpg/sg59_17_cif.got.tgz:32959.got - 2010.06.03 14:40:33.
