data_PCOD9451907
_publ_section_title
;
Structure prediction by ZEFSAII (Michael W. Deem and Ramdas Pophale) SiO2 
 PCOD9451907
Probable space group: P M M N
;
_chemical_formula_sum "Si O2"
_cell_formula_units_Z 48
_cell_length_a 9.287790
_cell_length_b 8.585792
_cell_length_c 31.858596
_cell_angle_alpha 90.000000
_cell_angle_beta 90.000000
_cell_angle_gamma 90.000000
_cell_volume 2540.501075
_symmetry_space_group_name_H-M "P M M N"
_symmetry_group_IT_number 59
_space_group.IT_coordinate_system_code '2'
_symmetry_cell_setting 'orthorhombic'
loop_
_space_group_symop_operation_xyz
x,y,z
1/2-x,1/2-y,z
1/2+x,-y,-z
-x,1/2+y,-z
-x,-y,-z
1/2+x,1/2+y,-z
1/2-x,y,z
x,1/2-y,z
loop_
_atom_site_type_symbol
_atom_site_label
_atom_site_fract_x
_atom_site_fract_y
_atom_site_fract_z
Si Si1 0.416988 0.562256 0.376584
Si Si2 0.917484 0.436995 0.040675
Si Si3 0.415864 0.438418 0.540290
Si Si4 0.417162 0.938659 0.797012
Si Si5 0.582611 0.063137 0.878050
Si Si6 0.582963 0.562336 0.713429
O O1 0.250000 0.513719 0.381953
O O2 0.420591 0.750000 0.375385
O O3 0.509055 0.509619 0.416446
O O4 0.467527 0.500043 0.331578
O O5 0.750000 0.486585 0.040339
O O6 0.920879 0.250000 0.040126
O O7 0.996757 0.496616 0.082266
O O8 0.000000 0.500000 0.000000
O O9 0.500000 0.500000 0.500000
O O10 0.250000 0.488130 0.538899
O O11 0.420229 0.250000 0.539659
O O12 0.250000 0.984879 0.799757
O O13 0.423434 0.750000 0.798908
O O14 0.487573 0.988159 0.752855
O O15 0.507496 0.005264 0.835600
O O16 0.750000 0.013750 0.879314
O O17 0.578224 0.250000 0.879671
O O18 0.750000 0.512911 0.719257
O O19 0.580822 0.750000 0.712112
#
# Coordination Sequence:
#
# PCOD9451907 Si02
#       6
#     8   8   8   8   8   8
#     4   9  18  33  52  74 103 138 175 217 265 317
#     4  11  24  41  62  89 119 151 189 231 276 328
#     4  10  21  36  54  77 105 138 177 220 267 321
#     4  10  21  37  57  82 112 146 185 228 274 325
#     4  11  24  40  59  85 115 148 189 233 277 329
#     4   9  18  33  53  77 106 141 180 221 266 318
#
# _framework density 18.893910999999999
#
# number of rings (size 3 to 8) (size 9 to 14) (size 15 to 20)
#    0.000    2.000    0.000    3.000    0.000   10.667 
#    0.000    3.333    0.000    0.000    0.000    0.000 
#    0.000    0.000    0.000    0.000    0.000    0.000 
#
# Total GULP energy -268171.370666 kJ/mol
# GULP energy per Si atom -5586.903556 kJ/mol
# Density = 1.885091 g / cm^3
# Si number density = 18.893911 Si / 1000 Ang^3
#
#
#
# Elastic Constant Matrix: (Units=GPa)
#
#
# Indices 1 2 3 4 5 6 
#
# 1 175.1901 38.6903 131.3138 0.0000 0.0000 0.0000
# 2 38.6903 16.0932 35.9222 0.0000 0.0000 0.0000
# 3 131.3138 35.9222 221.1649 0.0000 0.0000 0.0000
# 4 0.0000 0.0000 0.0000 38.8174 0.0000 0.0000
# 5 0.0000 0.0000 0.0000 0.0000 43.1154 0.0000
# 6 0.0000 0.0000 0.0000 0.0000 0.0000 25.0776
#
#
#
# Elastic Compliance Matrix: (Units=1/GPa)
#
#
# Indices 1 2 3 4 5 6 
#
# 1 0.014740 -0.024947 -0.004700 0.000000 0.000000 0.000000
# 2 -0.024947 0.139700 -0.007878 0.000000 0.000000 0.000000
# 3 -0.004700 -0.007878 0.008592 0.000000 0.000000 0.000000
# 4 0.000000 0.000000 0.000000 0.025762 0.000000 0.000000
# 5 0.000000 0.000000 0.000000 0.000000 0.023194 0.000000
# 6 0.000000 0.000000 0.000000 0.000000 0.000000 0.039876
#
#
# Mechanical properties :
#
#
# Convention : Reuss Voigt Hill
#
# Bulk Modulus (GPa) = 11.36608 91.58896 51.47752
# Shear Modulus (GPa) = 14.03542 35.17022 24.60282
#
# Velocity S-wave (km/s) = 2.72849 4.31914 3.61245
# Velocity P-wave (km/s) = 3.99437 8.57053 6.68614
#
# Compressibility (1/GPa) = 0.08798109
#
# Stress axis : x y z
#
# Youngs Moduli (GPa) = 67.84038 7.15820 116.39153
#
# Poissons Ratio (x) = 0.17858 0.54704
# Poissons Ratio (y) = 1.69243 0.91697
# Poissons Ratio (z) = 0.31885 0.05639
#
# Static dielectric constant tensor:
#      x y z
#    x 1.645170 0.000000 0.000000 
#    y 0.000000 1.648030 0.000000 
#    z 0.000000 0.000000 1.615300 
# 
# From -- ./inp_files/32891.got.cif
#   From: 2010.05.17/outbox.cif.g08.bks.cpg/sg59_17_cif.got.tgz:32891.got - 2010.06.03 14:40:33.
