data_PCOD9451269
_publ_section_title
;
Structure prediction by ZEFSAII (Michael W. Deem and Ramdas Pophale) SiO2 
 PCOD9451269
Probable space group: P M M N
;
_chemical_formula_sum "Si O2"
_cell_formula_units_Z 64
_cell_length_a 23.674771
_cell_length_b 8.769504
_cell_length_c 15.824623
_cell_angle_alpha 90.000000
_cell_angle_beta 90.000000
_cell_angle_gamma 90.000000
_cell_volume 3285.444913
_symmetry_space_group_name_H-M "P M M N"
_symmetry_group_IT_number 59
_space_group.IT_coordinate_system_code '2'
_symmetry_cell_setting 'orthorhombic'
loop_
_space_group_symop_operation_xyz
x,y,z
1/2-x,1/2-y,z
1/2+x,-y,-z
-x,1/2+y,-z
-x,-y,-z
1/2+x,1/2+y,-z
1/2-x,y,z
x,1/2-y,z
loop_
_atom_site_type_symbol
_atom_site_label
_atom_site_fract_x
_atom_site_fract_y
_atom_site_fract_z
Si Si1 0.486751 0.068739 0.591936
Si Si2 0.991144 0.934459 0.767998
Si Si3 0.881819 0.434363 0.183545
Si Si4 0.316474 0.420579 0.472715
Si Si5 0.684419 0.065510 0.017873
Si Si6 0.181599 0.575559 0.302426
Si Si7 0.876833 0.569449 0.855578
Si Si8 0.635307 0.432213 0.368224
O O1 0.493064 0.250000 0.589178
O O2 0.500000 0.000000 0.500000
O O3 0.518975 0.002881 0.674472
O O4 0.422959 0.016671 0.611219
O O5 0.991937 0.750000 0.759422
O O6 0.940899 0.976563 0.831654
O O7 0.052830 0.983125 0.803230
O O8 0.883740 0.250000 0.177243
O O9 0.849000 0.490102 0.101245
O O10 0.850021 0.470167 0.271421
O O11 0.250000 0.405774 0.457214
O O12 0.341217 0.250000 0.477891
O O13 0.339386 0.513109 0.392667
O O14 0.323609 0.510361 0.559510
O O15 0.750000 0.014850 0.016326
O O16 0.685114 0.250000 0.019390
O O17 0.650808 0.012601 0.935327
O O18 0.250000 0.574747 0.301621
O O19 0.163156 0.750000 0.289937
O O20 0.159216 0.471987 0.227226
O O21 0.876047 0.750000 0.870215
O O22 0.627313 0.250000 0.373623
#
# Coordination Sequence:
#
# PCOD9451269 Si02
#       8
#     8   8   8   8   8   8   8   8
#     4  11  22  36  56  82 115 153 194 239 287 342
#     4   9  20  39  58  81 114 153 196 238 290 350
#     4   8  17  37  61  82 111 149 191 240 290 344
#     4  10  21  36  54  80 115 153 193 238 291 348
#     4  10  21  38  61  88 115 147 191 240 292 352
#     4  10  21  37  56  78 108 148 193 240 289 348
#     4  11  23  37  57  84 116 150 188 239 295 352
#     4  10  20  36  58  83 113 150 192 240 290 344
#
# _framework density 19.479856000000002
#
# number of rings (size 3 to 8) (size 9 to 14) (size 15 to 20)
#    0.000    2.125    0.000    3.750    1.750    5.250 
#    0.000    4.375    0.000    0.000    0.000    0.000 
#    0.000    0.000    0.000    0.000    0.000    0.000 
#
# Total GULP energy -357115.164548 kJ/mol
# GULP energy per Si atom -5579.924446 kJ/mol
# Density = 1.943552 g / cm^3
# Si number density = 19.479856 Si / 1000 Ang^3
#
#
#
# Elastic Constant Matrix: (Units=GPa)
#
#
# Indices 1 2 3 4 5 6 
#
# 1 52.1839 18.3071 51.4795 0.0000 0.0000 0.0000
# 2 18.3071 39.1331 24.8697 0.0000 0.0000 0.0000
# 3 51.4795 24.8697 149.9822 0.0000 0.0000 0.0000
# 4 0.0000 0.0000 0.0000 22.9303 0.0000 0.0000
# 5 0.0000 0.0000 0.0000 0.0000 26.3818 0.0000
# 6 0.0000 0.0000 0.0000 0.0000 0.0000 23.3653
#
#
#
# Elastic Compliance Matrix: (Units=1/GPa)
#
#
# Indices 1 2 3 4 5 6 
#
# 1 0.031459 -0.008780 -0.009342 0.000000 0.000000 0.000000
# 2 -0.008780 0.031014 -0.002129 0.000000 0.000000 0.000000
# 3 -0.009342 -0.002129 0.010227 0.000000 0.000000 0.000000
# 4 0.000000 0.000000 0.000000 0.043610 0.000000 0.000000
# 5 0.000000 0.000000 0.000000 0.000000 0.037905 0.000000
# 6 0.000000 0.000000 0.000000 0.000000 0.000000 0.042798
#
#
# Mechanical properties :
#
#
# Convention : Reuss Voigt Hill
#
# Bulk Modulus (GPa) = 31.05773 47.84575 39.45174
# Shear Modulus (GPa) = 20.14101 24.31167 22.22634
#
# Velocity S-wave (km/s) = 3.21898 3.53660 3.38152
# Velocity P-wave (km/s) = 5.45838 6.42586 5.96178
#
# Compressibility (1/GPa) = 0.03219810
#
# Stress axis : x y z
#
# Youngs Moduli (GPa) = 31.78715 32.24318 97.77986
#
# Poissons Ratio (x) = 0.28310 0.91347
# Poissons Ratio (y) = 0.27909 0.20818
# Poissons Ratio (z) = 0.29696 0.06865
#
# Static dielectric constant tensor:
#      x y z
#    x 1.721010 0.000000 0.000000 
#    y 0.000000 1.681120 0.000000 
#    z 0.000000 0.000000 1.676290 
# 
# From -- ./inp_files/24784.got.cif
#   From: 2010.05.17/outbox.cif.g08.bks.cpg/sg59_13_cif.got.tgz:24784.got - 2010.06.03 14:40:33.
