data_PCOD9451818
_publ_section_title
;
Structure prediction by ZEFSAII (Michael W. Deem and Ramdas Pophale) SiO2 
 PCOD9451818
Probable space group: P M M N
;
_chemical_formula_sum "Si O2"
_cell_formula_units_Z 40
_cell_length_a 21.693526
_cell_length_b 17.646464
_cell_length_c 5.406336
_cell_angle_alpha 90.000000
_cell_angle_beta 90.000000
_cell_angle_gamma 90.000000
_cell_volume 2069.621248
_symmetry_space_group_name_H-M "P M M N"
_symmetry_group_IT_number 59
_space_group.IT_coordinate_system_code '2'
_symmetry_cell_setting 'orthorhombic'
loop_
_space_group_symop_operation_xyz
x,y,z
1/2-x,1/2-y,z
1/2+x,-y,-z
-x,1/2+y,-z
-x,-y,-z
1/2+x,1/2+y,-z
1/2-x,y,z
x,1/2-y,z
loop_
_atom_site_type_symbol
_atom_site_label
_atom_site_fract_x
_atom_site_fract_y
_atom_site_fract_z
Si Si1 0.124628 0.463856 0.188272
Si Si2 0.822035 0.471970 0.293199
Si Si3 0.915030 0.337222 0.313133
Si Si4 0.980599 0.064966 0.692837
Si Si5 0.453217 0.162811 0.034486
O O1 0.152510 0.490976 0.450588
O O2 0.064771 0.517344 0.133094
O O3 0.097431 0.379121 0.200277
O O4 0.167863 0.476656 0.951281
O O5 0.750000 0.456234 0.325180
O O6 0.860718 0.394795 0.244700
O O7 0.895464 0.250000 0.320135
O O8 0.939247 0.368979 0.574297
O O9 0.977880 0.341377 0.151081
O O10 0.000000 0.000000 0.500000
O O11 0.039168 0.108518 0.798286
O O12 0.439329 0.250000 0.983787
#
# Coordination Sequence:
#
# PCOD9451818 Si02
#       5
#     8   8   8   8   8
#     4  11  22  39  63  88 120 158 203 257 304 362
#     4  11  24  42  63  84 116 165 219 252 291 354
#     4  10  21  35  56  89 128 159 194 250 313 373
#     4  11  19  34  56  89 126 166 197 242 307 383
#     4  11  21  35  58  94 127 153 192 255 329 386
#
# _framework density 19.327209
#
# number of rings (size 3 to 8) (size 9 to 14) (size 15 to 20)
#    0.000    1.200    4.000    4.200    0.000    0.400 
#    0.000    0.000    0.000    6.000    0.000    0.000 
#    0.000    0.000    0.000    0.000    0.000    0.000 
#
# Total GULP energy -223067.825554 kJ/mol
# GULP energy per Si atom -5576.695639 kJ/mol
# Density = 1.928322 g / cm^3
# Si number density = 19.327209 Si / 1000 Ang^3
#
#
#
# Elastic Constant Matrix: (Units=GPa)
#
#
# Indices 1 2 3 4 5 6 
#
# 1 95.8563 51.6772 27.3372 0.0000 0.0000 0.0000
# 2 51.6772 153.6034 57.3543 0.0000 0.0000 0.0000
# 3 27.3372 57.3543 76.1407 0.0000 0.0000 0.0000
# 4 0.0000 0.0000 0.0000 20.6522 0.0000 0.0000
# 5 0.0000 0.0000 0.0000 0.0000 26.7833 0.0000
# 6 0.0000 0.0000 0.0000 0.0000 0.0000 16.8233
#
#
#
# Elastic Compliance Matrix: (Units=1/GPa)
#
#
# Indices 1 2 3 4 5 6 
#
# 1 0.012938 -0.003643 -0.001901 0.000000 0.000000 0.000000
# 2 -0.003643 0.010084 -0.006288 0.000000 0.000000 0.000000
# 3 -0.001901 -0.006288 0.018553 0.000000 0.000000 0.000000
# 4 0.000000 0.000000 0.000000 0.048421 0.000000 0.000000
# 5 0.000000 0.000000 0.000000 0.000000 0.037337 0.000000
# 6 0.000000 0.000000 0.000000 0.000000 0.000000 0.059441
#
#
# Mechanical properties :
#
#
# Convention : Reuss Voigt Hill
#
# Bulk Modulus (GPa) = 55.83232 66.48198 61.15715
# Shear Modulus (GPa) = 23.10450 25.46720 24.28585
#
# Velocity S-wave (km/s) = 3.46126 3.63393 3.54865
# Velocity P-wave (km/s) = 6.70257 7.21665 6.96436
#
# Compressibility (1/GPa) = 0.01791077
#
# Stress axis : x y z
#
# Youngs Moduli (GPa) = 77.28880 99.16986 53.90098
#
# Poissons Ratio (x) = 0.36128 0.10248
# Poissons Ratio (y) = 0.28157 0.33892
# Poissons Ratio (z) = 0.14694 0.62356
#
# Static dielectric constant tensor:
#      x y z
#    x 1.679840 0.000000 0.000000 
#    y 0.000000 1.676480 0.000000 
#    z 0.000000 0.000000 1.804190 
# 
# From -- ./inp_files/2737.got.cif
#   From: 2010.05.17/outbox.cif.g08.bks.cpg/sg59_2_cif.got.tgz:2737.got - 2010.06.03 14:40:33.
