data_PCOD9451892
_publ_section_title
;
Structure prediction by ZEFSAII (Michael W. Deem and Ramdas Pophale) SiO2 
 PCOD9451892
Probable space group: P M M N
;
_chemical_formula_sum "Si O2"
_cell_formula_units_Z 48
_cell_length_a 7.956582
_cell_length_b 9.599413
_cell_length_c 32.045932
_cell_angle_alpha 90.000000
_cell_angle_beta 90.000000
_cell_angle_gamma 90.000000
_cell_volume 2447.620752
_symmetry_space_group_name_H-M "P M M N"
_symmetry_group_IT_number 59
_space_group.IT_coordinate_system_code '2'
_symmetry_cell_setting 'orthorhombic'
loop_
_space_group_symop_operation_xyz
x,y,z
1/2-x,1/2-y,z
1/2+x,-y,-z
-x,1/2+y,-z
-x,-y,-z
1/2+x,1/2+y,-z
1/2-x,y,z
x,1/2-y,z
loop_
_atom_site_type_symbol
_atom_site_label
_atom_site_fract_x
_atom_site_fract_y
_atom_site_fract_z
Si Si1 0.953014 0.090528 0.959795
Si Si2 0.952899 0.090551 0.210531
Si Si3 0.044963 0.411116 0.711532
Si Si4 0.047833 0.089829 0.118392
Si Si5 0.452659 0.090161 0.618332
Si Si6 0.949653 0.592742 0.539521
O O1 0.750000 0.095689 0.957717
O O2 0.014399 0.250000 0.962529
O O3 0.014154 0.010038 0.918396
O O4 0.000000 0.000000 0.000000
O O5 0.750000 0.091409 0.212143
O O6 0.012661 0.250000 0.213643
O O7 0.002781 0.038462 0.164696
O O8 0.015386 0.002484 0.249823
O O9 0.250000 0.416947 0.711722
O O10 0.997984 0.250000 0.717180
O O11 0.990737 0.453653 0.664860
O O12 0.250000 0.095053 0.115546
O O13 0.985286 0.250000 0.113827
O O14 0.250000 0.094619 0.619081
O O15 0.510388 0.250000 0.610650
O O16 0.503201 0.986773 0.581858
O O17 0.750000 0.603675 0.538395
O O18 0.020869 0.750000 0.537648
O O19 0.000000 0.500000 0.500000
#
# Coordination Sequence:
#
# PCOD9451892 Si02
#       6
#     8   8   8   8   8   8
#     4  10  21  36  54  76 101 130 166 208 253 303
#     4   9  17  29  47  72  99 128 166 208 245 287
#     4   8  15  29  49  73 101 131 163 202 247 293
#     4   9  18  33  50  68  96 133 166 200 249 302
#     4   9  18  34  56  80 105 135 172 212 254 301
#     4  11  24  39  55  78 106 135 170 211 254 303
#
# _framework density 19.610880999999999
#
# number of rings (size 3 to 8) (size 9 to 14) (size 15 to 20)
#    0.000    2.667    0.000    2.500    0.000    6.667 
#    0.000    4.167    0.000    3.000    0.000    0.000 
#    0.000    0.000    0.000    0.000    0.000    0.000 
#
# Total GULP energy -267792.427200 kJ/mol
# GULP energy per Si atom -5579.008900 kJ/mol
# Density = 1.956625 g / cm^3
# Si number density = 19.610881 Si / 1000 Ang^3
#
#
#
# Elastic Constant Matrix: (Units=GPa)
#
#
# Indices 1 2 3 4 5 6 
#
# 1 16.4804 11.2936 9.8801 0.0000 0.0000 0.0000
# 2 11.2936 139.4011 135.0273 0.0000 0.0000 0.0000
# 3 9.8801 135.0273 230.2691 0.0000 0.0000 0.0000
# 4 0.0000 0.0000 0.0000 42.8359 0.0000 0.0000
# 5 0.0000 0.0000 0.0000 0.0000 27.3620 0.0000
# 6 0.0000 0.0000 0.0000 0.0000 0.0000 17.7442
#
#
#
# Elastic Compliance Matrix: (Units=1/GPa)
#
#
# Indices 1 2 3 4 5 6 
#
# 1 0.064291 -0.005872 0.000685 0.000000 0.000000 0.000000
# 2 -0.005872 0.017141 -0.009800 0.000000 0.000000 0.000000
# 3 0.000685 -0.009800 0.010060 0.000000 0.000000 0.000000
# 4 0.000000 0.000000 0.000000 0.023345 0.000000 0.000000
# 5 0.000000 0.000000 0.000000 0.000000 0.036547 0.000000
# 6 0.000000 0.000000 0.000000 0.000000 0.000000 0.056356
#
#
# Mechanical properties :
#
#
# Convention : Reuss Voigt Hill
#
# Bulk Modulus (GPa) = 16.25508 77.61694 46.93601
# Shear Modulus (GPa) = 19.36328 32.91839 26.14084
#
# Velocity S-wave (km/s) = 3.14566 4.10149 3.65496
# Velocity P-wave (km/s) = 4.63685 7.87998 6.46508
#
# Compressibility (1/GPa) = 0.06151922
#
# Stress axis : x y z
#
# Youngs Moduli (GPa) = 15.55416 58.33854 99.40629
#
# Poissons Ratio (x) = 0.34254 -0.06805
# Poissons Ratio (y) = 0.09133 0.97414
# Poissons Ratio (z) = -0.01065 0.57169
#
# Static dielectric constant tensor:
#      x y z
#    x 1.715440 0.000000 0.000000 
#    y 0.000000 1.687540 0.000000 
#    z 0.000000 0.000000 1.679410 
# 
# From -- ./inp_files/32911.got.cif
#   From: 2010.05.17/outbox.cif.g08.bks.cpg/sg59_17_cif.got.tgz:32911.got - 2010.06.03 14:40:33.
