data_PCOD9451558
_publ_section_title
;
Structure prediction by ZEFSAII (Michael W. Deem and Ramdas Pophale) SiO2 
 PCOD9451558
Probable space group: P M M N
;
_chemical_formula_sum "Si O2"
_cell_formula_units_Z 48
_cell_length_a 20.760508
_cell_length_b 22.049863
_cell_length_c 5.212258
_cell_angle_alpha 90.000000
_cell_angle_beta 90.000000
_cell_angle_gamma 90.000000
_cell_volume 2385.996358
_symmetry_space_group_name_H-M "P M M N"
_symmetry_group_IT_number 59
_space_group.IT_coordinate_system_code '2'
_symmetry_cell_setting 'orthorhombic'
loop_
_space_group_symop_operation_xyz
x,y,z
1/2-x,1/2-y,z
1/2+x,-y,-z
-x,1/2+y,-z
-x,-y,-z
1/2+x,1/2+y,-z
1/2-x,y,z
x,1/2-y,z
loop_
_atom_site_type_symbol
_atom_site_label
_atom_site_fract_x
_atom_site_fract_y
_atom_site_fract_z
Si Si1 0.111657 0.883273 0.254399
Si Si2 0.250000 0.015518 0.750333
Si Si3 0.956147 0.992022 0.750023
Si Si4 0.447614 0.680058 0.754364
Si Si5 0.750000 0.071305 0.749662
Si Si6 0.322962 0.362488 0.750442
Si Si7 0.594736 0.856031 0.749641
O O1 0.094223 0.954026 0.250293
O O2 0.080998 0.853662 0.506851
O O3 0.188264 0.884953 0.251308
O O4 0.079795 0.851956 0.007996
O O5 0.250000 0.972938 0.499915
O O6 0.190294 0.063848 0.750487
O O7 0.250000 0.972730 0.000164
O O8 0.922901 0.927221 0.750027
O O9 0.000000 0.000000 0.500000
O O10 0.000000 0.000000 0.000000
O O11 0.428301 0.750000 0.750804
O O12 0.525293 0.675714 0.751406
O O13 0.250000 0.337608 0.749128
O O14 0.363202 0.343996 0.502118
O O15 0.362601 0.343960 0.000223
#
# Coordination Sequence:
#
# PCOD9451558 Si02
#       7
#     8   4   8   8   4   8   8
#     4  12  24  45  65 100 131 172 217 274 331 390
#     4  10  20  38  56 100 136 180 190 250 316 400
#     4  12  21  36  62  97 133 161 197 258 329 393
#     4  12  27  47  68  91 126 173 232 285 322 374
#     4  12  24  40  67  90 138 174 213 258 334 400
#     4  10  22  35  59  92 132 168 204 244 304 399
#     4  12  21  40  62  92 129 171 208 255 330 386
#
# _framework density 20.117381999999999
#
# number of rings (size 3 to 8) (size 9 to 14) (size 15 to 20)
#    0.500    0.000    3.333    7.000    0.000    0.000 
#    0.000    2.500    0.000    3.000    0.000    0.000 
#    0.000    0.000    0.000    0.000    0.000    0.000 
#
# Total GULP energy -268498.220206 kJ/mol
# GULP energy per Si atom -5593.712921 kJ/mol
# Density = 2.007159 g / cm^3
# Si number density = 20.117382 Si / 1000 Ang^3
#
#
#
# Elastic Constant Matrix: (Units=GPa)
#
#
# Indices 1 2 3 4 5 6 
#
# 1 146.6512 -13.7059 42.2447 0.0000 0.0000 0.0000
# 2 -13.7059 36.9649 -22.7649 0.0000 0.0000 0.0000
# 3 42.2447 -22.7649 147.8057 0.0000 0.0000 0.0000
# 4 0.0000 0.0000 0.0000 11.7950 0.0000 0.0000
# 5 0.0000 0.0000 0.0000 0.0000 -89.7362 0.0000
# 6 0.0000 0.0000 0.0000 0.0000 0.0000 -12.6772
#
#
#
# Elastic Compliance Matrix: (Units=1/GPa)
#
#
# Indices 1 2 3 4 5 6 
#
# 1 0.007517 0.001618 -0.001899 0.000000 0.000000 0.000000
# 2 0.001618 0.030236 0.004195 0.000000 0.000000 0.000000
# 3 -0.001899 0.004195 0.007955 0.000000 0.000000 0.000000
# 4 0.000000 0.000000 0.000000 0.084782 0.000000 0.000000
# 5 0.000000 0.000000 0.000000 0.000000 -0.011144 0.000000
# 6 0.000000 0.000000 0.000000 0.000000 0.000000 -0.078882
#
#
# Mechanical properties :
#
#
# Convention : Reuss Voigt Hill
#
# Bulk Modulus (GPa) = 18.68011 38.10772 28.39391
# Shear Modulus (GPa) = 99.04421 3.58618 51.31520
#
# Velocity S-wave (km/s) = 7.02425 1.33660 5.05601
# Velocity P-wave (km/s) = 8.66559 4.62232 6.94472
#
# Compressibility (1/GPa) = 0.05353288
#
# Stress axis : x y z
#
# Youngs Moduli (GPa) = 133.02797 33.07347 125.71419
#
# Poissons Ratio (x) = -0.05350 0.23878
# Poissons Ratio (y) = -0.21517 -0.52732
# Poissons Ratio (z) = 0.25267 -0.13873
#
# Static dielectric constant tensor:
#      x y z
#    x 1.749510 0.000000 0.000000 
#    y 0.000000 1.774620 0.000000 
#    z 0.000000 0.000000 1.676460 
# 
# From -- ./inp_files/2883.got.cif
#   From: 2010.05.17/outbox.cif.g08.bks.cpg/sg59_2_cif.got.tgz:2883.got - 2010.06.03 14:40:33.
