data_PCOD9451240
_publ_section_title
;
Structure prediction by ZEFSAII (Michael W. Deem and Ramdas Pophale) SiO2 
 PCOD9451240
Probable space group: P M M N
;
_chemical_formula_sum "Si O2"
_cell_formula_units_Z 64
_cell_length_a 23.819757
_cell_length_b 8.713653
_cell_length_c 15.035016
_cell_angle_alpha 90.000000
_cell_angle_beta 90.000000
_cell_angle_gamma 90.000000
_cell_volume 3120.624275
_symmetry_space_group_name_H-M "P M M N"
_symmetry_group_IT_number 59
_space_group.IT_coordinate_system_code '2'
_symmetry_cell_setting 'orthorhombic'
loop_
_space_group_symop_operation_xyz
x,y,z
1/2-x,1/2-y,z
1/2+x,-y,-z
-x,1/2+y,-z
-x,-y,-z
1/2+x,1/2+y,-z
1/2-x,y,z
x,1/2-y,z
loop_
_atom_site_type_symbol
_atom_site_label
_atom_site_fract_x
_atom_site_fract_y
_atom_site_fract_z
Si Si1 0.147694 0.073026 0.042112
Si Si2 0.990650 0.933537 0.285058
Si Si3 0.637786 0.568180 0.315740
Si Si4 0.310029 0.436848 0.224329
Si Si5 0.183466 0.570748 0.862892
Si Si6 0.899588 0.565562 0.632639
Si Si7 0.813922 0.067031 0.490785
Si Si8 0.518647 0.925863 0.907018
O O1 0.162797 0.250000 0.020555
O O2 0.185649 0.013111 0.122476
O O3 0.085934 0.074374 0.084672
O O4 0.152470 0.976069 0.953379
O O5 0.994828 0.750000 0.284462
O O6 0.928051 0.975504 0.316694
O O7 0.038576 0.000777 0.349540
O O8 0.999917 0.992149 0.183747
O O9 0.642342 0.750000 0.332961
O O10 0.661004 0.528950 0.218476
O O11 0.672738 0.477283 0.389325
O O12 0.250000 0.483575 0.262959
O O13 0.312079 0.250000 0.222715
O O14 0.361783 0.487540 0.283482
O O15 0.250000 0.545325 0.875357
O O16 0.174347 0.750000 0.843122
O O17 0.902592 0.750000 0.631364
O O18 0.863161 0.509669 0.549028
O O19 0.750000 0.015434 0.513074
O O20 0.816305 0.250000 0.502576
O O21 0.498842 0.750000 0.902937
O O22 0.500000 0.000000 0.000000
#
# Coordination Sequence:
#
# PCOD9451240 Si02
#       8
#     8   8   8   8   8   8   8   8
#     4  10  20  36  57  84 119 161 209 254 302 366
#     4  11  24  42  63  92 129 167 211 264 320 378
#     4  11  25  44  67  93 121 163 216 264 315 379
#     4   9  17  32  56  86 119 155 198 248 298 353
#     4  11  24  40  59  89 127 164 206 261 324 382
#     4  11  22  40  66  96 129 168 211 256 308 374
#     4  11  25  45  69  99 132 165 204 257 322 383
#     4  11  22  37  58  87 122 165 216 263 312 374
#
# _framework density 20.508716
#
# number of rings (size 3 to 8) (size 9 to 14) (size 15 to 20)
#    0.000    1.375    1.250    4.125    0.000   11.000 
#    0.000    0.000    0.000    2.250    0.000    0.000 
#    0.000    0.000    0.000    0.000    0.000    0.000 
#
# Total GULP energy -357680.656026 kJ/mol
# GULP energy per Si atom -5588.760250 kJ/mol
# Density = 2.046204 g / cm^3
# Si number density = 20.508716 Si / 1000 Ang^3
#
#
#
# Elastic Constant Matrix: (Units=GPa)
#
#
# Indices 1 2 3 4 5 6 
#
# 1 57.7132 26.3925 8.5774 0.0000 0.0000 0.0000
# 2 26.3925 49.2846 5.5992 0.0000 0.0000 0.0000
# 3 8.5774 5.5992 68.8190 0.0000 0.0000 0.0000
# 4 0.0000 0.0000 0.0000 32.3882 0.0000 0.0000
# 5 0.0000 0.0000 0.0000 0.0000 25.7305 0.0000
# 6 0.0000 0.0000 0.0000 0.0000 0.0000 1.7553
#
#
#
# Elastic Compliance Matrix: (Units=1/GPa)
#
#
# Indices 1 2 3 4 5 6 
#
# 1 0.023189 -0.012203 -0.001897 0.000000 0.000000 0.000000
# 2 -0.012203 0.026901 -0.000668 0.000000 0.000000 0.000000
# 3 -0.001897 -0.000668 0.014822 0.000000 0.000000 0.000000
# 4 0.000000 0.000000 0.000000 0.030875 0.000000 0.000000
# 5 0.000000 0.000000 0.000000 0.000000 0.038864 0.000000
# 6 0.000000 0.000000 0.000000 0.000000 0.000000 0.569707
#
#
# Mechanical properties :
#
#
# Convention : Reuss Voigt Hill
#
# Bulk Modulus (GPa) = 28.26759 28.55057 28.40908
# Shear Modulus (GPa) = 6.70523 20.99130 13.84827
#
# Velocity S-wave (km/s) = 1.81013 3.20274 2.60135
# Velocity P-wave (km/s) = 4.26402 5.25625 4.78592
#
# Compressibility (1/GPa) = 0.03537620
#
# Stress axis : x y z
#
# Youngs Moduli (GPa) = 43.12324 37.17360 67.46862
#
# Poissons Ratio (x) = 0.45361 0.12802
# Poissons Ratio (y) = 0.52622 0.04505
# Poissons Ratio (z) = 0.08182 0.02482
#
# Static dielectric constant tensor:
#      x y z
#    x 1.894740 0.000000 0.000000 
#    y 0.000000 1.712520 0.000000 
#    z 0.000000 0.000000 1.712790 
# 
# From -- ./inp_files/24716.got.cif
#   From: 2010.05.17/outbox.cif.g08.bks.cpg/sg59_13_cif.got.tgz:24716.got - 2010.06.03 14:40:33.
