data_PCOD9451233
_publ_section_title
;
Structure prediction by ZEFSAII (Michael W. Deem and Ramdas Pophale) SiO2 
 PCOD9451233
Probable space group: P M M N
;
_chemical_formula_sum "Si O2"
_cell_formula_units_Z 56
_cell_length_a 14.682001
_cell_length_b 19.555039
_cell_length_c 9.882353
_cell_angle_alpha 90.000000
_cell_angle_beta 90.000000
_cell_angle_gamma 90.000000
_cell_volume 2837.293732
_symmetry_space_group_name_H-M "P M M N"
_symmetry_group_IT_number 59
_space_group.IT_coordinate_system_code '2'
_symmetry_cell_setting 'orthorhombic'
loop_
_space_group_symop_operation_xyz
x,y,z
1/2-x,1/2-y,z
1/2+x,-y,-z
-x,1/2+y,-z
-x,-y,-z
1/2+x,1/2+y,-z
1/2-x,y,z
x,1/2-y,z
loop_
_atom_site_type_symbol
_atom_site_label
_atom_site_fract_x
_atom_site_fract_y
_atom_site_fract_z
Si Si1 0.495610 0.409830 0.358961
Si Si2 0.953832 0.170728 0.124502
Si Si3 0.547371 0.449641 0.660003
Si Si4 0.151970 0.173569 0.480829
Si Si5 0.848328 0.925961 0.262343
Si Si6 0.649823 0.671319 0.002964
Si Si7 0.359478 0.670342 0.165320
O O1 0.562551 0.384490 0.241545
O O2 0.542912 0.429335 0.501790
O O3 0.422943 0.471326 0.329506
O O4 0.432864 0.344415 0.389614
O O5 0.938955 0.250000 0.165202
O O6 0.896555 0.159825 0.987143
O O7 0.060311 0.161158 0.085541
O O8 0.444757 0.461857 0.718139
O O9 0.595517 0.388694 0.741494
O O10 0.250000 0.167628 0.410461
O O11 0.143783 0.250000 0.533882
O O12 0.152298 0.123332 0.607723
O O13 0.750000 0.963056 0.260407
O O14 0.853872 0.879988 0.128660
O O15 0.750000 0.663136 0.937907
O O16 0.644735 0.750000 0.052593
O O17 0.250000 0.664769 0.170145
O O18 0.383639 0.750000 0.202768
#
# Coordination Sequence:
#
# PCOD9451233 Si02
#       7
#     8   8   8   8   8   8   8
#     4  10  22  36  55  83 118 153 187 230 288 349
#     4  10  20  36  57  83 116 149 182 235 293 341
#     4  10  21  39  59  83 114 152 194 239 282 338
#     4   9  17  29  49  78 111 147 185 225 274 337
#     4   9  16  29  51  80 110 140 179 227 275 329
#     4   9  16  27  48  80 113 141 170 211 271 337
#     4  10  22  41  63  84 108 147 202 254 295 337
#
# _framework density 19.737117999999999
#
# number of rings (size 3 to 8) (size 9 to 14) (size 15 to 20)
#    0.000    2.429    1.429    0.857    0.000    6.286 
#    0.000    5.000    0.000    1.714    0.000    0.000 
#    0.000    0.000    0.000    0.000    0.000    0.000 
#
# Total GULP energy -311737.255052 kJ/mol
# GULP energy per Si atom -5566.736697 kJ/mol
# Density = 1.969220 g / cm^3
# Si number density = 19.737118 Si / 1000 Ang^3
#
#
#
# Elastic Constant Matrix: (Units=GPa)
#
#
# Indices 1 2 3 4 5 6 
#
# 1 53.5293 15.1650 8.2015 0.0000 0.0000 0.0000
# 2 15.1650 73.0416 45.5751 0.0000 0.0000 0.0000
# 3 8.2015 45.5751 86.7559 0.0000 0.0000 0.0000
# 4 0.0000 0.0000 0.0000 26.0132 0.0000 0.0000
# 5 0.0000 0.0000 0.0000 0.0000 4.1988 0.0000
# 6 0.0000 0.0000 0.0000 0.0000 0.0000 12.3235
#
#
#
# Elastic Compliance Matrix: (Units=1/GPa)
#
#
# Indices 1 2 3 4 5 6 
#
# 1 0.019860 -0.004391 0.000429 0.000000 0.000000 0.000000
# 2 -0.004391 0.021338 -0.010794 0.000000 0.000000 0.000000
# 3 0.000429 -0.010794 0.017156 0.000000 0.000000 0.000000
# 4 0.000000 0.000000 0.000000 0.038442 0.000000 0.000000
# 5 0.000000 0.000000 0.000000 0.000000 0.238163 0.000000
# 6 0.000000 0.000000 0.000000 0.000000 0.000000 0.081146
#
#
# Mechanical properties :
#
#
# Convention : Reuss Voigt Hill
#
# Bulk Modulus (GPa) = 34.67187 39.02336 36.84762
# Shear Modulus (GPa) = 10.98344 18.13277 14.55811
#
# Velocity S-wave (km/s) = 2.36156 3.03432 2.71883
# Velocity P-wave (km/s) = 5.00409 5.66486 5.34469
#
# Compressibility (1/GPa) = 0.02884182
#
# Stress axis : x y z
#
# Youngs Moduli (GPa) = 50.35347 46.86553 58.28724
#
# Poissons Ratio (x) = 0.20580 -0.02503
# Poissons Ratio (y) = 0.22111 0.62916
# Poissons Ratio (z) = -0.02162 0.50587
#
# Static dielectric constant tensor:
#      x y z
#    x 1.783010 0.000000 0.000000 
#    y 0.000000 1.706270 0.000000 
#    z 0.000000 0.000000 1.697250 
# 
# From -- ./inp_files/9323.got.cif
#   From: 2010.05.17/outbox.cif.g08.bks.cpg/sg59_5_cif.got.tgz:9323.got - 2010.06.03 14:40:33.
