data_PCOD9451999
_publ_section_title
;
Structure prediction by ZEFSAII (Michael W. Deem and Ramdas Pophale) SiO2 
 PCOD9451999
Probable space group: P M M N
;
_chemical_formula_sum "Si O2"
_cell_formula_units_Z 64
_cell_length_a 23.940337
_cell_length_b 14.009313
_cell_length_c 10.148099
_cell_angle_alpha 90.000000
_cell_angle_beta 90.000000
_cell_angle_gamma 90.000000
_cell_volume 3403.547323
_symmetry_space_group_name_H-M "P M M N"
_symmetry_group_IT_number 59
_space_group.IT_coordinate_system_code '2'
_symmetry_cell_setting 'orthorhombic'
loop_
_space_group_symop_operation_xyz
x,y,z
1/2-x,1/2-y,z
1/2+x,-y,-z
-x,1/2+y,-z
-x,-y,-z
1/2+x,1/2+y,-z
1/2-x,y,z
x,1/2-y,z
loop_
_atom_site_type_symbol
_atom_site_label
_atom_site_fract_x
_atom_site_fract_y
_atom_site_fract_z
Si Si1 0.995137 0.140088 0.388397
Si Si2 0.314245 0.535018 0.656965
Si Si3 0.616899 0.045516 0.827484
Si Si4 0.005601 0.136210 0.832559
Si Si5 0.925983 0.953228 0.406941
Si Si6 0.057345 0.140242 0.118207
Si Si7 0.185029 0.857888 0.390701
Si Si8 0.683027 0.361462 0.068966
O O1 0.980531 0.250000 0.418599
O O2 0.049434 0.107079 0.471758
O O3 0.011769 0.132520 0.235063
O O4 0.947998 0.062505 0.422538
O O5 0.250000 0.500799 0.662865
O O6 0.359989 0.457542 0.614691
O O7 0.316391 0.615904 0.544120
O O8 0.329571 0.581425 0.796986
O O9 0.555881 0.092886 0.820919
O O10 0.648990 0.069028 0.693491
O O11 0.606031 0.934359 0.852163
O O12 0.650997 0.092786 0.946703
O O13 0.003529 0.250000 0.813427
O O14 0.044364 0.089130 0.722246
O O15 0.029656 0.117075 0.978029
O O16 0.076371 0.250000 0.115717
O O17 0.250000 0.863277 0.349063
O O18 0.165189 0.750000 0.366674
O O19 0.750000 0.365990 0.048416
O O20 0.667635 0.250000 0.082742
#
# Coordination Sequence:
#
# PCOD9451999 Si02
#       8
#     8   8   8   8   8   8   8   8
#     4  10  22  38  58  84 116 152 192 237 290 348
#     4  10  22  38  58  83 116 158 198 236 283 345
#     4  12  21  36  58  85 113 152 195 234 286 349
#     4  11  23  37  57  86 119 151 188 238 290 345
#     4  11  22  39  58  86 119 152 190 240 293 347
#     4  10  22  39  55  79 114 152 191 234 285 335
#     4  10  21  37  57  84 118 151 186 234 290 346
#     4  10  21  36  55  84 120 155 193 239 291 349
#
# _framework density 18.803912
#
# number of rings (size 3 to 8) (size 9 to 14) (size 15 to 20)
#    0.000    1.500    1.250    4.125    3.500    3.500 
#    0.000    0.000    0.000    3.000    0.000   14.000 
#    0.000    0.000    0.000    0.000    0.000    0.000 
#
# Total GULP energy -357750.629456 kJ/mol
# GULP energy per Si atom -5589.853585 kJ/mol
# Density = 1.876111 g / cm^3
# Si number density = 18.803912 Si / 1000 Ang^3
#
#
#
# Elastic Constant Matrix: (Units=GPa)
#
#
# Indices 1 2 3 4 5 6 
#
# 1 47.8399 8.0323 16.0898 0.0000 0.0000 0.0000
# 2 8.0323 64.6579 9.0122 0.0000 0.0000 0.0000
# 3 16.0898 9.0122 67.6386 0.0000 0.0000 0.0000
# 4 0.0000 0.0000 0.0000 28.0314 0.0000 0.0000
# 5 0.0000 0.0000 0.0000 0.0000 44.2300 0.0000
# 6 0.0000 0.0000 0.0000 0.0000 0.0000 19.6708
#
#
#
# Elastic Compliance Matrix: (Units=1/GPa)
#
#
# Indices 1 2 3 4 5 6 
#
# 1 0.023006 -0.002135 -0.005188 0.000000 0.000000 0.000000
# 2 -0.002135 0.015957 -0.001618 0.000000 0.000000 0.000000
# 3 -0.005188 -0.001618 0.016234 0.000000 0.000000 0.000000
# 4 0.000000 0.000000 0.000000 0.035674 0.000000 0.000000
# 5 0.000000 0.000000 0.000000 0.000000 0.022609 0.000000
# 6 0.000000 0.000000 0.000000 0.000000 0.000000 0.050837
#
#
# Mechanical properties :
#
#
# Convention : Reuss Voigt Hill
#
# Bulk Modulus (GPa) = 26.79914 27.37834 27.08874
# Shear Modulus (GPa) = 25.68862 28.18658 26.93760
#
# Velocity S-wave (km/s) = 3.70013 3.87586 3.78901
# Velocity P-wave (km/s) = 5.70416 5.88398 5.79477
#
# Compressibility (1/GPa) = 0.03731463
#
# Stress axis : x y z
#
# Youngs Moduli (GPa) = 43.46609 62.66931 61.59810
#
# Poissons Ratio (x) = 0.13379 0.31959
# Poissons Ratio (y) = 0.09280 0.09968
# Poissons Ratio (z) = 0.22552 0.10141
#
# Static dielectric constant tensor:
#      x y z
#    x 1.640770 0.000000 0.000000 
#    y 0.000000 1.643590 0.000000 
#    z 0.000000 0.000000 1.651930 
# 
# From -- ./inp_files/12225.got.cif
#   From: 2010.05.17/outbox.cif.g08.bks.cpg/sg59_7_cif.got.tgz:12225.got - 2010.06.03 14:40:33.
