data_PCOD9451952
_publ_section_title
;
Structure prediction by ZEFSAII (Michael W. Deem and Ramdas Pophale) SiO2 
 PCOD9451952
Probable space group: P M M N
;
_chemical_formula_sum "Si O2"
_cell_formula_units_Z 64
_cell_length_a 14.245436
_cell_length_b 8.940992
_cell_length_c 24.797226
_cell_angle_alpha 90.000000
_cell_angle_beta 90.000000
_cell_angle_gamma 90.000000
_cell_volume 3158.381247
_symmetry_space_group_name_H-M "P M M N"
_symmetry_group_IT_number 59
_space_group.IT_coordinate_system_code '2'
_symmetry_cell_setting 'orthorhombic'
loop_
_space_group_symop_operation_xyz
x,y,z
1/2-x,1/2-y,z
1/2+x,-y,-z
-x,1/2+y,-z
-x,-y,-z
1/2+x,1/2+y,-z
1/2-x,y,z
x,1/2-y,z
loop_
_atom_site_type_symbol
_atom_site_label
_atom_site_fract_x
_atom_site_fract_y
_atom_site_fract_z
Si Si1 0.140864 0.927820 0.303731
Si Si2 0.636111 0.572985 0.466066
Si Si3 0.635549 0.576821 0.584134
Si Si4 0.471826 0.930012 0.749651
Si Si5 0.034650 0.928439 0.869240
Si Si6 0.860000 0.070556 0.355888
Si Si7 0.360597 0.927311 0.083137
Si Si8 0.362661 0.422446 0.969486
O O1 0.250000 0.968879 0.296565
O O2 0.132683 0.750000 0.300938
O O3 0.110368 0.984197 0.363122
O O4 0.074592 0.004467 0.260354
O O5 0.750000 0.554519 0.465549
O O6 0.617290 0.750000 0.463466
O O7 0.604361 0.518687 0.525331
O O8 0.601025 0.493705 0.412101
O O9 0.750000 0.577919 0.582434
O O10 0.605634 0.750000 0.590565
O O11 0.476014 0.750000 0.747936
O O12 0.434598 0.971048 0.808733
O O13 0.410592 0.981373 0.698549
O O14 0.042547 0.750000 0.875449
O O15 0.092091 0.009791 0.916081
O O16 0.927485 0.980816 0.877497
O O17 0.750000 0.030624 0.352167
O O18 0.866670 0.250000 0.358425
O O19 0.250000 0.956804 0.091487
O O20 0.376487 0.750000 0.088555
O O21 0.385497 0.981196 0.022552
O O22 0.250000 0.425086 0.964039
O O23 0.392305 0.250000 0.977482
#
# Coordination Sequence:
#
# PCOD9451952 Si02
#       8
#     8   8   8   8   8   8   8   8
#     4  10  21  36  55  79 106 137 176 226 278 322
#     4   8  14  26  47  76 105 133 168 211 265 327
#     4   8  14  27  49  75 103 135 170 211 264 328
#     4  10  23  40  56  77 106 145 189 225 264 320
#     4  11  23  38  58  83 113 150 190 233 276 321
#     4   9  18  34  55  77 103 136 175 222 271 317
#     4  10  21  38  61  88 118 151 185 224 273 327
#     4  10  21  38  61  89 120 151 184 224 270 323
#
# _framework density 20.263545000000001
#
# number of rings (size 3 to 8) (size 9 to 14) (size 15 to 20)
#    0.000    2.500    0.000    2.625    0.000    5.250 
#    0.000    6.875    0.000    1.500    0.000    0.000 
#    0.000    0.000    0.000    0.000    0.000    0.000 
#
# Total GULP energy -357424.266315 kJ/mol
# GULP energy per Si atom -5584.754161 kJ/mol
# Density = 2.021742 g / cm^3
# Si number density = 20.263545 Si / 1000 Ang^3
#
#
#
# Elastic Constant Matrix: (Units=GPa)
#
#
# Indices 1 2 3 4 5 6 
#
# 1 33.3411 1.7721 9.0772 0.0000 0.0000 0.0000
# 2 1.7721 16.2904 7.9519 0.0000 0.0000 0.0000
# 3 9.0772 7.9519 79.3596 0.0000 0.0000 0.0000
# 4 0.0000 0.0000 0.0000 29.5960 0.0000 0.0000
# 5 0.0000 0.0000 0.0000 0.0000 23.8768 0.0000
# 6 0.0000 0.0000 0.0000 0.0000 0.0000 21.1590
#
#
#
# Elastic Compliance Matrix: (Units=1/GPa)
#
#
# Indices 1 2 3 4 5 6 
#
# 1 0.031003 -0.001726 -0.003373 0.000000 0.000000 0.000000
# 2 -0.001726 0.064639 -0.006279 0.000000 0.000000 0.000000
# 3 -0.003373 -0.006279 0.013616 0.000000 0.000000 0.000000
# 4 0.000000 0.000000 0.000000 0.033788 0.000000 0.000000
# 5 0.000000 0.000000 0.000000 0.000000 0.041882 0.000000
# 6 0.000000 0.000000 0.000000 0.000000 0.000000 0.047261
#
#
# Mechanical properties :
#
#
# Convention : Reuss Voigt Hill
#
# Bulk Modulus (GPa) = 11.56062 18.51037 15.03550
# Shear Modulus (GPa) = 17.61930 22.27235 19.94583
#
# Velocity S-wave (km/s) = 2.95194 3.31892 3.14079
# Velocity P-wave (km/s) = 4.16367 4.88278 4.53749
#
# Compressibility (1/GPa) = 0.08650053
#
# Stress axis : x y z
#
# Youngs Moduli (GPa) = 32.25480 15.47061 73.44353
#
# Poissons Ratio (x) = 0.02670 0.24774
# Poissons Ratio (y) = 0.05567 0.46118
# Poissons Ratio (z) = 0.10880 0.09715
#
# Static dielectric constant tensor:
#      x y z
#    x 1.758800 0.000000 0.000000 
#    y 0.000000 1.673500 0.000000 
#    z 0.000000 0.000000 1.714490 
# 
# From -- ./inp_files/32216.got.cif
#   From: 2010.05.17/outbox.cif.g08.bks.cpg/sg59_17_cif.got.tgz:32216.got - 2010.06.03 14:40:33.
