data_PCOD9451765
_publ_section_title
;
Structure prediction by ZEFSAII (Michael W. Deem and Ramdas Pophale) SiO2 
 PCOD9451765
Probable space group: P M M N
;
_chemical_formula_sum "Si O2"
_cell_formula_units_Z 56
_cell_length_a 7.379296
_cell_length_b 15.949139
_cell_length_c 21.015006
_cell_angle_alpha 90.000000
_cell_angle_beta 90.000000
_cell_angle_gamma 90.000000
_cell_volume 2473.327878
_symmetry_space_group_name_H-M "P M M N"
_symmetry_group_IT_number 59
_space_group.IT_coordinate_system_code '2'
_symmetry_cell_setting 'orthorhombic'
loop_
_space_group_symop_operation_xyz
x,y,z
1/2-x,1/2-y,z
1/2+x,-y,-z
-x,1/2+y,-z
-x,-y,-z
1/2+x,1/2+y,-z
1/2-x,y,z
x,1/2-y,z
loop_
_atom_site_type_symbol
_atom_site_label
_atom_site_fract_x
_atom_site_fract_y
_atom_site_fract_z
Si Si1 0.537410 0.154274 0.154555
Si Si2 0.471782 0.420616 0.429678
Si Si3 0.044849 0.385405 0.562404
Si Si4 0.471971 0.152891 0.837508
Si Si5 0.531890 0.654120 0.704008
Si Si6 0.544800 0.650167 0.300916
Si Si7 0.466597 0.498873 0.925152
O O1 0.750000 0.162087 0.140219
O O2 0.462015 0.250000 0.151661
O O3 0.522191 0.120940 0.226975
O O4 0.461166 0.083748 0.107790
O O5 0.250000 0.423476 0.431480
O O6 0.545800 0.513942 0.436859
O O7 0.528799 0.366712 0.491764
O O8 0.529108 0.388997 0.360673
O O9 0.250000 0.350931 0.564428
O O10 0.956952 0.363458 0.630091
O O11 0.250000 0.154137 0.835341
O O12 0.527421 0.250000 0.848846
O O13 0.533338 0.122737 0.766921
O O14 0.531081 0.085863 0.890089
O O15 0.750000 0.653339 0.702480
O O16 0.469079 0.750000 0.702510
O O17 0.750000 0.614456 0.305169
O O18 0.557570 0.750000 0.293548
O O19 0.250000 0.499106 0.915417
O O20 0.500000 0.500000 0.000000
#
# Coordination Sequence:
#
# PCOD9451765 Si02
#       7
#     8   8   8   8   8   8   8
#     4   9  19  35  53  75 103 132 164 204 245 288
#     4   9  18  30  42  64  97 128 158 198 244 286
#     4   9  17  28  45  67  92 125 163 198 238 289
#     4   8  15  29  48  72 100 125 155 199 243 280
#     4   9  18  32  49  69  95 129 166 203 245 290
#     4   8  14  25  44  70  93 115 153 202 241 273
#     4  10  21  35  53  77 102 129 161 195 239 292
#
# _framework density 22.641559000000001
#
# number of rings (size 3 to 8) (size 9 to 14) (size 15 to 20)
#    0.000    3.143    0.000    0.857    2.000    2.286 
#    0.000    2.857    0.000    0.429    0.000    6.000 
#    0.000    0.000    0.000    0.000    0.000    0.000 
#
# Total GULP energy -312113.747209 kJ/mol
# GULP energy per Si atom -5573.459772 kJ/mol
# Density = 2.259003 g / cm^3
# Si number density = 22.641559 Si / 1000 Ang^3
#
#
#
# Elastic Constant Matrix: (Units=GPa)
#
#
# Indices 1 2 3 4 5 6 
#
# 1 82.6326 5.7301 -0.4347 0.0000 0.0000 0.0000
# 2 5.7301 88.1756 93.9355 0.0000 0.0000 0.0000
# 3 -0.4347 93.9355 226.0822 0.0000 0.0000 0.0000
# 4 0.0000 0.0000 0.0000 91.7780 0.0000 0.0000
# 5 0.0000 0.0000 0.0000 0.0000 -0.4741 0.0000
# 6 0.0000 0.0000 0.0000 0.0000 0.0000 -6.8646
#
#
#
# Elastic Compliance Matrix: (Units=1/GPa)
#
#
# Indices 1 2 3 4 5 6 
#
# 1 0.012207 -0.001468 0.000633 0.000000 0.000000 0.000000
# 2 -0.001468 0.020524 -0.008530 0.000000 0.000000 0.000000
# 3 0.000633 -0.008530 0.007969 0.000000 0.000000 0.000000
# 4 0.000000 0.000000 0.000000 0.010896 0.000000 0.000000
# 5 0.000000 0.000000 0.000000 0.000000 -2.109227 0.000000
# 6 0.000000 0.000000 0.000000 0.000000 0.000000 -0.145674
#
#
# Mechanical properties :
#
#
# Convention : Reuss Voigt Hill
#
# Bulk Modulus (GPa) = 45.51759 66.15026 55.83392
# Shear Modulus (GPa) = -2.29647 36.73182 17.21768
#
# Velocity S-wave (km/s) = -1.00820 4.03217 2.76061
# Velocity P-wave (km/s) = 4.33496 7.13846 5.90548
#
# Compressibility (1/GPa) = 0.02196953
#
# Stress axis : x y z
#
# Youngs Moduli (GPa) = 81.92087 48.72331 125.49072
#
# Poissons Ratio (x) = 0.07153 -0.07949
# Poissons Ratio (y) = 0.12027 1.07049
# Poissons Ratio (z) = -0.05189 0.41563
#
# Static dielectric constant tensor:
#      x y z
#    x 1.875850 0.000000 0.000000 
#    y 0.000000 1.817270 0.000000 
#    z 0.000000 0.000000 1.879560 
# 
# From -- ./inp_files/29110.got.cif
#   From: 2010.05.17/outbox.cif.g08.bks.cpg/sg59_15_cif.got.tgz:29110.got - 2010.06.03 14:40:33.
