data_PCOD9451945
_publ_section_title
;
Structure prediction by ZEFSAII (Michael W. Deem and Ramdas Pophale) SiO2 
 PCOD9451945
Probable space group: P M M N
;
_chemical_formula_sum "Si O2"
_cell_formula_units_Z 58
_cell_length_a 26.152625
_cell_length_b 16.413516
_cell_length_c 7.185946
_cell_angle_alpha 90.000000
_cell_angle_beta 90.000000
_cell_angle_gamma 90.000000
_cell_volume 3084.614237
_symmetry_space_group_name_H-M "P M M N"
_symmetry_group_IT_number 59
_space_group.IT_coordinate_system_code '2'
_symmetry_cell_setting 'orthorhombic'
loop_
_space_group_symop_operation_xyz
x,y,z
1/2-x,1/2-y,z
1/2+x,-y,-z
-x,1/2+y,-z
-x,-y,-z
1/2+x,1/2+y,-z
1/2-x,y,z
x,1/2-y,z
loop_
_atom_site_type_symbol
_atom_site_label
_atom_site_fract_x
_atom_site_fract_y
_atom_site_fract_z
Si Si1 0.975097 0.156803 0.670725
Si Si2 0.649069 0.572427 0.067004
Si Si3 0.692998 0.043673 0.378960
Si Si4 0.750000 0.750000 0.573238
Si Si5 0.904047 0.156624 0.313278
Si Si6 0.555132 0.457533 0.988305
Si Si7 0.326832 0.101196 0.345290
Si Si8 0.909560 0.845411 0.394054
O O1 0.978389 0.250000 0.744709
O O2 0.944130 0.159342 0.480906
O O3 0.032973 0.125196 0.643843
O O4 0.945405 0.097422 0.806226
O O5 0.683088 0.513685 0.197501
O O6 0.600079 0.523089 0.992983
O O7 0.625986 0.637165 0.214040
O O8 0.676114 0.602495 0.878878
O O9 0.750000 0.078838 0.370511
O O10 0.647695 0.109726 0.374419
O O11 0.689906 0.983460 0.557877
O O12 0.794097 0.822662 0.579598
O O13 0.893158 0.250000 0.255426
O O14 0.931483 0.103424 0.155813
O O15 0.500000 0.500000 0.000000
O O16 0.383771 0.113419 0.427506
O O17 0.912994 0.750000 0.428974
#
# Coordination Sequence:
#
# PCOD9451945 Si02
#       8
#     8   8   8   2   8   8   8   8
#     4  10  21  37  59  87 122 158 197 243 298 358
#     4  10  23  38  57  85 118 156 204 243 301 369
#     4  10  22  42  64  87 120 155 200 261 313 363
#     4  12  24  40  62  88 118 166 216 248 308 352
#     4  10  23  41  63  92 121 161 206 253 315 369
#     4  11  21  37  58  89 121 161 200 243 301 369
#     4  11  23  41  58  87 120 160 204 252 304 356
#     4  10  21  36  54  82 117 156 197 243 291 354
#
# _framework density 18.803000999999998
#
# number of rings (size 3 to 8) (size 9 to 14) (size 15 to 20)
#    0.000    1.655    2.759    1.241    3.862    0.828 
#    0.000    2.759    0.000    0.000    0.000    3.862 
#    0.000    0.000    0.000    0.000    0.000    0.000 
#
# Total GULP energy -323072.405844 kJ/mol
# GULP energy per Si atom -5570.213894 kJ/mol
# Density = 1.876020 g / cm^3
# Si number density = 18.803001 Si / 1000 Ang^3
#
#
#
# Elastic Constant Matrix: (Units=GPa)
#
#
# Indices 1 2 3 4 5 6 
#
# 1 79.7597 19.7946 10.8984 0.0000 0.0000 0.0000
# 2 19.7946 67.9438 7.4599 0.0000 0.0000 0.0000
# 3 10.8984 7.4599 69.1918 0.0000 0.0000 0.0000
# 4 0.0000 0.0000 0.0000 21.4251 0.0000 0.0000
# 5 0.0000 0.0000 0.0000 0.0000 3.0324 0.0000
# 6 0.0000 0.0000 0.0000 0.0000 0.0000 40.4481
#
#
#
# Elastic Compliance Matrix: (Units=1/GPa)
#
#
# Indices 1 2 3 4 5 6 
#
# 1 0.013721 -0.003805 -0.001751 0.000000 0.000000 0.000000
# 2 -0.003805 0.015950 -0.001120 0.000000 0.000000 0.000000
# 3 -0.001751 -0.001120 0.014849 0.000000 0.000000 0.000000
# 4 0.000000 0.000000 0.000000 0.046674 0.000000 0.000000
# 5 0.000000 0.000000 0.000000 0.000000 0.329767 0.000000
# 6 0.000000 0.000000 0.000000 0.000000 0.000000 0.024723
#
#
# Mechanical properties :
#
#
# Convention : Reuss Voigt Hill
#
# Bulk Modulus (GPa) = 32.08508 32.57789 32.33149
# Shear Modulus (GPa) = 10.65130 24.89731 17.77430
#
# Velocity S-wave (km/s) = 2.38264 3.64278 3.07789
# Velocity P-wave (km/s) = 4.96691 5.92087 5.46474
#
# Compressibility (1/GPa) = 0.03116713
#
# Stress axis : x y z
#
# Youngs Moduli (GPa) = 72.87946 62.69728 67.34388
#
# Poissons Ratio (x) = 0.23858 0.11792
# Poissons Ratio (y) = 0.27733 0.07544
# Poissons Ratio (z) = 0.12761 0.07024
#
# Static dielectric constant tensor:
#      x y z
#    x 1.669010 0.000000 0.000000 
#    y 0.000000 1.646410 0.000000 
#    z 0.000000 0.000000 1.683050 
# 
# From -- ./inp_files/4266.got.cif
#   From: 2010.05.17/outbox.cif.g08.bks.cpg/sg59_3_cif.got.tgz:4266.got - 2010.06.03 14:40:33.
