data_PCOD9451208
_publ_section_title
;
Structure prediction by ZEFSAII (Michael W. Deem and Ramdas Pophale) SiO2 
 PCOD9451208
Probable space group: P M M N
;
_chemical_formula_sum "Si O2"
_cell_formula_units_Z 40
_cell_length_a 14.739079
_cell_length_b 8.518894
_cell_length_c 17.686147
_cell_angle_alpha 90.000000
_cell_angle_beta 90.000000
_cell_angle_gamma 90.000000
_cell_volume 2220.684143
_symmetry_space_group_name_H-M "P M M N"
_symmetry_group_IT_number 59
_space_group.IT_coordinate_system_code '2'
_symmetry_cell_setting 'orthorhombic'
loop_
_space_group_symop_operation_xyz
x,y,z
1/2-x,1/2-y,z
1/2+x,-y,-z
-x,1/2+y,-z
-x,-y,-z
1/2+x,1/2+y,-z
1/2-x,y,z
x,1/2-y,z
loop_
_atom_site_type_symbol
_atom_site_label
_atom_site_fract_x
_atom_site_fract_y
_atom_site_fract_z
Si Si1 0.060094 0.061691 0.783287
Si Si2 0.250000 0.561510 0.844031
Si Si3 0.645311 0.439733 0.513258
Si Si4 0.555054 0.439823 0.927789
Si Si5 0.750000 0.441157 0.979891
Si Si6 0.991389 0.061946 0.380678
O O1 0.061962 0.250000 0.783032
O O2 0.993137 0.008303 0.850753
O O3 0.159844 0.999321 0.803454
O O4 0.026985 0.002376 0.702364
O O5 0.250000 0.750000 0.843027
O O6 0.250000 0.509157 0.932130
O O7 0.750000 0.492404 0.513395
O O8 0.645174 0.250000 0.515751
O O9 0.589892 0.487759 0.437840
O O10 0.584973 0.501663 0.582629
O O11 0.553800 0.250000 0.928945
O O12 0.658583 0.492730 0.938485
O O13 0.500000 0.500000 0.000000
O O14 0.750000 0.250000 0.980584
O O15 0.992643 0.250000 0.378931
#
# Coordination Sequence:
#
# PCOD9451208 Si02
#       6
#     8   4   8   8   4   8
#     4  11  23  37  55  85 119 149 186 236 287 338
#     4  11  21  35  59  83 110 147 190 237 287 340
#     4   9  19  38  62  85 111 148 189 231 283 340
#     4  10  20  36  57  79 109 146 189 232 281 334
#     4   9  18  35  57  79 102 143 192 233 281 336
#     4  10  21  37  59  86 117 150 188 232 281 339
#
# _framework density 18.012467000000001
#
# number of rings (size 3 to 8) (size 9 to 14) (size 15 to 20)
#    0.000    2.000    2.000    1.500    1.400    2.000 
#    1.800    0.500    0.000    0.000    0.000    0.000 
#    0.000    0.000    0.000    0.000    0.000    0.000 
#
# Total GULP energy -223324.247361 kJ/mol
# GULP energy per Si atom -5583.106184 kJ/mol
# Density = 1.797147 g / cm^3
# Si number density = 18.012467 Si / 1000 Ang^3
#
#
#
# Elastic Constant Matrix: (Units=GPa)
#
#
# Indices 1 2 3 4 5 6 
#
# 1 197.5129 30.6456 107.1950 0.0000 0.0000 0.0000
# 2 30.6456 21.5659 31.0912 0.0000 0.0000 0.0000
# 3 107.1950 31.0912 180.8595 0.0000 0.0000 0.0000
# 4 0.0000 0.0000 0.0000 28.8919 0.0000 0.0000
# 5 0.0000 0.0000 0.0000 0.0000 14.3693 0.0000
# 6 0.0000 0.0000 0.0000 0.0000 0.0000 22.4346
#
#
#
# Elastic Compliance Matrix: (Units=1/GPa)
#
#
# Indices 1 2 3 4 5 6 
#
# 1 0.008014 -0.006037 -0.003712 0.000000 0.000000 0.000000
# 2 -0.006037 0.066195 -0.007802 0.000000 0.000000 0.000000
# 3 -0.003712 -0.007802 0.009071 0.000000 0.000000 0.000000
# 4 0.000000 0.000000 0.000000 0.034612 0.000000 0.000000
# 5 0.000000 0.000000 0.000000 0.000000 0.069593 0.000000
# 6 0.000000 0.000000 0.000000 0.000000 0.000000 0.044574
#
#
# Mechanical properties :
#
#
# Convention : Reuss Voigt Hill
#
# Bulk Modulus (GPa) = 20.75591 81.97797 51.36694
# Shear Modulus (GPa) = 17.65417 28.53961 23.09689
#
# Velocity S-wave (km/s) = 3.13406 3.98482 3.58477
# Velocity P-wave (km/s) = 4.96433 8.17204 6.76117
#
# Compressibility (1/GPa) = 0.04817904
#
# Stress axis : x y z
#
# Youngs Moduli (GPa) = 124.77596 15.10686 110.24601
#
# Poissons Ratio (x) = 0.09119 0.40927
# Poissons Ratio (y) = 0.75321 0.86010
# Poissons Ratio (z) = 0.46321 0.11786
#
# Static dielectric constant tensor:
#      x y z
#    x 1.609540 0.000000 0.000000 
#    y 0.000000 1.613650 0.000000 
#    z 0.000000 0.000000 1.588090 
# 
# From -- ./inp_files/19933.got.cif
#   From: 2010.05.17/outbox.cif.g08.bks.cpg/sg59_10_cif.got.tgz:19933.got - 2010.06.03 14:40:33.
