data_PCOD9451136
_publ_section_title
;
Structure prediction by ZEFSAII (Michael W. Deem and Ramdas Pophale) SiO2 
 PCOD9451136
Probable space group: P M M N
;
_chemical_formula_sum "Si O2"
_cell_formula_units_Z 64
_cell_length_a 29.051048
_cell_length_b 8.358888
_cell_length_c 13.374667
_cell_angle_alpha 90.000000
_cell_angle_beta 90.000000
_cell_angle_gamma 90.000000
_cell_volume 3247.829992
_symmetry_space_group_name_H-M "P M M N"
_symmetry_group_IT_number 59
_space_group.IT_coordinate_system_code '2'
_symmetry_cell_setting 'orthorhombic'
loop_
_space_group_symop_operation_xyz
x,y,z
1/2-x,1/2-y,z
1/2+x,-y,-z
-x,1/2+y,-z
-x,-y,-z
1/2+x,1/2+y,-z
1/2-x,y,z
x,1/2-y,z
loop_
_atom_site_type_symbol
_atom_site_label
_atom_site_fract_x
_atom_site_fract_y
_atom_site_fract_z
Si Si1 0.469186 0.060008 0.092513
Si Si2 0.863446 0.943905 0.919817
Si Si3 0.802983 0.443329 0.734491
Si Si4 0.956183 0.558887 0.234493
Si Si5 0.548526 0.441743 0.458761
Si Si6 0.196868 0.443709 0.664525
Si Si7 0.354659 0.556924 0.465360
Si Si8 0.860321 0.555197 0.142585
O O1 0.466887 0.250000 0.083574
O O2 0.416570 0.000801 0.092405
O O3 0.496914 0.012802 0.191739
O O4 0.500000 0.000000 0.000000
O O5 0.863231 0.750000 0.917057
O O6 0.831211 0.005000 0.831755
O O7 0.847388 0.995095 0.030831
O O8 0.750000 0.498980 0.736780
O O9 0.802354 0.250000 0.731196
O O10 0.828837 0.501079 0.634026
O O11 0.959476 0.750000 0.229553
O O12 0.945887 0.507058 0.346907
O O13 0.912834 0.507517 0.166720
O O14 0.500000 0.500000 0.500000
O O15 0.548642 0.250000 0.455818
O O16 0.592219 0.495501 0.524702
O O17 0.250000 0.493990 0.663474
O O18 0.195301 0.250000 0.663857
O O19 0.171202 0.503841 0.565858
O O20 0.171608 0.498976 0.766011
O O21 0.354284 0.750000 0.462650
O O22 0.859499 0.750000 0.143612
#
# Coordination Sequence:
#
# PCOD9451136 Si02
#       8
#     8   8   8   8   8   8   8   8
#     4  11  22  37  58  90 123 157 202 250 297 357
#     4  10  22  40  61  88 120 158 204 249 299 358
#     4  10  23  43  63  85 117 158 204 255 308 359
#     4  11  21  38  61  84 120 164 199 244 304 361
#     4  11  24  40  59  90 124 159 201 245 302 367
#     4  10  20  35  60  91 117 147 191 243 300 359
#     4  10  22  41  63  86 117 157 198 242 300 363
#     4   9  18  36  58  85 120 155 191 238 299 357
#
# _framework density 19.705463999999999
#
# number of rings (size 3 to 8) (size 9 to 14) (size 15 to 20)
#    0.000    1.750    2.500    1.500    1.750    3.500 
#    0.000    1.875    0.000    0.000    0.000    0.000 
#    0.000    0.000    0.000    0.000    0.000    0.000 
#
# Total GULP energy -357518.023431 kJ/mol
# GULP energy per Si atom -5586.219116 kJ/mol
# Density = 1.966061 g / cm^3
# Si number density = 19.705464 Si / 1000 Ang^3
#
#
#
# Elastic Constant Matrix: (Units=GPa)
#
#
# Indices 1 2 3 4 5 6 
#
# 1 166.9353 16.6328 99.2649 0.0000 0.0000 0.0000
# 2 16.6328 10.8622 10.1260 0.0000 0.0000 0.0000
# 3 99.2649 10.1260 171.5499 0.0000 0.0000 0.0000
# 4 0.0000 0.0000 0.0000 31.9163 0.0000 0.0000
# 5 0.0000 0.0000 0.0000 0.0000 27.6390 0.0000
# 6 0.0000 0.0000 0.0000 0.0000 0.0000 22.9835
#
#
#
# Elastic Compliance Matrix: (Units=1/GPa)
#
#
# Indices 1 2 3 4 5 6 
#
# 1 0.010184 -0.010689 -0.005262 0.000000 0.000000 0.000000
# 2 -0.010689 0.108643 -0.000228 0.000000 0.000000 0.000000
# 3 -0.005262 -0.000228 0.008887 0.000000 0.000000 0.000000
# 4 0.000000 0.000000 0.000000 0.031332 0.000000 0.000000
# 5 0.000000 0.000000 0.000000 0.000000 0.036181 0.000000
# 6 0.000000 0.000000 0.000000 0.000000 0.000000 0.043509
#
#
# Mechanical properties :
#
#
# Convention : Reuss Voigt Hill
#
# Bulk Modulus (GPa) = 10.48695 66.82164 38.65430
# Shear Modulus (GPa) = 16.50815 31.39600 23.95208
#
# Velocity S-wave (km/s) = 2.89752 3.99590 3.49019
# Velocity P-wave (km/s) = 4.06541 7.43461 5.99170
#
# Compressibility (1/GPa) = 0.09535658
#
# Stress axis : x y z
#
# Youngs Moduli (GPa) = 98.18946 9.20447 112.51800
#
# Poissons Ratio (x) = 0.09839 0.59208
# Poissons Ratio (y) = 1.04959 0.02560
# Poissons Ratio (z) = 0.51668 0.00209
#
# Static dielectric constant tensor:
#      x y z
#    x 1.688930 0.000000 0.000000 
#    y 0.000000 1.686160 0.000000 
#    z 0.000000 0.000000 1.676350 
# 
# From -- ./inp_files/19255.got.cif
#   From: 2010.05.17/outbox.cif.g08.bks.cpg/sg59_10_cif.got.tgz:19255.got - 2010.06.03 14:40:33.
