data_PCOD9451028
_publ_section_title
;
Structure prediction by ZEFSAII (Michael W. Deem and Ramdas Pophale) SiO2 
 PCOD9451028
Probable space group: P M M N
;
_chemical_formula_sum "Si O2"
_cell_formula_units_Z 64
_cell_length_a 18.876424
_cell_length_b 8.940471
_cell_length_c 21.589276
_cell_angle_alpha 90.000000
_cell_angle_beta 90.000000
_cell_angle_gamma 90.000000
_cell_volume 3643.495195
_symmetry_space_group_name_H-M "P M M N"
_symmetry_group_IT_number 59
_space_group.IT_coordinate_system_code '2'
_symmetry_cell_setting 'orthorhombic'
loop_
_space_group_symop_operation_xyz
x,y,z
1/2-x,1/2-y,z
1/2+x,-y,-z
-x,1/2+y,-z
-x,-y,-z
1/2+x,1/2+y,-z
1/2-x,y,z
x,1/2-y,z
loop_
_atom_site_type_symbol
_atom_site_label
_atom_site_fract_x
_atom_site_fract_y
_atom_site_fract_z
Si Si1 0.077199 0.571505 0.504788
Si Si2 0.167221 0.930247 0.625762
Si Si3 0.035353 0.429426 0.939747
Si Si4 0.330386 0.430134 0.254272
Si Si5 0.333987 0.426319 0.396823
Si Si6 0.388560 0.070248 0.752661
Si Si7 0.462524 0.928238 0.190534
Si Si8 0.668473 0.428626 0.121869
O O1 0.070975 0.750000 0.505852
O O2 0.119388 0.525359 0.567019
O O3 0.122215 0.519733 0.445756
O O4 0.000000 0.500000 0.500000
O O5 0.250000 0.967151 0.615219
O O6 0.162422 0.750000 0.632838
O O7 0.139722 0.007249 0.688198
O O8 0.040112 0.250000 0.944929
O O9 0.112366 0.497523 0.924707
O O10 0.988356 0.464774 0.878797
O O11 0.000000 0.500000 0.000000
O O12 0.250000 0.479809 0.239587
O O13 0.330671 0.250000 0.252222
O O14 0.346587 0.472402 0.325621
O O15 0.390769 0.493096 0.210470
O O16 0.250000 0.441681 0.408189
O O17 0.351766 0.250000 0.402691
O O18 0.381541 0.250000 0.755286
O O19 0.471311 0.032276 0.764724
O O20 0.346909 0.998246 0.810446
O O21 0.452949 0.750000 0.194080
O O22 0.750000 0.457087 0.104807
O O23 0.657306 0.250000 0.124433
#
# Coordination Sequence:
#
# PCOD9451028 Si02
#       8
#     8   8   8   8   8   8   8   8
#     4  11  24  39  55  77 106 141 184 231 279 333
#     4  10  22  39  56  76 105 141 181 224 273 332
#     4  10  21  38  59  84 115 151 191 232 276 326
#     4   9  19  35  56  82 109 139 180 227 273 325
#     4   9  19  37  58  79 105 138 178 226 279 332
#     4  10  21  35  54  83 115 144 180 226 276 329
#     4   9  20  36  54  81 113 143 178 222 269 320
#     4  10  20  35  57  85 116 150 189 230 274 327
#
# _framework density 17.565550999999999
#
# number of rings (size 3 to 8) (size 9 to 14) (size 15 to 20)
#    0.000    2.250    0.000    3.750    1.750    8.250 
#    0.000    1.875    0.000    0.750    0.000    0.000 
#    0.000    0.000    0.000    0.000    0.000    0.000 
#
# Total GULP energy -357284.001888 kJ/mol
# GULP energy per Si atom -5582.562529 kJ/mol
# Density = 1.752557 g / cm^3
# Si number density = 17.565551 Si / 1000 Ang^3
#
#
#
# Elastic Constant Matrix: (Units=GPa)
#
#
# Indices 1 2 3 4 5 6 
#
# 1 140.5416 66.2138 106.1677 0.0000 0.0000 0.0000
# 2 66.2138 52.6145 56.8170 0.0000 0.0000 0.0000
# 3 106.1677 56.8170 107.8191 0.0000 0.0000 0.0000
# 4 0.0000 0.0000 0.0000 33.8640 0.0000 0.0000
# 5 0.0000 0.0000 0.0000 0.0000 24.6090 0.0000
# 6 0.0000 0.0000 0.0000 0.0000 0.0000 34.5340
#
#
#
# Elastic Compliance Matrix: (Units=1/GPa)
#
#
# Indices 1 2 3 4 5 6 
#
# 1 0.031897 -0.014443 -0.023797 0.000000 0.000000 0.000000
# 2 -0.014443 0.050644 -0.012465 0.000000 0.000000 0.000000
# 3 -0.023797 -0.012465 0.039276 0.000000 0.000000 0.000000
# 4 0.000000 0.000000 0.000000 0.029530 0.000000 0.000000
# 5 0.000000 0.000000 0.000000 0.000000 0.040636 0.000000
# 6 0.000000 0.000000 0.000000 0.000000 0.000000 0.028957
#
#
# Mechanical properties :
#
#
# Convention : Reuss Voigt Hill
#
# Bulk Modulus (GPa) = 49.00742 84.37468 66.69105
# Shear Modulus (GPa) = 15.19049 23.38652 19.28851
#
# Velocity S-wave (km/s) = 2.94392 3.65277 3.31733
# Velocity P-wave (km/s) = 6.28616 8.11966 7.26101
#
# Compressibility (1/GPa) = 0.02040507
#
# Stress axis : x y z
#
# Youngs Moduli (GPa) = 31.35099 19.74577 25.46055
#
# Poissons Ratio (x) = 0.28519 0.60589
# Poissons Ratio (y) = 0.45281 0.31738
# Poissons Ratio (z) = 0.74607 0.24614
#
# Static dielectric constant tensor:
#      x y z
#    x 1.581300 0.000000 0.000000 
#    y 0.000000 1.585440 0.000000 
#    z 0.000000 0.000000 1.571270 
# 
# From -- ./inp_files/29463.got.cif
#   From: 2010.05.17/outbox.cif.g08.bks.cpg/sg59_15_cif.got.tgz:29463.got - 2010.06.03 14:40:33.
