data_PCOD9451121
_publ_section_title
;
Structure prediction by ZEFSAII (Michael W. Deem and Ramdas Pophale) SiO2 
 PCOD9451121
Probable space group: P M M N
;
_chemical_formula_sum "Si O2"
_cell_formula_units_Z 64
_cell_length_a 19.058946
_cell_length_b 8.395187
_cell_length_c 20.339561
_cell_angle_alpha 90.000000
_cell_angle_beta 90.000000
_cell_angle_gamma 90.000000
_cell_volume 3254.399234
_symmetry_space_group_name_H-M "P M M N"
_symmetry_group_IT_number 59
_space_group.IT_coordinate_system_code '2'
_symmetry_cell_setting 'orthorhombic'
loop_
_space_group_symop_operation_xyz
x,y,z
1/2-x,1/2-y,z
1/2+x,-y,-z
-x,1/2+y,-z
-x,-y,-z
1/2+x,1/2+y,-z
1/2-x,y,z
x,1/2-y,z
loop_
_atom_site_type_symbol
_atom_site_label
_atom_site_fract_x
_atom_site_fract_y
_atom_site_fract_z
Si Si1 0.426679 0.558654 0.531223
Si Si2 0.670074 0.055644 0.588160
Si Si3 0.582054 0.559099 0.320410
Si Si4 0.437506 0.557298 0.911537
Si Si5 0.329783 0.941970 0.798539
Si Si6 0.327994 0.061461 0.178151
Si Si7 0.408616 0.939236 0.061143
Si Si8 0.926135 0.058957 0.708984
O O1 0.500000 0.500000 0.500000
O O2 0.428805 0.750000 0.534543
O O3 0.365312 0.510679 0.480691
O O4 0.414030 0.491138 0.603674
O O5 0.750000 0.000548 0.595392
O O6 0.670953 0.250000 0.590461
O O7 0.619907 0.000189 0.647206
O O8 0.584105 0.750000 0.316530
O O9 0.641275 0.490980 0.272641
O O10 0.505850 0.500244 0.294650
O O11 0.443729 0.750000 0.908354
O O12 0.385063 0.502642 0.854223
O O13 0.515500 0.486091 0.909082
O O14 0.409075 0.515829 0.984297
O O15 0.250000 0.998687 0.809296
O O16 0.328820 0.750000 0.802269
O O17 0.250000 0.999797 0.193403
O O18 0.328795 0.250000 0.188323
O O19 0.349413 0.023114 0.103833
O O20 0.385474 0.985571 0.225477
O O21 0.399854 0.750000 0.065874
O O22 0.929374 0.250000 0.703892
#
# Coordination Sequence:
#
# PCOD9451121 Si02
#       8
#     8   8   8   8   8   8   8   8
#     4  11  21  37  60  87 117 152 192 236 286 343
#     4   9  18  34  57  84 112 143 183 231 281 335
#     4  11  23  39  60  88 116 147 192 239 287 345
#     4   9  19  37  61  87 115 148 190 243 293 341
#     4  10  22  40  60  84 115 154 198 241 291 348
#     4  11  24  38  52  78 117 154 189 233 284 339
#     4  10  20  35  59  88 115 148 192 239 290 351
#     4  10  20  37  60  83 109 145 191 238 282 342
#
# _framework density 19.665687999999999
#
# number of rings (size 3 to 8) (size 9 to 14) (size 15 to 20)
#    0.000    1.875    1.250    2.625    0.000    6.750 
#    0.000    2.500    0.000    1.875    0.000    0.000 
#    0.000    0.000    0.000    0.000    0.000    0.000 
#
# Total GULP energy -357522.468600 kJ/mol
# GULP energy per Si atom -5586.288572 kJ/mol
# Density = 1.962093 g / cm^3
# Si number density = 19.665688 Si / 1000 Ang^3
#
#
#
# Elastic Constant Matrix: (Units=GPa)
#
#
# Indices 1 2 3 4 5 6 
#
# 1 61.9071 6.5452 22.6507 0.0000 0.0000 0.0000
# 2 6.5452 3.8668 -2.1799 0.0000 0.0000 0.0000
# 3 22.6507 -2.1799 85.0375 0.0000 0.0000 0.0000
# 4 0.0000 0.0000 0.0000 27.5967 0.0000 0.0000
# 5 0.0000 0.0000 0.0000 0.0000 20.3829 0.0000
# 6 0.0000 0.0000 0.0000 0.0000 0.0000 20.8872
#
#
#
# Elastic Compliance Matrix: (Units=1/GPa)
#
#
# Indices 1 2 3 4 5 6 
#
# 1 0.023502 -0.043945 -0.007387 0.000000 0.000000 0.000000
# 2 -0.043945 0.344578 0.020538 0.000000 0.000000 0.000000
# 3 -0.007387 0.020538 0.014254 0.000000 0.000000 0.000000
# 4 0.000000 0.000000 0.000000 0.036236 0.000000 0.000000
# 5 0.000000 0.000000 0.000000 0.000000 0.049061 0.000000
# 6 0.000000 0.000000 0.000000 0.000000 0.000000 0.047876
#
#
# Mechanical properties :
#
#
# Convention : Reuss Voigt Hill
#
# Bulk Modulus (GPa) = 3.11772 22.76036 12.93904
# Shear Modulus (GPa) = 7.30984 22.02638 14.66811
#
# Velocity S-wave (km/s) = 1.93006 3.35033 2.73403
# Velocity P-wave (km/s) = 2.56040 5.15413 4.06944
#
# Compressibility (1/GPa) = 0.32074687
#
# Stress axis : x y z
#
# Youngs Moduli (GPa) = 42.54958 2.90210 70.15819
#
# Poissons Ratio (x) = 0.12753 0.51823
# Poissons Ratio (y) = 1.86986 -1.44094
# Poissons Ratio (z) = 0.31429 -0.05960
#
# Static dielectric constant tensor:
#      x y z
#    x 1.684780 0.000000 0.000000 
#    y 0.000000 1.679710 0.000000 
#    z 0.000000 0.000000 1.679350 
# 
# From -- ./inp_files/30828.got.cif
#   From: 2010.05.17/outbox.cif.g08.bks.cpg/sg59_16_cif.got.tgz:30828.got - 2010.06.03 14:40:33.
