data_PCOD9451341
_publ_section_title
;
Structure prediction by ZEFSAII (Michael W. Deem and Ramdas Pophale) SiO2 
 PCOD9451341
Probable space group: P M M N
;
_chemical_formula_sum "Si O2"
_cell_formula_units_Z 48
_cell_length_a 8.663410
_cell_length_b 16.539471
_cell_length_c 18.545189
_cell_angle_alpha 90.000000
_cell_angle_beta 90.000000
_cell_angle_gamma 90.000000
_cell_volume 2657.307093
_symmetry_space_group_name_H-M "P M M N"
_symmetry_group_IT_number 59
_space_group.IT_coordinate_system_code '2'
_symmetry_cell_setting 'orthorhombic'
loop_
_space_group_symop_operation_xyz
x,y,z
1/2-x,1/2-y,z
1/2+x,-y,-z
-x,1/2+y,-z
-x,-y,-z
1/2+x,1/2+y,-z
1/2-x,y,z
x,1/2-y,z
loop_
_atom_site_type_symbol
_atom_site_label
_atom_site_fract_x
_atom_site_fract_y
_atom_site_fract_z
Si Si1 0.936534 0.750000 0.451817
Si Si2 0.934991 0.584068 0.532009
Si Si3 0.567040 0.429724 0.309403
Si Si4 0.564952 0.508519 0.920498
Si Si5 0.563574 0.250000 0.709922
Si Si6 0.063184 0.919504 0.221777
Si Si7 0.434824 0.341271 0.175953
O O1 0.750000 0.750000 0.452417
O O2 0.986831 0.666341 0.490945
O O3 0.995106 0.750000 0.370036
O O4 0.750000 0.580858 0.527291
O O5 0.000000 0.500000 0.500000
O O6 0.987040 0.587903 0.614831
O O7 0.750000 0.432822 0.318942
O O8 0.507216 0.514105 0.275597
O O9 0.519367 0.363913 0.249762
O O10 0.750000 0.505620 0.925207
O O11 0.517023 0.442666 0.859998
O O12 0.520200 0.593945 0.884443
O O13 0.500000 0.500000 0.000000
O O14 0.750000 0.250000 0.704262
O O15 0.517794 0.169333 0.752742
O O16 0.250000 0.926538 0.225558
O O17 0.250000 0.350221 0.188057
O O18 0.466519 0.250000 0.153934
#
# Coordination Sequence:
#
# PCOD9451341 Si02
#       7
#     4   8   8   8   4   8   8
#     4  10  24  40  56  80 113 148 185 228 285 338
#     4  11  23  40  58  81 112 151 191 234 285 341
#     4  11  22  35  55  83 113 144 183 233 280 334
#     4   9  18  34  55  80 112 145 179 219 270 328
#     4  10  20  36  60  82 105 138 189 236 269 318
#     4   9  19  37  58  81 108 149 190 226 274 332
#     4   9  19  37  59  80 106 146 188 226 273 330
#
# _framework density 18.063397999999999
#
# number of rings (size 3 to 8) (size 9 to 14) (size 15 to 20)
#    0.000    2.167    0.000    4.000    1.167    7.667 
#    1.500    0.000    0.000    0.000    0.000    0.000 
#    0.000    0.000    0.000    0.000    0.000    0.000 
#
# Total GULP energy -267907.450263 kJ/mol
# GULP energy per Si atom -5581.405214 kJ/mol
# Density = 1.802229 g / cm^3
# Si number density = 18.063398 Si / 1000 Ang^3
#
#
#
# Elastic Constant Matrix: (Units=GPa)
#
#
# Indices 1 2 3 4 5 6 
#
# 1 30.6586 35.6209 33.1094 0.0000 0.0000 0.0000
# 2 35.6209 151.5133 97.5601 0.0000 0.0000 0.0000
# 3 33.1094 97.5601 172.4315 0.0000 0.0000 0.0000
# 4 0.0000 0.0000 0.0000 11.6067 0.0000 0.0000
# 5 0.0000 0.0000 0.0000 0.0000 36.3230 0.0000
# 6 0.0000 0.0000 0.0000 0.0000 0.0000 21.8501
#
#
#
# Elastic Compliance Matrix: (Units=1/GPa)
#
#
# Indices 1 2 3 4 5 6 
#
# 1 0.046860 -0.008217 -0.004349 0.000000 0.000000 0.000000
# 2 -0.008217 0.011823 -0.005112 0.000000 0.000000 0.000000
# 3 -0.004349 -0.005112 0.009527 0.000000 0.000000 0.000000
# 4 0.000000 0.000000 0.000000 0.086157 0.000000 0.000000
# 5 0.000000 0.000000 0.000000 0.000000 0.027531 0.000000
# 6 0.000000 0.000000 0.000000 0.000000 0.000000 0.045766
#
#
# Mechanical properties :
#
#
# Convention : Reuss Voigt Hill
#
# Bulk Modulus (GPa) = 30.43618 76.35380 53.39499
# Shear Modulus (GPa) = 18.25008 26.51016 22.38012
#
# Velocity S-wave (km/s) = 3.18202 3.83511 3.52373
# Velocity P-wave (km/s) = 5.51240 7.87225 6.79555
#
# Compressibility (1/GPa) = 0.03285564
#
# Stress axis : x y z
#
# Youngs Moduli (GPa) = 21.33995 84.57865 104.96807
#
# Poissons Ratio (x) = 0.69494 0.45651
# Poissons Ratio (y) = 0.17534 0.53658
# Poissons Ratio (z) = 0.09281 0.43235
#
# Static dielectric constant tensor:
#      x y z
#    x 1.617360 0.000000 0.000000 
#    y 0.000000 1.630560 0.000000 
#    z 0.000000 0.000000 1.583970 
# 
# From -- ./inp_files/25589.got.cif
#   From: 2010.05.17/outbox.cif.g08.bks.cpg/sg59_13_cif.got.tgz:25589.got - 2010.06.03 14:40:33.
