data_PCOD9451717
_publ_section_title
;
Structure prediction by ZEFSAII (Michael W. Deem and Ramdas Pophale) SiO2 
 PCOD9451717
Probable space group: P M M N
;
_chemical_formula_sum "Si O2"
_cell_formula_units_Z 64
_cell_length_a 14.735667
_cell_length_b 15.682975
_cell_length_c 12.908897
_cell_angle_alpha 90.000000
_cell_angle_beta 90.000000
_cell_angle_gamma 90.000000
_cell_volume 2983.234442
_symmetry_space_group_name_H-M "P M M N"
_symmetry_group_IT_number 59
_space_group.IT_coordinate_system_code '2'
_symmetry_cell_setting 'orthorhombic'
loop_
_space_group_symop_operation_xyz
x,y,z
1/2-x,1/2-y,z
1/2+x,-y,-z
-x,1/2+y,-z
-x,-y,-z
1/2+x,1/2+y,-z
1/2-x,y,z
x,1/2-y,z
loop_
_atom_site_type_symbol
_atom_site_label
_atom_site_fract_x
_atom_site_fract_y
_atom_site_fract_z
Si Si1 0.486719 0.645503 0.439810
Si Si2 0.527720 0.347349 0.332998
Si Si3 0.649945 0.068038 0.168082
Si Si4 0.487077 0.155874 0.884696
Si Si5 0.146496 0.854060 0.254353
Si Si6 0.853020 0.846495 0.785600
Si Si7 0.355931 0.455732 0.017958
Si Si8 0.354517 0.110378 0.706217
O O1 0.494205 0.750000 0.441474
O O2 0.459588 0.612979 0.553786
O O3 0.407027 0.622753 0.358819
O O4 0.582773 0.611175 0.396021
O O5 0.557378 0.250000 0.343961
O O6 0.575566 0.379793 0.229253
O O7 0.421843 0.352537 0.307995
O O8 0.750000 0.107588 0.175675
O O9 0.633970 0.043271 0.047957
O O10 0.650905 0.980692 0.235595
O O11 0.505563 0.250000 0.925558
O O12 0.580088 0.118428 0.838522
O O13 0.433727 0.100402 0.965730
O O14 0.417274 0.161589 0.787548
O O15 0.250000 0.884508 0.247210
O O16 0.148160 0.750000 0.250949
O O17 0.750000 0.848389 0.750215
O O18 0.867205 0.750000 0.833791
O O19 0.864855 0.926164 0.863474
O O20 0.250000 0.430890 0.992320
O O21 0.250000 0.139340 0.691957
#
# Coordination Sequence:
#
# PCOD9451717 Si02
#       8
#     8   8   8   8   8   8   8   8
#     4   9  18  30  46  71  99 131 170 205 243 293
#     4  10  21  35  51  72  98 131 173 216 251 286
#     4   9  19  34  51  73  98 126 164 207 252 298
#     4   9  15  23  41  70  99 126 158 196 242 297
#     4   8  14  25  40  60  89 125 165 204 238 279
#     4   9  18  33  53  77 103 130 162 201 247 302
#     4   9  17  30  50  75 101 128 158 197 250 307
#     4   9  17  29  46  70 100 129 157 196 248 303
#
# _framework density 21.453225
#
# number of rings (size 3 to 8) (size 9 to 14) (size 15 to 20)
#    0.000    3.000    0.000    2.625    0.000    4.500 
#    0.000    2.500    0.000    7.500    0.000    1.750 
#    0.000    0.000    0.000    0.000    0.000    1.500 
#
# Total GULP energy -356405.104387 kJ/mol
# GULP energy per Si atom -5568.829756 kJ/mol
# Density = 2.140440 g / cm^3
# Si number density = 21.453225 Si / 1000 Ang^3
#
#
#
# Elastic Constant Matrix: (Units=GPa)
#
#
# Indices 1 2 3 4 5 6 
#
# 1 113.8885 10.7555 29.8686 0.0000 0.0000 0.0000
# 2 10.7555 18.1136 4.8028 0.0000 0.0000 0.0000
# 3 29.8686 4.8028 45.2803 0.0000 0.0000 0.0000
# 4 0.0000 0.0000 0.0000 13.1754 0.0000 0.0000
# 5 0.0000 0.0000 0.0000 0.0000 16.2012 0.0000
# 6 0.0000 0.0000 0.0000 0.0000 0.0000 16.6644
#
#
#
# Elastic Compliance Matrix: (Units=1/GPa)
#
#
# Indices 1 2 3 4 5 6 
#
# 1 0.010999 -0.004741 -0.006753 0.000000 0.000000 0.000000
# 2 -0.004741 0.058848 -0.003115 0.000000 0.000000 0.000000
# 3 -0.006753 -0.003115 0.026869 0.000000 0.000000 0.000000
# 4 0.000000 0.000000 0.000000 0.075899 0.000000 0.000000
# 5 0.000000 0.000000 0.000000 0.000000 0.061724 0.000000
# 6 0.000000 0.000000 0.000000 0.000000 0.000000 0.060008
#
#
# Mechanical properties :
#
#
# Convention : Reuss Voigt Hill
#
# Bulk Modulus (GPa) = 14.81476 29.79290 22.30383
# Shear Modulus (GPa) = 14.44821 17.99856 16.22338
#
# Velocity S-wave (km/s) = 2.59795 2.89964 2.75293
# Velocity P-wave (km/s) = 3.98996 5.01279 4.53033
#
# Compressibility (1/GPa) = 0.06750025
#
# Stress axis : x y z
#
# Youngs Moduli (GPa) = 90.91595 16.99300 37.21713
#
# Poissons Ratio (x) = 0.08056 0.25131
# Poissons Ratio (y) = 0.43100 0.11592
# Poissons Ratio (z) = 0.61392 0.05293
#
# Static dielectric constant tensor:
#      x y z
#    x 1.768040 0.000000 0.000000 
#    y 0.000000 1.862300 0.000000 
#    z 0.000000 0.000000 1.787380 
# 
# From -- ./inp_files/23475.got.cif
#   From: 2010.05.17/outbox.cif.g08.bks.cpg/sg59_12_cif.got.tgz:23475.got - 2010.06.03 14:40:33.
