data_PCOD9451881
_publ_section_title
;
Structure prediction by ZEFSAII (Michael W. Deem and Ramdas Pophale) SiO2 
 PCOD9451881
Probable space group: P M M N
;
_chemical_formula_sum "Si O2"
_cell_formula_units_Z 64
_cell_length_a 23.391354
_cell_length_b 9.081956
_cell_length_c 16.565577
_cell_angle_alpha 90.000000
_cell_angle_beta 90.000000
_cell_angle_gamma 90.000000
_cell_volume 3519.178717
_symmetry_space_group_name_H-M "P M M N"
_symmetry_group_IT_number 59
_space_group.IT_coordinate_system_code '2'
_symmetry_cell_setting 'orthorhombic'
loop_
_space_group_symop_operation_xyz
x,y,z
1/2-x,1/2-y,z
1/2+x,-y,-z
-x,1/2+y,-z
-x,-y,-z
1/2+x,1/2+y,-z
1/2-x,y,z
x,1/2-y,z
loop_
_atom_site_type_symbol
_atom_site_label
_atom_site_fract_x
_atom_site_fract_y
_atom_site_fract_z
Si Si1 0.917393 0.077888 0.547756
Si Si2 0.018655 0.925661 0.083163
Si Si3 0.183692 0.429115 0.891055
Si Si4 0.317713 0.075424 0.375723
Si Si5 0.578048 0.573544 0.218492
Si Si6 0.138070 0.073597 0.068874
Si Si7 0.183499 0.586005 0.215216
Si Si8 0.976478 0.077320 0.373450
O O1 0.910854 0.250000 0.566999
O O2 0.941200 0.064441 0.456942
O O3 0.857568 0.994871 0.556618
O O4 0.964173 0.005845 0.607554
O O5 0.024237 0.750000 0.073758
O O6 0.971128 0.952465 0.151314
O O7 0.079194 0.000993 0.098445
O O8 0.000000 0.000000 0.000000
O O9 0.250000 0.477818 0.882683
O O10 0.184441 0.250000 0.890649
O O11 0.138686 0.473811 0.821434
O O12 0.157373 0.471388 0.978552
O O13 0.250000 0.047460 0.387833
O O14 0.325332 0.250000 0.371042
O O15 0.339261 0.001078 0.292480
O O16 0.580767 0.750000 0.232475
O O17 0.558430 0.492917 0.299624
O O18 0.134120 0.250000 0.069891
O O19 0.180671 0.010831 0.135098
O O20 0.250000 0.604137 0.233402
O O21 0.158037 0.750000 0.205125
O O22 0.987319 0.250000 0.358167
#
# Coordination Sequence:
#
# PCOD9451881 Si02
#       8
#     8   8   8   8   8   8   8   8
#     4  10  21  39  62  87 116 149 185 230 288 346
#     4  11  22  37  55  80 113 149 187 234 286 338
#     4   9  18  35  58  81 108 146 192 238 282 329
#     4  10  21  37  58  85 116 151 192 235 280 339
#     4  10  21  38  58  83 114 148 189 234 286 341
#     4  11  21  35  55  81 111 149 195 238 282 333
#     4  10  21  36  53  78 114 152 189 230 279 334
#     4  10  22  39  61  88 115 147 187 234 286 344
#
# _framework density 18.186062
#
# number of rings (size 3 to 8) (size 9 to 14) (size 15 to 20)
#    0.000    1.875    1.250    2.625    1.750    4.500 
#    0.000    0.625    0.000    4.125    0.000    0.000 
#    0.000    0.000    0.000    0.000    0.000    0.000 
#
# Total GULP energy -356981.852832 kJ/mol
# GULP energy per Si atom -5577.841451 kJ/mol
# Density = 1.814467 g / cm^3
# Si number density = 18.186062 Si / 1000 Ang^3
#
#
#
# Elastic Constant Matrix: (Units=GPa)
#
#
# Indices 1 2 3 4 5 6 
#
# 1 104.6641 57.7156 40.9838 0.0000 0.0000 0.0000
# 2 57.7156 81.3637 44.7118 0.0000 0.0000 0.0000
# 3 40.9838 44.7118 59.4269 0.0000 0.0000 0.0000
# 4 0.0000 0.0000 0.0000 31.4095 0.0000 0.0000
# 5 0.0000 0.0000 0.0000 0.0000 24.2207 0.0000
# 6 0.0000 0.0000 0.0000 0.0000 0.0000 29.3442
#
#
#
# Elastic Compliance Matrix: (Units=1/GPa)
#
#
# Indices 1 2 3 4 5 6 
#
# 1 0.016324 -0.009194 -0.004340 0.000000 0.000000 0.000000
# 2 -0.009194 0.026133 -0.013321 0.000000 0.000000 0.000000
# 3 -0.004340 -0.013321 0.029843 0.000000 0.000000 0.000000
# 4 0.000000 0.000000 0.000000 0.031838 0.000000 0.000000
# 5 0.000000 0.000000 0.000000 0.000000 0.041287 0.000000
# 6 0.000000 0.000000 0.000000 0.000000 0.000000 0.034078
#
#
# Mechanical properties :
#
#
# Convention : Reuss Voigt Hill
#
# Bulk Modulus (GPa) = 53.79573 59.14191 56.46882
# Shear Modulus (GPa) = 20.88467 23.79778 22.34123
#
# Velocity S-wave (km/s) = 3.39246 3.62134 3.50877
# Velocity P-wave (km/s) = 6.70746 7.07648 6.89444
#
# Compressibility (1/GPa) = 0.01858883
#
# Stress axis : x y z
#
# Youngs Moduli (GPa) = 61.25943 38.26594 33.50868
#
# Poissons Ratio (x) = 0.35184 0.14543
# Poissons Ratio (y) = 0.56325 0.44637
# Poissons Ratio (z) = 0.26587 0.50974
#
# Static dielectric constant tensor:
#      x y z
#    x 1.399900 0.000000 0.000000 
#    y 0.000000 1.620620 0.000000 
#    z 0.000000 0.000000 1.578630 
# 
# From -- ./inp_files/24711.got.cif
#   From: 2010.05.17/outbox.cif.g08.bks.cpg/sg59_13_cif.got.tgz:24711.got - 2010.06.03 14:40:33.
