data_PCOD9451755
_publ_section_title
;
Structure prediction by ZEFSAII (Michael W. Deem and Ramdas Pophale) SiO2 
 PCOD9451755
Probable space group: P M M N
;
_chemical_formula_sum "Si O2"
_cell_formula_units_Z 40
_cell_length_a 9.225383
_cell_length_b 7.644610
_cell_length_c 29.794305
_cell_angle_alpha 90.000000
_cell_angle_beta 90.000000
_cell_angle_gamma 90.000000
_cell_volume 2101.227126
_symmetry_space_group_name_H-M "P M M N"
_symmetry_group_IT_number 59
_space_group.IT_coordinate_system_code '2'
_symmetry_cell_setting 'orthorhombic'
loop_
_space_group_symop_operation_xyz
x,y,z
1/2-x,1/2-y,z
1/2+x,-y,-z
-x,1/2+y,-z
-x,-y,-z
1/2+x,1/2+y,-z
1/2-x,y,z
x,1/2-y,z
loop_
_atom_site_type_symbol
_atom_site_label
_atom_site_fract_x
_atom_site_fract_y
_atom_site_fract_z
Si Si1 0.422167 0.049409 0.266654
Si Si2 0.413189 0.460297 0.545076
Si Si3 0.422961 0.250000 0.894801
Si Si4 0.579137 0.750000 0.212050
Si Si5 0.417690 0.537968 0.367108
Si Si6 0.576962 0.543363 0.952729
O O1 0.250000 0.007754 0.265662
O O2 0.441556 0.250000 0.253044
O O3 0.506417 0.917789 0.234987
O O4 0.468723 0.027086 0.318591
O O5 0.500000 0.500000 0.500000
O O6 0.250000 0.528000 0.541754
O O7 0.407444 0.250000 0.548862
O O8 0.491735 0.523905 0.590173
O O9 0.250000 0.250000 0.905081
O O10 0.442041 0.250000 0.841359
O O11 0.499893 0.418966 0.916586
O O12 0.750000 0.750000 0.221174
O O13 0.250000 0.485163 0.372862
O O14 0.421979 0.750000 0.365642
O O15 0.750000 0.507645 0.955198
O O16 0.558649 0.750000 0.943260
O O17 0.500000 0.500000 0.000000
#
# Coordination Sequence:
#
# PCOD9451755 Si02
#       6
#     8   8   4   4   8   8
#     4  10  21  39  65  93 120 156 204 255 309 372
#     4  10  21  35  52  77 110 147 187 233 286 346
#     4  11  25  43  63  91 127 173 217 259 314 369
#     4  11  25  43  63  89 129 169 207 261 316 367
#     4   9  17  33  56  81 111 148 190 238 297 359
#     4  11  23  39  64  96 129 167 212 262 315 371
#
# _framework density 19.036494999999999
#
# number of rings (size 3 to 8) (size 9 to 14) (size 15 to 20)
#    0.000    1.800    2.000    1.800    0.000    6.800 
#    0.000    6.000    0.000    0.000    0.000    0.000 
#    0.000    0.000    0.000    0.000    0.000    0.000 
#
# Total GULP energy -223506.890605 kJ/mol
# GULP energy per Si atom -5587.672265 kJ/mol
# Density = 1.899317 g / cm^3
# Si number density = 19.036495 Si / 1000 Ang^3
#
#
#
# Elastic Constant Matrix: (Units=GPa)
#
#
# Indices 1 2 3 4 5 6 
#
# 1 138.5806 72.2731 102.1538 0.0000 0.0000 0.0000
# 2 72.2731 102.5881 70.4555 0.0000 0.0000 0.0000
# 3 102.1538 70.4555 144.7992 0.0000 0.0000 0.0000
# 4 0.0000 0.0000 0.0000 21.0900 0.0000 0.0000
# 5 0.0000 0.0000 0.0000 0.0000 39.1703 0.0000
# 6 0.0000 0.0000 0.0000 0.0000 0.0000 20.2327
#
#
#
# Elastic Compliance Matrix: (Units=1/GPa)
#
#
# Indices 1 2 3 4 5 6 
#
# 1 0.016933 -0.005595 -0.009224 0.000000 0.000000 0.000000
# 2 -0.005595 0.016488 -0.004076 0.000000 0.000000 0.000000
# 3 -0.009224 -0.004076 0.015397 0.000000 0.000000 0.000000
# 4 0.000000 0.000000 0.000000 0.047416 0.000000 0.000000
# 5 0.000000 0.000000 0.000000 0.000000 0.025530 0.000000
# 6 0.000000 0.000000 0.000000 0.000000 0.000000 0.049425
#
#
# Mechanical properties :
#
#
# Convention : Reuss Voigt Hill
#
# Bulk Modulus (GPa) = 90.66692 97.30363 93.98527
# Shear Modulus (GPa) = 23.51245 25.50430 24.50838
#
# Velocity S-wave (km/s) = 3.51825 3.66424 3.59199
# Velocity P-wave (km/s) = 8.01470 8.31429 8.16587
#
# Compressibility (1/GPa) = 0.01102938
#
# Stress axis : x y z
#
# Youngs Moduli (GPa) = 59.05635 60.64905 64.94917
#
# Poissons Ratio (x) = 0.33930 0.59908
# Poissons Ratio (y) = 0.33039 0.26473
# Poissons Ratio (z) = 0.54473 0.24720
#
# Static dielectric constant tensor:
#      x y z
#    x 1.650270 0.000000 0.000000 
#    y 0.000000 1.675760 0.000000 
#    z 0.000000 0.000000 1.626460 
# 
# From -- ./inp_files/32408.got.cif
#   From: 2010.05.17/outbox.cif.g08.bks.cpg/sg59_17_cif.got.tgz:32408.got - 2010.06.03 14:40:33.
