data_PCOD9451265
_publ_section_title
;
Structure prediction by ZEFSAII (Michael W. Deem and Ramdas Pophale) SiO2 
 PCOD9451265
Probable space group: P M M N
;
_chemical_formula_sum "Si O2"
_cell_formula_units_Z 56
_cell_length_a 7.903322
_cell_length_b 18.760277
_cell_length_c 18.115739
_cell_angle_alpha 90.000000
_cell_angle_beta 90.000000
_cell_angle_gamma 90.000000
_cell_volume 2685.993628
_symmetry_space_group_name_H-M "P M M N"
_symmetry_group_IT_number 59
_space_group.IT_coordinate_system_code '2'
_symmetry_cell_setting 'orthorhombic'
loop_
_space_group_symop_operation_xyz
x,y,z
1/2-x,1/2-y,z
1/2+x,-y,-z
-x,1/2+y,-z
-x,-y,-z
1/2+x,1/2+y,-z
1/2-x,y,z
x,1/2-y,z
loop_
_atom_site_type_symbol
_atom_site_label
_atom_site_fract_x
_atom_site_fract_y
_atom_site_fract_z
Si Si1 0.549239 0.926549 0.767063
Si Si2 0.953932 0.418499 0.516223
Si Si3 0.549003 0.169764 0.655246
Si Si4 0.544984 0.331795 0.372693
Si Si5 0.456812 0.169170 0.095653
Si Si6 0.454025 0.425280 0.961795
Si Si7 0.052993 0.083869 0.794940
O O1 0.750000 0.938068 0.774568
O O2 0.515493 0.879164 0.695485
O O3 0.487730 0.882906 0.838690
O O4 0.466038 0.003796 0.764167
O O5 0.750000 0.416392 0.517765
O O6 0.018008 0.385139 0.593256
O O7 0.011080 0.368423 0.448783
O O8 0.000000 0.500000 0.500000
O O9 0.750000 0.174583 0.642413
O O10 0.479117 0.250000 0.648086
O O11 0.524857 0.137963 0.736508
O O12 0.750000 0.331547 0.372056
O O13 0.487459 0.250000 0.366654
O O14 0.250000 0.169512 0.097075
O O15 0.513818 0.250000 0.107005
O O16 0.510358 0.136750 0.017384
O O17 0.250000 0.423300 0.958190
O O18 0.519244 0.417552 0.878302
O O19 0.500000 0.500000 0.000000
O O20 0.250000 0.102142 0.800142
#
# Coordination Sequence:
#
# PCOD9451265 Si02
#       7
#     8   8   8   8   8   8   8
#     4  11  21  35  57  83 114 152 193 236 280 341
#     4  10  21  38  60  85 113 150 195 238 286 344
#     4  10  22  41  63  86 116 156 200 244 291 347
#     4  10  21  37  57  82 115 150 184 231 289 343
#     4   9  18  33  54  80 109 144 185 230 281 336
#     4  10  20  36  58  82 111 149 191 236 284 343
#     4  11  23  37  58  87 117 152 193 239 290 345
#
# _framework density 20.848894999999999
#
# number of rings (size 3 to 8) (size 9 to 14) (size 15 to 20)
#    0.000    1.857    1.429    2.571    0.000    7.429 
#    0.000    1.429    0.000    3.857    0.000    0.000 
#    0.000    0.000    0.000    0.000    0.000    0.000 
#
# Total GULP energy -312903.973015 kJ/mol
# GULP energy per Si atom -5587.570947 kJ/mol
# Density = 2.080144 g / cm^3
# Si number density = 20.848895 Si / 1000 Ang^3
#
#
#
# Elastic Constant Matrix: (Units=GPa)
#
#
# Indices 1 2 3 4 5 6 
#
# 1 21.3207 2.8656 6.9234 0.0000 0.0000 0.0000
# 2 2.8656 110.6016 48.3634 0.0000 0.0000 0.0000
# 3 6.9234 48.3634 147.1503 0.0000 0.0000 0.0000
# 4 0.0000 0.0000 0.0000 28.6294 0.0000 0.0000
# 5 0.0000 0.0000 0.0000 0.0000 17.9992 0.0000
# 6 0.0000 0.0000 0.0000 0.0000 0.0000 8.1861
#
#
#
# Elastic Compliance Matrix: (Units=1/GPa)
#
#
# Indices 1 2 3 4 5 6 
#
# 1 0.047639 -0.000297 -0.002144 0.000000 0.000000 0.000000
# 2 -0.000297 0.010561 -0.003457 0.000000 0.000000 0.000000
# 3 -0.002144 -0.003457 0.008033 0.000000 0.000000 0.000000
# 4 0.000000 0.000000 0.000000 0.034929 0.000000 0.000000
# 5 0.000000 0.000000 0.000000 0.000000 0.055558 0.000000
# 6 0.000000 0.000000 0.000000 0.000000 0.000000 0.122158
#
#
# Mechanical properties :
#
#
# Convention : Reuss Voigt Hill
#
# Bulk Modulus (GPa) = 18.36984 43.93083 31.15033
# Shear Modulus (GPa) = 16.19072 25.69095 20.94084
#
# Velocity S-wave (km/s) = 2.78973 3.51414 3.17268
# Velocity P-wave (km/s) = 4.38256 6.13045 5.32866
#
# Compressibility (1/GPa) = 0.05443707
#
# Stress axis : x y z
#
# Youngs Moduli (GPa) = 20.99129 94.68955 124.48885
#
# Poissons Ratio (x) = 0.02811 0.26688
# Poissons Ratio (y) = 0.00623 0.43036
# Poissons Ratio (z) = 0.04500 0.32734
#
# Static dielectric constant tensor:
#      x y z
#    x 1.780500 0.000000 0.000000 
#    y 0.000000 1.713010 0.000000 
#    z 0.000000 0.000000 1.745570 
# 
# From -- ./inp_files/20911.got.cif
#   From: 2010.05.17/outbox.cif.g08.bks.cpg/sg59_11_cif.got.tgz:20911.got - 2010.06.03 14:40:33.
