data_PCOD9451958
_publ_section_title
;
Structure prediction by ZEFSAII (Michael W. Deem and Ramdas Pophale) SiO2 
 PCOD9451958
Probable space group: P M M N
;
_chemical_formula_sum "Si O2"
_cell_formula_units_Z 40
_cell_length_a 9.171198
_cell_length_b 9.234896
_cell_length_c 26.381306
_cell_angle_alpha 90.000000
_cell_angle_beta 90.000000
_cell_angle_gamma 90.000000
_cell_volume 2234.366287
_symmetry_space_group_name_H-M "P M M N"
_symmetry_group_IT_number 59
_space_group.IT_coordinate_system_code '2'
_symmetry_cell_setting 'orthorhombic'
loop_
_space_group_symop_operation_xyz
x,y,z
1/2-x,1/2-y,z
1/2+x,-y,-z
-x,1/2+y,-z
-x,-y,-z
1/2+x,1/2+y,-z
1/2-x,y,z
x,1/2-y,z
loop_
_atom_site_type_symbol
_atom_site_label
_atom_site_fract_x
_atom_site_fract_y
_atom_site_fract_z
Si Si1 0.078777 0.575930 0.046862
Si Si2 0.074680 0.419606 0.546698
Si Si3 0.923157 0.421971 0.349627
Si Si4 0.421040 0.076035 0.848311
Si Si5 0.578915 0.575981 0.754837
O O1 0.250000 0.539356 0.048026
O O2 0.065629 0.750000 0.041700
O O3 0.002358 0.534402 0.099733
O O4 0.000000 0.500000 0.000000
O O5 0.250000 0.433977 0.542270
O O6 0.038116 0.250000 0.546300
O O7 0.032360 0.491842 0.600173
O O8 0.000000 0.500000 0.500000
O O9 0.750000 0.445001 0.341168
O O10 0.945231 0.250000 0.358105
O O11 0.010189 0.465239 0.299368
O O12 0.250000 0.039824 0.851481
O O13 0.433897 0.250000 0.842945
O O14 0.494659 0.000111 0.800463
O O15 0.750000 0.540411 0.756575
O O16 0.563451 0.750000 0.759557
#
# Coordination Sequence:
#
# PCOD9451958 Si02
#       5
#     8   8   8   8   8
#     4  10  21  37  57  81 109 142 180 222 269 320
#     4  10  21  36  55  80 109 141 178 220 266 317
#     4   9  18  34  54  75 104 142 180 219 263 312
#     4  10  21  37  57  80 107 141 180 222 268 317
#     4  10  21  36  55  81 111 142 177 218 265 317
#
# _framework density 17.902166999999999
#
# number of rings (size 3 to 8) (size 9 to 14) (size 15 to 20)
#    0.000    2.200    0.000    2.400    0.000    7.200 
#    0.000    4.000    0.000    0.000    0.000    0.000 
#    0.000    0.000    0.000    0.000    0.000    0.000 
#
# Total GULP energy -223390.723785 kJ/mol
# GULP energy per Si atom -5584.768095 kJ/mol
# Density = 1.786142 g / cm^3
# Si number density = 17.902167 Si / 1000 Ang^3
#
#
#
# Elastic Constant Matrix: (Units=GPa)
#
#
# Indices 1 2 3 4 5 6 
#
# 1 126.3191 64.6136 119.6663 0.0000 0.0000 0.0000
# 2 64.6136 50.3731 84.9557 0.0000 0.0000 0.0000
# 3 119.6663 84.9557 223.2543 0.0000 0.0000 0.0000
# 4 0.0000 0.0000 0.0000 42.3906 0.0000 0.0000
# 5 0.0000 0.0000 0.0000 0.0000 42.5969 0.0000
# 6 0.0000 0.0000 0.0000 0.0000 0.0000 27.6963
#
#
#
# Elastic Compliance Matrix: (Units=1/GPa)
#
#
# Indices 1 2 3 4 5 6 
#
# 1 0.023804 -0.025166 -0.003183 0.000000 0.000000 0.000000
# 2 -0.025166 0.082023 -0.017723 0.000000 0.000000 0.000000
# 3 -0.003183 -0.017723 0.012930 0.000000 0.000000 0.000000
# 4 0.000000 0.000000 0.000000 0.023590 0.000000 0.000000
# 5 0.000000 0.000000 0.000000 0.000000 0.023476 0.000000
# 6 0.000000 0.000000 0.000000 0.000000 0.000000 0.036106
#
#
# Mechanical properties :
#
#
# Convention : Reuss Voigt Hill
#
# Bulk Modulus (GPa) = 37.57590 104.26861 70.92226
# Shear Modulus (GPa) = 16.50473 31.25081 23.87777
#
# Velocity S-wave (km/s) = 3.03964 4.18262 3.65607
# Velocity P-wave (km/s) = 5.77532 9.03857 7.58453
#
# Compressibility (1/GPa) = 0.02661280
#
# Stress axis : x y z
#
# Youngs Moduli (GPa) = 42.00943 12.19173 77.34160
#
# Poissons Ratio (x) = 0.30681 0.24617
# Poissons Ratio (y) = 1.05719 1.37076
# Poissons Ratio (z) = 0.13371 0.21608
#
# Static dielectric constant tensor:
#      x y z
#    x 1.598160 0.000000 0.000000 
#    y 0.000000 1.599360 0.000000 
#    z 0.000000 0.000000 1.569980 
# 
# From -- ./inp_files/31115.got.cif
#   From: 2010.05.17/outbox.cif.g08.bks.cpg/sg59_16_cif.got.tgz:31115.got - 2010.06.03 14:40:33.
