data_PCOD9451385
_publ_section_title
;
Structure prediction by ZEFSAII (Michael W. Deem and Ramdas Pophale) SiO2 
 PCOD9451385
Probable space group: P M M N
;
_chemical_formula_sum "Si O2"
_cell_formula_units_Z 56
_cell_length_a 19.475964
_cell_length_b 13.607289
_cell_length_c 8.767130
_cell_angle_alpha 90.000000
_cell_angle_beta 90.000000
_cell_angle_gamma 90.000000
_cell_volume 2323.421577
_symmetry_space_group_name_H-M "P M M N"
_symmetry_group_IT_number 59
_space_group.IT_coordinate_system_code '2'
_symmetry_cell_setting 'orthorhombic'
loop_
_space_group_symop_operation_xyz
x,y,z
1/2-x,1/2-y,z
1/2+x,-y,-z
-x,1/2+y,-z
-x,-y,-z
1/2+x,1/2+y,-z
1/2-x,y,z
x,1/2-y,z
loop_
_atom_site_type_symbol
_atom_site_label
_atom_site_fract_x
_atom_site_fract_y
_atom_site_fract_z
Si Si1 0.675174 0.367288 0.501870
Si Si2 0.524328 0.364649 0.480360
Si Si3 0.329134 0.551585 0.154521
Si Si4 0.460556 0.059407 0.785388
Si Si5 0.326907 0.133216 0.639200
Si Si6 0.052661 0.859380 0.961411
Si Si7 0.618860 0.636714 0.691821
O O1 0.750000 0.404844 0.444946
O O2 0.678063 0.250000 0.486244
O O3 0.601259 0.396647 0.431656
O O4 0.670103 0.395721 0.679984
O O5 0.530351 0.250000 0.528971
O O6 0.502338 0.426422 0.628517
O O7 0.459256 0.364786 0.368052
O O8 0.250000 0.540965 0.107657
O O9 0.363925 0.444691 0.182243
O O10 0.374660 0.615581 0.040346
O O11 0.383113 0.086829 0.746981
O O12 0.463179 0.951503 0.855095
O O13 0.495725 0.132276 0.906050
O O14 0.250000 0.112494 0.687232
O O15 0.338613 0.250000 0.641822
O O16 0.338135 0.107412 0.460525
O O17 0.052624 0.750000 0.892765
O O18 0.635164 0.750000 0.734851
#
# Coordination Sequence:
#
# PCOD9451385 Si02
#       7
#     8   8   8   8   8   8   8
#     4   9  17  30  51  79 113 152 192 235 284 347
#     4   9  16  33  61  88 117 153 197 245 296 353
#     4  11  22  35  55  85 118 157 198 238 290 356
#     4  10  20  36  61  86 108 145 192 242 289 348
#     4   9  17  33  60  89 116 148 188 236 290 347
#     4  11  23  40  60  81 111 151 193 239 293 351
#     4   9  19  35  57  85 118 157 196 241 293 346
#
# _framework density 24.102384000000001
#
# number of rings (size 3 to 8) (size 9 to 14) (size 15 to 20)
#    0.000    2.286    1.429    3.000    0.000    2.857 
#    0.000    4.286    0.000    6.857    0.000    0.000 
#    0.000    0.000    0.000    7.857    0.000    0.000 
#
# Total GULP energy -313561.655952 kJ/mol
# GULP energy per Si atom -5599.315285 kJ/mol
# Density = 2.404753 g / cm^3
# Si number density = 24.102384 Si / 1000 Ang^3
#
#
#
# Elastic Constant Matrix: (Units=GPa)
#
#
# Indices 1 2 3 4 5 6 
#
# 1 171.2781 37.2264 34.2326 0.0000 0.0000 0.0000
# 2 37.2264 140.8813 25.2137 0.0000 0.0000 0.0000
# 3 34.2326 25.2137 33.7981 0.0000 0.0000 0.0000
# 4 0.0000 0.0000 0.0000 26.5028 0.0000 0.0000
# 5 0.0000 0.0000 0.0000 0.0000 25.2503 0.0000
# 6 0.0000 0.0000 0.0000 0.0000 0.0000 29.8777
#
#
#
# Elastic Compliance Matrix: (Units=1/GPa)
#
#
# Indices 1 2 3 4 5 6 
#
# 1 0.007381 -0.000707 -0.006948 0.000000 0.000000 0.000000
# 2 -0.000707 0.008260 -0.005446 0.000000 0.000000 0.000000
# 3 -0.006948 -0.005446 0.040688 0.000000 0.000000 0.000000
# 4 0.000000 0.000000 0.000000 0.037732 0.000000 0.000000
# 5 0.000000 0.000000 0.000000 0.000000 0.039603 0.000000
# 6 0.000000 0.000000 0.000000 0.000000 0.000000 0.033470
#
#
# Mechanical properties :
#
#
# Convention : Reuss Voigt Hill
#
# Bulk Modulus (GPa) = 33.19377 59.92254 46.55815
# Shear Modulus (GPa) = 24.58481 32.94517 28.76499
#
# Velocity S-wave (km/s) = 3.19723 3.70115 3.45838
# Velocity P-wave (km/s) = 5.23752 6.57117 5.94188
#
# Compressibility (1/GPa) = 0.03012613
#
# Stress axis : x y z
#
# Youngs Moduli (GPa) = 135.48626 121.07162 24.57731
#
# Poissons Ratio (x) = 0.08557 0.17077
# Poissons Ratio (y) = 0.09575 0.13385
# Poissons Ratio (z) = 0.94142 0.65934
#
# Static dielectric constant tensor:
#      x y z
#    x 1.922230 0.000000 0.000000 
#    y 0.000000 1.942710 0.000000 
#    z 0.000000 0.000000 1.962100 
# 
# From -- ./inp_files/11419.got.cif
#   From: 2010.05.17/outbox.cif.g08.bks.cpg/sg59_6_cif.got.tgz:11419.got - 2010.06.03 14:40:33.
