data_PCOD9451688
_publ_section_title
;
Structure prediction by ZEFSAII (Michael W. Deem and Ramdas Pophale) SiO2 
 PCOD9451688
Probable space group: P M M N
;
_chemical_formula_sum "Si O2"
_cell_formula_units_Z 32
_cell_length_a 18.523371
_cell_length_b 13.910402
_cell_length_c 7.294923
_cell_angle_alpha 90.000000
_cell_angle_beta 90.000000
_cell_angle_gamma 90.000000
_cell_volume 1879.664842
_symmetry_space_group_name_H-M "P M M N"
_symmetry_group_IT_number 59
_space_group.IT_coordinate_system_code '2'
_symmetry_cell_setting 'orthorhombic'
loop_
_space_group_symop_operation_xyz
x,y,z
1/2-x,1/2-y,z
1/2+x,-y,-z
-x,1/2+y,-z
-x,-y,-z
1/2+x,1/2+y,-z
1/2-x,y,z
x,1/2-y,z
loop_
_atom_site_type_symbol
_atom_site_label
_atom_site_fract_x
_atom_site_fract_y
_atom_site_fract_z
Si Si1 0.988428 0.864674 0.974470
Si Si2 0.536035 0.515033 0.302659
Si Si3 0.171560 0.362985 0.141461
Si Si4 0.666951 0.859529 0.416757
O O1 0.993746 0.750000 0.966509
O O2 0.904619 0.896040 0.938350
O O3 0.006052 0.908371 0.173166
O O4 0.033431 0.917389 0.815485
O O5 0.500000 0.500000 0.500000
O O6 0.614053 0.561684 0.336481
O O7 0.250000 0.405731 0.089151
O O8 0.174810 0.250000 0.093562
O O9 0.165814 0.367734 0.362247
O O10 0.750000 0.869364 0.357946
O O11 0.643111 0.750000 0.370217
#
# Coordination Sequence:
#
# PCOD9451688 Si02
#       4
#     8   8   8   8
#     4  10  21  34  50  76 108 144 182 216 262 317
#     4  11  21  33  52  78 108 141 176 219 263 313
#     4   8  14  27  48  74 106 138 166 204 255 308
#     4   9  17  31  53  80 108 136 167 211 268 321
#
# _framework density 17.024311000000001
#
# number of rings (size 3 to 8) (size 9 to 14) (size 15 to 20)
#    0.000    2.500    2.500    2.250    0.000    2.000 
#    0.000    2.500    0.000    0.750    0.000    0.000 
#    0.000    3.000    0.000    0.000    0.000    0.000 
#
# Total GULP energy -178270.469234 kJ/mol
# GULP energy per Si atom -5570.952164 kJ/mol
# Density = 1.698556 g / cm^3
# Si number density = 17.024311 Si / 1000 Ang^3
#
#
#
# Elastic Constant Matrix: (Units=GPa)
#
#
# Indices 1 2 3 4 5 6 
#
# 1 77.1755 45.5395 31.8031 0.0000 0.0000 0.0000
# 2 45.5395 102.6070 48.4441 0.0000 0.0000 0.0000
# 3 31.8031 48.4441 115.7152 0.0000 0.0000 0.0000
# 4 0.0000 0.0000 0.0000 18.6828 0.0000 0.0000
# 5 0.0000 0.0000 0.0000 0.0000 11.3384 0.0000
# 6 0.0000 0.0000 0.0000 0.0000 0.0000 32.9640
#
#
#
# Elastic Compliance Matrix: (Units=1/GPa)
#
#
# Indices 1 2 3 4 5 6 
#
# 1 0.017915 -0.007012 -0.001988 0.000000 0.000000 0.000000
# 2 -0.007012 0.014892 -0.004307 0.000000 0.000000 0.000000
# 3 -0.001988 -0.004307 0.010991 0.000000 0.000000 0.000000
# 4 0.000000 0.000000 0.000000 0.053525 0.000000 0.000000
# 5 0.000000 0.000000 0.000000 0.000000 0.088196 0.000000
# 6 0.000000 0.000000 0.000000 0.000000 0.000000 0.030336
#
#
# Mechanical properties :
#
#
# Convention : Reuss Voigt Hill
#
# Bulk Modulus (GPa) = 58.19741 60.78567 59.49154
# Shear Modulus (GPa) = 20.14527 23.91110 22.02818
#
# Velocity S-wave (km/s) = 3.44368 3.75177 3.60102
# Velocity P-wave (km/s) = 7.07609 7.38582 7.23261
#
# Compressibility (1/GPa) = 0.01718289
#
# Stress axis : x y z
#
# Youngs Moduli (GPa) = 55.82068 67.15144 90.97986
#
# Poissons Ratio (x) = 0.47089 0.18086
# Poissons Ratio (y) = 0.39143 0.39186
# Poissons Ratio (z) = 0.11097 0.28923
#
# Static dielectric constant tensor:
#      x y z
#    x 1.613540 0.000000 0.000000 
#    y 0.000000 1.564250 0.000000 
#    z 0.000000 0.000000 1.650990 
# 
# From -- ./inp_files/11032.got.cif
#   From: 2010.05.17/outbox.cif.g08.bks.cpg/sg59_6_cif.got.tgz:11032.got - 2010.06.03 14:40:33.
