data_PCOD9451591
_publ_section_title
;
Structure prediction by ZEFSAII (Michael W. Deem and Ramdas Pophale) SiO2 
 PCOD9451591
Probable space group: P M M N
;
_chemical_formula_sum "Si O2"
_cell_formula_units_Z 48
_cell_length_a 8.729987
_cell_length_b 15.327166
_cell_length_c 19.474018
_cell_angle_alpha 90.000000
_cell_angle_beta 90.000000
_cell_angle_gamma 90.000000
_cell_volume 2605.739672
_symmetry_space_group_name_H-M "P M M N"
_symmetry_group_IT_number 59
_space_group.IT_coordinate_system_code '2'
_symmetry_cell_setting 'orthorhombic'
loop_
_space_group_symop_operation_xyz
x,y,z
1/2-x,1/2-y,z
1/2+x,-y,-z
-x,1/2+y,-z
-x,-y,-z
1/2+x,1/2+y,-z
1/2-x,y,z
x,1/2-y,z
loop_
_atom_site_type_symbol
_atom_site_label
_atom_site_fract_x
_atom_site_fract_y
_atom_site_fract_z
Si Si1 0.066226 0.750000 0.732792
Si Si2 0.564162 0.750000 0.949788
Si Si3 0.435295 0.111882 0.162902
Si Si4 0.066146 0.750000 0.572971
Si Si5 0.435016 0.585307 0.188749
Si Si6 0.931557 0.593935 0.483018
Si Si7 0.565880 0.750000 0.107165
Si Si8 0.930892 0.353530 0.661296
O O1 0.250000 0.750000 0.736935
O O2 0.021166 0.750000 0.652984
O O3 0.001762 0.834052 0.773088
O O4 0.750000 0.750000 0.951416
O O5 0.511278 0.750000 0.027981
O O6 0.517761 0.665411 0.905245
O O7 0.250000 0.115246 0.167339
O O8 0.481360 0.010921 0.163809
O O9 0.250000 0.750000 0.568772
O O10 0.002910 0.665857 0.533493
O O11 0.250000 0.592417 0.184440
O O12 0.506267 0.663806 0.145481
O O13 0.476012 0.597863 0.268853
O O14 0.750000 0.593327 0.491103
O O15 0.000000 0.500000 0.500000
O O16 0.976015 0.618691 0.405273
O O17 0.750000 0.750000 0.108173
O O18 0.750000 0.369856 0.648272
O O19 0.948902 0.250000 0.672944
#
# Coordination Sequence:
#
# PCOD9451591 Si02
#       8
#     4   4   8   4   8   8   4   8
#     4  10  22  38  59  87 119 148 186 244 296 340
#     4   8  17  36  57  83 119 154 190 236 288 340
#     4   9  19  38  63  85 112 153 196 236 285 350
#     4  11  24  43  61  86 121 155 194 249 300 348
#     4  10  21  38  60  87 114 150 197 242 287 343
#     4  12  26  42  62  88 118 157 201 244 297 357
#     4  11  22  35  55  84 121 159 192 237 292 346
#     4  10  20  38  61  83 116 152 189 246 301 347
#
# _framework density 18.420874000000001
#
# number of rings (size 3 to 8) (size 9 to 14) (size 15 to 20)
#    0.000    1.833    1.667    2.750    2.333    3.333 
#    0.000    3.333    0.000    0.000    0.000    0.000 
#    0.000    0.000    0.000    0.000    0.000    0.000 
#
# Total GULP energy -268128.415333 kJ/mol
# GULP energy per Si atom -5586.008653 kJ/mol
# Density = 1.837895 g / cm^3
# Si number density = 18.420874 Si / 1000 Ang^3
#
#
#
# Elastic Constant Matrix: (Units=GPa)
#
#
# Indices 1 2 3 4 5 6 
#
# 1 46.0893 41.0665 41.6372 0.0000 0.0000 0.0000
# 2 41.0665 165.0432 78.8063 0.0000 0.0000 0.0000
# 3 41.6372 78.8063 151.8706 0.0000 0.0000 0.0000
# 4 0.0000 0.0000 0.0000 46.9431 0.0000 0.0000
# 5 0.0000 0.0000 0.0000 0.0000 27.3796 0.0000
# 6 0.0000 0.0000 0.0000 0.0000 0.0000 24.1008
#
#
#
# Elastic Compliance Matrix: (Units=1/GPa)
#
#
# Indices 1 2 3 4 5 6 
#
# 1 0.031622 -0.004957 -0.006097 0.000000 0.000000 0.000000
# 2 -0.004957 0.008832 -0.003224 0.000000 0.000000 0.000000
# 3 -0.006097 -0.003224 0.009929 0.000000 0.000000 0.000000
# 4 0.000000 0.000000 0.000000 0.021302 0.000000 0.000000
# 5 0.000000 0.000000 0.000000 0.000000 0.036524 0.000000
# 6 0.000000 0.000000 0.000000 0.000000 0.000000 0.041492
#
#
# Mechanical properties :
#
#
# Convention : Reuss Voigt Hill
#
# Bulk Modulus (GPa) = 45.81550 76.22478 61.02014
# Shear Modulus (GPa) = 26.94937 33.11758 30.03347
#
# Velocity S-wave (km/s) = 3.82904 4.24468 4.04221
# Velocity P-wave (km/s) = 6.66890 8.09274 7.41508
#
# Compressibility (1/GPa) = 0.02182668
#
# Stress axis : x y z
#
# Youngs Moduli (GPa) = 31.62346 113.22796 100.71386
#
# Poissons Ratio (x) = 0.56125 0.61410
# Poissons Ratio (y) = 0.15675 0.32469
# Poissons Ratio (z) = 0.19282 0.36503
#
# Static dielectric constant tensor:
#      x y z
#    x 1.634010 0.000000 0.000000 
#    y 0.000000 1.610550 0.000000 
#    z 0.000000 0.000000 1.618790 
# 
# From -- ./inp_files/25663.got.cif
#   From: 2010.05.17/outbox.cif.g08.bks.cpg/sg59_13_cif.got.tgz:25663.got - 2010.06.03 14:40:33.
