data_PCOD9451897
_publ_section_title
;
Structure prediction by ZEFSAII (Michael W. Deem and Ramdas Pophale) SiO2 
 PCOD9451897
Probable space group: P M M N
;
_chemical_formula_sum "Si O2"
_cell_formula_units_Z 64
_cell_length_a 20.447501
_cell_length_b 8.591865
_cell_length_c 20.802522
_cell_angle_alpha 90.000000
_cell_angle_beta 90.000000
_cell_angle_gamma 90.000000
_cell_volume 3654.632169
_symmetry_space_group_name_H-M "P M M N"
_symmetry_group_IT_number 59
_space_group.IT_coordinate_system_code '2'
_symmetry_cell_setting 'orthorhombic'
loop_
_space_group_symop_operation_xyz
x,y,z
1/2-x,1/2-y,z
1/2+x,-y,-z
-x,1/2+y,-z
-x,-y,-z
1/2+x,1/2+y,-z
1/2-x,y,z
x,1/2-y,z
loop_
_atom_site_type_symbol
_atom_site_label
_atom_site_fract_x
_atom_site_fract_y
_atom_site_fract_z
Si Si1 0.174514 0.063682 0.821895
Si Si2 0.926834 0.061965 0.427121
Si Si3 0.428559 0.561786 0.426173
Si Si4 0.175517 0.560263 0.321049
Si Si5 0.174297 0.562162 0.174190
Si Si6 0.674736 0.061890 0.318770
Si Si7 0.574483 0.563794 0.930550
Si Si8 0.576049 0.063759 0.071758
O O1 0.250000 0.013638 0.834043
O O2 0.173056 0.250000 0.821301
O O3 0.156017 0.001749 0.751237
O O4 0.125616 0.002530 0.875903
O O5 0.928392 0.250000 0.425867
O O6 0.911313 0.014567 0.500642
O O7 0.873786 0.009302 0.375031
O O8 0.998993 0.999667 0.411879
O O9 0.429911 0.750000 0.424596
O O10 0.376148 0.506665 0.373879
O O11 0.250000 0.511364 0.335243
O O12 0.175346 0.750000 0.321897
O O13 0.159381 0.514390 0.247816
O O14 0.250000 0.519124 0.160825
O O15 0.170437 0.750000 0.171238
O O16 0.124279 0.491731 0.123677
O O17 0.750000 0.015069 0.331374
O O18 0.672882 0.250000 0.316421
O O19 0.575649 0.750000 0.935162
O O20 0.499461 0.515255 0.915636
O O21 0.592263 0.494155 0.000045
O O22 0.578872 0.250000 0.073280
#
# Coordination Sequence:
#
# PCOD9451897 Si02
#       8
#     8   8   8   8   8   8   8   8
#     4  10  21  36  54  77 103 131 166 208 251 296
#     4   9  18  31  47  70 100 130 162 203 248 295
#     4   9  17  30  49  72  97 128 165 204 248 294
#     4   8  15  29  49  72  96 123 161 206 243 281
#     4   9  18  33  52  74 101 133 167 203 247 298
#     4   9  18  33  51  71  98 132 168 206 249 297
#     4  10  21  36  54  77 103 131 166 207 247 290
#     4  10  21  37  56  77 102 133 167 203 247 297
#
# _framework density 17.512022000000002
#
# number of rings (size 3 to 8) (size 9 to 14) (size 15 to 20)
#    0.000    2.750    0.000    1.875    0.000    5.000 
#    0.000    5.625    0.000    1.125    0.000    3.500 
#    0.000    0.000    0.000    0.000    0.000    0.000 
#
# Total GULP energy -356907.485752 kJ/mol
# GULP energy per Si atom -5576.679465 kJ/mol
# Density = 1.747216 g / cm^3
# Si number density = 17.512022 Si / 1000 Ang^3
#
#
#
# Elastic Constant Matrix: (Units=GPa)
#
#
# Indices 1 2 3 4 5 6 
#
# 1 126.5271 26.5246 134.1580 0.0000 0.0000 0.0000
# 2 26.5246 14.8606 30.8053 0.0000 0.0000 0.0000
# 3 134.1580 30.8053 170.3902 0.0000 0.0000 0.0000
# 4 0.0000 0.0000 0.0000 21.0284 0.0000 0.0000
# 5 0.0000 0.0000 0.0000 0.0000 44.3077 0.0000
# 6 0.0000 0.0000 0.0000 0.0000 0.0000 27.7626
#
#
#
# Elastic Compliance Matrix: (Units=1/GPa)
#
#
# Indices 1 2 3 4 5 6 
#
# 1 0.049159 -0.012009 -0.036534 0.000000 0.000000 0.000000
# 2 -0.012009 0.110562 -0.010533 0.000000 0.000000 0.000000
# 3 -0.036534 -0.010533 0.036539 0.000000 0.000000 0.000000
# 4 0.000000 0.000000 0.000000 0.047555 0.000000 0.000000
# 5 0.000000 0.000000 0.000000 0.000000 0.022569 0.000000
# 6 0.000000 0.000000 0.000000 0.000000 0.000000 0.036020
#
#
# Mechanical properties :
#
#
# Convention : Reuss Voigt Hill
#
# Bulk Modulus (GPa) = 12.80312 77.19486 44.99899
# Shear Modulus (GPa) = 11.19590 26.63908 18.91749
#
# Velocity S-wave (km/s) = 2.53123 3.90447 3.29029
# Velocity P-wave (km/s) = 3.98369 8.03139 6.33929
#
# Compressibility (1/GPa) = 0.07810599
#
# Stress axis : x y z
#
# Youngs Moduli (GPa) = 20.34230 9.04469 27.36824
#
# Poissons Ratio (x) = 0.10862 0.99988
# Poissons Ratio (y) = 0.24430 0.28828
# Poissons Ratio (z) = 0.74319 0.09527
#
# Static dielectric constant tensor:
#      x y z
#    x 1.582140 0.000000 0.000000 
#    y 0.000000 1.598300 0.000000 
#    z 0.000000 0.000000 1.574500 
# 
# From -- ./inp_files/28276.got.cif
#   From: 2010.05.17/outbox.cif.g08.bks.cpg/sg59_15_cif.got.tgz:28276.got - 2010.06.03 14:40:33.
