data_PCOD9451670
_publ_section_title
;
Structure prediction by ZEFSAII (Michael W. Deem and Ramdas Pophale) SiO2 
 PCOD9451670
Probable space group: P M M N
;
_chemical_formula_sum "Si O2"
_cell_formula_units_Z 58
_cell_length_a 23.090355
_cell_length_b 8.922483
_cell_length_c 14.699711
_cell_angle_alpha 90.000000
_cell_angle_beta 90.000000
_cell_angle_gamma 90.000000
_cell_volume 3028.482969
_symmetry_space_group_name_H-M "P M M N"
_symmetry_group_IT_number 59
_space_group.IT_coordinate_system_code '2'
_symmetry_cell_setting 'orthorhombic'
loop_
_space_group_symop_operation_xyz
x,y,z
1/2-x,1/2-y,z
1/2+x,-y,-z
-x,1/2+y,-z
-x,-y,-z
1/2+x,1/2+y,-z
1/2-x,y,z
x,1/2-y,z
loop_
_atom_site_type_symbol
_atom_site_label
_atom_site_fract_x
_atom_site_fract_y
_atom_site_fract_z
Si Si1 0.814064 0.430120 0.223120
Si Si2 0.437840 0.571131 0.735076
Si Si3 0.126802 0.922769 0.147776
Si Si4 0.025199 0.571113 0.408296
Si Si5 0.317772 0.077496 0.975106
Si Si6 0.005874 0.424693 0.901739
Si Si7 0.750000 0.750000 0.609370
Si Si8 0.137179 0.084732 0.333987
O O1 0.750000 0.473737 0.257994
O O2 0.814823 0.250000 0.212587
O O3 0.870430 0.469130 0.282068
O O4 0.821210 0.502315 0.123643
O O5 0.445074 0.750000 0.725807
O O6 0.482175 0.485073 0.670791
O O7 0.451913 0.519225 0.837676
O O8 0.144915 0.750000 0.153828
O O9 0.057179 0.928587 0.145289
O O10 0.148083 0.992017 0.053235
O O11 0.148394 0.013197 0.235211
O O12 0.025038 0.750000 0.413032
O O13 0.090004 0.513318 0.386808
O O14 0.000000 0.500000 0.500000
O O15 0.250000 0.075182 0.001094
O O16 0.336755 0.250000 0.969806
O O17 0.023176 0.250000 0.909098
O O18 0.000000 0.500000 0.000000
O O19 0.697818 0.878541 0.617147
O O20 0.109597 0.250000 0.318874
#
# Coordination Sequence:
#
# PCOD9451670 Si02
#       8
#     8   8   8   8   8   8   2   8
#     4   9  19  37  58  82 118 160 208 263 320 382
#     4  11  22  38  63  93 123 164 209 264 330 389
#     4  11  22  34  51  79 118 164 216 269 317 381
#     4  12  25  44  72 103 131 167 214 271 326 392
#     4  10  21  33  49  75 111 161 218 267 311 372
#     4  11  23  36  52  80 121 167 215 273 331 386
#     4   8  24  40  70  96 136 172 202 264 320 392
#     4  10  21  41  65  94 127 168 206 254 321 382
#
# _framework density 19.151502000000001
#
# number of rings (size 3 to 8) (size 9 to 14) (size 15 to 20)
#    0.414    1.103    1.379    4.138    0.966    6.897 
#    0.000    1.034    1.517    0.000    0.000    0.000 
#    0.000    0.000    0.000    0.000    0.000    0.000 
#
# Total GULP energy -323252.792659 kJ/mol
# GULP energy per Si atom -5573.324011 kJ/mol
# Density = 1.910791 g / cm^3
# Si number density = 19.151502 Si / 1000 Ang^3
#
#
#
# Elastic Constant Matrix: (Units=GPa)
#
#
# Indices 1 2 3 4 5 6 
#
# 1 139.2403 50.2540 29.3885 0.0000 0.0000 0.0000
# 2 50.2540 103.9279 20.1995 0.0000 0.0000 0.0000
# 3 29.3885 20.1995 50.4341 0.0000 0.0000 0.0000
# 4 0.0000 0.0000 0.0000 27.8483 0.0000 0.0000
# 5 0.0000 0.0000 0.0000 0.0000 10.9602 0.0000
# 6 0.0000 0.0000 0.0000 0.0000 0.0000 23.9735
#
#
#
# Elastic Compliance Matrix: (Units=1/GPa)
#
#
# Indices 1 2 3 4 5 6 
#
# 1 0.009375 -0.003765 -0.003955 0.000000 0.000000 0.000000
# 2 -0.003765 0.011946 -0.002591 0.000000 0.000000 0.000000
# 3 -0.003955 -0.002591 0.023170 0.000000 0.000000 0.000000
# 4 0.000000 0.000000 0.000000 0.035909 0.000000 0.000000
# 5 0.000000 0.000000 0.000000 0.000000 0.091240 0.000000
# 6 0.000000 0.000000 0.000000 0.000000 0.000000 0.041713
#
#
# Mechanical properties :
#
#
# Convention : Reuss Voigt Hill
#
# Bulk Modulus (GPa) = 41.89348 54.80960 48.35154
# Shear Modulus (GPa) = 20.66703 25.47373 23.07038
#
# Velocity S-wave (km/s) = 3.28858 3.65103 3.47454
# Velocity P-wave (km/s) = 6.02843 6.81575 6.43414
#
# Compressibility (1/GPa) = 0.02387006
#
# Stress axis : x y z
#
# Youngs Moduli (GPa) = 106.66229 83.70994 43.15864
#
# Poissons Ratio (x) = 0.31514 0.17071
# Poissons Ratio (y) = 0.40155 0.11182
# Poissons Ratio (z) = 0.42189 0.21688
#
# Static dielectric constant tensor:
#      x y z
#    x 1.708850 0.000000 0.000000 
#    y 0.000000 1.654060 0.000000 
#    z 0.000000 0.000000 1.653620 
# 
# From -- ./inp_files/24641.got.cif
#   From: 2010.05.17/outbox.cif.g08.bks.cpg/sg59_13_cif.got.tgz:24641.got - 2010.06.03 14:40:33.
