data_PCOD9451466
_publ_section_title
;
Structure prediction by ZEFSAII (Michael W. Deem and Ramdas Pophale) SiO2 
 PCOD9451466
Probable space group: P M M N
;
_chemical_formula_sum "Si O2"
_cell_formula_units_Z 64
_cell_length_a 19.013915
_cell_length_b 17.033911
_cell_length_c 11.521640
_cell_angle_alpha 90.000000
_cell_angle_beta 90.000000
_cell_angle_gamma 90.000000
_cell_volume 3731.644155
_symmetry_space_group_name_H-M "P M M N"
_symmetry_group_IT_number 59
_space_group.IT_coordinate_system_code '2'
_symmetry_cell_setting 'orthorhombic'
loop_
_space_group_symop_operation_xyz
x,y,z
1/2-x,1/2-y,z
1/2+x,-y,-z
-x,1/2+y,-z
-x,-y,-z
1/2+x,1/2+y,-z
1/2-x,y,z
x,1/2-y,z
loop_
_atom_site_type_symbol
_atom_site_label
_atom_site_fract_x
_atom_site_fract_y
_atom_site_fract_z
Si Si1 0.473840 0.838347 0.741431
Si Si2 0.831620 0.439239 0.617077
Si Si3 0.940145 0.438659 0.035555
Si Si4 0.828340 0.117111 0.358016
Si Si5 0.331309 0.030131 0.809136
Si Si6 0.580610 0.157058 0.801990
Si Si7 0.055738 0.435511 0.453432
Si Si8 0.925227 0.657568 0.309852
O O1 0.499952 0.750000 0.754781
O O2 0.470609 0.884234 0.862175
O O3 0.393743 0.837283 0.694189
O O4 0.518818 0.886084 0.647702
O O5 0.750000 0.457176 0.638627
O O6 0.835941 0.391885 0.495616
O O7 0.865030 0.386798 0.717906
O O8 0.878146 0.516809 0.596714
O O9 0.874566 0.486439 0.089731
O O10 0.919759 0.385434 0.926165
O O11 0.000000 0.500000 0.000000
O O12 0.750000 0.147746 0.331037
O O13 0.833014 0.030595 0.299715
O O14 0.250000 0.043704 0.839078
O O15 0.371459 0.108079 0.768791
O O16 0.595096 0.250000 0.811694
O O17 0.503265 0.147770 0.744236
O O18 0.074558 0.380162 0.561914
O O19 0.000000 0.500000 0.500000
O O20 0.909196 0.750000 0.313556
#
# Coordination Sequence:
#
# PCOD9451466 Si02
#       8
#     8   8   8   8   8   8   8   8
#     4  11  22  35  56  87 116 146 186 237 291 335
#     4  11  22  36  58  84 116 157 192 232 285 344
#     4  11  21  39  61  82 108 155 200 243 281 338
#     4   9  18  34  57  83 114 150 186 224 278 346
#     4  10  20  37  59  86 115 148 193 241 287 344
#     4  11  23  38  57  86 119 151 195 245 293 346
#     4  12  19  36  59  86 116 151 193 235 277 348
#     4  11  21  34  58  90 120 151 187 241 299 347
#
# _framework density 17.150618000000001
#
# number of rings (size 3 to 8) (size 9 to 14) (size 15 to 20)
#    0.000    1.250    5.000    2.250    0.000    2.750 
#    0.000    1.250    0.000    3.375    0.000    0.000 
#    0.000    0.000    0.000    0.000    0.000    0.000 
#
# Total GULP energy -357438.531075 kJ/mol
# GULP energy per Si atom -5584.977048 kJ/mol
# Density = 1.711158 g / cm^3
# Si number density = 17.150618 Si / 1000 Ang^3
#
#
#
# Elastic Constant Matrix: (Units=GPa)
#
#
# Indices 1 2 3 4 5 6 
#
# 1 116.9461 77.2617 68.0933 0.0000 0.0000 0.0000
# 2 77.2617 142.8156 79.0793 0.0000 0.0000 0.0000
# 3 68.0933 79.0793 138.1083 0.0000 0.0000 0.0000
# 4 0.0000 0.0000 0.0000 22.3023 0.0000 0.0000
# 5 0.0000 0.0000 0.0000 0.0000 19.7370 0.0000
# 6 0.0000 0.0000 0.0000 0.0000 0.0000 11.2948
#
#
#
# Elastic Compliance Matrix: (Units=1/GPa)
#
#
# Indices 1 2 3 4 5 6 
#
# 1 0.014629 -0.005740 -0.003926 0.000000 0.000000 0.000000
# 2 -0.005740 0.012505 -0.004330 0.000000 0.000000 0.000000
# 3 -0.003926 -0.004330 0.011656 0.000000 0.000000 0.000000
# 4 0.000000 0.000000 0.000000 0.044838 0.000000 0.000000
# 5 0.000000 0.000000 0.000000 0.000000 0.050666 0.000000
# 6 0.000000 0.000000 0.000000 0.000000 0.000000 0.088536
#
#
# Mechanical properties :
#
#
# Convention : Reuss Voigt Hill
#
# Bulk Modulus (GPa) = 92.61571 94.08207 93.34889
# Shear Modulus (GPa) = 19.65228 22.22919 20.94073
#
# Velocity S-wave (km/s) = 3.38873 3.60407 3.49806
# Velocity P-wave (km/s) = 8.33247 8.50262 8.41797
#
# Compressibility (1/GPa) = 0.01079730
#
# Stress axis : x y z
#
# Youngs Moduli (GPa) = 68.35543 79.96687 85.79481
#
# Poissons Ratio (x) = 0.45905 0.33683
# Poissons Ratio (y) = 0.39239 0.37149
# Poissons Ratio (z) = 0.26836 0.34626
#
# Static dielectric constant tensor:
#      x y z
#    x 1.575660 0.000000 0.000000 
#    y 0.000000 1.572230 0.000000 
#    z 0.000000 0.000000 1.571360 
# 
# From -- ./inp_files/17854.got.cif
#   From: 2010.05.17/outbox.cif.g08.bks.cpg/sg59_9_cif.got.tgz:17854.got - 2010.06.03 14:40:33.
