data_PCOD9451239
_publ_section_title
;
Structure prediction by ZEFSAII (Michael W. Deem and Ramdas Pophale) SiO2 
 PCOD9451239
Probable space group: P M M N
;
_chemical_formula_sum "Si O2"
_cell_formula_units_Z 64
_cell_length_a 7.751535
_cell_length_b 29.383662
_cell_length_c 13.026516
_cell_angle_alpha 90.000000
_cell_angle_beta 90.000000
_cell_angle_gamma 90.000000
_cell_volume 2967.029807
_symmetry_space_group_name_H-M "P M M N"
_symmetry_group_IT_number 59
_space_group.IT_coordinate_system_code '2'
_symmetry_cell_setting 'orthorhombic'
loop_
_space_group_symop_operation_xyz
x,y,z
1/2-x,1/2-y,z
1/2+x,-y,-z
-x,1/2+y,-z
-x,-y,-z
1/2+x,1/2+y,-z
1/2-x,y,z
x,1/2-y,z
loop_
_atom_site_type_symbol
_atom_site_label
_atom_site_fract_x
_atom_site_fract_y
_atom_site_fract_z
Si Si1 0.958674 0.302042 0.463287
Si Si2 0.550988 0.053817 0.158530
Si Si3 0.042754 0.449002 0.535480
Si Si4 0.462067 0.455238 0.765791
Si Si5 0.545849 0.612011 0.651423
Si Si6 0.949860 0.699165 0.086981
Si Si7 0.447179 0.805033 0.314670
Si Si8 0.453605 0.103933 0.955186
O O1 0.750000 0.301695 0.469618
O O2 0.016385 0.250000 0.448644
O O3 0.021100 0.320163 0.575387
O O4 0.014351 0.335474 0.373662
O O5 0.750000 0.045351 0.133888
O O6 0.535954 0.091690 0.246635
O O7 0.470368 0.072521 0.054504
O O8 0.481409 0.006377 0.204078
O O9 0.250000 0.444127 0.538047
O O10 0.979195 0.442201 0.651606
O O11 0.976128 0.415251 0.447886
O O12 0.000000 0.500000 0.500000
O O13 0.250000 0.455295 0.764057
O O14 0.522933 0.421432 0.854631
O O15 0.750000 0.603880 0.660390
O O16 0.750000 0.703332 0.056427
O O17 0.028100 0.750000 0.075262
O O18 0.956932 0.686599 0.208418
O O19 0.027322 0.654958 0.031525
O O20 0.250000 0.821116 0.303226
O O21 0.441796 0.750000 0.325001
O O22 0.250000 0.110064 0.936584
#
# Coordination Sequence:
#
# PCOD9451239 Si02
#       8
#     8   8   8   8   8   8   8   8
#     4   9  19  36  56  80 114 155 194 232 280 336
#     4  11  22  39  60  79 108 148 192 237 287 346
#     4  10  20  36  57  84 117 150 185 225 281 345
#     4   9  19  36  58  82 112 147 180 229 289 340
#     4  11  23  36  58  87 116 150 190 236 284 340
#     4   9  18  32  52  79 110 145 181 221 275 334
#     4   8  15  29  49  73 105 143 178 218 267 318
#     4  10  21  37  58  81 111 145 186 238 287 335
#
# _framework density 21.570394
#
# number of rings (size 3 to 8) (size 9 to 14) (size 15 to 20)
#    0.000    2.375    1.250    1.875    1.750    1.750 
#    0.000    3.125    0.000    2.250    0.000    0.000 
#    0.000    0.000    0.000    0.000    0.000    0.000 
#
# Total GULP energy -357217.445145 kJ/mol
# GULP energy per Si atom -5581.522580 kJ/mol
# Density = 2.152130 g / cm^3
# Si number density = 21.570394 Si / 1000 Ang^3
#
#
#
# Elastic Constant Matrix: (Units=GPa)
#
#
# Indices 1 2 3 4 5 6 
#
# 1 31.5760 -2.2987 -3.7550 0.0000 0.0000 0.0000
# 2 -2.2987 62.4424 20.8983 0.0000 0.0000 0.0000
# 3 -3.7550 20.8983 94.5281 0.0000 0.0000 0.0000
# 4 0.0000 0.0000 0.0000 19.5047 0.0000 0.0000
# 5 0.0000 0.0000 0.0000 0.0000 20.8191 0.0000
# 6 0.0000 0.0000 0.0000 0.0000 0.0000 10.5242
#
#
#
# Elastic Compliance Matrix: (Units=1/GPa)
#
#
# Indices 1 2 3 4 5 6 
#
# 1 0.031858 0.000809 0.001087 0.000000 0.000000 0.000000
# 2 0.000809 0.017315 -0.003796 0.000000 0.000000 0.000000
# 3 0.001087 -0.003796 0.011461 0.000000 0.000000 0.000000
# 4 0.000000 0.000000 0.000000 0.051270 0.000000 0.000000
# 5 0.000000 0.000000 0.000000 0.000000 0.048033 0.000000
# 6 0.000000 0.000000 0.000000 0.000000 0.000000 0.095019
#
#
# Mechanical properties :
#
#
# Convention : Reuss Voigt Hill
#
# Bulk Modulus (GPa) = 17.59519 24.24839 20.92179
# Shear Modulus (GPa) = 18.00501 21.74972 19.87736
#
# Velocity S-wave (km/s) = 2.89227 3.17884 3.03893
# Velocity P-wave (km/s) = 4.39641 4.97386 4.69402
#
# Compressibility (1/GPa) = 0.05683372
#
# Stress axis : x y z
#
# Youngs Moduli (GPa) = 31.38955 57.75360 87.25075
#
# Poissons Ratio (x) = -0.04673 -0.09481
# Poissons Ratio (y) = -0.02540 0.33119
# Poissons Ratio (z) = -0.03411 0.21922
#
# Static dielectric constant tensor:
#      x y z
#    x 1.755690 0.000000 0.000000 
#    y 0.000000 1.824490 0.000000 
#    z 0.000000 0.000000 1.764220 
# 
# From -- ./inp_files/14959.got.cif
#   From: 2010.05.17/outbox.cif.g08.bks.cpg/sg59_8_cif.got.tgz:14959.got - 2010.06.03 14:40:33.
