data_PCOD9451014
_publ_section_title
;
Structure prediction by ZEFSAII (Michael W. Deem and Ramdas Pophale) SiO2 
 PCOD9451014
Probable space group: P M M N
;
_chemical_formula_sum "Si O2"
_cell_formula_units_Z 40
_cell_length_a 8.758805
_cell_length_b 26.054248
_cell_length_c 9.407475
_cell_angle_alpha 90.000000
_cell_angle_beta 90.000000
_cell_angle_gamma 90.000000
_cell_volume 2146.824155
_symmetry_space_group_name_H-M "P M M N"
_symmetry_group_IT_number 59
_space_group.IT_coordinate_system_code '2'
_symmetry_cell_setting 'orthorhombic'
loop_
_space_group_symop_operation_xyz
x,y,z
1/2-x,1/2-y,z
1/2+x,-y,-z
-x,1/2+y,-z
-x,-y,-z
1/2+x,1/2+y,-z
1/2-x,y,z
x,1/2-y,z
loop_
_atom_site_type_symbol
_atom_site_label
_atom_site_fract_x
_atom_site_fract_y
_atom_site_fract_z
Si Si1 0.567132 0.750000 0.667325
Si Si2 0.433508 0.557924 0.649975
Si Si3 0.933342 0.750000 0.336957
Si Si4 0.565976 0.345637 0.161265
Si Si5 0.066908 0.653466 0.168117
Si Si6 0.432184 0.060067 0.661124
O O1 0.750000 0.750000 0.671594
O O2 0.518871 0.750000 0.502229
O O3 0.505129 0.799978 0.747528
O O4 0.250000 0.559828 0.627795
O O5 0.474705 0.599995 0.767214
O O6 0.514100 0.569950 0.500583
O O7 0.471972 0.499450 0.691895
O O8 0.750000 0.750000 0.331484
O O9 0.996057 0.699821 0.258024
O O10 0.750000 0.340821 0.166376
O O11 0.519449 0.342728 0.996754
O O12 0.250000 0.656820 0.174736
O O13 0.012615 0.600042 0.235459
O O14 0.250000 0.066071 0.670751
#
# Coordination Sequence:
#
# PCOD9451014 Si02
#       6
#     4   8   4   8   8   8
#     4  11  24  39  58  84 110 139 180 229 278 328
#     4   9  19  37  59  82 111 148 189 233 278 325
#     4  11  24  41  60  84 112 143 184 231 278 330
#     4  10  22  39  58  81 111 147 186 226 272 330
#     4  11  23  38  57  83 114 148 185 225 274 332
#     4  10  20  35  57  85 114 146 187 232 277 327
#
# _framework density 18.632173000000002
#
# number of rings (size 3 to 8) (size 9 to 14) (size 15 to 20)
#    0.000    1.800    0.000    3.600    0.000   11.200 
#    0.000    0.000    0.000    0.000    0.000    0.000 
#    0.000    0.000    0.000    0.000    0.000    0.000 
#
# Total GULP energy -223550.527188 kJ/mol
# GULP energy per Si atom -5588.763180 kJ/mol
# Density = 1.858977 g / cm^3
# Si number density = 18.632173 Si / 1000 Ang^3
#
#
#
# Elastic Constant Matrix: (Units=GPa)
#
#
# Indices 1 2 3 4 5 6 
#
# 1 36.6323 44.0765 55.1816 0.0000 0.0000 0.0000
# 2 44.0765 134.5269 119.6010 0.0000 0.0000 0.0000
# 3 55.1816 119.6010 189.5817 0.0000 0.0000 0.0000
# 4 0.0000 0.0000 0.0000 -100.5646 0.0000 0.0000
# 5 0.0000 0.0000 0.0000 0.0000 26.6241 0.0000
# 6 0.0000 0.0000 0.0000 0.0000 0.0000 7.3692
#
#
#
# Elastic Compliance Matrix: (Units=1/GPa)
#
#
# Indices 1 2 3 4 5 6 
#
# 1 0.052307 -0.008203 -0.010050 0.000000 0.000000 0.000000
# 2 -0.008203 0.018214 -0.009103 0.000000 0.000000 0.000000
# 3 -0.010050 -0.009103 0.013943 0.000000 0.000000 0.000000
# 4 0.000000 0.000000 0.000000 -0.009944 0.000000 0.000000
# 5 0.000000 0.000000 0.000000 0.000000 0.037560 0.000000
# 6 0.000000 0.000000 0.000000 0.000000 0.000000 0.135700
#
#
# Mechanical properties :
#
#
# Convention : Reuss Voigt Hill
#
# Bulk Modulus (GPa) = 33.61113 88.71769 61.16441
# Shear Modulus (GPa) = 16.00460 -3.85548 6.07456
#
# Velocity S-wave (km/s) = 2.93401 -1.44005 1.80758
# Velocity P-wave (km/s) = 5.43657 6.70475 6.10369
#
# Compressibility (1/GPa) = 0.02975205
#
# Stress axis : x y z
#
# Youngs Moduli (GPa) = 19.11776 54.90215 71.72094
#
# Poissons Ratio (x) = 0.45036 0.72080
# Poissons Ratio (y) = 0.15682 0.65288
# Poissons Ratio (z) = 0.19214 0.49978
#
# Static dielectric constant tensor:
#      x y z
#    x 1.627090 0.000000 0.000000 
#    y 0.000000 1.624800 0.000000 
#    z 0.000000 0.000000 1.612980 
# 
# From -- ./inp_files/5934.got.cif
#   From: 2010.05.17/outbox.cif.g08.bks.cpg/sg59_3_cif.got.tgz:5934.got - 2010.06.03 14:40:33.
