data_PCOD9451082
_publ_section_title
;
Structure prediction by ZEFSAII (Michael W. Deem and Ramdas Pophale) SiO2 
 PCOD9451082
Probable space group: P M M N
;
_chemical_formula_sum "Si O2"
_cell_formula_units_Z 64
_cell_length_a 26.158855
_cell_length_b 7.795979
_cell_length_c 14.807693
_cell_angle_alpha 90.000000
_cell_angle_beta 90.000000
_cell_angle_gamma 90.000000
_cell_volume 3019.790350
_symmetry_space_group_name_H-M "P M M N"
_symmetry_group_IT_number 59
_space_group.IT_coordinate_system_code '2'
_symmetry_cell_setting 'orthorhombic'
loop_
_space_group_symop_operation_xyz
x,y,z
1/2-x,1/2-y,z
1/2+x,-y,-z
-x,1/2+y,-z
-x,-y,-z
1/2+x,1/2+y,-z
1/2-x,y,z
x,1/2-y,z
loop_
_atom_site_type_symbol
_atom_site_label
_atom_site_fract_x
_atom_site_fract_y
_atom_site_fract_z
Si Si1 0.691240 0.043243 0.908872
Si Si2 0.905262 0.539532 0.380941
Si Si3 0.636463 0.042426 0.088833
Si Si4 0.808025 0.543922 0.707562
Si Si5 0.692840 0.955242 0.270373
Si Si6 0.397408 0.451712 0.415434
Si Si7 0.490081 0.548251 0.289827
Si Si8 0.979332 0.045571 0.098627
O O1 0.750000 0.982566 0.919078
O O2 0.692028 0.250000 0.912433
O O3 0.673372 0.992731 0.809197
O O4 0.656985 0.981842 0.991837
O O5 0.905546 0.750000 0.377954
O O6 0.852477 0.480513 0.335214
O O7 0.908713 0.480513 0.484604
O O8 0.954894 0.482283 0.324875
O O9 0.634943 0.250000 0.086889
O O10 0.579002 0.979532 0.107360
O O11 0.674401 0.989964 0.168545
O O12 0.750000 0.477182 0.699109
O O13 0.805824 0.750000 0.698432
O O14 0.847478 0.474335 0.634050
O O15 0.750000 0.023798 0.286280
O O16 0.694993 0.750000 0.282706
O O17 0.387447 0.250000 0.428768
O O18 0.444721 0.468400 0.347617
O O19 0.487847 0.750000 0.308249
O O20 0.487729 0.521327 0.182529
O O21 0.978352 0.250000 0.106283
O O22 0.000000 0.000000 0.000000
#
# Coordination Sequence:
#
# PCOD9451082 Si02
#       8
#     8   8   8   8   8   8   8   8
#     4   9  18  33  53  76 105 142 180 219 267 326
#     4   9  19  37  58  83 115 149 189 239 292 339
#     4  10  21  37  57  81 112 149 188 231 283 344
#     4   9  19  35  54  80 112 144 180 227 283 336
#     4  10  20  35  58  87 117 153 196 240 289 345
#     4  10  21  37  59  85 112 147 193 241 288 344
#     4  11  22  39  61  84 115 153 191 237 288 344
#     4  11  24  40  59  87 119 154 190 233 288 344
#
# _framework density 21.193525000000001
#
# number of rings (size 3 to 8) (size 9 to 14) (size 15 to 20)
#    0.000    2.125    1.250    1.500    1.750    2.750 
#    0.000    5.000    0.000    0.000    0.000    1.750 
#    0.000    0.000    0.000    0.000    0.000    0.000 
#
# Total GULP energy -357495.761127 kJ/mol
# GULP energy per Si atom -5585.871268 kJ/mol
# Density = 2.114529 g / cm^3
# Si number density = 21.193525 Si / 1000 Ang^3
#
#
#
# Elastic Constant Matrix: (Units=GPa)
#
#
# Indices 1 2 3 4 5 6 
#
# 1 84.9169 -8.8422 43.8500 0.0000 0.0000 0.0000
# 2 -8.8422 23.4098 -13.3376 0.0000 0.0000 0.0000
# 3 43.8500 -13.3376 136.1615 0.0000 0.0000 0.0000
# 4 0.0000 0.0000 0.0000 3.3500 0.0000 0.0000
# 5 0.0000 0.0000 0.0000 0.0000 4.9510 0.0000
# 6 0.0000 0.0000 0.0000 0.0000 0.0000 15.1952
#
#
#
# Elastic Compliance Matrix: (Units=1/GPa)
#
#
# Indices 1 2 3 4 5 6 
#
# 1 0.014314 0.002945 -0.004321 0.000000 0.000000 0.000000
# 2 0.002945 0.045848 0.003543 0.000000 0.000000 0.000000
# 3 -0.004321 0.003543 0.009083 0.000000 0.000000 0.000000
# 4 0.000000 0.000000 0.000000 0.298508 0.000000 0.000000
# 5 0.000000 0.000000 0.000000 0.000000 0.201981 0.000000
# 6 0.000000 0.000000 0.000000 0.000000 0.000000 0.065810
#
#
# Mechanical properties :
#
#
# Convention : Reuss Voigt Hill
#
# Bulk Modulus (GPa) = 13.59125 31.98097 22.78611
# Shear Modulus (GPa) = 7.62500 19.55376 13.58938
#
# Velocity S-wave (km/s) = 1.89884 3.04078 2.53495
# Velocity P-wave (km/s) = 3.35176 5.23939 4.39804
#
# Compressibility (1/GPa) = 0.07357676
#
# Stress axis : x y z
#
# Youngs Moduli (GPa) = 69.85994 21.81133 110.09656
#
# Poissons Ratio (x) = -0.06423 0.47577
# Poissons Ratio (y) = -0.20571 -0.39004
# Poissons Ratio (z) = 0.30189 -0.07727
#
# Static dielectric constant tensor:
#      x y z
#    x 1.755200 0.000000 0.000000 
#    y 0.000000 1.777810 0.000000 
#    z 0.000000 0.000000 1.711220 
# 
# From -- ./inp_files/24727.got.cif
#   From: 2010.05.17/outbox.cif.g08.bks.cpg/sg59_13_cif.got.tgz:24727.got - 2010.06.03 14:40:33.
