data_PCOD9451489
_publ_section_title
;
Structure prediction by ZEFSAII (Michael W. Deem and Ramdas Pophale) SiO2 
 PCOD9451489
Probable space group: P M M N
;
_chemical_formula_sum "Si O2"
_cell_formula_units_Z 64
_cell_length_a 25.740171
_cell_length_b 7.517384
_cell_length_c 14.891053
_cell_angle_alpha 90.000000
_cell_angle_beta 90.000000
_cell_angle_gamma 90.000000
_cell_volume 2881.400136
_symmetry_space_group_name_H-M "P M M N"
_symmetry_group_IT_number 59
_space_group.IT_coordinate_system_code '2'
_symmetry_cell_setting 'orthorhombic'
loop_
_space_group_symop_operation_xyz
x,y,z
1/2-x,1/2-y,z
1/2+x,-y,-z
-x,1/2+y,-z
-x,-y,-z
1/2+x,1/2+y,-z
1/2-x,y,z
x,1/2-y,z
loop_
_atom_site_type_symbol
_atom_site_label
_atom_site_fract_x
_atom_site_fract_y
_atom_site_fract_z
Si Si1 0.690267 0.036083 0.104198
Si Si2 0.191259 0.461425 0.695290
Si Si3 0.022333 0.963387 0.097599
Si Si4 0.597070 0.968386 0.423369
Si Si5 0.807840 0.464944 0.737490
Si Si6 0.360280 0.532545 0.079838
Si Si7 0.514934 0.547094 0.279146
Si Si8 0.089358 0.041520 0.372531
O O1 0.750000 0.972009 0.098432
O O2 0.691437 0.250000 0.099323
O O3 0.670537 0.989626 0.203464
O O4 0.658307 0.972211 0.018228
O O5 0.250000 0.535046 0.690461
O O6 0.194866 0.250000 0.682612
O O7 0.151113 0.527712 0.621274
O O8 0.024431 0.750000 0.109232
O O9 0.081543 0.028665 0.101385
O O10 0.987999 0.035228 0.179984
O O11 0.000000 0.000000 0.000000
O O12 0.596963 0.750000 0.426483
O O13 0.551469 0.029778 0.356506
O O14 0.589802 0.027158 0.525494
O O15 0.750000 0.526832 0.712878
O O16 0.807434 0.250000 0.736839
O O17 0.822671 0.520645 0.838918
O O18 0.854296 0.521090 0.672293
O O19 0.360645 0.750000 0.078282
O O20 0.533718 0.750000 0.268500
O O21 0.455816 0.547850 0.314556
O O22 0.076227 0.250000 0.373899
#
# Coordination Sequence:
#
# PCOD9451489 Si02
#       8
#     8   8   8   8   8   8   8   8
#     4   9  17  30  50  75 102 132 168 214 262 309
#     4   9  18  34  54  76 105 141 179 218 266 328
#     4  10  21  35  54  80 111 144 178 222 273 324
#     4   9  20  36  57  81 105 142 187 227 274 330
#     4  10  20  37  61  84 110 150 194 229 271 335
#     4   9  17  33  54  77 105 140 181 220 264 320
#     4  10  20  39  61  79 107 147 189 227 269 332
#     4  11  22  37  57  84 114 141 178 234 289 329
#
# _framework density 22.211424000000001
#
# number of rings (size 3 to 8) (size 9 to 14) (size 15 to 20)
#    0.000    2.375    1.250    1.125    1.750    2.750 
#    0.000    4.375    0.000    3.000    0.000    0.000 
#    0.000    0.000    0.000    0.000    0.000    0.000 
#
# Total GULP energy -357512.465036 kJ/mol
# GULP energy per Si atom -5586.132266 kJ/mol
# Density = 2.216087 g / cm^3
# Si number density = 22.211424 Si / 1000 Ang^3
#
#
#
# Elastic Constant Matrix: (Units=GPa)
#
#
# Indices 1 2 3 4 5 6 
#
# 1 67.6589 -6.9443 29.9016 0.0000 0.0000 0.0000
# 2 -6.9443 60.9295 -5.1926 0.0000 0.0000 0.0000
# 3 29.9016 -5.1926 148.4780 0.0000 0.0000 0.0000
# 4 0.0000 0.0000 0.0000 17.5671 0.0000 0.0000
# 5 0.0000 0.0000 0.0000 0.0000 22.6798 0.0000
# 6 0.0000 0.0000 0.0000 0.0000 0.0000 -25.7936
#
#
#
# Elastic Compliance Matrix: (Units=1/GPa)
#
#
# Indices 1 2 3 4 5 6 
#
# 1 0.016376 0.001590 -0.003242 0.000000 0.000000 0.000000
# 2 0.001590 0.016616 0.000261 0.000000 0.000000 0.000000
# 3 -0.003242 0.000261 0.007397 0.000000 0.000000 0.000000
# 4 0.000000 0.000000 0.000000 0.056925 0.000000 0.000000
# 5 0.000000 0.000000 0.000000 0.000000 0.044092 0.000000
# 6 0.000000 0.000000 0.000000 0.000000 0.000000 -0.038769
#
#
# Mechanical properties :
#
#
# Convention : Reuss Voigt Hill
#
# Bulk Modulus (GPa) = 26.59122 34.73288 30.66205
# Shear Modulus (GPa) = 42.38921 20.17746 31.28333
#
# Velocity S-wave (km/s) = 4.37331 3.01728 3.75698
# Velocity P-wave (km/s) = 6.12364 5.27352 5.71441
#
# Compressibility (1/GPa) = 0.03760640
#
# Stress axis : x y z
#
# Youngs Moduli (GPa) = 61.06433 60.18344 135.18826
#
# Poissons Ratio (x) = -0.09570 0.43833
# Poissons Ratio (y) = -0.09710 -0.03527
# Poissons Ratio (z) = 0.19799 -0.01570
#
# Static dielectric constant tensor:
#      x y z
#    x 1.795200 0.000000 0.000000 
#    y 0.000000 1.851670 0.000000 
#    z 0.000000 0.000000 1.797900 
# 
# From -- ./inp_files/24691.got.cif
#   From: 2010.05.17/outbox.cif.g08.bks.cpg/sg59_13_cif.got.tgz:24691.got - 2010.06.03 14:40:33.
