data_PCOD9451816
_publ_section_title
;
Structure prediction by ZEFSAII (Michael W. Deem and Ramdas Pophale) SiO2 
 PCOD9451816
Probable space group: P M M N
;
_chemical_formula_sum "Si O2"
_cell_formula_units_Z 56
_cell_length_a 16.587775
_cell_length_b 21.337649
_cell_length_c 8.816107
_cell_angle_alpha 90.000000
_cell_angle_beta 90.000000
_cell_angle_gamma 90.000000
_cell_volume 3120.409240
_symmetry_space_group_name_H-M "P M M N"
_symmetry_group_IT_number 59
_space_group.IT_coordinate_system_code '2'
_symmetry_cell_setting 'orthorhombic'
loop_
_space_group_symop_operation_xyz
x,y,z
1/2-x,1/2-y,z
1/2+x,-y,-z
-x,1/2+y,-z
-x,-y,-z
1/2+x,1/2+y,-z
1/2-x,y,z
x,1/2-y,z
loop_
_atom_site_type_symbol
_atom_site_label
_atom_site_fract_x
_atom_site_fract_y
_atom_site_fract_z
Si Si1 0.010209 0.933479 0.916382
Si Si2 0.659889 0.556175 0.388839
Si Si3 0.589752 0.626312 0.666632
Si Si4 0.435237 0.675529 0.482360
Si Si5 0.656021 0.750000 0.180466
Si Si6 0.035673 0.135093 0.786943
Si Si7 0.340303 0.250000 0.183194
Si Si8 0.841820 0.415711 0.308955
O O1 0.095277 0.921972 0.830749
O O2 0.944381 0.924472 0.784100
O O3 0.991684 0.881068 0.043746
O O4 0.000000 0.000000 0.000000
O O5 0.750000 0.570554 0.327547
O O6 0.647699 0.592828 0.546230
O O7 0.586462 0.577272 0.281517
O O8 0.653558 0.481402 0.400172
O O9 0.515738 0.655264 0.572370
O O10 0.622938 0.685656 0.756649
O O11 0.423989 0.750000 0.483425
O O12 0.457711 0.651870 0.313888
O O13 0.366681 0.638990 0.574722
O O14 0.750000 0.750000 0.234873
O O15 0.601795 0.809416 0.226608
O O16 0.658793 0.750000 0.998263
O O17 0.250000 0.250000 0.241350
O O18 0.750000 0.407849 0.255673
#
# Coordination Sequence:
#
# PCOD9451816 Si02
#       8
#     8   8   8   8   4   8   4   8
#     4  11  22  38  61  86 117 155 195 242 292 360
#     4  10  21  37  56  85 121 153 193 242 291 343
#     4  10  21  35  56  84 115 157 198 232 285 347
#     4  10  21  37  62  84 110 150 198 244 293 347
#     4  11  22  35  55  89 126 160 187 230 291 349
#     4  11  21  37  60  88 119 157 195 234 287 358
#     4  11  20  33  51  83 124 158 189 230 281 349
#     4  10  23  42  62  85 114 150 198 254 303 348
#
# _framework density 17.946363999999999
#
# number of rings (size 3 to 8) (size 9 to 14) (size 15 to 20)
#    0.000    1.571    4.286    0.857    2.000    2.000 
#    0.000    4.286    0.000    0.000    0.000    0.000 
#    0.000    0.000    0.000    0.000    0.000    0.000 
#
# Total GULP energy -312193.819693 kJ/mol
# GULP energy per Si atom -5574.889637 kJ/mol
# Density = 1.790552 g / cm^3
# Si number density = 17.946364 Si / 1000 Ang^3
#
#
#
# Elastic Constant Matrix: (Units=GPa)
#
#
# Indices 1 2 3 4 5 6 
#
# 1 84.1803 28.1105 28.5886 0.0000 0.0000 0.0000
# 2 28.1105 77.1024 15.1620 0.0000 0.0000 0.0000
# 3 28.5886 15.1620 70.4283 0.0000 0.0000 0.0000
# 4 0.0000 0.0000 0.0000 32.2930 0.0000 0.0000
# 5 0.0000 0.0000 0.0000 0.0000 16.8635 0.0000
# 6 0.0000 0.0000 0.0000 0.0000 0.0000 26.0735
#
#
#
# Elastic Compliance Matrix: (Units=1/GPa)
#
#
# Indices 1 2 3 4 5 6 
#
# 1 0.015141 -0.004502 -0.005177 0.000000 0.000000 0.000000
# 2 -0.004502 0.014882 -0.001376 0.000000 0.000000 0.000000
# 3 -0.005177 -0.001376 0.016597 0.000000 0.000000 0.000000
# 4 0.000000 0.000000 0.000000 0.030966 0.000000 0.000000
# 5 0.000000 0.000000 0.000000 0.000000 0.059300 0.000000
# 6 0.000000 0.000000 0.000000 0.000000 0.000000 0.038353
#
#
# Mechanical properties :
#
#
# Convention : Reuss Voigt Hill
#
# Bulk Modulus (GPa) = 40.80176 41.71478 41.25827
# Shear Modulus (GPa) = 24.32876 25.70267 25.01571
#
# Velocity S-wave (km/s) = 3.68589 3.78854 3.73757
# Velocity P-wave (km/s) = 6.39524 6.51398 6.45489
#
# Compressibility (1/GPa) = 0.02450875
#
# Stress axis : x y z
#
# Youngs Moduli (GPa) = 66.04691 67.19606 60.25362
#
# Poissons Ratio (x) = 0.30252 0.31192
# Poissons Ratio (y) = 0.29735 0.08293
# Poissons Ratio (z) = 0.34191 0.09248
#
# Static dielectric constant tensor:
#      x y z
#    x 1.619270 0.000000 0.000000 
#    y 0.000000 1.514650 0.000000 
#    z 0.000000 0.000000 1.613370 
# 
# From -- ./inp_files/9404.got.cif
#   From: 2010.05.17/outbox.cif.g08.bks.cpg/sg59_5_cif.got.tgz:9404.got - 2010.06.03 14:40:33.
