data_PCOD9451601
_publ_section_title
;
Structure prediction by ZEFSAII (Michael W. Deem and Ramdas Pophale) SiO2 
 PCOD9451601
Probable space group: P M M N
;
_chemical_formula_sum "Si O2"
_cell_formula_units_Z 58
_cell_length_a 7.559602
_cell_length_b 27.701556
_cell_length_c 12.585343
_cell_angle_alpha 90.000000
_cell_angle_beta 90.000000
_cell_angle_gamma 90.000000
_cell_volume 2635.531138
_symmetry_space_group_name_H-M "P M M N"
_symmetry_group_IT_number 59
_space_group.IT_coordinate_system_code '2'
_symmetry_cell_setting 'orthorhombic'
loop_
_space_group_symop_operation_xyz
x,y,z
1/2-x,1/2-y,z
1/2+x,-y,-z
-x,1/2+y,-z
-x,-y,-z
1/2+x,1/2+y,-z
1/2-x,y,z
x,1/2-y,z
loop_
_atom_site_type_symbol
_atom_site_label
_atom_site_fract_x
_atom_site_fract_y
_atom_site_fract_z
Si Si1 0.965254 0.672278 0.310376
Si Si2 0.540740 0.113839 0.073724
Si Si3 0.952925 0.845886 0.547430
Si Si4 0.960205 0.455560 0.422568
Si Si5 0.043967 0.695971 0.772487
Si Si6 0.033576 0.982189 0.816396
Si Si7 0.038756 0.089842 0.844224
Si Si8 0.750000 0.250000 0.757548
O O1 0.750000 0.680845 0.301467
O O2 0.017104 0.674167 0.434674
O O3 0.001548 0.619227 0.262283
O O4 0.092284 0.708504 0.249103
O O5 0.750000 0.112112 0.096665
O O6 0.465256 0.156928 0.145695
O O7 0.470984 0.061310 0.108883
O O8 0.517613 0.118979 0.948496
O O9 0.750000 0.831032 0.556542
O O10 0.962497 0.903999 0.544232
O O11 0.040095 0.825843 0.653954
O O12 0.750000 0.448559 0.419426
O O13 0.018571 0.469103 0.303718
O O14 0.000000 0.500000 0.500000
O O15 0.250000 0.700629 0.802005
O O16 0.967054 0.750000 0.775006
O O17 0.250000 0.983728 0.819295
O O18 0.967757 0.035374 0.845829
O O19 0.250000 0.086509 0.849112
#
# Coordination Sequence:
#
# PCOD9451601 Si02
#       8
#     8   8   8   8   8   8   8   2
#     4  10  25  45  65  99 134 169 220 280 334 393
#     4  10  20  38  61  91 126 166 217 270 318 387
#     4  11  23  40  63  90 129 166 208 266 325 388
#     4  11  21  36  59  89 128 170 212 257 321 393
#     4  10  22  40  63  90 122 162 211 269 326 385
#     4   9  18  36  60  87 125 169 206 259 328 384
#     4  10  21  40  63  89 130 170 209 268 332 390
#     4  12  26  44  76  94 126 180 230 268 338 400
#
# _framework density 22.00695
#
# number of rings (size 3 to 8) (size 9 to 14) (size 15 to 20)
#    0.000    1.793    1.379    2.276    3.862    3.034 
#    1.241    1.379    0.000    0.000    0.000    0.000 
#    0.000    0.000    0.000    0.000    0.000    0.000 
#
# Total GULP energy -323453.636108 kJ/mol
# GULP energy per Si atom -5576.786829 kJ/mol
# Density = 2.195686 g / cm^3
# Si number density = 22.006950 Si / 1000 Ang^3
#
#
#
# Elastic Constant Matrix: (Units=GPa)
#
#
# Indices 1 2 3 4 5 6 
#
# 1 60.2048 14.4961 -0.7866 0.0000 0.0000 0.0000
# 2 14.4961 104.9518 0.0028 0.0000 0.0000 0.0000
# 3 -0.7866 0.0028 61.6668 0.0000 0.0000 0.0000
# 4 0.0000 0.0000 0.0000 -4.9858 0.0000 0.0000
# 5 0.0000 0.0000 0.0000 0.0000 9.4187 0.0000
# 6 0.0000 0.0000 0.0000 0.0000 0.0000 28.9677
#
#
#
# Elastic Compliance Matrix: (Units=1/GPa)
#
#
# Indices 1 2 3 4 5 6 
#
# 1 0.017184 -0.002374 0.000219 0.000000 0.000000 0.000000
# 2 -0.002374 0.009856 -0.000031 0.000000 0.000000 0.000000
# 3 0.000219 -0.000031 0.016219 0.000000 0.000000 0.000000
# 4 0.000000 0.000000 0.000000 -0.200571 0.000000 0.000000
# 5 0.000000 0.000000 0.000000 0.000000 0.106172 0.000000
# 6 0.000000 0.000000 0.000000 0.000000 0.000000 0.034521
#
#
# Mechanical properties :
#
#
# Convention : Reuss Voigt Hill
#
# Bulk Modulus (GPa) = 25.71394 28.24980 26.98187
# Shear Modulus (GPa) = 6994.96962 20.88753 3507.92858
#
# Velocity S-wave (km/s) = 56.43959 3.08414 39.96836
# Velocity P-wave (km/s) = 65.26061 5.05443 46.28441
#
# Compressibility (1/GPa) = 0.03888941
#
# Stress axis : x y z
#
# Youngs Moduli (GPa) = 58.19253 101.46085 61.65618
#
# Poissons Ratio (x) = 0.24082 -0.01352
# Poissons Ratio (y) = 0.13812 0.00189
# Poissons Ratio (z) = -0.01276 0.00312
#
# Static dielectric constant tensor:
#      x y z
#    x 1.820770 0.000000 0.000000 
#    y 0.000000 1.833410 0.000000 
#    z 0.000000 0.000000 1.788580 
# 
# From -- ./inp_files/14644.got.cif
#   From: 2010.05.17/outbox.cif.g08.bks.cpg/sg59_8_cif.got.tgz:14644.got - 2010.06.03 14:40:33.
