data_PCOD9451538
_publ_section_title
;
Structure prediction by ZEFSAII (Michael W. Deem and Ramdas Pophale) SiO2 
 PCOD9451538
Probable space group: P M M N
;
_chemical_formula_sum "Si O2"
_cell_formula_units_Z 32
_cell_length_a 19.223146
_cell_length_b 11.435491
_cell_length_c 7.469343
_cell_angle_alpha 90.000000
_cell_angle_beta 90.000000
_cell_angle_gamma 90.000000
_cell_volume 1641.956639
_symmetry_space_group_name_H-M "P M M N"
_symmetry_group_IT_number 59
_space_group.IT_coordinate_system_code '2'
_symmetry_cell_setting 'orthorhombic'
loop_
_space_group_symop_operation_xyz
x,y,z
1/2-x,1/2-y,z
1/2+x,-y,-z
-x,1/2+y,-z
-x,-y,-z
1/2+x,1/2+y,-z
1/2-x,y,z
x,1/2-y,z
loop_
_atom_site_type_symbol
_atom_site_label
_atom_site_fract_x
_atom_site_fract_y
_atom_site_fract_z
Si Si1 0.042288 0.618063 0.301032
Si Si2 0.612953 0.383883 0.050000
Si Si3 0.391938 0.456987 0.602428
Si Si4 0.750000 0.618619 0.560700
Si Si5 0.750000 0.382985 0.805358
O O1 0.069213 0.750000 0.317433
O O2 0.085634 0.535698 0.432508
O O3 0.961683 0.615363 0.355421
O O4 0.054330 0.582559 0.095353
O O5 0.600361 0.250000 0.107361
O O6 0.618323 0.463180 0.223242
O O7 0.683090 0.388723 0.933442
O O8 0.320916 0.391532 0.554204
O O9 0.750000 0.750000 0.646741
O O10 0.750000 0.499419 0.681614
O O11 0.750000 0.250000 0.720735
#
# Coordination Sequence:
#
# PCOD9451538 Si02
#       5
#     8   8   8   4   4
#     4  10  21  38  60  90 123 158 209 264 304 361
#     4  10  20  37  62  92 120 156 211 264 308 362
#     4  11  22  38  63  86 125 166 205 246 319 374
#     4  12  25  42  62  91 131 166 206 252 315 383
#     4  10  21  40  64  91 125 162 212 266 305 359
#
# _framework density 19.488944
#
# number of rings (size 3 to 8) (size 9 to 14) (size 15 to 20)
#    0.000    1.500    2.500    3.000    0.000    1.000 
#    0.000    3.750    0.000    0.000    0.000    0.000 
#    0.000    0.000    0.000    0.000    0.000    0.000 
#
# Total GULP energy -178487.592902 kJ/mol
# GULP energy per Si atom -5577.737278 kJ/mol
# Density = 1.944459 g / cm^3
# Si number density = 19.488944 Si / 1000 Ang^3
#
#
#
# Elastic Constant Matrix: (Units=GPa)
#
#
# Indices 1 2 3 4 5 6 
#
# 1 118.0103 27.1043 7.9663 0.0000 0.0000 0.0000
# 2 27.1043 119.6310 60.2340 0.0000 0.0000 0.0000
# 3 7.9663 60.2340 54.4352 0.0000 0.0000 0.0000
# 4 0.0000 0.0000 0.0000 32.1625 0.0000 0.0000
# 5 0.0000 0.0000 0.0000 0.0000 23.5787 0.0000
# 6 0.0000 0.0000 0.0000 0.0000 0.0000 22.2395
#
#
#
# Elastic Compliance Matrix: (Units=1/GPa)
#
#
# Indices 1 2 3 4 5 6 
#
# 1 0.009047 -0.003123 0.002132 0.000000 0.000000 0.000000
# 2 -0.003123 0.019953 -0.021621 0.000000 0.000000 0.000000
# 3 0.002132 -0.021621 0.041983 0.000000 0.000000 0.000000
# 4 0.000000 0.000000 0.000000 0.031092 0.000000 0.000000
# 5 0.000000 0.000000 0.000000 0.000000 0.042411 0.000000
# 6 0.000000 0.000000 0.000000 0.000000 0.000000 0.044965
#
#
# Mechanical properties :
#
#
# Convention : Reuss Voigt Hill
#
# Bulk Modulus (GPa) = 38.82308 53.63176 46.22742
# Shear Modulus (GPa) = 20.55385 28.71425 24.63405
#
# Velocity S-wave (km/s) = 3.25105 3.84260 3.55914
# Velocity P-wave (km/s) = 5.83577 6.87505 6.37662
#
# Compressibility (1/GPa) = 0.02575787
#
# Stress axis : x y z
#
# Youngs Moduli (GPa) = 110.53083 50.11770 23.81905
#
# Poissons Ratio (x) = 0.15653 -0.05078
# Poissons Ratio (y) = 0.34521 0.51500
# Poissons Ratio (z) = -0.23564 1.08362
#
# Static dielectric constant tensor:
#      x y z
#    x 1.704820 0.000000 0.000000 
#    y 0.000000 1.695300 0.000000 
#    z 0.000000 0.000000 1.654810 
# 
# From -- ./inp_files/9961.got.cif
#   From: 2010.05.17/outbox.cif.g08.bks.cpg/sg59_5_cif.got.tgz:9961.got - 2010.06.03 14:40:33.
