data_PCOD9451019
_publ_section_title
;
Structure prediction by ZEFSAII (Michael W. Deem and Ramdas Pophale) SiO2 
 PCOD9451019
Probable space group: P M M N
;
_chemical_formula_sum "Si O2"
_cell_formula_units_Z 48
_cell_length_a 8.486568
_cell_length_b 9.195719
_cell_length_c 31.794966
_cell_angle_alpha 90.000000
_cell_angle_beta 90.000000
_cell_angle_gamma 90.000000
_cell_volume 2481.282155
_symmetry_space_group_name_H-M "P M M N"
_symmetry_group_IT_number 59
_space_group.IT_coordinate_system_code '2'
_symmetry_cell_setting 'orthorhombic'
loop_
_space_group_symop_operation_xyz
x,y,z
1/2-x,1/2-y,z
1/2+x,-y,-z
-x,1/2+y,-z
-x,-y,-z
1/2+x,1/2+y,-z
1/2-x,y,z
x,1/2-y,z
loop_
_atom_site_type_symbol
_atom_site_label
_atom_site_fract_x
_atom_site_fract_y
_atom_site_fract_z
Si Si1 0.440800 0.581574 0.376163
Si Si2 0.060961 0.581728 0.041285
Si Si3 0.061060 0.581914 0.541258
Si Si4 0.557691 0.917720 0.708630
Si Si5 0.940829 0.418586 0.793495
Si Si6 0.938967 0.418276 0.123861
O O1 0.250000 0.579127 0.376945
O O2 0.490667 0.750000 0.376194
O O3 0.501655 0.498840 0.417105
O O4 0.492678 0.500723 0.333559
O O5 0.250000 0.580161 0.040958
O O6 0.008198 0.750000 0.041279
O O7 0.001990 0.500774 0.082908
O O8 0.000000 0.500000 0.000000
O O9 0.250000 0.580260 0.540754
O O10 0.007712 0.750000 0.541201
O O11 0.000000 0.500000 0.500000
O O12 0.750000 0.918025 0.708604
O O13 0.506377 0.750000 0.708727
O O14 0.507608 0.001287 0.750748
O O15 0.750000 0.421545 0.794476
O O16 0.990120 0.250000 0.793644
O O17 0.002721 0.501762 0.834254
O O18 0.750000 0.420469 0.122861
O O19 0.991668 0.250000 0.123754
#
# Coordination Sequence:
#
# PCOD9451019 Si02
#       6
#     8   8   8   8   8   8
#     4  10  20  35  57  85 115 147 185 229 277 331
#     4  11  24  41  62  89 118 149 188 232 279 334
#     4  11  24  40  58  82 111 144 184 229 277 331
#     4   9  17  31  54  83 114 149 187 228 277 331
#     4  10  20  35  57  85 115 148 189 235 281 332
#     4  11  24  40  58  83 115 151 192 236 282 334
#
# _framework density 19.344839
#
# number of rings (size 3 to 8) (size 9 to 14) (size 15 to 20)
#    0.000    1.667    0.000    4.500    0.000   14.000 
#    0.000    0.833    0.000    5.000    0.000    0.000 
#    0.000    0.000    0.000    0.000    0.000    0.000 
#
# Total GULP energy -268382.397697 kJ/mol
# GULP energy per Si atom -5591.299952 kJ/mol
# Density = 1.930081 g / cm^3
# Si number density = 19.344839 Si / 1000 Ang^3
#
#
#
# Elastic Constant Matrix: (Units=GPa)
#
#
# Indices 1 2 3 4 5 6 
#
# 1 20.6804 40.5147 33.2469 0.0000 0.0000 0.0000
# 2 40.5147 248.2001 152.0149 0.0000 0.0000 0.0000
# 3 33.2469 152.0149 244.9721 0.0000 0.0000 0.0000
# 4 0.0000 0.0000 0.0000 46.6303 0.0000 0.0000
# 5 0.0000 0.0000 0.0000 0.0000 31.8162 0.0000
# 6 0.0000 0.0000 0.0000 0.0000 0.0000 27.0869
#
#
#
# Elastic Compliance Matrix: (Units=1/GPa)
#
#
# Indices 1 2 3 4 5 6 
#
# 1 0.073536 -0.009503 -0.004083 0.000000 0.000000 0.000000
# 2 -0.009503 0.007727 -0.003505 0.000000 0.000000 0.000000
# 3 -0.004083 -0.003505 0.006811 0.000000 0.000000 0.000000
# 4 0.000000 0.000000 0.000000 0.021445 0.000000 0.000000
# 5 0.000000 0.000000 0.000000 0.000000 0.031431 0.000000
# 6 0.000000 0.000000 0.000000 0.000000 0.000000 0.036918
#
#
# Mechanical properties :
#
#
# Convention : Reuss Voigt Hill
#
# Bulk Modulus (GPa) = 18.55562 107.26728 62.91145
# Shear Modulus (GPa) = 21.73770 40.31174 31.02472
#
# Velocity S-wave (km/s) = 3.35579 4.56987 4.00906
# Velocity P-wave (km/s) = 4.96266 9.13320 7.34995
#
# Compressibility (1/GPa) = 0.05389203
#
# Stress axis : x y z
#
# Youngs Moduli (GPa) = 13.59877 129.41573 146.81234
#
# Poissons Ratio (x) = 1.22980 0.59947
# Poissons Ratio (y) = 0.12923 0.51461
# Poissons Ratio (z) = 0.05553 0.45363
#
# Static dielectric constant tensor:
#      x y z
#    x 1.670480 0.000000 0.000000 
#    y 0.000000 1.660690 0.000000 
#    z 0.000000 0.000000 1.620530 
# 
# From -- ./inp_files/32853.got.cif
#   From: 2010.05.17/outbox.cif.g08.bks.cpg/sg59_17_cif.got.tgz:32853.got - 2010.06.03 14:40:33.
