data_PCOD9451389
_publ_section_title
;
Structure prediction by ZEFSAII (Michael W. Deem and Ramdas Pophale) SiO2 
 PCOD9451389
Probable space group: P M M N
;
_chemical_formula_sum "Si O2"
_cell_formula_units_Z 56
_cell_length_a 23.081187
_cell_length_b 8.434730
_cell_length_c 15.117850
_cell_angle_alpha 90.000000
_cell_angle_beta 90.000000
_cell_angle_gamma 90.000000
_cell_volume 2943.197166
_symmetry_space_group_name_H-M "P M M N"
_symmetry_group_IT_number 59
_space_group.IT_coordinate_system_code '2'
_symmetry_cell_setting 'orthorhombic'
loop_
_space_group_symop_operation_xyz
x,y,z
1/2-x,1/2-y,z
1/2+x,-y,-z
-x,1/2+y,-z
-x,-y,-z
1/2+x,1/2+y,-z
1/2-x,y,z
x,1/2-y,z
loop_
_atom_site_type_symbol
_atom_site_label
_atom_site_fract_x
_atom_site_fract_y
_atom_site_fract_z
Si Si1 0.313638 0.440147 0.306866
Si Si2 0.816346 0.058900 0.077545
Si Si3 0.945488 0.060540 0.383799
Si Si4 0.977402 0.564024 0.906130
Si Si5 0.917548 0.935056 0.200986
Si Si6 0.576724 0.942054 0.578875
Si Si7 0.648870 0.437209 0.880117
O O1 0.250000 0.499265 0.335431
O O2 0.313690 0.250000 0.315715
O O3 0.368785 0.498602 0.363209
O O4 0.322870 0.480911 0.204219
O O5 0.750000 0.023531 0.100415
O O6 0.824645 0.250000 0.080812
O O7 0.861685 0.980376 0.143575
O O8 0.828407 0.008891 0.976147
O O9 0.941768 0.250000 0.374864
O O10 0.013860 0.013957 0.380974
O O11 0.912203 0.978071 0.303718
O O12 0.922587 0.008836 0.479670
O O13 0.964281 0.750000 0.912758
O O14 0.919485 0.472818 0.879376
O O15 0.028550 0.534501 0.836942
O O16 0.000000 0.500000 0.000000
O O17 0.930269 0.750000 0.189561
O O18 0.577816 0.750000 0.574854
O O19 0.659847 0.250000 0.873571
#
# Coordination Sequence:
#
# PCOD9451389 Si02
#       7
#     8   8   8   8   8   8   8
#     4  10  21  37  58  85 119 159 199 242 294 354
#     4  10  22  40  59  79 111 155 199 244 289 337
#     4  10  20  36  61  88 115 149 189 241 299 352
#     4  12  23  37  57  85 118 153 192 239 292 344
#     4  12  24  38  59  87 118 155 195 239 287 345
#     4   9  19  37  59  85 115 148 189 240 295 352
#     4  11  22  37  59  86 117 156 197 241 292 347
#
# _framework density 19.026926
#
# number of rings (size 3 to 8) (size 9 to 14) (size 15 to 20)
#    0.000    1.429    1.429    4.714    0.000    4.000 
#    0.000    0.714    0.000    2.571    0.000    0.000 
#    0.000    0.000    0.000    0.000    0.000    0.000 
#
# Total GULP energy -313012.972845 kJ/mol
# GULP energy per Si atom -5589.517372 kJ/mol
# Density = 1.898362 g / cm^3
# Si number density = 19.026926 Si / 1000 Ang^3
#
#
#
# Elastic Constant Matrix: (Units=GPa)
#
#
# Indices 1 2 3 4 5 6 
#
# 1 89.2543 1.1044 46.3780 0.0000 0.0000 0.0000
# 2 1.1044 13.9294 9.8579 0.0000 0.0000 0.0000
# 3 46.3780 9.8579 105.5305 0.0000 0.0000 0.0000
# 4 0.0000 0.0000 0.0000 33.2131 0.0000 0.0000
# 5 0.0000 0.0000 0.0000 0.0000 13.5693 0.0000
# 6 0.0000 0.0000 0.0000 0.0000 0.0000 18.2252
#
#
#
# Elastic Compliance Matrix: (Units=1/GPa)
#
#
# Indices 1 2 3 4 5 6 
#
# 1 0.014690 0.003645 -0.006797 0.000000 0.000000 0.000000
# 2 0.003645 0.077777 -0.008867 0.000000 0.000000 0.000000
# 3 -0.006797 -0.008867 0.013291 0.000000 0.000000 0.000000
# 4 0.000000 0.000000 0.000000 0.030109 0.000000 0.000000
# 5 0.000000 0.000000 0.000000 0.000000 0.073696 0.000000
# 6 0.000000 0.000000 0.000000 0.000000 0.000000 0.054869
#
#
# Mechanical properties :
#
#
# Convention : Reuss Voigt Hill
#
# Bulk Modulus (GPa) = 12.23672 35.93274 24.08473
# Shear Modulus (GPa) = 15.83732 23.09312 19.46522
#
# Velocity S-wave (km/s) = 2.88820 3.48761 3.20196
# Velocity P-wave (km/s) = 4.19136 5.92825 5.13379
#
# Compressibility (1/GPa) = 0.08172126
#
# Stress axis : x y z
#
# Youngs Moduli (GPa) = 68.07138 12.85727 75.23780
#
# Poissons Ratio (x) = -0.04687 0.51136
# Poissons Ratio (y) = -0.24814 0.66716
# Poissons Ratio (z) = 0.46265 0.11401
#
# Static dielectric constant tensor:
#      x y z
#    x 1.653540 0.000000 0.000000 
#    y 0.000000 1.633820 0.000000 
#    z 0.000000 0.000000 1.647980 
# 
# From -- ./inp_files/20962.got.cif
#   From: 2010.05.17/outbox.cif.g08.bks.cpg/sg59_11_cif.got.tgz:20962.got - 2010.06.03 14:40:33.
