data_PCOD9451128
_publ_section_title
;
Structure prediction by ZEFSAII (Michael W. Deem and Ramdas Pophale) SiO2 
 PCOD9451128
Probable space group: P M M N
;
_chemical_formula_sum "Si O2"
_cell_formula_units_Z 48
_cell_length_a 13.457830
_cell_length_b 18.656526
_cell_length_c 9.789366
_cell_angle_alpha 90.000000
_cell_angle_beta 90.000000
_cell_angle_gamma 90.000000
_cell_volume 2457.878336
_symmetry_space_group_name_H-M "P M M N"
_symmetry_group_IT_number 59
_space_group.IT_coordinate_system_code '2'
_symmetry_cell_setting 'orthorhombic'
loop_
_space_group_symop_operation_xyz
x,y,z
1/2-x,1/2-y,z
1/2+x,-y,-z
-x,1/2+y,-z
-x,-y,-z
1/2+x,1/2+y,-z
1/2-x,y,z
x,1/2-y,z
loop_
_atom_site_type_symbol
_atom_site_label
_atom_site_fract_x
_atom_site_fract_y
_atom_site_fract_z
Si Si1 0.481415 0.437065 0.330862
Si Si2 0.639992 0.165842 0.268607
Si Si3 0.134711 0.611698 0.039120
Si Si4 0.445320 0.165169 0.823260
Si Si5 0.368487 0.062075 0.609659
Si Si6 0.366887 0.443895 0.051454
O O1 0.554090 0.370465 0.354794
O O2 0.558997 0.503075 0.321270
O O3 0.402379 0.443749 0.452280
O O4 0.425054 0.427942 0.189581
O O5 0.750000 0.136667 0.302010
O O6 0.640166 0.250000 0.288178
O O7 0.622938 0.149426 0.107921
O O8 0.250000 0.618026 0.079862
O O9 0.111872 0.527367 0.016588
O O10 0.061143 0.646027 0.149723
O O11 0.429203 0.250000 0.841717
O O12 0.401838 0.136300 0.680459
O O13 0.393920 0.114086 0.936812
O O14 0.250000 0.050874 0.627701
O O15 0.250000 0.439713 0.075760
#
# Coordination Sequence:
#
# PCOD9451128 Si02
#       6
#     8   8   8   8   8   8
#     4  11  22  41  65  90 118 159 210 262 309 357
#     4  10  20  35  59  91 123 157 199 252 313 368
#     4  10  20  37  63  93 125 159 204 259 311 362
#     4  12  24  41  62  92 133 170 206 251 314 380
#     4  11  25  43  63  88 123 166 209 252 309 376
#     4  11  22  38  64  93 122 159 211 262 306 363
#
# _framework density 19.529038
#
# number of rings (size 3 to 8) (size 9 to 14) (size 15 to 20)
#    0.000    1.167    3.333    3.500    0.000    4.333 
#    0.000    0.833    0.000    3.000    0.000    0.000 
#    0.000    0.000    0.000    0.000    0.000    0.000 
#
# Total GULP energy -268067.831651 kJ/mol
# GULP energy per Si atom -5584.746493 kJ/mol
# Density = 1.948459 g / cm^3
# Si number density = 19.529038 Si / 1000 Ang^3
#
#
#
# Elastic Constant Matrix: (Units=GPa)
#
#
# Indices 1 2 3 4 5 6 
#
# 1 97.5011 22.6518 17.8286 0.0000 0.0000 0.0000
# 2 22.6518 105.5413 5.6668 0.0000 0.0000 0.0000
# 3 17.8286 5.6668 35.2986 0.0000 0.0000 0.0000
# 4 0.0000 0.0000 0.0000 12.1154 0.0000 0.0000
# 5 0.0000 0.0000 0.0000 0.0000 20.7411 0.0000
# 6 0.0000 0.0000 0.0000 0.0000 0.0000 22.4781
#
#
#
# Elastic Compliance Matrix: (Units=1/GPa)
#
#
# Indices 1 2 3 4 5 6 
#
# 1 0.011799 -0.002232 -0.005601 0.000000 0.000000 0.000000
# 2 -0.002232 0.009979 -0.000475 0.000000 0.000000 0.000000
# 3 -0.005601 -0.000475 0.031235 0.000000 0.000000 0.000000
# 4 0.000000 0.000000 0.000000 0.082539 0.000000 0.000000
# 5 0.000000 0.000000 0.000000 0.000000 0.048213 0.000000
# 6 0.000000 0.000000 0.000000 0.000000 0.000000 0.044488
#
#
# Mechanical properties :
#
#
# Convention : Reuss Voigt Hill
#
# Bulk Modulus (GPa) = 27.47407 36.73727 32.10567
# Shear Modulus (GPa) = 19.45511 23.87985 21.66748
#
# Velocity S-wave (km/s) = 3.15971 3.50063 3.33453
# Velocity P-wave (km/s) = 5.23551 5.93226 5.59474
#
# Compressibility (1/GPa) = 0.03639795
#
# Stress axis : x y z
#
# Youngs Moduli (GPa) = 84.75335 100.20624 32.01538
#
# Poissons Ratio (x) = 0.22362 0.17932
# Poissons Ratio (y) = 0.18914 0.01521
# Poissons Ratio (z) = 0.47471 0.04759
#
# Static dielectric constant tensor:
#      x y z
#    x 1.703830 0.000000 0.000000 
#    y 0.000000 1.692420 0.000000 
#    z 0.000000 0.000000 1.670660 
# 
# From -- ./inp_files/9022.got.cif
#   From: 2010.05.17/outbox.cif.g08.bks.cpg/sg59_5_cif.got.tgz:9022.got - 2010.06.03 14:40:33.
