data_PCOD9451119
_publ_section_title
;
Structure prediction by ZEFSAII (Michael W. Deem and Ramdas Pophale) SiO2 
 PCOD9451119
Probable space group: P M M N
;
_chemical_formula_sum "Si O2"
_cell_formula_units_Z 56
_cell_length_a 22.280523
_cell_length_b 13.950553
_cell_length_c 10.040006
_cell_angle_alpha 90.000000
_cell_angle_beta 90.000000
_cell_angle_gamma 90.000000
_cell_volume 3120.691059
_symmetry_space_group_name_H-M "P M M N"
_symmetry_group_IT_number 59
_space_group.IT_coordinate_system_code '2'
_symmetry_cell_setting 'orthorhombic'
loop_
_space_group_symop_operation_xyz
x,y,z
1/2-x,1/2-y,z
1/2+x,-y,-z
-x,1/2+y,-z
-x,-y,-z
1/2+x,1/2+y,-z
1/2-x,y,z
x,1/2-y,z
loop_
_atom_site_type_symbol
_atom_site_label
_atom_site_fract_x
_atom_site_fract_y
_atom_site_fract_z
Si Si1 0.448965 0.863359 0.370967
Si Si2 0.376735 0.555243 0.127593
Si Si3 0.426015 0.139319 0.186198
Si Si4 0.873820 0.048308 0.390358
Si Si5 0.934834 0.363454 0.138281
Si Si6 0.420900 0.361302 0.507296
Si Si7 0.250000 0.864164 0.553629
Si Si8 0.750000 0.134630 0.764956
O O1 0.444376 0.750000 0.350291
O O2 0.425394 0.914342 0.239505
O O3 0.405683 0.895253 0.489386
O O4 0.516021 0.884893 0.420565
O O5 0.382141 0.440048 0.125071
O O6 0.311014 0.591426 0.172228
O O7 0.399373 0.603997 0.992512
O O8 0.408997 0.250000 0.160493
O O9 0.493231 0.124180 0.129606
O O10 0.428007 0.127421 0.347636
O O11 0.911079 0.072622 0.259353
O O12 0.807973 0.090188 0.380079
O O13 0.874878 0.937589 0.433542
O O14 0.924606 0.250000 0.165795
O O15 0.406618 0.250000 0.532438
O O16 0.250000 0.750000 0.568774
O O17 0.250000 0.884661 0.394285
O O18 0.750000 0.250000 0.782688
#
# Coordination Sequence:
#
# PCOD9451119 Si02
#       8
#     8   8   8   8   8   8   4   4
#     4  11  19  32  58  83 108 143 188 232 279 338
#     4  12  23  38  56  84 118 156 190 230 284 339
#     4  10  20  37  59  86 115 148 190 240 287 334
#     4  12  21  37  57  82 114 150 189 232 285 335
#     4  11  23  37  57  86 120 150 183 234 295 345
#     4  10  20  35  59  88 113 145 191 241 288 335
#     4  11  22  35  58  86 109 144 197 242 277 333
#     4  11  22  37  58  82 115 150 191 238 279 333
#
# _framework density 17.944744
#
# number of rings (size 3 to 8) (size 9 to 14) (size 15 to 20)
#    0.000    1.000    4.286    4.286    0.000    0.571 
#    0.000    4.286    0.000    2.571    0.000    2.000 
#    0.000    0.000    0.000    0.000    0.000    0.000 
#
# Total GULP energy -312858.789264 kJ/mol
# GULP energy per Si atom -5586.764094 kJ/mol
# Density = 1.790390 g / cm^3
# Si number density = 17.944744 Si / 1000 Ang^3
#
#
#
# Elastic Constant Matrix: (Units=GPa)
#
#
# Indices 1 2 3 4 5 6 
#
# 1 40.6231 37.1108 -27.7375 0.0000 0.0000 0.0000
# 2 37.1108 89.4767 -14.4443 0.0000 0.0000 0.0000
# 3 -27.7375 -14.4443 -10.6570 0.0000 0.0000 0.0000
# 4 0.0000 0.0000 0.0000 23.8156 0.0000 0.0000
# 5 0.0000 0.0000 0.0000 0.0000 14.8009 0.0000
# 6 0.0000 0.0000 0.0000 0.0000 0.0000 -110.0731
#
#
#
# Elastic Compliance Matrix: (Units=1/GPa)
#
#
# Indices 1 2 3 4 5 6 
#
# 1 0.016223 -0.011113 -0.027162 0.000000 0.000000 0.000000
# 2 -0.011113 0.016783 0.006178 0.000000 0.000000 0.000000
# 3 -0.027162 0.006178 -0.031514 0.000000 0.000000 0.000000
# 4 0.000000 0.000000 0.000000 0.041989 0.000000 0.000000
# 5 0.000000 0.000000 0.000000 0.000000 0.067564 0.000000
# 6 0.000000 0.000000 0.000000 0.000000 0.000000 -0.009085
#
#
# Mechanical properties :
#
#
# Convention : Reuss Voigt Hill
#
# Bulk Modulus (GPa) = -15.94848 12.14454 -1.90197
# Shear Modulus (GPa) = 34.42273 -5.99041 14.21616
#
# Velocity S-wave (km/s) = 4.38455 -1.82907 2.81769
# Velocity P-wave (km/s) = 4.08968 1.52374 3.08604
#
# Compressibility (1/GPa) = -0.06270191
#
# Stress axis : x y z
#
# Youngs Moduli (GPa) = 61.64078 59.58519 -31.73197
#
# Poissons Ratio (x) = 0.66219 -0.86189
# Poissons Ratio (y) = 0.68503 0.19604
# Poissons Ratio (z) = 1.67426 -0.36812
#
# Static dielectric constant tensor:
#      x y z
#    x 1.613910 0.000000 0.000000 
#    y 0.000000 1.647400 0.000000 
#    z 0.000000 0.000000 1.597450 
# 
# From -- ./inp_files/9396.got.cif
#   From: 2010.05.17/outbox.cif.g08.bks.cpg/sg59_5_cif.got.tgz:9396.got - 2010.06.03 14:40:33.
