data_PCOD9451312
_publ_section_title
;
Structure prediction by ZEFSAII (Michael W. Deem and Ramdas Pophale) SiO2 
 PCOD9451312
Probable space group: P M M N
;
_chemical_formula_sum "Si O2"
_cell_formula_units_Z 48
_cell_length_a 10.430906
_cell_length_b 8.742936
_cell_length_c 29.705789
_cell_angle_alpha 90.000000
_cell_angle_beta 90.000000
_cell_angle_gamma 90.000000
_cell_volume 2709.071222
_symmetry_space_group_name_H-M "P M M N"
_symmetry_group_IT_number 59
_space_group.IT_coordinate_system_code '2'
_symmetry_cell_setting 'orthorhombic'
loop_
_space_group_symop_operation_xyz
x,y,z
1/2-x,1/2-y,z
1/2+x,-y,-z
-x,1/2+y,-z
-x,-y,-z
1/2+x,1/2+y,-z
1/2-x,y,z
x,1/2-y,z
loop_
_atom_site_type_symbol
_atom_site_label
_atom_site_fract_x
_atom_site_fract_y
_atom_site_fract_z
Si Si1 0.398612 0.933207 0.292460
Si Si2 0.250000 0.933961 0.944238
Si Si3 0.895693 0.065682 0.466281
Si Si4 0.099133 0.067482 0.194446
Si Si5 0.750000 0.064366 0.951724
Si Si6 0.999169 0.933813 0.103885
Si Si7 0.897589 0.065431 0.361984
O O1 0.250000 0.977239 0.302513
O O2 0.403828 0.750000 0.289957
O O3 0.431978 0.002863 0.243715
O O4 0.497723 0.992877 0.329444
O O5 0.250000 0.750000 0.943381
O O6 0.374508 0.996894 0.919167
O O7 0.250000 0.985390 0.996459
O O8 0.750000 0.017347 0.477780
O O9 0.899114 0.250000 0.468141
O O10 0.920054 0.022036 0.414214
O O11 0.000000 0.000000 0.500000
O O12 0.250000 0.032278 0.186316
O O13 0.083283 0.250000 0.193958
O O14 0.018935 0.991822 0.154596
O O15 0.750000 0.250000 0.951742
O O16 0.623331 0.015617 0.925016
O O17 0.992968 0.750000 0.103441
O O18 0.750000 0.022855 0.350634
O O19 0.905685 0.250000 0.359091
#
# Coordination Sequence:
#
# PCOD9451312 Si02
#       7
#     8   4   8   8   4   8   8
#     4  10  21  36  56  83 112 142 179 227 277 329
#     4  11  23  39  55  83 119 149 185 229 272 327
#     4   9  19  35  54  78 110 147 187 231 277 327
#     4  10  20  36  59  85 110 142 184 228 275 331
#     4   9  20  37  61  85 111 147 187 227 276 329
#     4  11  21  38  60  84 113 148 184 228 280 329
#     4   9  19  37  57  78 109 148 187 228 277 330
#
# _framework density 17.718250000000001
#
# number of rings (size 3 to 8) (size 9 to 14) (size 15 to 20)
#    0.000    2.167    0.833    3.250    0.000    3.667 
#    1.500    7.500    0.000    0.000    0.000    0.000 
#    0.000    0.000    0.000    0.000    0.000    0.000 
#
# Total GULP energy -267978.801905 kJ/mol
# GULP energy per Si atom -5582.891706 kJ/mol
# Density = 1.767792 g / cm^3
# Si number density = 17.718250 Si / 1000 Ang^3
#
#
#
# Elastic Constant Matrix: (Units=GPa)
#
#
# Indices 1 2 3 4 5 6 
#
# 1 153.9659 45.4513 115.4414 0.0000 0.0000 0.0000
# 2 45.4513 42.7239 46.6730 0.0000 0.0000 0.0000
# 3 115.4414 46.6730 154.0838 0.0000 0.0000 0.0000
# 4 0.0000 0.0000 0.0000 30.3032 0.0000 0.0000
# 5 0.0000 0.0000 0.0000 0.0000 33.4980 0.0000
# 6 0.0000 0.0000 0.0000 0.0000 0.0000 26.2330
#
#
#
# Elastic Compliance Matrix: (Units=1/GPa)
#
#
# Indices 1 2 3 4 5 6 
#
# 1 0.015716 -0.005763 -0.010029 0.000000 0.000000 0.000000
# 2 -0.005763 0.037095 -0.006918 0.000000 0.000000 0.000000
# 3 -0.010029 -0.006918 0.016099 0.000000 0.000000 0.000000
# 4 0.000000 0.000000 0.000000 0.033000 0.000000 0.000000
# 5 0.000000 0.000000 0.000000 0.000000 0.029853 0.000000
# 6 0.000000 0.000000 0.000000 0.000000 0.000000 0.038120
#
#
# Mechanical properties :
#
#
# Convention : Reuss Voigt Hill
#
# Bulk Modulus (GPa) = 42.57246 85.10054 63.83650
# Shear Modulus (GPa) = 22.40819 27.55403 24.98111
#
# Velocity S-wave (km/s) = 3.56011 3.94778 3.75895
# Velocity P-wave (km/s) = 6.40147 8.30145 7.41259
#
# Compressibility (1/GPa) = 0.02348936
#
# Stress axis : x y z
#
# Youngs Moduli (GPa) = 63.63130 26.95757 62.11520
#
# Poissons Ratio (x) = 0.15536 0.62292
# Poissons Ratio (y) = 0.36673 0.42974
# Poissons Ratio (z) = 0.63813 0.18651
#
# Static dielectric constant tensor:
#      x y z
#    x 1.587730 0.000000 0.000000 
#    y 0.000000 1.593160 0.000000 
#    z 0.000000 0.000000 1.578460 
# 
# From -- ./inp_files/32974.got.cif
#   From: 2010.05.17/outbox.cif.g08.bks.cpg/sg59_17_cif.got.tgz:32974.got - 2010.06.03 14:40:33.
