data_PCOD9451477
_publ_section_title
;
Structure prediction by ZEFSAII (Michael W. Deem and Ramdas Pophale) SiO2 
 PCOD9451477
Probable space group: P M M N
;
_chemical_formula_sum "Si O2"
_cell_formula_units_Z 64
_cell_length_a 25.548662
_cell_length_b 8.644978
_cell_length_c 15.301055
_cell_angle_alpha 90.000000
_cell_angle_beta 90.000000
_cell_angle_gamma 90.000000
_cell_volume 3379.507615
_symmetry_space_group_name_H-M "P M M N"
_symmetry_group_IT_number 59
_space_group.IT_coordinate_system_code '2'
_symmetry_cell_setting 'orthorhombic'
loop_
_space_group_symop_operation_xyz
x,y,z
1/2-x,1/2-y,z
1/2+x,-y,-z
-x,1/2+y,-z
-x,-y,-z
1/2+x,1/2+y,-z
1/2-x,y,z
x,1/2-y,z
loop_
_atom_site_type_symbol
_atom_site_label
_atom_site_fract_x
_atom_site_fract_y
_atom_site_fract_z
Si Si1 0.610683 0.064918 0.213163
Si Si2 0.504022 0.426681 0.753540
Si Si3 0.189710 0.434961 0.441071
Si Si4 0.114528 0.937383 0.293141
Si Si5 0.452415 0.573078 0.051116
Si Si6 0.853077 0.570417 0.027018
Si Si7 0.192412 0.564115 0.139384
Si Si8 0.189777 0.936144 0.633401
O O1 0.610690 0.250000 0.206855
O O2 0.649402 0.016963 0.291467
O O3 0.551494 0.010828 0.235203
O O4 0.633416 0.999801 0.121794
O O5 0.493080 0.250000 0.724903
O O6 0.553977 0.492985 0.700390
O O7 0.530120 0.420368 0.849362
O O8 0.250000 0.482870 0.421901
O O9 0.186712 0.250000 0.433914
O O10 0.149340 0.511522 0.374636
O O11 0.178659 0.486076 0.540422
O O12 0.111744 0.750000 0.289264
O O13 0.146924 0.989203 0.206297
O O14 0.439737 0.750000 0.023403
O O15 0.405259 0.461142 0.028995
O O16 0.500000 0.500000 0.000000
O O17 0.841479 0.750000 0.037380
O O18 0.812264 0.492855 0.960524
O O19 0.250000 0.520276 0.173834
O O20 0.188640 0.750000 0.137256
O O21 0.250000 0.973073 0.657854
O O22 0.186345 0.750000 0.623060
#
# Coordination Sequence:
#
# PCOD9451477 Si02
#       8
#     8   8   8   8   8   8   8   8
#     4  11  23  38  60  87 115 149 195 244 290 342
#     4  10  21  36  56  83 117 152 192 237 285 341
#     4  10  21  37  60  91 120 146 182 233 290 344
#     4  10  20  37  60  85 114 152 193 232 280 341
#     4  11  20  34  55  79 108 146 196 242 282 328
#     4  12  24  36  53  79 115 155 193 236 286 341
#     4  10  21  38  58  80 111 152 198 246 292 340
#     4   9  20  41  66  88 110 143 189 238 287 343
#
# _framework density 18.937671000000002
#
# number of rings (size 3 to 8) (size 9 to 14) (size 15 to 20)
#    0.000    1.625    2.500    2.625    0.000    4.500 
#    0.000    1.875    0.000    0.000    0.000    0.000 
#    0.000    0.000    0.000    0.000    0.000    0.000 
#
# Total GULP energy -356908.352718 kJ/mol
# GULP energy per Si atom -5576.693011 kJ/mol
# Density = 1.889457 g / cm^3
# Si number density = 18.937671 Si / 1000 Ang^3
#
#
#
# Elastic Constant Matrix: (Units=GPa)
#
#
# Indices 1 2 3 4 5 6 
#
# 1 98.4765 15.6324 62.0531 0.0000 0.0000 0.0000
# 2 15.6324 18.5698 16.8996 0.0000 0.0000 0.0000
# 3 62.0531 16.8996 100.5524 0.0000 0.0000 0.0000
# 4 0.0000 0.0000 0.0000 16.7481 0.0000 0.0000
# 5 0.0000 0.0000 0.0000 0.0000 36.3267 0.0000
# 6 0.0000 0.0000 0.0000 0.0000 0.0000 22.9640
#
#
#
# Elastic Compliance Matrix: (Units=1/GPa)
#
#
# Indices 1 2 3 4 5 6 
#
# 1 0.017105 -0.005658 -0.009605 0.000000 0.000000 0.000000
# 2 -0.005658 0.065446 -0.007507 0.000000 0.000000 0.000000
# 3 -0.009605 -0.007507 0.017134 0.000000 0.000000 0.000000
# 4 0.000000 0.000000 0.000000 0.059708 0.000000 0.000000
# 5 0.000000 0.000000 0.000000 0.000000 0.027528 0.000000
# 6 0.000000 0.000000 0.000000 0.000000 0.000000 0.043546
#
#
# Mechanical properties :
#
#
# Convention : Reuss Voigt Hill
#
# Bulk Modulus (GPa) = 18.46923 45.19654 31.83289
# Shear Modulus (GPa) = 17.00339 23.40868 20.20604
#
# Velocity S-wave (km/s) = 2.99968 3.51962 3.27000
# Velocity P-wave (km/s) = 4.66597 6.35883 5.57701
#
# Compressibility (1/GPa) = 0.05414411
#
# Stress axis : x y z
#
# Youngs Moduli (GPa) = 58.46098 15.27968 58.36221
#
# Poissons Ratio (x) = 0.08646 0.56058
# Poissons Ratio (y) = 0.33080 0.43815
# Poissons Ratio (z) = 0.56153 0.11471
#
# Static dielectric constant tensor:
#      x y z
#    x 1.647170 0.000000 0.000000 
#    y 0.000000 1.661050 0.000000 
#    z 0.000000 0.000000 1.651770 
# 
# From -- ./inp_files/24763.got.cif
#   From: 2010.05.17/outbox.cif.g08.bks.cpg/sg59_13_cif.got.tgz:24763.got - 2010.06.03 14:40:33.
