data_PCOD9451973
_publ_section_title
;
Structure prediction by ZEFSAII (Michael W. Deem and Ramdas Pophale) SiO2 
 PCOD9451973
Probable space group: P M M N
;
_chemical_formula_sum "Si O2"
_cell_formula_units_Z 48
_cell_length_a 14.907899
_cell_length_b 8.694745
_cell_length_c 20.157714
_cell_angle_alpha 90.000000
_cell_angle_beta 90.000000
_cell_angle_gamma 90.000000
_cell_volume 2612.850554
_symmetry_space_group_name_H-M "P M M N"
_symmetry_group_IT_number 59
_space_group.IT_coordinate_system_code '2'
_symmetry_cell_setting 'orthorhombic'
loop_
_space_group_symop_operation_xyz
x,y,z
1/2-x,1/2-y,z
1/2+x,-y,-z
-x,1/2+y,-z
-x,-y,-z
1/2+x,1/2+y,-z
1/2-x,y,z
x,1/2-y,z
loop_
_atom_site_type_symbol
_atom_site_label
_atom_site_fract_x
_atom_site_fract_y
_atom_site_fract_z
Si Si1 0.352405 0.435209 0.912919
Si Si2 0.940964 0.434173 0.439396
Si Si3 0.250000 0.433497 0.525300
Si Si4 0.250000 0.567150 0.376766
Si Si5 0.516121 0.436139 0.825103
Si Si6 0.145704 0.565253 0.054564
Si Si7 0.069066 0.066449 0.316718
O O1 0.250000 0.488500 0.903113
O O2 0.352555 0.250000 0.915354
O O3 0.419454 0.481407 0.854657
O O4 0.384131 0.494546 0.984612
O O5 0.935928 0.250000 0.446230
O O6 0.841240 0.502531 0.442574
O O7 0.000000 0.500000 0.500000
O O8 0.993535 0.471199 0.371657
O O9 0.250000 0.250000 0.527857
O O10 0.250000 0.487651 0.448737
O O11 0.250000 0.750000 0.385635
O O12 0.338801 0.514830 0.338074
O O13 0.519076 0.250000 0.818047
O O14 0.587030 0.480542 0.882364
O O15 0.538942 0.511908 0.755532
O O16 0.250000 0.522160 0.064275
O O17 0.140409 0.750000 0.048996
O O18 0.082768 0.250000 0.317911
#
# Coordination Sequence:
#
# PCOD9451973 Si02
#       7
#     8   8   4   4   8   8   8
#     4   9  18  34  55  79 109 146 192 245 294 346
#     4  11  23  41  65  91 124 161 202 252 302 353
#     4  12  24  40  66  96 124 155 202 253 298 360
#     4  12  24  40  66  92 122 159 194 237 300 360
#     4  10  21  36  55  80 114 154 194 236 294 357
#     4   9  18  32  52  80 110 143 189 240 289 349
#     4  11  25  42  61  89 124 156 198 247 294 355
#
# _framework density 18.370740999999999
#
# number of rings (size 3 to 8) (size 9 to 14) (size 15 to 20)
#    0.000    1.667    1.667    3.000    1.167    3.333 
#    1.500    0.000    0.000    0.000    0.000    0.000 
#    0.000    0.000    0.000    0.000    0.000    0.000 
#
# Total GULP energy -268205.971295 kJ/mol
# GULP energy per Si atom -5587.624402 kJ/mol
# Density = 1.832893 g / cm^3
# Si number density = 18.370741 Si / 1000 Ang^3
#
#
#
# Elastic Constant Matrix: (Units=GPa)
#
#
# Indices 1 2 3 4 5 6 
#
# 1 152.0620 55.4330 83.8439 0.0000 0.0000 0.0000
# 2 55.4330 56.0556 48.0195 0.0000 0.0000 0.0000
# 3 83.8439 48.0195 131.4688 0.0000 0.0000 0.0000
# 4 0.0000 0.0000 0.0000 35.5762 0.0000 0.0000
# 5 0.0000 0.0000 0.0000 0.0000 7.7574 0.0000
# 6 0.0000 0.0000 0.0000 0.0000 0.0000 21.6156
#
#
#
# Elastic Compliance Matrix: (Units=1/GPa)
#
#
# Indices 1 2 3 4 5 6 
#
# 1 0.012105 -0.007797 -0.004872 0.000000 0.000000 0.000000
# 2 -0.007797 0.030985 -0.006345 0.000000 0.000000 0.000000
# 3 -0.004872 -0.006345 0.013031 0.000000 0.000000 0.000000
# 4 0.000000 0.000000 0.000000 0.028109 0.000000 0.000000
# 5 0.000000 0.000000 0.000000 0.000000 0.128909 0.000000
# 6 0.000000 0.000000 0.000000 0.000000 0.000000 0.046263
#
#
# Mechanical properties :
#
#
# Convention : Reuss Voigt Hill
#
# Bulk Modulus (GPa) = 55.26928 79.35324 67.31126
# Shear Modulus (GPa) = 16.47659 23.14250 19.80955
#
# Velocity S-wave (km/s) = 2.99807 3.55314 3.28734
# Velocity P-wave (km/s) = 6.49117 7.75386 7.15044
#
# Compressibility (1/GPa) = 0.01809323
#
# Stress axis : x y z
#
# Youngs Moduli (GPa) = 82.61128 32.27354 76.73990
#
# Poissons Ratio (x) = 0.25163 0.37388
# Poissons Ratio (y) = 0.64411 0.48692
# Poissons Ratio (z) = 0.40248 0.20478
#
# Static dielectric constant tensor:
#      x y z
#    x 1.639440 0.000000 0.000000 
#    y 0.000000 1.617820 0.000000 
#    z 0.000000 0.000000 1.591330 
# 
# From -- ./inp_files/27404.got.cif
#   From: 2010.05.17/outbox.cif.g08.bks.cpg/sg59_14_cif.got.tgz:27404.got - 2010.06.03 14:40:33.
