data_PCOD9451924
_publ_section_title
;
Structure prediction by ZEFSAII (Michael W. Deem and Ramdas Pophale) SiO2 
 PCOD9451924
Probable space group: P M M N
;
_chemical_formula_sum "Si O2"
_cell_formula_units_Z 48
_cell_length_a 19.304565
_cell_length_b 8.662160
_cell_length_c 15.731432
_cell_angle_alpha 90.000000
_cell_angle_beta 90.000000
_cell_angle_gamma 90.000000
_cell_volume 2630.597958
_symmetry_space_group_name_H-M "P M M N"
_symmetry_group_IT_number 59
_space_group.IT_coordinate_system_code '2'
_symmetry_cell_setting 'orthorhombic'
loop_
_space_group_symop_operation_xyz
x,y,z
1/2-x,1/2-y,z
1/2+x,-y,-z
-x,1/2+y,-z
-x,-y,-z
1/2+x,1/2+y,-z
1/2-x,y,z
x,1/2-y,z
loop_
_atom_site_type_symbol
_atom_site_label
_atom_site_fract_x
_atom_site_fract_y
_atom_site_fract_z
Si Si1 0.330335 0.565104 0.405225
Si Si2 0.670743 0.562093 0.906662
Si Si3 0.079100 0.436883 0.251781
Si Si4 0.169588 0.065160 0.590742
Si Si5 0.168973 0.063942 0.899945
Si Si6 0.080975 0.934816 0.745605
O O1 0.250000 0.519444 0.388829
O O2 0.334022 0.750000 0.405568
O O3 0.379504 0.498134 0.332943
O O4 0.348959 0.502416 0.498558
O O5 0.750000 0.513401 0.888474
O O6 0.670877 0.750000 0.906616
O O7 0.618464 0.510346 0.833795
O O8 0.652693 0.515678 0.003031
O O9 0.081062 0.250000 0.253149
O O10 0.999114 0.485446 0.252875
O O11 0.250000 0.021764 0.608143
O O12 0.165784 0.250000 0.587701
O O13 0.120853 0.002906 0.664651
O O14 0.250000 0.026770 0.883991
O O15 0.162727 0.250000 0.894755
O O16 0.120282 0.988683 0.830294
O O17 0.082665 0.750000 0.740647
#
# Coordination Sequence:
#
# PCOD9451924 Si02
#       6
#     8   8   8   8   8   8
#     4  10  21  37  58  84 110 135 169 218 271 315
#     4   8  15  31  56  80 101 133 180 226 260 301
#     4  10  21  36  54  78 109 146 183 214 254 315
#     4  10  21  38  60  81 101 135 182 222 260 315
#     4   9  18  34  56  79 102 135 181 225 265 314
#     4  11  23  35  50  78 113 144 175 217 268 315
#
# _framework density 18.246801000000001
#
# number of rings (size 3 to 8) (size 9 to 14) (size 15 to 20)
#    0.000    2.333    0.000    3.500    0.000    7.667 
#    0.000    0.833    0.000    1.000    0.000    0.000 
#    0.000    0.000    0.000    0.000    0.000    0.000 
#
# Total GULP energy -267990.940356 kJ/mol
# GULP energy per Si atom -5583.144591 kJ/mol
# Density = 1.820527 g / cm^3
# Si number density = 18.246801 Si / 1000 Ang^3
#
#
#
# Elastic Constant Matrix: (Units=GPa)
#
#
# Indices 1 2 3 4 5 6 
#
# 1 140.3667 38.3020 134.8327 0.0000 0.0000 0.0000
# 2 38.3020 22.1593 36.8172 0.0000 0.0000 0.0000
# 3 134.8327 36.8172 182.0053 0.0000 0.0000 0.0000
# 4 0.0000 0.0000 0.0000 20.1886 0.0000 0.0000
# 5 0.0000 0.0000 0.0000 0.0000 -33.3493 0.0000
# 6 0.0000 0.0000 0.0000 0.0000 0.0000 22.5538
#
#
#
# Elastic Compliance Matrix: (Units=1/GPa)
#
#
# Indices 1 2 3 4 5 6 
#
# 1 0.031042 -0.023267 -0.018289 0.000000 0.000000 0.000000
# 2 -0.023267 0.085413 -0.000041 0.000000 0.000000 0.000000
# 3 -0.018289 -0.000041 0.019052 0.000000 0.000000 0.000000
# 4 0.000000 0.000000 0.000000 0.049533 0.000000 0.000000
# 5 0.000000 0.000000 0.000000 0.000000 -0.029986 0.000000
# 6 0.000000 0.000000 0.000000 0.000000 0.000000 0.044338
#
#
# Mechanical properties :
#
#
# Convention : Reuss Voigt Hill
#
# Bulk Modulus (GPa) = 19.11655 84.93724 52.02689
# Shear Modulus (GPa) = 16.66530 10.85058 13.75794
#
# Velocity S-wave (km/s) = 3.02541 2.44120 2.74887
# Velocity P-wave (km/s) = 4.76482 7.38892 6.21690
#
# Compressibility (1/GPa) = 0.05231070
#
# Stress axis : x y z
#
# Youngs Moduli (GPa) = 32.21489 11.70782 52.48836
#
# Poissons Ratio (x) = 0.27241 0.95998
# Poissons Ratio (y) = 0.74955 0.00216
# Poissons Ratio (z) = 0.58919 0.00048
#
# Static dielectric constant tensor:
#      x y z
#    x 1.611810 0.000000 0.000000 
#    y 0.000000 1.621560 0.000000 
#    z 0.000000 0.000000 1.599870 
# 
# From -- ./inp_files/20326.got.cif
#   From: 2010.05.17/outbox.cif.g08.bks.cpg/sg59_11_cif.got.tgz:20326.got - 2010.06.03 14:40:33.
