data_PCOD9451367
_publ_section_title
;
Structure prediction by ZEFSAII (Michael W. Deem and Ramdas Pophale) SiO2 
 PCOD9451367
Probable space group: P M M N
;
_chemical_formula_sum "Si O2"
_cell_formula_units_Z 56
_cell_length_a 20.253934
_cell_length_b 15.774499
_cell_length_c 8.556601
_cell_angle_alpha 90.000000
_cell_angle_beta 90.000000
_cell_angle_gamma 90.000000
_cell_volume 2733.796898
_symmetry_space_group_name_H-M "P M M N"
_symmetry_group_IT_number 59
_space_group.IT_coordinate_system_code '2'
_symmetry_cell_setting 'orthorhombic'
loop_
_space_group_symop_operation_xyz
x,y,z
1/2-x,1/2-y,z
1/2+x,-y,-z
-x,1/2+y,-z
-x,-y,-z
1/2+x,1/2+y,-z
1/2-x,y,z
x,1/2-y,z
loop_
_atom_site_type_symbol
_atom_site_label
_atom_site_fract_x
_atom_site_fract_y
_atom_site_fract_z
Si Si1 0.173814 0.348344 0.270145
Si Si2 0.493287 0.577281 0.379561
Si Si3 0.874747 0.156201 0.423951
Si Si4 0.598251 0.003302 0.867483
Si Si5 0.361697 0.347041 0.635242
Si Si6 0.677463 0.339205 0.746698
Si Si7 0.673116 0.487648 0.184718
O O1 0.250000 0.372278 0.232376
O O2 0.164134 0.250000 0.224377
O O3 0.121426 0.411700 0.193386
O O4 0.163611 0.353297 0.456824
O O5 0.500000 0.500000 0.500000
O O6 0.438922 0.634555 0.469362
O O7 0.469399 0.535723 0.214230
O O8 0.560773 0.628614 0.362673
O O9 0.881866 0.250000 0.351963
O O10 0.820532 0.159807 0.559846
O O11 0.854049 0.083451 0.304325
O O12 0.645818 0.074272 0.795747
O O13 0.618374 0.008035 0.047823
O O14 0.351270 0.250000 0.687991
O O15 0.327350 0.420086 0.734919
O O16 0.750000 0.336826 0.814262
O O17 0.642895 0.250000 0.792270
O O18 0.750000 0.469205 0.138991
#
# Coordination Sequence:
#
# PCOD9451367 Si02
#       7
#     8   8   8   8   8   8   8
#     4  10  20  36  60  88 116 156 211 262 308 361
#     4  11  20  42  68  91 115 157 211 268 308 358
#     4  10  21  38  62  90 122 160 203 255 309 363
#     4  11  23  38  61  86 127 162 202 249 314 367
#     4  11  23  41  65  91 122 162 210 263 311 364
#     4   9  17  32  56  83 110 150 204 251 293 346
#     4  12  25  39  59  92 132 170 203 244 311 383
#
# _framework density 20.484331000000001
#
# number of rings (size 3 to 8) (size 9 to 14) (size 15 to 20)
#    0.000    1.429    2.857    3.429    0.000    4.000 
#    0.000    0.000    0.000    0.000    0.000    0.000 
#    0.000    0.000    0.000    0.000    0.000    0.000 
#
# Total GULP energy -312105.286901 kJ/mol
# GULP energy per Si atom -5573.308695 kJ/mol
# Density = 2.043771 g / cm^3
# Si number density = 20.484331 Si / 1000 Ang^3
#
#
#
# Elastic Constant Matrix: (Units=GPa)
#
#
# Indices 1 2 3 4 5 6 
#
# 1 79.3093 8.7204 5.2257 0.0000 0.0000 0.0000
# 2 8.7204 124.8652 39.2042 0.0000 0.0000 0.0000
# 3 5.2257 39.2042 59.9035 0.0000 0.0000 0.0000
# 4 0.0000 0.0000 0.0000 176.6115 0.0000 0.0000
# 5 0.0000 0.0000 0.0000 0.0000 -74.8127 0.0000
# 6 0.0000 0.0000 0.0000 0.0000 0.0000 70.6566
#
#
#
# Elastic Compliance Matrix: (Units=1/GPa)
#
#
# Indices 1 2 3 4 5 6 
#
# 1 0.012727 -0.000680 -0.000665 0.000000 0.000000 0.000000
# 2 -0.000680 0.010116 -0.006561 0.000000 0.000000 0.000000
# 3 -0.000665 -0.006561 0.021046 0.000000 0.000000 0.000000
# 4 0.000000 0.000000 0.000000 0.005662 0.000000 0.000000
# 5 0.000000 0.000000 0.000000 0.000000 -0.013367 0.000000
# 6 0.000000 0.000000 0.000000 0.000000 0.000000 0.014153
#
#
# Mechanical properties :
#
#
# Convention : Reuss Voigt Hill
#
# Bulk Modulus (GPa) = 35.61735 41.15317 38.38526
# Shear Modulus (GPa) = 66.21689 48.55294 57.38492
#
# Velocity S-wave (km/s) = 5.69173 4.87380 5.29857
# Velocity P-wave (km/s) = 7.78587 7.19761 7.49751
#
# Compressibility (1/GPa) = 0.02807621
#
# Stress axis : x y z
#
# Youngs Moduli (GPa) = 78.57027 98.85155 47.51583
#
# Poissons Ratio (x) = 0.06722 0.03161
# Poissons Ratio (y) = 0.05343 0.31176
# Poissons Ratio (z) = 0.05227 0.64859
#
# Static dielectric constant tensor:
#      x y z
#    x 1.819820 0.000000 0.000000 
#    y 0.000000 1.734940 0.000000 
#    z 0.000000 0.000000 1.744180 
# 
# From -- ./inp_files/11396.got.cif
#   From: 2010.05.17/outbox.cif.g08.bks.cpg/sg59_6_cif.got.tgz:11396.got - 2010.06.03 14:40:33.
