data_PCOD9451669
_publ_section_title
;
Structure prediction by ZEFSAII (Michael W. Deem and Ramdas Pophale) SiO2 
 PCOD9451669
Probable space group: P M M N
;
_chemical_formula_sum "Si O2"
_cell_formula_units_Z 64
_cell_length_a 17.805878
_cell_length_b 13.861259
_cell_length_c 13.735610
_cell_angle_alpha 90.000000
_cell_angle_beta 90.000000
_cell_angle_gamma 90.000000
_cell_volume 3390.111819
_symmetry_space_group_name_H-M "P M M N"
_symmetry_group_IT_number 59
_space_group.IT_coordinate_system_code '2'
_symmetry_cell_setting 'orthorhombic'
loop_
_space_group_symop_operation_xyz
x,y,z
1/2-x,1/2-y,z
1/2+x,-y,-z
-x,1/2+y,-z
-x,-y,-z
1/2+x,1/2+y,-z
1/2-x,y,z
x,1/2-y,z
loop_
_atom_site_type_symbol
_atom_site_label
_atom_site_fract_x
_atom_site_fract_y
_atom_site_fract_z
Si Si1 0.027572 0.862938 0.671255
Si Si2 0.664289 0.366125 0.455303
Si Si3 0.554594 0.501859 0.823556
Si Si4 0.926680 0.863045 0.146294
Si Si5 0.835124 0.045461 0.661604
Si Si6 0.335633 0.367246 0.663460
Si Si7 0.621600 0.638259 0.555934
Si Si8 0.338354 0.362348 0.049965
O O1 0.032763 0.750000 0.698694
O O2 0.106538 0.896908 0.627715
O O3 0.995515 0.925160 0.759096
O O4 0.965923 0.869099 0.584473
O O5 0.750000 0.398609 0.439542
O O6 0.663395 0.250000 0.455395
O O7 0.641253 0.400774 0.562672
O O8 0.498042 0.429489 0.876860
O O9 0.606467 0.442315 0.748075
O O10 0.609941 0.565434 0.889105
O O11 0.947991 0.750000 0.152924
O O12 0.890993 0.894636 0.249368
O O13 0.864343 0.870562 0.062140
O O14 0.750000 0.073752 0.686262
O O15 0.837314 0.932724 0.630523
O O16 0.250000 0.399680 0.679855
O O17 0.334601 0.250000 0.665259
O O18 0.361718 0.392755 0.554418
O O19 0.644405 0.750000 0.567212
O O20 0.250000 0.383136 0.061178
O O21 0.350790 0.250000 0.079355
#
# Coordination Sequence:
#
# PCOD9451669 Si02
#       8
#     8   8   8   8   8   8   8   8
#     4   9  19  34  52  76 107 142 185 229 270 322
#     4   9  19  35  51  67  99 150 196 228 258 301
#     4  11  22  35  57  84 115 139 178 222 281 326
#     4  10  22  37  56  83 111 145 182 221 273 335
#     4  10  21  33  49  75 107 143 185 221 257 314
#     4   9  17  30  48  73 106 142 181 224 271 324
#     4   9  18  30  48  74 107 142 174 222 280 324
#     4  10  21  41  66  86 108 138 175 225 284 341
#
# _framework density 18.878433999999999
#
# number of rings (size 3 to 8) (size 9 to 14) (size 15 to 20)
#    0.000    2.375    0.000    1.875    3.500    4.250 
#    0.000    0.625    0.000    1.125    0.000    0.000 
#    0.000    0.000    0.000    0.000    0.000    0.000 
#
# Total GULP energy -357263.639902 kJ/mol
# GULP energy per Si atom -5582.244373 kJ/mol
# Density = 1.883547 g / cm^3
# Si number density = 18.878434 Si / 1000 Ang^3
#
#
#
# Elastic Constant Matrix: (Units=GPa)
#
#
# Indices 1 2 3 4 5 6 
#
# 1 73.9940 32.6067 23.7568 0.0000 0.0000 0.0000
# 2 32.6067 54.6758 14.3709 0.0000 0.0000 0.0000
# 3 23.7568 14.3709 36.7932 0.0000 0.0000 0.0000
# 4 0.0000 0.0000 0.0000 26.8481 0.0000 0.0000
# 5 0.0000 0.0000 0.0000 0.0000 -478.0066 0.0000
# 6 0.0000 0.0000 0.0000 0.0000 0.0000 22.8668
#
#
#
# Elastic Compliance Matrix: (Units=1/GPa)
#
#
# Indices 1 2 3 4 5 6 
#
# 1 0.021025 -0.009996 -0.009671 0.000000 0.000000 0.000000
# 2 -0.009996 0.025135 -0.003363 0.000000 0.000000 0.000000
# 3 -0.009671 -0.003363 0.034737 0.000000 0.000000 0.000000
# 4 0.000000 0.000000 0.000000 0.037247 0.000000 0.000000
# 5 0.000000 0.000000 0.000000 0.000000 -0.002092 0.000000
# 6 0.000000 0.000000 0.000000 0.000000 0.000000 0.043731
#
#
# Mechanical properties :
#
#
# Convention : Reuss Voigt Hill
#
# Bulk Modulus (GPa) = 28.70578 34.10353 31.40465
# Shear Modulus (GPa) = 22.99329 -79.34310 -28.17490
#
# Velocity S-wave (km/s) = 3.49372 -6.48997 -3.86740
# Velocity P-wave (km/s) = 5.61368 6.16892 1.80861
#
# Compressibility (1/GPa) = 0.03483619
#
# Stress axis : x y z
#
# Youngs Moduli (GPa) = 47.56316 39.78510 28.78799
#
# Poissons Ratio (x) = 0.39771 0.27840
# Poissons Ratio (y) = 0.47546 0.09681
# Poissons Ratio (z) = 0.45997 0.13379
#
# Static dielectric constant tensor:
#      x y z
#    x 1.658820 0.000000 0.000000 
#    y 0.000000 1.679800 0.000000 
#    z 0.000000 0.000000 1.632230 
# 
# From -- ./inp_files/17816.got.cif
#   From: 2010.05.17/outbox.cif.g08.bks.cpg/sg59_9_cif.got.tgz:17816.got - 2010.06.03 14:40:33.
