data_PCOD9451135
_publ_section_title
;
Structure prediction by ZEFSAII (Michael W. Deem and Ramdas Pophale) SiO2 
 PCOD9451135
Probable space group: P M M N
;
_chemical_formula_sum "Si O2"
_cell_formula_units_Z 40
_cell_length_a 14.274133
_cell_length_b 15.013345
_cell_length_c 9.871405
_cell_angle_alpha 90.000000
_cell_angle_beta 90.000000
_cell_angle_gamma 90.000000
_cell_volume 2115.466605
_symmetry_space_group_name_H-M "P M M N"
_symmetry_group_IT_number 59
_space_group.IT_coordinate_system_code '2'
_symmetry_cell_setting 'orthorhombic'
loop_
_space_group_symop_operation_xyz
x,y,z
1/2-x,1/2-y,z
1/2+x,-y,-z
-x,1/2+y,-z
-x,-y,-z
1/2+x,1/2+y,-z
1/2-x,y,z
x,1/2-y,z
loop_
_atom_site_type_symbol
_atom_site_label
_atom_site_fract_x
_atom_site_fract_y
_atom_site_fract_z
Si Si1 0.360757 0.507780 0.732514
Si Si2 0.020331 0.599095 0.946430
Si Si3 0.360914 0.970227 0.418173
Si Si4 0.995721 0.350564 0.761603
Si Si5 0.140201 0.350109 0.255890
O O1 0.250000 0.498031 0.748022
O O2 0.400530 0.583016 0.833588
O O3 0.382460 0.532554 0.577119
O O4 0.413180 0.414349 0.760798
O O5 0.929014 0.636561 0.870501
O O6 0.042152 0.650537 0.083865
O O7 0.000000 0.500000 0.000000
O O8 0.250000 0.953540 0.400548
O O9 0.421417 0.900512 0.333592
O O10 0.379736 0.069602 0.359804
O O11 0.015107 0.250000 0.717504
O O12 0.250000 0.357969 0.216634
O O13 0.126623 0.250000 0.311359
#
# Coordination Sequence:
#
# PCOD9451135 Si02
#       5
#     8   8   8   8   8
#     4  10  22  40  62  87 120 160 199 244 299 349
#     4  10  20  37  57  85 119 157 196 240 295 353
#     4  10  21  40  62  88 121 156 197 242 296 358
#     4  11  23  39  61  91 121 156 200 246 298 351
#     4  10  20  35  60  90 118 151 193 245 302 356
#
# _framework density 18.908359000000001
#
# number of rings (size 3 to 8) (size 9 to 14) (size 15 to 20)
#    0.000    1.800    4.000    1.200    0.000    5.600 
#    0.000    3.000    0.000    4.200    0.000    0.000 
#    0.000    0.000    0.000    0.000    0.000    0.000 
#
# Total GULP energy -223162.790800 kJ/mol
# GULP energy per Si atom -5579.069770 kJ/mol
# Density = 1.886532 g / cm^3
# Si number density = 18.908359 Si / 1000 Ang^3
#
#
#
# Elastic Constant Matrix: (Units=GPa)
#
#
# Indices 1 2 3 4 5 6 
#
# 1 99.2788 50.1184 67.9999 0.0000 0.0000 0.0000
# 2 50.1184 80.5484 37.9500 0.0000 0.0000 0.0000
# 3 67.9999 37.9500 132.7382 0.0000 0.0000 0.0000
# 4 0.0000 0.0000 0.0000 2.7837 0.0000 0.0000
# 5 0.0000 0.0000 0.0000 0.0000 14.8779 0.0000
# 6 0.0000 0.0000 0.0000 0.0000 0.0000 22.6818
#
#
#
# Elastic Compliance Matrix: (Units=1/GPa)
#
#
# Indices 1 2 3 4 5 6 
#
# 1 0.019630 -0.008640 -0.007586 0.000000 0.000000 0.000000
# 2 -0.008640 0.018150 -0.000763 0.000000 0.000000 0.000000
# 3 -0.007586 -0.000763 0.011638 0.000000 0.000000 0.000000
# 4 0.000000 0.000000 0.000000 0.359233 0.000000 0.000000
# 5 0.000000 0.000000 0.000000 0.000000 0.067214 0.000000
# 6 0.000000 0.000000 0.000000 0.000000 0.000000 0.044088
#
#
# Mechanical properties :
#
#
# Convention : Reuss Voigt Hill
#
# Bulk Modulus (GPa) = 64.76567 69.41131 67.08849
# Shear Modulus (GPa) = 8.94328 18.50184 13.72256
#
# Velocity S-wave (km/s) = 2.17717 3.13149 2.69688
# Velocity P-wave (km/s) = 6.37549 7.06145 6.72722
#
# Compressibility (1/GPa) = 0.01544028
#
# Stress axis : x y z
#
# Youngs Moduli (GPa) = 50.94119 55.09513 85.92503
#
# Poissons Ratio (x) = 0.47603 0.65184
# Poissons Ratio (y) = 0.44014 0.06556
# Poissons Ratio (z) = 0.38645 0.04204
#
# Static dielectric constant tensor:
#      x y z
#    x 1.654670 0.000000 0.000000 
#    y 0.000000 1.643420 0.000000 
#    z 0.000000 0.000000 1.680590 
# 
# From -- ./inp_files/8597.got.cif
#   From: 2010.05.17/outbox.cif.g08.bks.cpg/sg59_5_cif.got.tgz:8597.got - 2010.06.03 14:40:33.
