data_PCOD9451523
_publ_section_title
;
Structure prediction by ZEFSAII (Michael W. Deem and Ramdas Pophale) SiO2 
 PCOD9451523
Probable space group: P M M N
;
_chemical_formula_sum "Si O2"
_cell_formula_units_Z 64
_cell_length_a 31.717019
_cell_length_b 8.172355
_cell_length_c 12.265738
_cell_angle_alpha 90.000000
_cell_angle_beta 90.000000
_cell_angle_gamma 90.000000
_cell_volume 3179.312883
_symmetry_space_group_name_H-M "P M M N"
_symmetry_group_IT_number 59
_space_group.IT_coordinate_system_code '2'
_symmetry_cell_setting 'orthorhombic'
loop_
_space_group_symop_operation_xyz
x,y,z
1/2-x,1/2-y,z
1/2+x,-y,-z
-x,1/2+y,-z
-x,-y,-z
1/2+x,1/2+y,-z
1/2-x,y,z
x,1/2-y,z
loop_
_atom_site_type_symbol
_atom_site_label
_atom_site_fract_x
_atom_site_fract_y
_atom_site_fract_z
Si Si1 0.453930 0.557896 0.463965
Si Si2 0.047360 0.446757 0.021251
Si Si3 0.818009 0.440094 0.752875
Si Si4 0.623554 0.549609 0.130514
Si Si5 0.379159 0.054738 0.618119
Si Si6 0.703517 0.448295 0.511960
Si Si7 0.796206 0.945097 0.992098
Si Si8 0.088351 0.057794 0.247441
O O1 0.500000 0.500000 0.500000
O O2 0.455049 0.750000 0.440197
O O3 0.418567 0.524177 0.555504
O O4 0.438938 0.465880 0.355295
O O5 0.048212 0.250000 0.019508
O O6 0.063436 0.498196 0.140387
O O7 0.081262 0.504448 0.931828
O O8 0.000000 0.500000 0.000000
O O9 0.806358 0.250000 0.762661
O O10 0.799968 0.502926 0.638220
O O11 0.803826 0.525117 0.863961
O O12 0.868255 0.460277 0.742970
O O13 0.623978 0.750000 0.128570
O O14 0.623862 0.499537 0.256398
O O15 0.664508 0.491777 0.062980
O O16 0.385588 0.250000 0.616489
O O17 0.335727 0.015342 0.555726
O O18 0.750000 0.493717 0.469434
O O19 0.700382 0.250000 0.512083
O O20 0.750000 0.011701 0.022289
O O21 0.795387 0.750000 0.009078
O O22 0.099181 0.250000 0.234266
#
# Coordination Sequence:
#
# PCOD9451523 Si02
#       8
#     8   8   8   8   8   8   8   8
#     4  12  26  44  65  92 126 162 203 250 305 363
#     4  10  22  40  62  89 123 157 196 246 299 355
#     4  11  21  36  60  90 124 161 198 247 304 362
#     4   9  20  40  60  85 120 158 199 250 303 353
#     4  11  23  40  64  91 121 160 208 256 304 365
#     4  10  22  40  60  85 122 164 203 250 309 364
#     4  10  20  37  62  88 118 158 202 249 301 357
#     4  11  22  40  66  94 123 157 200 252 302 356
#
# _framework density 20.130137000000001
#
# number of rings (size 3 to 8) (size 9 to 14) (size 15 to 20)
#    0.000    1.500    2.500    2.625    1.750    3.000 
#    0.000    3.125    0.000    0.000    0.000    0.000 
#    0.000    0.000    0.000    0.000    0.000    0.000 
#
# Total GULP energy -357694.011138 kJ/mol
# GULP energy per Si atom -5588.968924 kJ/mol
# Density = 2.008432 g / cm^3
# Si number density = 20.130137 Si / 1000 Ang^3
#
#
#
# Elastic Constant Matrix: (Units=GPa)
#
#
# Indices 1 2 3 4 5 6 
#
# 1 166.0421 -0.8280 65.7216 0.0000 0.0000 0.0000
# 2 -0.8280 20.1528 -1.6733 0.0000 0.0000 0.0000
# 3 65.7216 -1.6733 135.9230 0.0000 0.0000 0.0000
# 4 0.0000 0.0000 0.0000 -11.1156 0.0000 0.0000
# 5 0.0000 0.0000 0.0000 0.0000 51.3407 0.0000
# 6 0.0000 0.0000 0.0000 0.0000 0.0000 23.4816
#
#
#
# Elastic Compliance Matrix: (Units=1/GPa)
#
#
# Indices 1 2 3 4 5 6 
#
# 1 0.007448 0.000007 -0.003601 0.000000 0.000000 0.000000
# 2 0.000007 0.049672 0.000608 0.000000 0.000000 0.000000
# 3 -0.003601 0.000608 0.009106 0.000000 0.000000 0.000000
# 4 0.000000 0.000000 0.000000 -0.089964 0.000000 0.000000
# 5 0.000000 0.000000 0.000000 0.000000 0.019478 0.000000
# 6 0.000000 0.000000 0.000000 0.000000 0.000000 0.042586
#
#
# Mechanical properties :
#
#
# Convention : Reuss Voigt Hill
#
# Bulk Modulus (GPa) = 16.59658 49.83985 33.21821
# Shear Modulus (GPa) = 77.66091 30.00118 53.83104
#
# Velocity S-wave (km/s) = 6.21797 3.86471 5.17683
# Velocity P-wave (km/s) = 7.73391 6.68784 7.22982
#
# Compressibility (1/GPa) = 0.06025339
#
# Stress axis : x y z
#
# Youngs Moduli (GPa) = 134.26427 20.13218 109.81963
#
# Poissons Ratio (x) = -0.00014 0.39548
# Poissons Ratio (y) = -0.00094 -0.06678
# Poissons Ratio (z) = 0.48351 -0.01224
#
# Static dielectric constant tensor:
#      x y z
#    x 1.696690 0.000000 0.000000 
#    y 0.000000 1.728950 0.000000 
#    z 0.000000 0.000000 1.692160 
# 
# From -- ./inp_files/19397.got.cif
#   From: 2010.05.17/outbox.cif.g08.bks.cpg/sg59_10_cif.got.tgz:19397.got - 2010.06.03 14:40:33.
