data_PCOD9451898
_publ_section_title
;
Structure prediction by ZEFSAII (Michael W. Deem and Ramdas Pophale) SiO2 
 PCOD9451898
Probable space group: P M M N
;
_chemical_formula_sum "Si O2"
_cell_formula_units_Z 64
_cell_length_a 14.126151
_cell_length_b 9.076566
_cell_length_c 29.568680
_cell_angle_alpha 90.000000
_cell_angle_beta 90.000000
_cell_angle_gamma 90.000000
_cell_volume 3791.205725
_symmetry_space_group_name_H-M "P M M N"
_symmetry_group_IT_number 59
_space_group.IT_coordinate_system_code '2'
_symmetry_cell_setting 'orthorhombic'
loop_
_space_group_symop_operation_xyz
x,y,z
1/2-x,1/2-y,z
1/2+x,-y,-z
-x,1/2+y,-z
-x,-y,-z
1/2+x,1/2+y,-z
1/2-x,y,z
x,1/2-y,z
loop_
_atom_site_type_symbol
_atom_site_label
_atom_site_fract_x
_atom_site_fract_y
_atom_site_fract_z
Si Si1 0.365330 0.081864 0.020887
Si Si2 0.637951 0.424932 0.070705
Si Si3 0.861683 0.425463 0.338635
Si Si4 0.474304 0.926326 0.837887
Si Si5 0.361566 0.425709 0.756686
Si Si6 0.362615 0.923516 0.114583
Si Si7 0.856993 0.927212 0.517690
Si Si8 0.454237 0.927423 0.567661
O O1 0.250000 0.083376 0.019203
O O2 0.398356 0.250000 0.025235
O O3 0.389146 0.990594 0.065643
O O4 0.396523 0.009425 0.973892
O O5 0.750000 0.454656 0.076199
O O6 0.627135 0.250000 0.063163
O O7 0.585597 0.464499 0.116911
O O8 0.750000 0.448693 0.348530
O O9 0.874887 0.250000 0.331170
O O10 0.885106 0.511971 0.292959
O O11 0.921949 0.471310 0.382296
O O12 0.476925 0.750000 0.833817
O O13 0.424016 0.997056 0.794813
O O14 0.577442 0.992215 0.847726
O O15 0.250000 0.458989 0.764723
O O16 0.373539 0.250000 0.758097
O O17 0.250000 0.943712 0.120348
O O18 0.383298 0.750000 0.115397
O O19 0.750000 0.970444 0.529784
O O20 0.859401 0.750000 0.512568
O O21 0.937979 0.966342 0.554130
O O22 0.888489 0.000070 0.470559
O O23 0.444381 0.750000 0.564780
#
# Coordination Sequence:
#
# PCOD9451898 Si02
#       8
#     8   8   8   8   8   8   8   8
#     4   9  17  30  49  72  97 126 161 199 236 279
#     4   9  18  32  49  71 100 131 159 189 232 287
#     4   9  17  30  49  71  95 126 165 207 248 290
#     4  11  22  35  54  77 100 128 162 201 245 295
#     4  10  21  36  54  77 104 131 160 198 246 300
#     4  10  21  37  55  73  96 127 162 202 246 290
#     4   9  17  28  43  67 101 137 170 208 253 296
#     4   9  17  29  46  69  97 132 174 213 249 295
#
# _framework density 16.881171999999999
#
# number of rings (size 3 to 8) (size 9 to 14) (size 15 to 20)
#    0.000    2.500    0.000    2.250    0.000    6.250 
#    0.000    2.500    0.000    0.750    0.000    1.750 
#    0.000    0.000    0.000    0.000    0.000    0.000 
#
# Total GULP energy -357204.792723 kJ/mol
# GULP energy per Si atom -5581.324886 kJ/mol
# Density = 1.684275 g / cm^3
# Si number density = 16.881172 Si / 1000 Ang^3
#
#
#
# Elastic Constant Matrix: (Units=GPa)
#
#
# Indices 1 2 3 4 5 6 
#
# 1 86.6411 43.5513 69.5835 0.0000 0.0000 0.0000
# 2 43.5513 55.8963 63.4410 0.0000 0.0000 0.0000
# 3 69.5835 63.4410 143.0088 0.0000 0.0000 0.0000
# 4 0.0000 0.0000 0.0000 29.4966 0.0000 0.0000
# 5 0.0000 0.0000 0.0000 0.0000 28.3406 0.0000
# 6 0.0000 0.0000 0.0000 0.0000 0.0000 20.0366
#
#
#
# Elastic Compliance Matrix: (Units=1/GPa)
#
#
# Indices 1 2 3 4 5 6 
#
# 1 0.021282 -0.009726 -0.006041 0.000000 0.000000 0.000000
# 2 -0.009726 0.040477 -0.013224 0.000000 0.000000 0.000000
# 3 -0.006041 -0.013224 0.015798 0.000000 0.000000 0.000000
# 4 0.000000 0.000000 0.000000 0.033902 0.000000 0.000000
# 5 0.000000 0.000000 0.000000 0.000000 0.035285 0.000000
# 6 0.000000 0.000000 0.000000 0.000000 0.000000 0.049909
#
#
# Mechanical properties :
#
#
# Convention : Reuss Voigt Hill
#
# Bulk Modulus (GPa) = 51.08214 70.96641 61.02428
# Shear Modulus (GPa) = 19.14541 22.83948 20.99245
#
# Velocity S-wave (km/s) = 3.37134 3.68225 3.53021
# Velocity P-wave (km/s) = 6.74389 7.75942 7.26941
#
# Compressibility (1/GPa) = 0.01957631
#
# Stress axis : x y z
#
# Youngs Moduli (GPa) = 46.98792 24.70539 63.29872
#
# Poissons Ratio (x) = 0.24028 0.38236
# Poissons Ratio (y) = 0.45700 0.83706
# Poissons Ratio (z) = 0.28384 0.32670
#
# Static dielectric constant tensor:
#      x y z
#    x 1.601920 0.000000 0.000000 
#    y 0.000000 1.562960 0.000000 
#    z 0.000000 0.000000 1.531980 
# 
# From -- ./inp_files/33319.got.cif
#   From: 2010.05.17/outbox.cif.g08.bks.cpg/sg59_17_cif.got.tgz:33319.got - 2010.06.03 14:40:33.
