data_PCOD9451571
_publ_section_title
;
Structure prediction by ZEFSAII (Michael W. Deem and Ramdas Pophale) SiO2 
 PCOD9451571
Probable space group: P M M N
;
_chemical_formula_sum "Si O2"
_cell_formula_units_Z 48
_cell_length_a 10.151472
_cell_length_b 7.873676
_cell_length_c 29.850631
_cell_angle_alpha 90.000000
_cell_angle_beta 90.000000
_cell_angle_gamma 90.000000
_cell_volume 2385.943069
_symmetry_space_group_name_H-M "P M M N"
_symmetry_group_IT_number 59
_space_group.IT_coordinate_system_code '2'
_symmetry_cell_setting 'orthorhombic'
loop_
_space_group_symop_operation_xyz
x,y,z
1/2-x,1/2-y,z
1/2+x,-y,-z
-x,1/2+y,-z
-x,-y,-z
1/2+x,1/2+y,-z
1/2-x,y,z
x,1/2-y,z
loop_
_atom_site_type_symbol
_atom_site_label
_atom_site_fract_x
_atom_site_fract_y
_atom_site_fract_z
Si Si1 0.597333 0.955055 0.540893
Si Si2 0.250000 0.953448 0.043218
Si Si3 0.398430 0.045568 0.204349
Si Si4 0.899256 0.047231 0.383523
Si Si5 0.602250 0.547174 0.281205
Si Si6 0.512103 0.547100 0.892728
Si Si7 0.750000 0.458931 0.059713
O O1 0.750000 0.016639 0.537028
O O2 0.605451 0.750000 0.542948
O O3 0.516245 0.017332 0.584636
O O4 0.500000 0.000000 0.500000
O O5 0.250000 0.750000 0.042374
O O6 0.375093 0.013859 0.071204
O O7 0.250000 0.014418 0.991966
O O8 0.250000 0.982640 0.212530
O O9 0.391744 0.250000 0.201054
O O10 0.449368 0.979825 0.156250
O O11 0.496937 0.004873 0.244369
O O12 0.750000 0.980269 0.393304
O O13 0.893232 0.250000 0.390323
O O14 0.927667 0.014876 0.331380
O O15 0.750000 0.484503 0.269626
O O16 0.605710 0.750000 0.282766
O O17 0.497964 0.750000 0.887852
O O18 0.377465 0.481243 0.913552
O O19 0.750000 0.250000 0.059029
#
# Coordination Sequence:
#
# PCOD9451571 Si02
#       7
#     8   4   8   8   8   8   4
#     4  10  21  36  56  84 117 153 193 238 284 329
#     4  11  21  35  55  83 115 145 177 219 276 331
#     4  10  21  37  58  82 105 139 187 230 271 324
#     4   9  18  35  57  80 110 150 193 234 275 325
#     4  10  22  38  57  84 116 147 179 223 281 339
#     4  10  20  38  59  80 107 143 185 227 269 323
#     4   9  20  35  57  85 109 139 183 229 270 321
#
# _framework density 20.117832
#
# number of rings (size 3 to 8) (size 9 to 14) (size 15 to 20)
#    0.000    2.167    0.833    1.750    1.167    4.333 
#    0.000    4.583    0.000    0.000    0.000    0.000 
#    0.000    0.000    0.000    0.000    0.000    0.000 
#
# Total GULP energy -267929.488048 kJ/mol
# GULP energy per Si atom -5581.864334 kJ/mol
# Density = 2.007204 g / cm^3
# Si number density = 20.117832 Si / 1000 Ang^3
#
#
#
# Elastic Constant Matrix: (Units=GPa)
#
#
# Indices 1 2 3 4 5 6 
#
# 1 226.5550 2.8151 139.5770 0.0000 0.0000 0.0000
# 2 2.8151 9.4467 4.1141 0.0000 0.0000 0.0000
# 3 139.5770 4.1141 162.9539 0.0000 0.0000 0.0000
# 4 0.0000 0.0000 0.0000 21.5491 0.0000 0.0000
# 5 0.0000 0.0000 0.0000 0.0000 47.9709 0.0000
# 6 0.0000 0.0000 0.0000 0.0000 0.0000 23.4488
#
#
#
# Elastic Compliance Matrix: (Units=1/GPa)
#
#
# Indices 1 2 3 4 5 6 
#
# 1 0.009350 0.000709 -0.008027 0.000000 0.000000 0.000000
# 2 0.000709 0.107088 -0.003311 0.000000 0.000000 0.000000
# 3 -0.008027 -0.003311 0.013096 0.000000 0.000000 0.000000
# 4 0.000000 0.000000 0.000000 0.046406 0.000000 0.000000
# 5 0.000000 0.000000 0.000000 0.000000 0.020846 0.000000
# 6 0.000000 0.000000 0.000000 0.000000 0.000000 0.042646
#
#
# Mechanical properties :
#
#
# Convention : Reuss Voigt Hill
#
# Bulk Modulus (GPa) = 9.23561 76.88533 43.06047
# Shear Modulus (GPa) = 16.84740 35.42373 26.13557
#
# Velocity S-wave (km/s) = 2.89699 4.20076 3.60825
# Velocity P-wave (km/s) = 3.97376 7.86314 6.22976
#
# Compressibility (1/GPa) = 0.10827659
#
# Stress axis : x y z
#
# Youngs Moduli (GPa) = 106.94759 9.33810 76.36097
#
# Poissons Ratio (x) = -0.00662 0.61294
# Poissons Ratio (y) = -0.07586 0.25285
# Poissons Ratio (z) = 0.85846 0.03092
#
# Static dielectric constant tensor:
#      x y z
#    x 1.751460 0.000000 0.000000 
#    y 0.000000 1.737360 0.000000 
#    z 0.000000 0.000000 1.682490 
# 
# From -- ./inp_files/33056.got.cif
#   From: 2010.05.17/outbox.cif.g08.bks.cpg/sg59_17_cif.got.tgz:33056.got - 2010.06.03 14:40:33.
