data_PCOD9451212
_publ_section_title
;
Structure prediction by ZEFSAII (Michael W. Deem and Ramdas Pophale) SiO2 
 PCOD9451212
Probable space group: P M M N
;
_chemical_formula_sum "Si O2"
_cell_formula_units_Z 48
_cell_length_a 8.091433
_cell_length_b 14.858996
_cell_length_c 17.998003
_cell_angle_alpha 90.000000
_cell_angle_beta 90.000000
_cell_angle_gamma 90.000000
_cell_volume 2163.910170
_symmetry_space_group_name_H-M "P M M N"
_symmetry_group_IT_number 59
_space_group.IT_coordinate_system_code '2'
_symmetry_cell_setting 'orthorhombic'
loop_
_space_group_symop_operation_xyz
x,y,z
1/2-x,1/2-y,z
1/2+x,-y,-z
-x,1/2+y,-z
-x,-y,-z
1/2+x,1/2+y,-z
1/2-x,y,z
x,1/2-y,z
loop_
_atom_site_type_symbol
_atom_site_label
_atom_site_fract_x
_atom_site_fract_y
_atom_site_fract_z
Si Si1 0.569109 0.110721 0.572303
Si Si2 0.250000 0.855906 0.675746
Si Si3 0.548463 0.645972 0.108385
Si Si4 0.750000 0.360230 0.156172
Si Si5 0.427791 0.395151 0.421491
Si Si6 0.563988 0.857226 0.265693
Si Si7 0.558612 0.639267 0.944294
O O1 0.750000 0.145794 0.553641
O O2 0.451860 0.140792 0.505409
O O3 0.526640 0.132364 0.656729
O O4 0.575466 0.002801 0.570792
O O5 0.250000 0.750000 0.685838
O O6 0.250000 0.894152 0.759198
O O7 0.414642 0.877234 0.629491
O O8 0.750000 0.646851 0.112380
O O9 0.490744 0.750000 0.105240
O O10 0.492164 0.606198 0.187666
O O11 0.509241 0.607345 0.027540
O O12 0.750000 0.250000 0.155166
O O13 0.583265 0.388894 0.113200
O O14 0.250000 0.364931 0.391125
O O15 0.750000 0.892675 0.276631
O O16 0.575142 0.750000 0.253364
O O17 0.750000 0.613075 0.928541
O O18 0.559624 0.750000 0.945693
#
# Coordination Sequence:
#
# PCOD9451212 Si02
#       7
#     8   4   8   4   8   8   8
#     4  10  20  36  57  80 108 143 189 229 258 318
#     4  11  24  40  58  85 116 138 172 233 289 328
#     4   7  11  22  39  63 101 141 175 211 255 311
#     4   9  18  30  46  73 103 132 172 217 268 324
#     4  10  22  40  61  81 104 143 187 227 270 322
#     4   9  17  28  46  77 115 149 179 218 270 322
#     4   8  13  24  43  65  96 138 174 208 255 312
#
# _framework density 22.182068000000001
#
# number of rings (size 3 to 8) (size 9 to 14) (size 15 to 20)
#    0.000    3.000    0.833    2.500    2.333    2.000 
#    1.500    1.667    0.000    0.000    0.000    1.167 
#    0.000    0.000    0.000    0.000    0.000    0.000 
#
# Total GULP energy -267573.102206 kJ/mol
# GULP energy per Si atom -5574.439629 kJ/mol
# Density = 2.213158 g / cm^3
# Si number density = 22.182068 Si / 1000 Ang^3
#
#
#
# Elastic Constant Matrix: (Units=GPa)
#
#
# Indices 1 2 3 4 5 6 
#
# 1 139.7463 2.3591 95.0463 0.0000 0.0000 0.0000
# 2 2.3591 39.5301 10.4658 0.0000 0.0000 0.0000
# 3 95.0463 10.4658 194.8666 0.0000 0.0000 0.0000
# 4 0.0000 0.0000 0.0000 26.6167 0.0000 0.0000
# 5 0.0000 0.0000 0.0000 0.0000 30.7593 0.0000
# 6 0.0000 0.0000 0.0000 0.0000 0.0000 6.3409
#
#
#
# Elastic Compliance Matrix: (Units=1/GPa)
#
#
# Indices 1 2 3 4 5 6 
#
# 1 0.010730 0.000756 -0.005274 0.000000 0.000000 0.000000
# 2 0.000756 0.025715 -0.001750 0.000000 0.000000 0.000000
# 3 -0.005274 -0.001750 0.007798 0.000000 0.000000 0.000000
# 4 0.000000 0.000000 0.000000 0.037570 0.000000 0.000000
# 5 0.000000 0.000000 0.000000 0.000000 0.032510 0.000000
# 6 0.000000 0.000000 0.000000 0.000000 0.000000 0.157706
#
#
# Mechanical properties :
#
#
# Convention : Reuss Voigt Hill
#
# Bulk Modulus (GPa) = 31.53818 65.54282 48.54050
# Shear Modulus (GPa) = 16.94135 30.49483 23.71809
#
# Velocity S-wave (km/s) = 2.76658 3.71179 3.27348
# Velocity P-wave (km/s) = 4.94510 6.92688 6.01813
#
# Compressibility (1/GPa) = 0.03170760
#
# Stress axis : x y z
#
# Youngs Moduli (GPa) = 93.19392 38.88729 128.23389
#
# Poissons Ratio (x) = -0.02940 0.67635
# Poissons Ratio (y) = -0.07046 0.22439
# Poissons Ratio (z) = 0.49153 0.06805
#
# Static dielectric constant tensor:
#      x y z
#    x 1.827880 0.000000 0.000000 
#    y 0.000000 1.856680 0.000000 
#    z 0.000000 0.000000 1.851730 
# 
# From -- ./inp_files/25576.got.cif
#   From: 2010.05.17/outbox.cif.g08.bks.cpg/sg59_13_cif.got.tgz:25576.got - 2010.06.03 14:40:33.
