data_PCOD9451395
_publ_section_title
;
Structure prediction by ZEFSAII (Michael W. Deem and Ramdas Pophale) SiO2 
 PCOD9451395
Probable space group: P M M N
;
_chemical_formula_sum "Si O2"
_cell_formula_units_Z 64
_cell_length_a 8.422237
_cell_length_b 25.266808
_cell_length_c 14.494742
_cell_angle_alpha 90.000000
_cell_angle_beta 90.000000
_cell_angle_gamma 90.000000
_cell_volume 3084.525237
_symmetry_space_group_name_H-M "P M M N"
_symmetry_group_IT_number 59
_space_group.IT_coordinate_system_code '2'
_symmetry_cell_setting 'orthorhombic'
loop_
_space_group_symop_operation_xyz
x,y,z
1/2-x,1/2-y,z
1/2+x,-y,-z
-x,1/2+y,-z
-x,-y,-z
1/2+x,1/2+y,-z
1/2-x,y,z
x,1/2-y,z
loop_
_atom_site_type_symbol
_atom_site_label
_atom_site_fract_x
_atom_site_fract_y
_atom_site_fract_z
Si Si1 0.568130 0.597384 0.568619
Si Si2 0.060499 0.983263 0.099887
Si Si3 0.058308 0.860292 0.089809
Si Si4 0.432429 0.983555 0.711647
Si Si5 0.567795 0.412304 0.628691
Si Si6 0.560038 0.187140 0.308080
Si Si7 0.056931 0.811479 0.898174
Si Si8 0.939057 0.809912 0.272780
O O1 0.750000 0.595658 0.537723
O O2 0.536469 0.554166 0.647466
O O3 0.459078 0.586142 0.480610
O O4 0.526662 0.653320 0.614875
O O5 0.250000 0.988560 0.104822
O O6 0.020631 0.921144 0.112011
O O7 0.982117 0.016490 0.181769
O O8 0.000000 0.000000 0.000000
O O9 0.250000 0.854231 0.094312
O O10 0.981683 0.823268 0.166895
O O11 0.005888 0.845163 0.986335
O O12 0.250000 0.967554 0.701897
O O13 0.459813 0.043113 0.675551
O O14 0.750000 0.424116 0.653023
O O15 0.522866 0.354550 0.666139
O O16 0.750000 0.177988 0.315156
O O17 0.533900 0.250000 0.316554
O O18 0.506972 0.171044 0.204290
O O19 0.250000 0.812385 0.896481
O O20 0.010246 0.750000 0.910846
O O21 0.750000 0.813916 0.285502
O O22 0.989226 0.750000 0.294897
#
# Coordination Sequence:
#
# PCOD9451395 Si02
#       8
#     8   8   8   8   8   8   8   8
#     4  12  26  43  66  96 127 164 211 262 319 387
#     4  11  24  40  61  96 134 173 213 260 316 380
#     4  10  20  36  61  90 124 166 214 260 311 377
#     4  12  25  45  70  95 128 168 210 264 320 381
#     4  12  25  45  69  95 125 162 210 264 324 387
#     4   9  19  38  63  92 127 167 212 261 314 373
#     4   8  15  30  55  86 118 155 201 250 299 356
#     4  11  24  41  63  94 131 172 217 266 324 385
#
# _framework density 20.748735
#
# number of rings (size 3 to 8) (size 9 to 14) (size 15 to 20)
#    0.000    1.375    1.250    5.625    1.750    2.750 
#    0.000    0.625    0.000    0.750    0.000    0.000 
#    0.000    0.000    0.000    0.000    0.000    0.000 
#
# Total GULP energy -358001.197792 kJ/mol
# GULP energy per Si atom -5593.768716 kJ/mol
# Density = 2.070151 g / cm^3
# Si number density = 20.748735 Si / 1000 Ang^3
#
#
#
# Elastic Constant Matrix: (Units=GPa)
#
#
# Indices 1 2 3 4 5 6 
#
# 1 31.3255 5.6390 -7.6593 0.0000 0.0000 0.0000
# 2 5.6390 49.4255 4.9532 0.0000 0.0000 0.0000
# 3 -7.6593 4.9532 88.5197 0.0000 0.0000 0.0000
# 4 0.0000 0.0000 0.0000 11.7241 0.0000 0.0000
# 5 0.0000 0.0000 0.0000 0.0000 30.4504 0.0000
# 6 0.0000 0.0000 0.0000 0.0000 0.0000 23.6936
#
#
#
# Elastic Compliance Matrix: (Units=1/GPa)
#
#
# Indices 1 2 3 4 5 6 
#
# 1 0.033430 -0.004127 0.003123 0.000000 0.000000 0.000000
# 2 -0.004127 0.020856 -0.001524 0.000000 0.000000 0.000000
# 3 0.003123 -0.001524 0.011652 0.000000 0.000000 0.000000
# 4 0.000000 0.000000 0.000000 0.085294 0.000000 0.000000
# 5 0.000000 0.000000 0.000000 0.000000 0.032840 0.000000
# 6 0.000000 0.000000 0.000000 0.000000 0.000000 0.042205
#
#
# Mechanical properties :
#
#
# Convention : Reuss Voigt Hill
#
# Bulk Modulus (GPa) = 16.42504 19.45964 17.94234
# Shear Modulus (GPa) = 19.87065 24.26282 22.06673
#
# Velocity S-wave (km/s) = 3.09800 3.42331 3.26471
# Velocity P-wave (km/s) = 4.55304 5.00244 4.78302
#
# Compressibility (1/GPa) = 0.06088265
#
# Stress axis : x y z
#
# Youngs Moduli (GPa) = 29.91367 47.94771 85.81877
#
# Poissons Ratio (x) = 0.19788 -0.26805
# Poissons Ratio (y) = 0.12345 0.13080
# Poissons Ratio (z) = -0.09343 0.07308
#
# Static dielectric constant tensor:
#      x y z
#    x 1.709330 0.000000 0.000000 
#    y 0.000000 1.729000 0.000000 
#    z 0.000000 0.000000 1.728790 
# 
# From -- ./inp_files/21573.got.cif
#   From: 2010.05.17/outbox.cif.g08.bks.cpg/sg59_11_cif.got.tgz:21573.got - 2010.06.03 14:40:33.
