data_PCOD9451767
_publ_section_title
;
Structure prediction by ZEFSAII (Michael W. Deem and Ramdas Pophale) SiO2 
 PCOD9451767
Probable space group: P M M N
;
_chemical_formula_sum "Si O2"
_cell_formula_units_Z 58
_cell_length_a 23.180112
_cell_length_b 8.841213
_cell_length_c 14.556833
_cell_angle_alpha 90.000000
_cell_angle_beta 90.000000
_cell_angle_gamma 90.000000
_cell_volume 2983.281832
_symmetry_space_group_name_H-M "P M M N"
_symmetry_group_IT_number 59
_space_group.IT_coordinate_system_code '2'
_symmetry_cell_setting 'orthorhombic'
loop_
_space_group_symop_operation_xyz
x,y,z
1/2-x,1/2-y,z
1/2+x,-y,-z
-x,1/2+y,-z
-x,-y,-z
1/2+x,1/2+y,-z
1/2-x,y,z
x,1/2-y,z
loop_
_atom_site_type_symbol
_atom_site_label
_atom_site_fract_x
_atom_site_fract_y
_atom_site_fract_z
Si Si1 0.815070 0.430854 0.229187
Si Si2 0.429367 0.429628 0.744671
Si Si3 0.121184 0.930013 0.146482
Si Si4 0.026668 0.569423 0.408178
Si Si5 0.317525 0.075942 0.973030
Si Si6 0.998896 0.569579 0.898572
Si Si7 0.750000 0.750000 0.604905
Si Si8 0.140465 0.082139 0.329416
O O1 0.750000 0.467857 0.261547
O O2 0.821161 0.250000 0.227722
O O3 0.867139 0.506801 0.284474
O O4 0.820180 0.496242 0.125738
O O5 0.426051 0.250000 0.759151
O O6 0.479610 0.460693 0.671519
O O7 0.447618 0.512430 0.838495
O O8 0.117225 0.750000 0.147175
O O9 0.153761 0.990054 0.236596
O O10 0.057737 0.002226 0.149710
O O11 0.149185 0.988074 0.052308
O O12 0.032845 0.750000 0.416245
O O13 0.088474 0.498054 0.382855
O O14 0.000000 0.500000 0.500000
O O15 0.250000 0.079239 0.998940
O O16 0.338169 0.250000 0.966470
O O17 0.997503 0.750000 0.903091
O O18 0.000000 0.500000 0.000000
O O19 0.698225 0.880040 0.614058
O O20 0.119215 0.250000 0.299698
#
# Coordination Sequence:
#
# PCOD9451767 Si02
#       8
#     8   8   8   8   8   8   2   8
#     4  10  21  38  59  85 121 163 212 267 324 386
#     4  11  23  40  63  93 126 162 210 265 326 389
#     4  12  23  35  53  82 122 165 217 273 322 388
#     4  11  24  43  72 104 133 168 216 276 330 398
#     4  10  21  35  53  77 112 164 221 268 313 379
#     4  12  24  38  57  83 121 170 215 271 332 386
#     4   8  24  40  70  96 136 176 210 268 324 400
#     4  10  21  41  65  94 128 171 212 258 323 387
#
# _framework density 19.441676999999999
#
# number of rings (size 3 to 8) (size 9 to 14) (size 15 to 20)
#    0.414    0.828    1.379    5.379    0.966    3.310 
#    0.000    1.034    1.517    0.000    0.000    0.000 
#    0.000    0.000    0.000    0.000    0.000    0.000 
#
# Total GULP energy -323458.211327 kJ/mol
# GULP energy per Si atom -5576.865713 kJ/mol
# Density = 1.939743 g / cm^3
# Si number density = 19.441677 Si / 1000 Ang^3
#
#
#
# Elastic Constant Matrix: (Units=GPa)
#
#
# Indices 1 2 3 4 5 6 
#
# 1 139.8998 57.1703 25.7291 0.0000 0.0000 0.0000
# 2 57.1703 131.9504 32.8049 0.0000 0.0000 0.0000
# 3 25.7291 32.8049 46.8530 0.0000 0.0000 0.0000
# 4 0.0000 0.0000 0.0000 25.6920 0.0000 0.0000
# 5 0.0000 0.0000 0.0000 0.0000 10.8837 0.0000
# 6 0.0000 0.0000 0.0000 0.0000 0.0000 37.3280
#
#
#
# Elastic Compliance Matrix: (Units=1/GPa)
#
#
# Indices 1 2 3 4 5 6 
#
# 1 0.008952 -0.003216 -0.002664 0.000000 0.000000 0.000000
# 2 -0.003216 0.010332 -0.005467 0.000000 0.000000 0.000000
# 3 -0.002664 -0.005467 0.026634 0.000000 0.000000 0.000000
# 4 0.000000 0.000000 0.000000 0.038923 0.000000 0.000000
# 5 0.000000 0.000000 0.000000 0.000000 0.091880 0.000000
# 6 0.000000 0.000000 0.000000 0.000000 0.000000 0.026790
#
#
# Mechanical properties :
#
#
# Convention : Reuss Voigt Hill
#
# Bulk Modulus (GPa) = 43.06208 61.12353 52.09281
# Shear Modulus (GPa) = 21.37230 28.31400 24.84315
#
# Velocity S-wave (km/s) = 3.31917 3.82036 3.57855
# Velocity P-wave (km/s) = 6.07344 7.13918 6.62777
#
# Compressibility (1/GPa) = 0.02322228
#
# Stress axis : x y z
#
# Youngs Moduli (GPa) = 111.70271 96.79130 37.54536
#
# Poissons Ratio (x) = 0.31133 0.10002
# Poissons Ratio (y) = 0.35929 0.20528
# Poissons Ratio (z) = 0.29758 0.52920
#
# Static dielectric constant tensor:
#      x y z
#    x 1.731610 0.000000 0.000000 
#    y 0.000000 1.672920 0.000000 
#    z 0.000000 0.000000 1.673820 
# 
# From -- ./inp_files/24639.got.cif
#   From: 2010.05.17/outbox.cif.g08.bks.cpg/sg59_13_cif.got.tgz:24639.got - 2010.06.03 14:40:33.
