data_PCOD9451977
_publ_section_title
;
Structure prediction by ZEFSAII (Michael W. Deem and Ramdas Pophale) SiO2 
 PCOD9451977
Probable space group: P M M N
;
_chemical_formula_sum "Si O2"
_cell_formula_units_Z 40
_cell_length_a 26.124234
_cell_length_b 8.688560
_cell_length_c 9.444895
_cell_angle_alpha 90.000000
_cell_angle_beta 90.000000
_cell_angle_gamma 90.000000
_cell_volume 2143.820917
_symmetry_space_group_name_H-M "P M M N"
_symmetry_group_IT_number 59
_space_group.IT_coordinate_system_code '2'
_symmetry_cell_setting 'orthorhombic'
loop_
_space_group_symop_operation_xyz
x,y,z
1/2-x,1/2-y,z
1/2+x,-y,-z
-x,1/2+y,-z
-x,-y,-z
1/2+x,1/2+y,-z
1/2-x,y,z
x,1/2-y,z
loop_
_atom_site_type_symbol
_atom_site_label
_atom_site_fract_x
_atom_site_fract_y
_atom_site_fract_z
Si Si1 0.904943 0.936221 0.664537
Si Si2 0.191694 0.064409 0.151015
Si Si3 0.191227 0.565835 0.840028
Si Si4 0.099210 0.435736 0.661726
Si Si5 0.000270 0.565247 0.158246
O O1 0.908667 0.750000 0.669677
O O2 0.850812 0.980958 0.734994
O O3 0.907783 0.984662 0.500923
O O4 0.950726 0.005640 0.756085
O O5 0.250000 0.017920 0.187375
O O6 0.190786 0.250000 0.139805
O O7 0.178969 0.996195 0.997186
O O8 0.250000 0.519280 0.808645
O O9 0.188728 0.750000 0.841255
O O10 0.150903 0.499995 0.729508
O O11 0.101679 0.250000 0.663675
O O12 0.050885 0.483241 0.757323
O O13 0.001150 0.750000 0.152415
O O14 0.000000 0.500000 0.000000
#
# Coordination Sequence:
#
# PCOD9451977 Si02
#       5
#     8   8   8   8   8
#     4  10  21  37  57  82 110 140 179 225 272 323
#     4   9  18  34  56  80 106 138 177 220 265 316
#     4  10  21  36  55  81 111 143 181 223 266 315
#     4  10  22  38  56  80 110 144 181 222 270 325
#     4  11  23  38  57  81 109 143 183 225 271 323
#
# _framework density 18.658273999999999
#
# number of rings (size 3 to 8) (size 9 to 14) (size 15 to 20)
#    0.000    2.000    0.000    3.000    0.000   10.000 
#    0.000    2.000    0.000    2.400    0.000    0.000 
#    0.000    0.000    0.000    0.000    0.000    0.000 
#
# Total GULP energy -223461.176862 kJ/mol
# GULP energy per Si atom -5586.529422 kJ/mol
# Density = 1.861581 g / cm^3
# Si number density = 18.658274 Si / 1000 Ang^3
#
#
#
# Elastic Constant Matrix: (Units=GPa)
#
#
# Indices 1 2 3 4 5 6 
#
# 1 132.1028 34.1126 120.8799 0.0000 0.0000 0.0000
# 2 34.1126 14.5185 39.8833 0.0000 0.0000 0.0000
# 3 120.8799 39.8833 197.9158 0.0000 0.0000 0.0000
# 4 0.0000 0.0000 0.0000 20.9281 0.0000 0.0000
# 5 0.0000 0.0000 0.0000 0.0000 -8.9927 0.0000
# 6 0.0000 0.0000 0.0000 0.0000 0.0000 32.2091
#
#
#
# Elastic Compliance Matrix: (Units=1/GPa)
#
#
# Indices 1 2 3 4 5 6 
#
# 1 0.022938 -0.034517 -0.007054 0.000000 0.000000 0.000000
# 2 -0.034517 0.206231 -0.020477 0.000000 0.000000 0.000000
# 3 -0.007054 -0.020477 0.013487 0.000000 0.000000 0.000000
# 4 0.000000 0.000000 0.000000 0.047783 0.000000 0.000000
# 5 0.000000 0.000000 0.000000 0.000000 -0.111202 0.000000
# 6 0.000000 0.000000 0.000000 0.000000 0.000000 0.031047
#
#
# Mechanical properties :
#
#
# Convention : Reuss Voigt Hill
#
# Bulk Modulus (GPa) = 8.43453 81.58763 45.01108
# Shear Modulus (GPa) = 13.37254 18.80634 16.08944
#
# Velocity S-wave (km/s) = 2.68005 3.17824 2.93972
# Velocity P-wave (km/s) = 3.75596 7.56905 5.97485
#
# Compressibility (1/GPa) = 0.11856026
#
# Stress axis : x y z
#
# Youngs Moduli (GPa) = 43.59654 4.84892 74.14390
#
# Poissons Ratio (x) = 0.16737 0.52299
# Poissons Ratio (y) = 1.50483 1.51826
# Poissons Ratio (z) = 0.30752 0.09929
#
# Static dielectric constant tensor:
#      x y z
#    x 1.634830 0.000000 0.000000 
#    y 0.000000 1.634360 0.000000 
#    z 0.000000 0.000000 1.608770 
# 
# From -- ./inp_files/5634.got.cif
#   From: 2010.05.17/outbox.cif.g08.bks.cpg/sg59_3_cif.got.tgz:5634.got - 2010.06.03 14:40:33.
