data_PCOD9451612
_publ_section_title
;
Structure prediction by ZEFSAII (Michael W. Deem and Ramdas Pophale) SiO2 
 PCOD9451612
Probable space group: P M M N
;
_chemical_formula_sum "Si O2"
_cell_formula_units_Z 64
_cell_length_a 13.262722
_cell_length_b 17.816361
_cell_length_c 12.430925
_cell_angle_alpha 90.000000
_cell_angle_beta 90.000000
_cell_angle_gamma 90.000000
_cell_volume 2937.346068
_symmetry_space_group_name_H-M "P M M N"
_symmetry_group_IT_number 59
_space_group.IT_coordinate_system_code '2'
_symmetry_cell_setting 'orthorhombic'
loop_
_space_group_symop_operation_xyz
x,y,z
1/2-x,1/2-y,z
1/2+x,-y,-z
-x,1/2+y,-z
-x,-y,-z
1/2+x,1/2+y,-z
1/2-x,y,z
x,1/2-y,z
loop_
_atom_site_type_symbol
_atom_site_label
_atom_site_fract_x
_atom_site_fract_y
_atom_site_fract_z
Si Si1 0.139161 0.946839 0.692982
Si Si2 0.863942 0.078934 0.700491
Si Si3 0.140500 0.107088 0.814269
Si Si4 0.453145 0.569053 0.067350
Si Si5 0.417652 0.660999 0.879597
Si Si6 0.076834 0.070530 0.405947
Si Si7 0.360248 0.160285 0.197955
Si Si8 0.446847 0.165972 0.611417
O O1 0.250000 0.947934 0.641547
O O2 0.131766 0.877746 0.776215
O O3 0.042891 0.940208 0.616425
O O4 0.129160 0.022951 0.763848
O O5 0.750000 0.106980 0.704265
O O6 0.897163 0.050534 0.820270
O O7 0.945610 0.138843 0.659016
O O8 0.872989 0.008750 0.619864
O O9 0.250000 0.113897 0.864564
O O10 0.127419 0.160599 0.712483
O O11 0.048834 0.118016 0.894215
O O12 0.500000 0.500000 0.000000
O O13 0.385463 0.617957 0.987227
O O14 0.402054 0.750000 0.882910
O O15 0.537851 0.643437 0.867232
O O16 0.120417 0.125928 0.315386
O O17 0.088993 0.107487 0.521492
O O18 0.250000 0.133901 0.157874
O O19 0.357157 0.250000 0.205386
O O20 0.452850 0.250000 0.567612
#
# Coordination Sequence:
#
# PCOD9451612 Si02
#       8
#     8   8   8   8   8   8   8   8
#     4  10  20  38  63  91 124 157 202 258 310 364
#     4  11  25  42  63  91 125 164 208 258 309 369
#     4  10  22  40  63  91 121 158 203 256 307 362
#     4  11  20  38  61  91 122 164 209 255 309 368
#     4  10  21  36  58  88 127 166 206 255 309 372
#     4  11  20  40  64  94 118 159 208 256 312 365
#     4   9  18  33  55  88 128 162 198 254 316 369
#     4  11  25  44  64  91 128 165 205 253 311 377
#
# _framework density 21.788374999999998
#
# number of rings (size 3 to 8) (size 9 to 14) (size 15 to 20)
#    0.000    1.625    3.750    1.875    0.000    6.250 
#    0.000    0.000    0.000    0.000    0.000    0.000 
#    0.000    0.000    0.000    0.000    0.000    0.000 
#
# Total GULP energy -357603.677994 kJ/mol
# GULP energy per Si atom -5587.557469 kJ/mol
# Density = 2.173878 g / cm^3
# Si number density = 21.788375 Si / 1000 Ang^3
#
#
#
# Elastic Constant Matrix: (Units=GPa)
#
#
# Indices 1 2 3 4 5 6 
#
# 1 87.4457 -11.3161 -11.1532 0.0000 0.0000 0.0000
# 2 -11.3161 74.2084 12.8076 0.0000 0.0000 0.0000
# 3 -11.1532 12.8076 67.8686 0.0000 0.0000 0.0000
# 4 0.0000 0.0000 0.0000 25.4374 0.0000 0.0000
# 5 0.0000 0.0000 0.0000 0.0000 4.2665 0.0000
# 6 0.0000 0.0000 0.0000 0.0000 0.0000 9.9085
#
#
#
# Elastic Compliance Matrix: (Units=1/GPa)
#
#
# Indices 1 2 3 4 5 6 
#
# 1 0.011844 0.001520 0.001660 0.000000 0.000000 0.000000
# 2 0.001520 0.014124 -0.002416 0.000000 0.000000 0.000000
# 3 0.001660 -0.002416 0.015463 0.000000 0.000000 0.000000
# 4 0.000000 0.000000 0.000000 0.039312 0.000000 0.000000
# 5 0.000000 0.000000 0.000000 0.000000 0.234386 0.000000
# 6 0.000000 0.000000 0.000000 0.000000 0.000000 0.100923
#
#
# Mechanical properties :
#
#
# Convention : Reuss Voigt Hill
#
# Bulk Modulus (GPa) = 23.27834 23.35547 23.31690
# Shear Modulus (GPa) = 11.65923 23.86810 17.76367
#
# Velocity S-wave (km/s) = 2.31576 3.31335 2.85841
# Velocity P-wave (km/s) = 4.22580 5.03788 4.64960
#
# Compressibility (1/GPa) = 0.04295840
#
# Stress axis : x y z
#
# Youngs Moduli (GPa) = 84.43091 70.80039 64.67072
#
# Poissons Ratio (x) = -0.10759 -0.10733
# Poissons Ratio (y) = -0.12831 0.15622
# Poissons Ratio (z) = -0.14012 0.17103
#
# Static dielectric constant tensor:
#      x y z
#    x 1.812590 0.000000 0.000000 
#    y 0.000000 1.776050 0.000000 
#    z 0.000000 0.000000 1.786500 
# 
# From -- ./inp_files/17213.got.cif
#   From: 2010.05.17/outbox.cif.g08.bks.cpg/sg59_9_cif.got.tgz:17213.got - 2010.06.03 14:40:33.
