data_PCOD9451203
_publ_section_title
;
Structure prediction by ZEFSAII (Michael W. Deem and Ramdas Pophale) SiO2 
 PCOD9451203
Probable space group: P M M N
;
_chemical_formula_sum "Si O2"
_cell_formula_units_Z 48
_cell_length_a 18.514678
_cell_length_b 8.767648
_cell_length_c 16.894774
_cell_angle_alpha 90.000000
_cell_angle_beta 90.000000
_cell_angle_gamma 90.000000
_cell_volume 2742.531697
_symmetry_space_group_name_H-M "P M M N"
_symmetry_group_IT_number 59
_space_group.IT_coordinate_system_code '2'
_symmetry_cell_setting 'orthorhombic'
loop_
_space_group_symop_operation_xyz
x,y,z
1/2-x,1/2-y,z
1/2+x,-y,-z
-x,1/2+y,-z
-x,-y,-z
1/2+x,1/2+y,-z
1/2-x,y,z
x,1/2-y,z
loop_
_atom_site_type_symbol
_atom_site_label
_atom_site_fract_x
_atom_site_fract_y
_atom_site_fract_z
Si Si1 0.833953 0.066394 0.151303
Si Si2 0.543924 0.567601 0.252613
Si Si3 0.025427 0.932757 0.417492
Si Si4 0.080508 0.932885 0.008464
Si Si5 0.098382 0.431775 0.174758
Si Si6 0.668721 0.066047 0.671382
O O1 0.750000 0.023805 0.151428
O O2 0.838991 0.250000 0.159717
O O3 0.879731 0.988077 0.220463
O O4 0.872137 0.025890 0.068158
O O5 0.536413 0.750000 0.244244
O O6 0.526713 0.527361 0.343702
O O7 0.481539 0.488092 0.200523
O O8 0.026046 0.750000 0.424192
O O9 0.105720 0.981586 0.389356
O O10 0.000000 0.000000 0.500000
O O11 0.075858 0.750000 0.012998
O O12 0.113941 0.997563 0.089238
O O13 0.000000 0.000000 0.000000
O O14 0.099908 0.250000 0.171086
O O15 0.150218 0.492994 0.243910
O O16 0.750000 0.027503 0.646501
O O17 0.663590 0.250000 0.679826
#
# Coordination Sequence:
#
# PCOD9451203 Si02
#       6
#     8   8   8   8   8   8
#     4  10  22  38  55  78 108 143 185 231 278 324
#     4  10  20  36  57  79 106 141 182 223 268 324
#     4   9  19  35  57  85 110 139 178 220 270 331
#     4  11  21  34  54  79 109 147 189 232 274 321
#     4  11  21  33  53  81 110 143 183 226 272 327
#     4   9  19  37  58  80 110 145 182 228 280 330
#
# _framework density 17.502077
#
# number of rings (size 3 to 8) (size 9 to 14) (size 15 to 20)
#    0.000    2.000    1.667    3.500    0.000    5.333 
#    0.000    2.500    0.000    3.000    0.000    0.000 
#    0.000    0.000    0.000    0.000    0.000    0.000 
#
# Total GULP energy -267961.974917 kJ/mol
# GULP energy per Si atom -5582.541144 kJ/mol
# Density = 1.746224 g / cm^3
# Si number density = 17.502077 Si / 1000 Ang^3
#
#
#
# Elastic Constant Matrix: (Units=GPa)
#
#
# Indices 1 2 3 4 5 6 
#
# 1 141.5669 43.8949 83.6678 0.0000 0.0000 0.0000
# 2 43.8949 43.2571 45.8026 0.0000 0.0000 0.0000
# 3 83.6678 45.8026 150.0437 0.0000 0.0000 0.0000
# 4 0.0000 0.0000 0.0000 33.3069 0.0000 0.0000
# 5 0.0000 0.0000 0.0000 0.0000 18.2636 0.0000
# 6 0.0000 0.0000 0.0000 0.0000 0.0000 26.0093
#
#
#
# Elastic Compliance Matrix: (Units=1/GPa)
#
#
# Indices 1 2 3 4 5 6 
#
# 1 0.011990 -0.007517 -0.004391 0.000000 0.000000 0.000000
# 2 -0.007517 0.038871 -0.007674 0.000000 0.000000 0.000000
# 3 -0.004391 -0.007674 0.011456 0.000000 0.000000 0.000000
# 4 0.000000 0.000000 0.000000 0.030024 0.000000 0.000000
# 5 0.000000 0.000000 0.000000 0.000000 0.054754 0.000000
# 6 0.000000 0.000000 0.000000 0.000000 0.000000 0.038448
#
#
# Mechanical properties :
#
#
# Convention : Reuss Voigt Hill
#
# Bulk Modulus (GPa) = 43.19232 75.73313 59.46272
# Shear Modulus (GPa) = 21.51236 26.28280 23.89758
#
# Velocity S-wave (km/s) = 3.50970 3.87938 3.69916
# Velocity P-wave (km/s) = 6.41529 7.96436 7.23142
#
# Compressibility (1/GPa) = 0.02315226
#
# Stress axis : x y z
#
# Youngs Moduli (GPa) = 83.40446 25.72589 87.29092
#
# Poissons Ratio (x) = 0.19338 0.38330
# Poissons Ratio (y) = 0.62696 0.66989
# Poissons Ratio (z) = 0.36624 0.19743
#
# Static dielectric constant tensor:
#      x y z
#    x 1.598910 0.000000 0.000000 
#    y 0.000000 1.589130 0.000000 
#    z 0.000000 0.000000 1.580490 
# 
# From -- ./inp_files/27788.got.cif
#   From: 2010.05.17/outbox.cif.g08.bks.cpg/sg59_14_cif.got.tgz:27788.got - 2010.06.03 14:40:33.
