data_PCOD9451416
_publ_section_title
;
Structure prediction by ZEFSAII (Michael W. Deem and Ramdas Pophale) SiO2 
 PCOD9451416
Probable space group: P M M N
;
_chemical_formula_sum "Si O2"
_cell_formula_units_Z 48
_cell_length_a 15.920231
_cell_length_b 18.031236
_cell_length_c 8.708182
_cell_angle_alpha 90.000000
_cell_angle_beta 90.000000
_cell_angle_gamma 90.000000
_cell_volume 2499.783285
_symmetry_space_group_name_H-M "P M M N"
_symmetry_group_IT_number 59
_space_group.IT_coordinate_system_code '2'
_symmetry_cell_setting 'orthorhombic'
loop_
_space_group_symop_operation_xyz
x,y,z
1/2-x,1/2-y,z
1/2+x,-y,-z
-x,1/2+y,-z
-x,-y,-z
1/2+x,1/2+y,-z
1/2-x,y,z
x,1/2-y,z
loop_
_atom_site_type_symbol
_atom_site_label
_atom_site_fract_x
_atom_site_fract_y
_atom_site_fract_z
Si Si1 0.982332 0.166462 0.436863
Si Si2 0.842305 0.443150 0.556986
Si Si3 0.154542 0.108476 0.567047
Si Si4 0.657716 0.881961 0.068950
Si Si5 0.107403 0.977815 0.106415
Si Si6 0.003602 0.614582 0.896622
O O1 0.964580 0.250000 0.485144
O O2 0.919107 0.109957 0.517731
O O3 0.970366 0.156804 0.254400
O O4 0.078913 0.147260 0.477456
O O5 0.750000 0.412280 0.517276
O O6 0.852135 0.520986 0.468219
O O7 0.845234 0.461065 0.737921
O O8 0.250000 0.131197 0.521973
O O9 0.145474 0.122233 0.748945
O O10 0.750000 0.851715 0.030304
O O11 0.577986 0.849831 0.978218
O O12 0.654871 0.968081 0.012377
O O13 0.073863 0.904921 0.021594
O O14 0.028633 0.031463 0.152792
#
# Coordination Sequence:
#
# PCOD9451416 Si02
#       6
#     8   8   8   8   8   8
#     4  12  25  39  57  81 122 165 196 238 299 365
#     4  11  22  37  63  89 114 150 200 250 293 344
#     4  10  20  36  63  93 118 149 192 243 295 352
#     4   9  16  29  53  85 115 138 176 235 291 340
#     4   9  17  32  58  85 110 139 185 248 292 334
#     4   9  19  33  53  81 114 147 187 236 292 347
#
# _framework density 19.201665999999999
#
# number of rings (size 3 to 8) (size 9 to 14) (size 15 to 20)
#    1.000    1.000    1.667    3.000    0.000    1.333 
#    0.000    4.167    0.000    1.000    0.000    0.000 
#    0.000    0.000    0.000    0.000    0.000    0.000 
#
# Total GULP energy -267471.175113 kJ/mol
# GULP energy per Si atom -5572.316148 kJ/mol
# Density = 1.915796 g / cm^3
# Si number density = 19.201666 Si / 1000 Ang^3
#
#
#
# Elastic Constant Matrix: (Units=GPa)
#
#
# Indices 1 2 3 4 5 6 
#
# 1 43.0934 -2.4132 -0.6147 0.0000 0.0000 0.0000
# 2 -2.4132 18.6802 -3.9106 0.0000 0.0000 0.0000
# 3 -0.6147 -3.9106 43.7888 0.0000 0.0000 0.0000
# 4 0.0000 0.0000 0.0000 9.0537 0.0000 0.0000
# 5 0.0000 0.0000 0.0000 0.0000 15.4227 0.0000
# 6 0.0000 0.0000 0.0000 0.0000 0.0000 -0.4040
#
#
#
# Elastic Compliance Matrix: (Units=1/GPa)
#
#
# Indices 1 2 3 4 5 6 
#
# 1 0.023390 0.003149 0.000610 0.000000 0.000000 0.000000
# 2 0.003149 0.054977 0.004954 0.000000 0.000000 0.000000
# 3 0.000610 0.004954 0.023288 0.000000 0.000000 0.000000
# 4 0.000000 0.000000 0.000000 0.110452 0.000000 0.000000
# 5 0.000000 0.000000 0.000000 0.000000 0.064839 0.000000
# 6 0.000000 0.000000 0.000000 0.000000 0.000000 -2.475255
#
#
# Mechanical properties :
#
#
# Convention : Reuss Voigt Hill
#
# Bulk Modulus (GPa) = 8.39765 10.18724 9.29245
# Shear Modulus (GPa) = -2.29775 12.31455 5.00840
#
# Velocity S-wave (km/s) = -1.09510 2.53519 1.61678
# Velocity P-wave (km/s) = 1.66850 3.72646 2.88708
#
# Compressibility (1/GPa) = 0.11908089
#
# Stress axis : x y z
#
# Youngs Moduli (GPa) = 42.75247 18.18957 42.94081
#
# Poissons Ratio (x) = -0.05729 -0.02618
# Poissons Ratio (y) = -0.13464 -0.21273
# Poissons Ratio (z) = -0.02606 -0.09011
#
# Static dielectric constant tensor:
#      x y z
#    x 1.715420 0.000000 0.000000 
#    y 0.000000 1.664120 0.000000 
#    z 0.000000 0.000000 1.646610 
# 
# From -- ./inp_files/8983.got.cif
#   From: 2010.05.17/outbox.cif.g08.bks.cpg/sg59_5_cif.got.tgz:8983.got - 2010.06.03 14:40:33.
