data_PCOD9451657
_publ_section_title
;
Structure prediction by ZEFSAII (Michael W. Deem and Ramdas Pophale) SiO2 
 PCOD9451657
Probable space group: P M M N
;
_chemical_formula_sum "Si O2"
_cell_formula_units_Z 64
_cell_length_a 16.028792
_cell_length_b 24.415100
_cell_length_c 8.603505
_cell_angle_alpha 90.000000
_cell_angle_beta 90.000000
_cell_angle_gamma 90.000000
_cell_volume 3366.934875
_symmetry_space_group_name_H-M "P M M N"
_symmetry_group_IT_number 59
_space_group.IT_coordinate_system_code '2'
_symmetry_cell_setting 'orthorhombic'
loop_
_space_group_symop_operation_xyz
x,y,z
1/2-x,1/2-y,z
1/2+x,-y,-z
-x,1/2+y,-z
-x,-y,-z
1/2+x,1/2+y,-z
1/2-x,y,z
x,1/2-y,z
loop_
_atom_site_type_symbol
_atom_site_label
_atom_site_fract_x
_atom_site_fract_y
_atom_site_fract_z
Si Si1 0.877492 0.689736 0.124000
Si Si2 0.485188 0.118790 0.234911
Si Si3 0.407428 0.477910 0.030264
Si Si4 0.161073 0.313218 0.245657
Si Si5 0.342167 0.420746 0.718575
Si Si6 0.346330 0.584347 0.208150
Si Si7 0.932285 0.184991 0.960403
Si Si8 0.488224 0.563206 0.463875
O O1 0.853269 0.750000 0.177885
O O2 0.839291 0.640915 0.218411
O O3 0.978199 0.684882 0.127776
O O4 0.851868 0.685303 0.941965
O O5 0.428419 0.074208 0.141257
O O6 0.417913 0.157854 0.315702
O O7 0.534147 0.090154 0.371820
O O8 0.542110 0.155516 0.122588
O O9 0.358247 0.529293 0.103162
O O10 0.500000 0.500000 0.000000
O O11 0.366057 0.456911 0.871064
O O12 0.250000 0.338932 0.284133
O O13 0.161922 0.250000 0.289378
O O14 0.250000 0.436675 0.659004
O O15 0.420668 0.421878 0.603764
O O16 0.250000 0.586760 0.259290
O O17 0.370634 0.641506 0.121437
O O18 0.415712 0.576012 0.341476
O O19 0.908062 0.250000 0.974334
O O20 0.500000 0.500000 0.500000
#
# Coordination Sequence:
#
# PCOD9451657 Si02
#       8
#     8   8   8   8   8   8   8   8
#     4   9  16  31  57  88 123 156 194 250 308 358
#     4  11  20  36  65  85 128 171 208 248 320 387
#     4  12  19  40  65  91 127 162 206 267 323 367
#     4   9  17  30  52  87 124 156 197 244 290 356
#     4  12  23  37  61  95 128 166 211 254 315 378
#     4  12  25  43  68  97 125 168 220 274 333 386
#     4  10  20  41  70  96 119 160 219 277 329 376
#     4  12  25  44  59  87 139 175 206 258 314 397
#
# _framework density 19.008386000000002
#
# number of rings (size 3 to 8) (size 9 to 14) (size 15 to 20)
#    0.000    1.125    7.500    1.875    0.000    2.500 
#    0.000    3.125    0.000    0.000    0.000    0.000 
#    0.000    0.000    0.000    0.000    0.000    0.000 
#
# Total GULP energy -356814.446456 kJ/mol
# GULP energy per Si atom -5575.225726 kJ/mol
# Density = 1.896512 g / cm^3
# Si number density = 19.008386 Si / 1000 Ang^3
#
#
#
# Elastic Constant Matrix: (Units=GPa)
#
#
# Indices 1 2 3 4 5 6 
#
# 1 113.8802 30.8589 24.3337 0.0000 0.0000 0.0000
# 2 30.8589 130.5804 37.3963 0.0000 0.0000 0.0000
# 3 24.3337 37.3963 49.7150 0.0000 0.0000 0.0000
# 4 0.0000 0.0000 0.0000 22.2052 0.0000 0.0000
# 5 0.0000 0.0000 0.0000 0.0000 -3.9817 0.0000
# 6 0.0000 0.0000 0.0000 0.0000 0.0000 20.2768
#
#
#
# Elastic Compliance Matrix: (Units=1/GPa)
#
#
# Indices 1 2 3 4 5 6 
#
# 1 0.009957 -0.001220 -0.003956 0.000000 0.000000 0.000000
# 2 -0.001220 0.009910 -0.006857 0.000000 0.000000 0.000000
# 3 -0.003956 -0.006857 0.027209 0.000000 0.000000 0.000000
# 4 0.000000 0.000000 0.000000 0.045034 0.000000 0.000000
# 5 0.000000 0.000000 0.000000 0.000000 -0.251150 0.000000
# 6 0.000000 0.000000 0.000000 0.000000 0.000000 0.049318
#
#
# Mechanical properties :
#
#
# Convention : Reuss Voigt Hill
#
# Bulk Modulus (GPa) = 43.45993 53.26148 48.36070
# Shear Modulus (GPa) = -64.11502 21.13917 -21.48792
#
# Velocity S-wave (km/s) = -5.81404 3.33843 -3.36586
# Velocity P-wave (km/s) = 4.70718 6.55294 3.22361
#
# Compressibility (1/GPa) = 0.02300970
#
# Stress axis : x y z
#
# Youngs Moduli (GPa) = 100.43123 100.90455 36.75234
#
# Poissons Ratio (x) = 0.12312 0.14538
# Poissons Ratio (y) = 0.12254 0.25203
# Poissons Ratio (z) = 0.39728 0.69195
#
# Static dielectric constant tensor:
#      x y z
#    x 1.646140 0.000000 0.000000 
#    y 0.000000 1.771390 0.000000 
#    z 0.000000 0.000000 1.677520 
# 
# From -- ./inp_files/9549.got.cif
#   From: 2010.05.17/outbox.cif.g08.bks.cpg/sg59_5_cif.got.tgz:9549.got - 2010.06.03 14:40:33.
