data_PCOD9451043
_publ_section_title
;
Structure prediction by ZEFSAII (Michael W. Deem and Ramdas Pophale) SiO2 
 PCOD9451043
Probable space group: P M M N
;
_chemical_formula_sum "Si O2"
_cell_formula_units_Z 64
_cell_length_a 8.805365
_cell_length_b 14.918579
_cell_length_c 24.966925
_cell_angle_alpha 90.000000
_cell_angle_beta 90.000000
_cell_angle_gamma 90.000000
_cell_volume 3279.743486
_symmetry_space_group_name_H-M "P M M N"
_symmetry_group_IT_number 59
_space_group.IT_coordinate_system_code '2'
_symmetry_cell_setting 'orthorhombic'
loop_
_space_group_symop_operation_xyz
x,y,z
1/2-x,1/2-y,z
1/2+x,-y,-z
-x,1/2+y,-z
-x,-y,-z
1/2+x,1/2+y,-z
1/2-x,y,z
x,1/2-y,z
loop_
_atom_site_type_symbol
_atom_site_label
_atom_site_fract_x
_atom_site_fract_y
_atom_site_fract_z
Si Si1 0.427996 0.151736 0.589887
Si Si2 0.566469 0.145132 0.781281
Si Si3 0.433049 0.648343 0.637371
Si Si4 0.931143 0.026704 0.678224
Si Si5 0.432243 0.904211 0.516025
Si Si6 0.931130 0.535286 0.120483
Si Si7 0.432076 0.351690 0.094819
Si Si8 0.930371 0.353692 0.975840
O O1 0.250000 0.130153 0.584827
O O2 0.443604 0.250000 0.615487
O O3 0.508031 0.078202 0.626049
O O4 0.502091 0.155128 0.531599
O O5 0.750000 0.141082 0.787278
O O6 0.525237 0.250000 0.775704
O O7 0.524199 0.086315 0.729378
O O8 0.489912 0.099246 0.832304
O O9 0.250000 0.643253 0.639629
O O10 0.479262 0.750000 0.649975
O O11 0.501734 0.572850 0.675587
O O12 0.477143 0.626000 0.575665
O O13 0.750000 0.022342 0.676450
O O14 0.250000 0.905712 0.514126
O O15 0.500000 0.000000 0.500000
O O16 0.750000 0.532929 0.118800
O O17 0.995861 0.434593 0.126529
O O18 0.995526 0.578085 0.065666
O O19 0.250000 0.359753 0.094966
O O20 0.471358 0.250000 0.112991
O O21 0.493845 0.360316 0.034088
O O22 0.750000 0.370444 0.980158
O O23 0.950713 0.250000 0.957329
#
# Coordination Sequence:
#
# PCOD9451043 Si02
#       8
#     8   8   8   8   8   8   8   8
#     4  11  23  37  56  84 118 155 193 234 284 345
#     4  10  23  44  66  88 116 150 192 242 296 353
#     4  10  22  40  61  85 118 158 196 238 290 348
#     4  11  23  40  64  89 114 148 192 244 297 349
#     4  11  21  35  57  85 118 156 195 236 287 344
#     4  12  24  37  58  88 121 157 198 245 298 356
#     4  10  21  38  60  86 119 160 204 248 293 345
#     4  10  20  35  57  86 123 164 203 246 295 349
#
# _framework density 19.513719999999999
#
# number of rings (size 3 to 8) (size 9 to 14) (size 15 to 20)
#    0.000    1.375    1.250    4.500    0.000    7.000 
#    0.000    0.625    0.000    0.750    0.000    0.000 
#    0.000    0.000    0.000    0.000    0.000    0.000 
#
# Total GULP energy -357699.479569 kJ/mol
# GULP energy per Si atom -5589.054368 kJ/mol
# Density = 1.946931 g / cm^3
# Si number density = 19.513720 Si / 1000 Ang^3
#
#
#
# Elastic Constant Matrix: (Units=GPa)
#
#
# Indices 1 2 3 4 5 6 
#
# 1 53.8856 55.1511 25.2859 0.0000 0.0000 0.0000
# 2 55.1511 175.7252 52.5268 0.0000 0.0000 0.0000
# 3 25.2859 52.5268 49.3162 0.0000 0.0000 0.0000
# 4 0.0000 0.0000 0.0000 30.5335 0.0000 0.0000
# 5 0.0000 0.0000 0.0000 0.0000 24.9870 0.0000
# 6 0.0000 0.0000 0.0000 0.0000 0.0000 26.8896
#
#
#
# Elastic Compliance Matrix: (Units=1/GPa)
#
#
# Indices 1 2 3 4 5 6 
#
# 1 0.029178 -0.006874 -0.007639 0.000000 0.000000 0.000000
# 2 -0.006874 0.009968 -0.007093 0.000000 0.000000 0.000000
# 3 -0.007639 -0.007093 0.031748 0.000000 0.000000 0.000000
# 4 0.000000 0.000000 0.000000 0.032751 0.000000 0.000000
# 5 0.000000 0.000000 0.000000 0.000000 0.040021 0.000000
# 6 0.000000 0.000000 0.000000 0.000000 0.000000 0.037189
#
#
# Mechanical properties :
#
#
# Convention : Reuss Voigt Hill
#
# Bulk Modulus (GPa) = 36.12271 60.53942 48.33106
# Shear Modulus (GPa) = 21.43219 26.21288 23.82253
#
# Velocity S-wave (km/s) = 3.31768 3.66909 3.49780
# Velocity P-wave (km/s) = 5.76434 7.00293 6.41360
#
# Compressibility (1/GPa) = 0.02768342
#
# Stress axis : x y z
#
# Youngs Moduli (GPa) = 34.27257 100.31888 31.49778
#
# Poissons Ratio (x) = 0.68960 0.24060
# Poissons Ratio (y) = 0.23559 0.22340
# Poissons Ratio (z) = 0.26180 0.71152
#
# Static dielectric constant tensor:
#      x y z
#    x 1.645800 0.000000 0.000000 
#    y 0.000000 1.730890 0.000000 
#    z 0.000000 0.000000 1.658100 
# 
# From -- ./inp_files/31449.got.cif
#   From: 2010.05.17/outbox.cif.g08.bks.cpg/sg59_16_cif.got.tgz:31449.got - 2010.06.03 14:40:33.
