data_PCOD9451752
_publ_section_title
;
Structure prediction by ZEFSAII (Michael W. Deem and Ramdas Pophale) SiO2 
 PCOD9451752
Probable space group: P M M N
;
_chemical_formula_sum "Si O2"
_cell_formula_units_Z 56
_cell_length_a 9.408908
_cell_length_b 15.133909
_cell_length_c 20.159542
_cell_angle_alpha 90.000000
_cell_angle_beta 90.000000
_cell_angle_gamma 90.000000
_cell_volume 2870.588902
_symmetry_space_group_name_H-M "P M M N"
_symmetry_group_IT_number 59
_space_group.IT_coordinate_system_code '2'
_symmetry_cell_setting 'orthorhombic'
loop_
_space_group_symop_operation_xyz
x,y,z
1/2-x,1/2-y,z
1/2+x,-y,-z
-x,1/2+y,-z
-x,-y,-z
1/2+x,1/2+y,-z
1/2-x,y,z
x,1/2-y,z
loop_
_atom_site_type_symbol
_atom_site_label
_atom_site_fract_x
_atom_site_fract_y
_atom_site_fract_z
Si Si1 0.080807 0.144620 0.659486
Si Si2 0.919814 0.494243 0.569683
Si Si3 0.909299 0.395070 0.938405
Si Si4 0.910175 0.894149 0.938053
Si Si5 0.588498 0.143679 0.193612
Si Si6 0.417853 0.353930 0.324383
Si Si7 0.909756 0.856197 0.189321
O O1 0.250000 0.130723 0.647699
O O2 0.054733 0.250000 0.653045
O O3 0.051939 0.116992 0.735847
O O4 0.985852 0.087071 0.610783
O O5 0.750000 0.484614 0.561055
O O6 0.945089 0.582766 0.613337
O O7 0.000000 0.500000 0.500000
O O8 0.250000 0.641377 0.059254
O O9 0.981765 0.381653 0.867511
O O10 0.899248 0.500477 0.947698
O O11 0.006607 0.358736 0.997757
O O12 0.750000 0.858804 0.932392
O O13 0.999466 0.879800 0.871459
O O14 0.750000 0.109819 0.190171
O O15 0.594109 0.250000 0.195952
O O16 0.509429 0.116207 0.261009
O O17 0.250000 0.360480 0.307818
O O18 0.447717 0.250000 0.338182
O O19 0.750000 0.888512 0.173558
O O20 0.903637 0.750000 0.190974
#
# Coordination Sequence:
#
# PCOD9451752 Si02
#       7
#     8   8   8   8   8   8   8
#     4   9  20  40  63  88 121 160 200 243 295 354
#     4  11  24  40  62  93 124 157 201 242 290 352
#     4  10  21  35  52  77 108 143 188 238 286 334
#     4  10  21  36  53  75 107 147 189 231 283 343
#     4  10  21  36  56  83 111 142 185 235 285 337
#     4   9  20  40  62  85 118 158 197 239 289 348
#     4   9  19  36  57  81 109 146 189 229 282 348
#
# _framework density 19.508191
#
# number of rings (size 3 to 8) (size 9 to 14) (size 15 to 20)
#    0.000    2.286    0.000    2.571    2.000    6.000 
#    0.000    2.857    0.000    0.000    0.000    0.000 
#    0.000    0.000    0.000    0.000    0.000    0.000 
#
# Total GULP energy -312720.053665 kJ/mol
# GULP energy per Si atom -5584.286673 kJ/mol
# Density = 1.946379 g / cm^3
# Si number density = 19.508191 Si / 1000 Ang^3
#
#
#
# Elastic Constant Matrix: (Units=GPa)
#
#
# Indices 1 2 3 4 5 6 
#
# 1 166.1114 47.6755 130.2450 0.0000 0.0000 0.0000
# 2 47.6755 66.4255 42.1411 0.0000 0.0000 0.0000
# 3 130.2450 42.1411 166.0281 0.0000 0.0000 0.0000
# 4 0.0000 0.0000 0.0000 41.2817 0.0000 0.0000
# 5 0.0000 0.0000 0.0000 0.0000 35.9298 0.0000
# 6 0.0000 0.0000 0.0000 0.0000 0.0000 25.9881
#
#
#
# Elastic Compliance Matrix: (Units=1/GPa)
#
#
# Indices 1 2 3 4 5 6 
#
# 1 0.016638 -0.004364 -0.011944 0.000000 0.000000 0.000000
# 2 -0.004364 0.019088 -0.001422 0.000000 0.000000 0.000000
# 3 -0.011944 -0.001422 0.015754 0.000000 0.000000 0.000000
# 4 0.000000 0.000000 0.000000 0.024224 0.000000 0.000000
# 5 0.000000 0.000000 0.000000 0.000000 0.027832 0.000000
# 6 0.000000 0.000000 0.000000 0.000000 0.000000 0.038479
#
#
# Mechanical properties :
#
#
# Convention : Reuss Voigt Hill
#
# Bulk Modulus (GPa) = 62.41996 93.18758 77.80377
# Shear Modulus (GPa) = 27.34999 32.54015 29.94507
#
# Velocity S-wave (km/s) = 3.74836 4.08858 3.92216
# Velocity P-wave (km/s) = 7.12740 8.37620 7.77691
#
# Compressibility (1/GPa) = 0.01602052
#
# Stress axis : x y z
#
# Youngs Moduli (GPa) = 60.10367 52.38769 63.47586
#
# Poissons Ratio (x) = 0.22861 0.75818
# Poissons Ratio (y) = 0.26228 0.09024
# Poissons Ratio (z) = 0.71790 0.07448
#
# Static dielectric constant tensor:
#      x y z
#    x 1.683520 0.000000 0.000000 
#    y 0.000000 1.708310 0.000000 
#    z 0.000000 0.000000 1.645010 
# 
# From -- ./inp_files/29168.got.cif
#   From: 2010.05.17/outbox.cif.g08.bks.cpg/sg59_15_cif.got.tgz:29168.got - 2010.06.03 14:40:33.
