data_PCOD9451513
_publ_section_title
;
Structure prediction by ZEFSAII (Michael W. Deem and Ramdas Pophale) SiO2 
 PCOD9451513
Probable space group: P M M N
;
_chemical_formula_sum "Si O2"
_cell_formula_units_Z 64
_cell_length_a 15.985892
_cell_length_b 22.919579
_cell_length_c 8.537695
_cell_angle_alpha 90.000000
_cell_angle_beta 90.000000
_cell_angle_gamma 90.000000
_cell_volume 3128.125342
_symmetry_space_group_name_H-M "P M M N"
_symmetry_group_IT_number 59
_space_group.IT_coordinate_system_code '2'
_symmetry_cell_setting 'orthorhombic'
loop_
_space_group_symop_operation_xyz
x,y,z
1/2-x,1/2-y,z
1/2+x,-y,-z
-x,1/2+y,-z
-x,-y,-z
1/2+x,1/2+y,-z
1/2-x,y,z
x,1/2-y,z
loop_
_atom_site_type_symbol
_atom_site_label
_atom_site_fract_x
_atom_site_fract_y
_atom_site_fract_z
Si Si1 0.842276 0.319693 0.943241
Si Si2 0.151785 0.405529 0.055147
Si Si3 0.544502 0.979354 0.158331
Si Si4 0.493341 0.316277 0.127910
Si Si5 0.845875 0.924718 0.592895
Si Si6 0.348182 0.542118 0.607627
Si Si7 0.921650 0.386615 0.672558
Si Si8 0.957101 0.684790 0.512490
O O1 0.750000 0.328913 0.012024
O O2 0.848137 0.250000 0.905385
O O3 0.855641 0.361774 0.795666
O O4 0.918898 0.335341 0.056025
O O5 0.250000 0.389974 0.047059
O O6 0.085565 0.353220 0.069724
O O7 0.136874 0.437641 0.223360
O O8 0.123914 0.442452 0.905277
O O9 0.481170 0.937557 0.255053
O O10 0.583579 0.032873 0.255915
O O11 0.500000 0.000000 0.000000
O O12 0.478772 0.250000 0.077547
O O13 0.498846 0.316377 0.315534
O O14 0.750000 0.907283 0.587687
O O15 0.895509 0.869924 0.526591
O O16 0.857072 0.981517 0.488917
O O17 0.250000 0.548817 0.652877
O O18 0.377368 0.590400 0.484092
O O19 0.979612 0.332109 0.624111
O O20 0.921599 0.750000 0.491279
#
# Coordination Sequence:
#
# PCOD9451513 Si02
#       8
#     8   8   8   8   8   8   8   8
#     4  10  21  40  64  92 127 168 216 266 317 372
#     4  10  20  37  61  90 123 164 202 248 306 371
#     4  12  25  39  62  89 122 163 209 257 314 381
#     4   9  19  37  61  91 123 161 205 257 311 368
#     4   9  19  37  62  90 125 161 203 250 305 370
#     4  11  24  42  62  91 124 160 207 261 315 378
#     4  12  23  39  63  90 122 168 209 260 320 381
#     4  10  21  37  61  90 123 163 208 254 313 376
#
# _framework density 20.459537999999998
#
# number of rings (size 3 to 8) (size 9 to 14) (size 15 to 20)
#    0.000    1.625    2.500    2.250    3.500    0.500 
#    0.000    6.875    0.000    3.000    0.000    0.000 
#    0.000    0.000    0.000    0.000    0.000    0.000 
#
# Total GULP energy -357275.334971 kJ/mol
# GULP energy per Si atom -5582.427109 kJ/mol
# Density = 2.041297 g / cm^3
# Si number density = 20.459538 Si / 1000 Ang^3
#
#
#
# Elastic Constant Matrix: (Units=GPa)
#
#
# Indices 1 2 3 4 5 6 
#
# 1 109.3595 21.2226 28.3889 0.0000 0.0000 0.0000
# 2 21.2226 37.3412 1.4349 0.0000 0.0000 0.0000
# 3 28.3889 1.4349 33.1618 0.0000 0.0000 0.0000
# 4 0.0000 0.0000 0.0000 29.1963 0.0000 0.0000
# 5 0.0000 0.0000 0.0000 0.0000 31.0539 0.0000
# 6 0.0000 0.0000 0.0000 0.0000 0.0000 23.5844
#
#
#
# Elastic Compliance Matrix: (Units=1/GPa)
#
#
# Indices 1 2 3 4 5 6 
#
# 1 0.013453 -0.007215 -0.011205 0.000000 0.000000 0.000000
# 2 -0.007215 0.030695 0.004849 0.000000 0.000000 0.000000
# 3 -0.011205 0.004849 0.039537 0.000000 0.000000 0.000000
# 4 0.000000 0.000000 0.000000 0.034251 0.000000 0.000000
# 5 0.000000 0.000000 0.000000 0.000000 0.032202 0.000000
# 6 0.000000 0.000000 0.000000 0.000000 0.000000 0.042401
#
#
# Mechanical properties :
#
#
# Convention : Reuss Voigt Hill
#
# Bulk Modulus (GPa) = 17.68585 31.32837 24.50711
# Shear Modulus (GPa) = 20.96186 25.35466 23.15826
#
# Velocity S-wave (km/s) = 3.20434 3.52413 3.36803
# Velocity P-wave (km/s) = 4.72794 5.64844 5.20857
#
# Compressibility (1/GPa) = 0.05654236
#
# Stress axis : x y z
#
# Youngs Moduli (GPa) = 74.33292 32.57910 25.29264
#
# Poissons Ratio (x) = 0.23507 0.28339
# Poissons Ratio (y) = 0.53634 -0.12264
# Poissons Ratio (z) = 0.83286 -0.15797
#
# Static dielectric constant tensor:
#      x y z
#    x 1.730850 0.000000 0.000000 
#    y 0.000000 1.747290 0.000000 
#    z 0.000000 0.000000 1.764210 
# 
# From -- ./inp_files/9555.got.cif
#   From: 2010.05.17/outbox.cif.g08.bks.cpg/sg59_5_cif.got.tgz:9555.got - 2010.06.03 14:40:33.
