data_PCOD9451790
_publ_section_title
;
Structure prediction by ZEFSAII (Michael W. Deem and Ramdas Pophale) SiO2 
 PCOD9451790
Probable space group: P M M N
;
_chemical_formula_sum "Si O2"
_cell_formula_units_Z 40
_cell_length_a 13.813153
_cell_length_b 14.923912
_cell_length_c 10.171913
_cell_angle_alpha 90.000000
_cell_angle_beta 90.000000
_cell_angle_gamma 90.000000
_cell_volume 2096.902024
_symmetry_space_group_name_H-M "P M M N"
_symmetry_group_IT_number 59
_space_group.IT_coordinate_system_code '2'
_symmetry_cell_setting 'orthorhombic'
loop_
_space_group_symop_operation_xyz
x,y,z
1/2-x,1/2-y,z
1/2+x,-y,-z
-x,1/2+y,-z
-x,-y,-z
1/2+x,1/2+y,-z
1/2-x,y,z
x,1/2-y,z
loop_
_atom_site_type_symbol
_atom_site_label
_atom_site_fract_x
_atom_site_fract_y
_atom_site_fract_z
Si Si1 0.640213 0.428872 0.261795
Si Si2 0.448097 0.645904 0.474666
Si Si3 0.636095 0.349054 0.980407
Si Si4 0.862483 0.854682 0.637535
Si Si5 0.554136 0.478191 0.770637
O O1 0.750000 0.461718 0.265179
O O2 0.613631 0.379287 0.396734
O O3 0.560072 0.504364 0.239233
O O4 0.629386 0.363747 0.136506
O O5 0.436560 0.750000 0.441997
O O6 0.559825 0.629949 0.520617
O O7 0.419300 0.583783 0.353749
O O8 0.750000 0.353839 0.946376
O O9 0.599656 0.250000 0.945094
O O10 0.582975 0.426962 0.901770
O O11 0.750000 0.868344 0.601641
O O12 0.874158 0.750000 0.677255
O O13 0.893627 0.926097 0.748480
#
# Coordination Sequence:
#
# PCOD9451790 Si02
#       5
#     8   8   8   8   8
#     4  10  21  37  56  78 109 150 188 220 264 325
#     4  10  21  35  54  81 109 139 178 224 272 322
#     4  10  21  37  57  81 110 144 181 225 278 329
#     4   9  18  33  52  75 105 140 176 216 267 328
#     4  11  21  35  56  83 111 139 179 230 277 318
#
# _framework density 19.075761
#
# number of rings (size 3 to 8) (size 9 to 14) (size 15 to 20)
#    0.000    2.000    0.000    4.800    0.000    6.000 
#    0.000    0.000    0.000    1.800    0.000    2.800 
#    0.000    0.000    0.000    0.000    0.000    0.000 
#
# Total GULP energy -223287.043146 kJ/mol
# GULP energy per Si atom -5582.176079 kJ/mol
# Density = 1.903234 g / cm^3
# Si number density = 19.075761 Si / 1000 Ang^3
#
#
#
# Elastic Constant Matrix: (Units=GPa)
#
#
# Indices 1 2 3 4 5 6 
#
# 1 69.5295 19.5392 29.5335 0.0000 0.0000 0.0000
# 2 19.5392 61.8925 27.7926 0.0000 0.0000 0.0000
# 3 29.5335 27.7926 61.9663 0.0000 0.0000 0.0000
# 4 0.0000 0.0000 0.0000 9.6131 0.0000 0.0000
# 5 0.0000 0.0000 0.0000 0.0000 -1.4748 0.0000
# 6 0.0000 0.0000 0.0000 0.0000 0.0000 21.2395
#
#
#
# Elastic Compliance Matrix: (Units=1/GPa)
#
#
# Indices 1 2 3 4 5 6 
#
# 1 0.018297 -0.002330 -0.007676 0.000000 0.000000 0.000000
# 2 -0.002330 0.020528 -0.008097 0.000000 0.000000 0.000000
# 3 -0.007676 -0.008097 0.023428 0.000000 0.000000 0.000000
# 4 0.000000 0.000000 0.000000 0.104025 0.000000 0.000000
# 5 0.000000 0.000000 0.000000 0.000000 -0.678063 0.000000
# 6 0.000000 0.000000 0.000000 0.000000 0.000000 0.047082
#
#
# Mechanical properties :
#
#
# Convention : Reuss Voigt Hill
#
# Bulk Modulus (GPa) = 38.38938 38.56873 38.47906
# Shear Modulus (GPa) = -11.91002 13.64376 0.86687
#
# Velocity S-wave (km/s) = -2.50142 2.67730 0.67485
# Velocity P-wave (km/s) = 3.43884 5.46076 4.56319
#
# Compressibility (1/GPa) = 0.02604887
#
# Stress axis : x y z
#
# Youngs Moduli (GPa) = 54.65242 48.71310 42.68454
#
# Poissons Ratio (x) = 0.11348 0.32764
# Poissons Ratio (y) = 0.12732 0.34561
# Poissons Ratio (z) = 0.41950 0.39442
#
# Static dielectric constant tensor:
#      x y z
#    x 1.668550 0.000000 0.000000 
#    y 0.000000 1.667810 0.000000 
#    z 0.000000 0.000000 1.646510 
# 
# From -- ./inp_files/8614.got.cif
#   From: 2010.05.17/outbox.cif.g08.bks.cpg/sg59_5_cif.got.tgz:8614.got - 2010.06.03 14:40:33.
