data_PCOD9451062
_publ_section_title
;
Structure prediction by ZEFSAII (Michael W. Deem and Ramdas Pophale) SiO2 
 PCOD9451062
Probable space group: P M M N
;
_chemical_formula_sum "Si O2"
_cell_formula_units_Z 56
_cell_length_a 14.973438
_cell_length_b 9.073887
_cell_length_c 22.121408
_cell_angle_alpha 90.000000
_cell_angle_beta 90.000000
_cell_angle_gamma 90.000000
_cell_volume 3005.575632
_symmetry_space_group_name_H-M "P M M N"
_symmetry_group_IT_number 59
_space_group.IT_coordinate_system_code '2'
_symmetry_cell_setting 'orthorhombic'
loop_
_space_group_symop_operation_xyz
x,y,z
1/2-x,1/2-y,z
1/2+x,-y,-z
-x,1/2+y,-z
-x,-y,-z
1/2+x,1/2+y,-z
1/2-x,y,z
x,1/2-y,z
loop_
_atom_site_type_symbol
_atom_site_label
_atom_site_fract_x
_atom_site_fract_y
_atom_site_fract_z
Si Si1 0.492970 0.072918 0.091461
Si Si2 0.499874 0.573440 0.767679
Si Si3 0.108216 0.920187 0.561510
Si Si4 0.352680 0.421226 0.686854
Si Si5 0.854101 0.427719 0.997190
Si Si6 0.891667 0.920192 0.561552
Si Si7 0.147331 0.921402 0.313119
O O1 0.482630 0.250000 0.087045
O O2 0.498998 0.033176 0.161738
O O3 0.409029 0.997366 0.058430
O O4 0.584118 0.033722 0.055322
O O5 0.499081 0.750000 0.762409
O O6 0.415126 0.506806 0.733235
O O7 0.584777 0.508293 0.732807
O O8 0.136902 0.750000 0.562437
O O9 0.999939 0.921788 0.562415
O O10 0.138941 0.005373 0.620982
O O11 0.137278 0.000558 0.500113
O O12 0.250000 0.428474 0.706160
O O13 0.379779 0.250000 0.682794
O O14 0.750000 0.473975 0.001056
O O15 0.854863 0.250000 0.991726
O O16 0.862972 0.750000 0.563028
O O17 0.860896 0.006632 0.620730
O O18 0.250000 0.928953 0.293692
O O19 0.120296 0.750000 0.316474
#
# Coordination Sequence:
#
# PCOD9451062 Si02
#       7
#     8   8   8   8   8   8   8
#     4   9  20  37  58  86 119 154 192 232 281 333
#     4  11  23  40  61  85 116 156 196 239 287 338
#     4  10  20  35  58  85 112 147 189 236 294 353
#     4  11  24  40  59  84 115 152 193 240 293 347
#     4   9  18  35  60  89 120 153 190 232 277 328
#     4  10  20  35  58  85 112 146 188 238 296 352
#     4  11  24  40  59  83 113 152 195 241 294 350
#
# _framework density 18.632038000000001
#
# number of rings (size 3 to 8) (size 9 to 14) (size 15 to 20)
#    0.000    1.857    1.429    2.143    0.000    6.571 
#    0.000    4.286    0.000    0.000    0.000    0.000 
#    0.000    0.000    0.000    0.000    0.000    0.000 
#
# Total GULP energy -312876.295241 kJ/mol
# GULP energy per Si atom -5587.076701 kJ/mol
# Density = 1.858963 g / cm^3
# Si number density = 18.632038 Si / 1000 Ang^3
#
#
#
# Elastic Constant Matrix: (Units=GPa)
#
#
# Indices 1 2 3 4 5 6 
#
# 1 125.6192 51.1406 73.7974 0.0000 0.0000 0.0000
# 2 51.1406 111.3371 78.2877 0.0000 0.0000 0.0000
# 3 73.7974 78.2877 178.7476 0.0000 0.0000 0.0000
# 4 0.0000 0.0000 0.0000 30.2839 0.0000 0.0000
# 5 0.0000 0.0000 0.0000 0.0000 204.9844 0.0000
# 6 0.0000 0.0000 0.0000 0.0000 0.0000 9.1905
#
#
#
# Elastic Compliance Matrix: (Units=1/GPa)
#
#
# Indices 1 2 3 4 5 6 
#
# 1 0.011043 -0.002697 -0.003378 0.000000 0.000000 0.000000
# 2 -0.002697 0.013638 -0.004859 0.000000 0.000000 0.000000
# 3 -0.003378 -0.004859 0.009117 0.000000 0.000000 0.000000
# 4 0.000000 0.000000 0.000000 0.033021 0.000000 0.000000
# 5 0.000000 0.000000 0.000000 0.000000 0.004878 0.000000
# 6 0.000000 0.000000 0.000000 0.000000 0.000000 0.108808
#
#
# Mechanical properties :
#
#
# Convention : Reuss Voigt Hill
#
# Bulk Modulus (GPa) = 83.82944 91.35060 87.59002
# Shear Modulus (GPa) = 24.23055 63.05696 43.64375
#
# Velocity S-wave (km/s) = 3.61013 5.82381 4.84509
# Velocity P-wave (km/s) = 7.90361 9.71378 8.85507
#
# Compressibility (1/GPa) = 0.01192898
#
# Stress axis : x y z
#
# Youngs Moduli (GPa) = 90.55493 73.32674 109.68058
#
# Poissons Ratio (x) = 0.19778 0.37049
# Poissons Ratio (y) = 0.24425 0.53298
# Poissons Ratio (z) = 0.30588 0.35632
#
# Static dielectric constant tensor:
#      x y z
#    x 1.657570 0.000000 0.000000 
#    y 0.000000 1.628360 0.000000 
#    z 0.000000 0.000000 1.602940 
# 
# From -- ./inp_files/30328.got.cif
#   From: 2010.05.17/outbox.cif.g08.bks.cpg/sg59_16_cif.got.tgz:30328.got - 2010.06.03 14:40:33.
