data_PCOD9451012
_publ_section_title
;
Structure prediction by ZEFSAII (Michael W. Deem and Ramdas Pophale) SiO2 
 PCOD9451012
Probable space group: P M M N
;
_chemical_formula_sum "Si O2"
_cell_formula_units_Z 48
_cell_length_a 8.848393
_cell_length_b 31.026496
_cell_length_c 9.705930
_cell_angle_alpha 90.000000
_cell_angle_beta 90.000000
_cell_angle_gamma 90.000000
_cell_volume 2664.613902
_symmetry_space_group_name_H-M "P M M N"
_symmetry_group_IT_number 59
_space_group.IT_coordinate_system_code '2'
_symmetry_cell_setting 'orthorhombic'
loop_
_space_group_symop_operation_xyz
x,y,z
1/2-x,1/2-y,z
1/2+x,-y,-z
-x,1/2+y,-z
-x,-y,-z
1/2+x,1/2+y,-z
1/2-x,y,z
x,1/2-y,z
loop_
_atom_site_type_symbol
_atom_site_label
_atom_site_fract_x
_atom_site_fract_y
_atom_site_fract_z
Si Si1 0.431845 0.500442 0.651375
Si Si2 0.569313 0.824780 0.159428
Si Si3 0.931455 0.420319 0.153778
Si Si4 0.431430 0.173556 0.160603
Si Si5 0.430351 0.750000 0.341189
Si Si6 0.432330 0.424200 0.855948
Si Si7 0.068275 0.750000 0.660979
O O1 0.500000 0.500000 0.500000
O O2 0.250000 0.499823 0.641285
O O3 0.474705 0.543183 0.736500
O O4 0.477011 0.458774 0.741356
O O5 0.750000 0.820143 0.173526
O O6 0.490545 0.791852 0.261355
O O7 0.530394 0.874933 0.184453
O O8 0.531362 0.815515 0.999215
O O9 0.750000 0.416415 0.151413
O O10 0.005152 0.374216 0.186985
O O11 0.990018 0.433300 0.002202
O O12 0.250000 0.173538 0.172795
O O13 0.503444 0.208302 0.261415
O O14 0.250000 0.750000 0.337275
O O15 0.478022 0.750000 0.500832
O O16 0.250000 0.426183 0.875002
O O17 0.250000 0.750000 0.668731
#
# Coordination Sequence:
#
# PCOD9451012 Si02
#       7
#     8   8   8   8   4   8   4
#     4  10  22  37  54  80 114 148 184 225 274 330
#     4   9  19  36  58  81 105 135 179 227 266 315
#     4  10  20  35  57  85 112 141 180 228 276 324
#     4  10  21  38  60  84 108 142 186 227 271 327
#     4  11  24  37  52  78 112 145 176 215 270 326
#     4   9  19  37  58  81 108 141 183 229 272 324
#     4  11  24  39  54  80 116 147 180 227 274 322
#
# _framework density 18.013866
#
# number of rings (size 3 to 8) (size 9 to 14) (size 15 to 20)
#    0.000    2.167    0.000    3.500    0.000   10.000 
#    0.000    3.333    0.000    0.000    0.000    0.000 
#    0.000    0.000    0.000    0.000    0.000    0.000 
#
# Total GULP energy -268079.448513 kJ/mol
# GULP energy per Si atom -5584.988511 kJ/mol
# Density = 1.797287 g / cm^3
# Si number density = 18.013866 Si / 1000 Ang^3
#
#
#
# Elastic Constant Matrix: (Units=GPa)
#
#
# Indices 1 2 3 4 5 6 
#
# 1 42.1333 55.2760 62.9913 0.0000 0.0000 0.0000
# 2 55.2760 147.5604 142.0937 0.0000 0.0000 0.0000
# 3 62.9913 142.0937 180.4605 0.0000 0.0000 0.0000
# 4 0.0000 0.0000 0.0000 -11.8590 0.0000 0.0000
# 5 0.0000 0.0000 0.0000 0.0000 35.1655 0.0000
# 6 0.0000 0.0000 0.0000 0.0000 0.0000 26.9464
#
#
#
# Elastic Compliance Matrix: (Units=1/GPa)
#
#
# Indices 1 2 3 4 5 6 
#
# 1 0.051969 -0.008269 -0.011629 0.000000 0.000000 0.000000
# 2 -0.008269 0.029345 -0.020220 0.000000 0.000000 0.000000
# 3 -0.011629 -0.020220 0.025522 0.000000 0.000000 0.000000
# 4 0.000000 0.000000 0.000000 -0.084324 0.000000 0.000000
# 5 0.000000 0.000000 0.000000 0.000000 0.028437 0.000000
# 6 0.000000 0.000000 0.000000 0.000000 0.000000 0.037111
#
#
# Mechanical properties :
#
#
# Convention : Reuss Voigt Hill
#
# Bulk Modulus (GPa) = 37.59484 98.98627 68.29055
# Shear Modulus (GPa) = 28.22268 17.37012 22.79640
#
# Velocity S-wave (km/s) = 3.96248 3.10863 3.56123
# Velocity P-wave (km/s) = 6.46917 8.24343 7.40960
#
# Compressibility (1/GPa) = 0.02659940
#
# Stress axis : x y z
#
# Youngs Moduli (GPa) = 19.24232 34.07683 39.18245
#
# Poissons Ratio (x) = 0.28180 0.45565
# Poissons Ratio (y) = 0.15912 0.79227
# Poissons Ratio (z) = 0.22377 0.68903
#
# Static dielectric constant tensor:
#      x y z
#    x 1.596070 0.000000 0.000000 
#    y 0.000000 1.607550 0.000000 
#    z 0.000000 0.000000 1.585760 
# 
# From -- ./inp_files/6344.got.cif
#   From: 2010.05.17/outbox.cif.g08.bks.cpg/sg59_4_cif.got.tgz:6344.got - 2010.06.03 14:40:33.
