data_PCOD9451847
_publ_section_title
;
Structure prediction by ZEFSAII (Michael W. Deem and Ramdas Pophale) SiO2 
 PCOD9451847
Probable space group: P M M N
;
_chemical_formula_sum "Si O2"
_cell_formula_units_Z 48
_cell_length_a 8.457366
_cell_length_b 10.262344
_cell_length_c 31.317737
_cell_angle_alpha 90.000000
_cell_angle_beta 90.000000
_cell_angle_gamma 90.000000
_cell_volume 2718.141533
_symmetry_space_group_name_H-M "P M M N"
_symmetry_group_IT_number 59
_space_group.IT_coordinate_system_code '2'
_symmetry_cell_setting 'orthorhombic'
loop_
_space_group_symop_operation_xyz
x,y,z
1/2-x,1/2-y,z
1/2+x,-y,-z
-x,1/2+y,-z
-x,-y,-z
1/2+x,1/2+y,-z
1/2-x,y,z
x,1/2-y,z
loop_
_atom_site_type_symbol
_atom_site_label
_atom_site_fract_x
_atom_site_fract_y
_atom_site_fract_z
Si Si1 0.558774 0.100447 0.370413
Si Si2 0.559323 0.898948 0.868161
Si Si3 0.440694 0.101026 0.034817
Si Si4 0.442855 0.399216 0.701468
Si Si5 0.440704 0.399045 0.798518
Si Si6 0.939265 0.600303 0.535167
O O1 0.750000 0.097520 0.370941
O O2 0.509669 0.250000 0.361743
O O3 0.499234 0.064830 0.417530
O O4 0.502752 0.001352 0.333972
O O5 0.750000 0.899944 0.867920
O O6 0.508240 0.750000 0.859034
O O7 0.508051 0.931517 0.916673
O O8 0.499988 0.000042 0.833364
O O9 0.250000 0.099996 0.034544
O O10 0.491633 0.250000 0.025691
O O11 0.500000 0.000000 0.000000
O O12 0.250000 0.400951 0.701150
O O13 0.490601 0.250000 0.692226
O O14 0.491791 0.431664 0.749984
O O15 0.250000 0.400257 0.798781
O O16 0.491491 0.250000 0.807565
O O17 0.750000 0.599183 0.535089
O O18 0.992286 0.750000 0.526657
O O19 0.000000 0.500000 0.500000
#
# Coordination Sequence:
#
# PCOD9451847 Si02
#       6
#     8   8   8   8   8   8
#     4   9  17  30  49  72  97 126 161 200 241 286
#     4   9  19  35  51  69  97 131 164 199 242 291
#     4   9  19  35  52  71  97 127 160 200 244 291
#     4   8  15  29  48  70  97 127 159 197 240 285
#     4   9  18  32  50  74 102 130 163 203 243 285
#     4  10  21  36  53  74 101 132 165 202 245 292
#
# _framework density 17.659126000000001
#
# number of rings (size 3 to 8) (size 9 to 14) (size 15 to 20)
#    0.000    3.000    0.000    2.500    0.000    4.667 
#    0.000    9.167    0.000    3.000    0.000    0.000 
#    0.000    0.000    0.000    0.000    0.000    0.000 
#
# Total GULP energy -267556.541485 kJ/mol
# GULP energy per Si atom -5574.094614 kJ/mol
# Density = 1.761893 g / cm^3
# Si number density = 17.659126 Si / 1000 Ang^3
#
#
#
# Elastic Constant Matrix: (Units=GPa)
#
#
# Indices 1 2 3 4 5 6 
#
# 1 7.6459 23.5015 25.9791 0.0000 0.0000 0.0000
# 2 23.5015 142.9519 150.0448 0.0000 0.0000 0.0000
# 3 25.9791 150.0448 189.8802 0.0000 0.0000 0.0000
# 4 0.0000 0.0000 0.0000 44.7710 0.0000 0.0000
# 5 0.0000 0.0000 0.0000 0.0000 28.9130 0.0000
# 6 0.0000 0.0000 0.0000 0.0000 0.0000 24.7402
#
#
#
# Elastic Compliance Matrix: (Units=1/GPa)
#
#
# Indices 1 2 3 4 5 6 
#
# 1 0.268162 -0.032689 -0.010858 0.000000 0.000000 0.000000
# 2 -0.032689 0.044993 -0.031081 0.000000 0.000000 0.000000
# 3 -0.010858 -0.031081 0.031313 0.000000 0.000000 0.000000
# 4 0.000000 0.000000 0.000000 0.022336 0.000000 0.000000
# 5 0.000000 0.000000 0.000000 0.000000 0.034586 0.000000
# 6 0.000000 0.000000 0.000000 0.000000 0.000000 0.040420
#
#
# Mechanical properties :
#
#
# Convention : Reuss Voigt Hill
#
# Bulk Modulus (GPa) = 5.12268 82.16988 43.64628
# Shear Modulus (GPa) = 7.62034 29.08168 18.35101
#
# Velocity S-wave (km/s) = 2.07957 4.06252 3.22713
# Velocity P-wave (km/s) = 2.94505 8.28478 6.21735
#
# Compressibility (1/GPa) = 0.19521044
#
# Stress axis : x y z
#
# Youngs Moduli (GPa) = 3.72908 22.22562 31.93581
#
# Poissons Ratio (x) = 0.72654 0.34676
# Poissons Ratio (y) = 0.12190 0.99261
# Poissons Ratio (z) = 0.04049 0.69080
#
# Static dielectric constant tensor:
#      x y z
#    x 1.613860 0.000000 0.000000 
#    y 0.000000 1.594770 0.000000 
#    z 0.000000 0.000000 1.580280 
# 
# From -- ./inp_files/32833.got.cif
#   From: 2010.05.17/outbox.cif.g08.bks.cpg/sg59_17_cif.got.tgz:32833.got - 2010.06.03 14:40:33.
