data_PCOD9451506
_publ_section_title
;
Structure prediction by ZEFSAII (Michael W. Deem and Ramdas Pophale) SiO2 
 PCOD9451506
Probable space group: P M M N
;
_chemical_formula_sum "Si O2"
_cell_formula_units_Z 56
_cell_length_a 14.806400
_cell_length_b 8.875891
_cell_length_c 22.872365
_cell_angle_alpha 90.000000
_cell_angle_beta 90.000000
_cell_angle_gamma 90.000000
_cell_volume 3005.886037
_symmetry_space_group_name_H-M "P M M N"
_symmetry_group_IT_number 59
_space_group.IT_coordinate_system_code '2'
_symmetry_cell_setting 'orthorhombic'
loop_
_space_group_symop_operation_xyz
x,y,z
1/2-x,1/2-y,z
1/2+x,-y,-z
-x,1/2+y,-z
-x,-y,-z
1/2+x,1/2+y,-z
1/2-x,y,z
x,1/2-y,z
loop_
_atom_site_type_symbol
_atom_site_label
_atom_site_fract_x
_atom_site_fract_y
_atom_site_fract_z
Si Si1 0.988562 0.930184 0.710716
Si Si2 0.644059 0.569503 0.605137
Si Si3 0.750000 0.568606 0.882240
Si Si4 0.434105 0.569115 0.165997
Si Si5 0.360054 0.921952 0.516250
Si Si6 0.142819 0.428157 0.638178
Si Si7 0.053784 0.068119 0.945398
Si Si8 0.750000 0.567280 0.019223
O O1 0.986248 0.750000 0.717200
O O2 0.915164 0.973337 0.661022
O O3 0.965506 0.007726 0.771696
O O4 0.084269 0.983912 0.685510
O O5 0.750000 0.531380 0.614118
O O6 0.638375 0.750000 0.597784
O O7 0.611411 0.492924 0.545233
O O8 0.750000 0.750000 0.878899
O O9 0.838856 0.503123 0.851963
O O10 0.750000 0.524018 0.950846
O O11 0.426349 0.750000 0.167503
O O12 0.505240 0.527450 0.115014
O O13 0.250000 0.921821 0.514826
O O14 0.391202 0.750000 0.522156
O O15 0.385029 0.015724 0.573563
O O16 0.250000 0.456679 0.644630
O O17 0.127477 0.250000 0.643316
O O18 0.051621 0.250000 0.950375
O O19 0.157607 0.017207 0.950434
O O20 0.000000 0.000000 0.000000
O O21 0.750000 0.750000 0.020426
#
# Coordination Sequence:
#
# PCOD9451506 Si02
#       8
#     8   8   4   8   8   8   8   4
#     4  11  24  40  60  84 115 157 202 244 292 352
#     4   9  19  36  56  81 113 150 191 236 289 350
#     4  11  21  37  65  91 119 159 200 235 286 353
#     4  11  24  40  59  89 125 158 196 245 295 351
#     4   9  17  31  55  86 115 145 185 238 296 351
#     4  10  21  39  62  84 111 150 195 246 301 355
#     4  10  20  37  61  88 121 155 195 242 292 345
#     4   9  18  35  61  91 117 153 194 237 292 349
#
# _framework density 18.630113999999999
#
# number of rings (size 3 to 8) (size 9 to 14) (size 15 to 20)
#    0.000    2.000    1.429    1.929    1.000    4.857 
#    1.286    0.357    0.000    0.000    0.000    0.000 
#    0.000    0.000    0.000    0.000    0.000    0.000 
#
# Total GULP energy -312862.046346 kJ/mol
# GULP energy per Si atom -5586.822256 kJ/mol
# Density = 1.858771 g / cm^3
# Si number density = 18.630114 Si / 1000 Ang^3
#
#
#
# Elastic Constant Matrix: (Units=GPa)
#
#
# Indices 1 2 3 4 5 6 
#
# 1 114.2540 40.8981 76.0870 0.0000 0.0000 0.0000
# 2 40.8981 50.2057 54.5558 0.0000 0.0000 0.0000
# 3 76.0870 54.5558 159.5190 0.0000 0.0000 0.0000
# 4 0.0000 0.0000 0.0000 34.0914 0.0000 0.0000
# 5 0.0000 0.0000 0.0000 0.0000 154.1859 0.0000
# 6 0.0000 0.0000 0.0000 0.0000 0.0000 21.6683
#
#
#
# Elastic Compliance Matrix: (Units=1/GPa)
#
#
# Indices 1 2 3 4 5 6 
#
# 1 0.014095 -0.006646 -0.004450 0.000000 0.000000 0.000000
# 2 -0.006646 0.034832 -0.008743 0.000000 0.000000 0.000000
# 3 -0.004450 -0.008743 0.011381 0.000000 0.000000 0.000000
# 4 0.000000 0.000000 0.000000 0.029333 0.000000 0.000000
# 5 0.000000 0.000000 0.000000 0.000000 0.006486 0.000000
# 6 0.000000 0.000000 0.000000 0.000000 0.000000 0.046150
#
#
# Mechanical properties :
#
#
# Convention : Reuss Voigt Hill
#
# Bulk Modulus (GPa) = 48.47097 74.11781 61.29439
# Shear Modulus (GPa) = 26.47852 52.15164 39.31508
#
# Velocity S-wave (km/s) = 3.77407 5.29660 4.59878
# Velocity P-wave (km/s) = 6.71308 8.79065 7.82116
#
# Compressibility (1/GPa) = 0.02063091
#
# Stress axis : x y z
#
# Youngs Moduli (GPa) = 70.94738 28.70892 87.86353
#
# Poissons Ratio (x) = 0.19081 0.39098
# Poissons Ratio (y) = 0.47155 0.76815
# Poissons Ratio (z) = 0.31571 0.25099
#
# Static dielectric constant tensor:
#      x y z
#    x 1.660680 0.000000 0.000000 
#    y 0.000000 1.623700 0.000000 
#    z 0.000000 0.000000 1.602600 
# 
# From -- ./inp_files/30437.got.cif
#   From: 2010.05.17/outbox.cif.g08.bks.cpg/sg59_16_cif.got.tgz:30437.got - 2010.06.03 14:40:33.
