data_PCOD9451164
_publ_section_title
;
Structure prediction by ZEFSAII (Michael W. Deem and Ramdas Pophale) SiO2 
 PCOD9451164
Probable space group: P M M N
;
_chemical_formula_sum "Si O2"
_cell_formula_units_Z 64
_cell_length_a 8.384417
_cell_length_b 31.819160
_cell_length_c 12.576799
_cell_angle_alpha 90.000000
_cell_angle_beta 90.000000
_cell_angle_gamma 90.000000
_cell_volume 3355.302655
_symmetry_space_group_name_H-M "P M M N"
_symmetry_group_IT_number 59
_space_group.IT_coordinate_system_code '2'
_symmetry_cell_setting 'orthorhombic'
loop_
_space_group_symop_operation_xyz
x,y,z
1/2-x,1/2-y,z
1/2+x,-y,-z
-x,1/2+y,-z
-x,-y,-z
1/2+x,1/2+y,-z
1/2-x,y,z
x,1/2-y,z
loop_
_atom_site_type_symbol
_atom_site_label
_atom_site_fract_x
_atom_site_fract_y
_atom_site_fract_z
Si Si1 0.558894 0.938554 0.248545
Si Si2 0.058153 0.388380 0.356133
Si Si3 0.059777 0.013471 0.383658
Si Si4 0.560170 0.124626 0.125282
Si Si5 0.441259 0.047924 0.987360
Si Si6 0.555245 0.298265 0.979547
Si Si7 0.438117 0.700291 0.261580
Si Si8 0.939341 0.868344 0.411461
O O1 0.750000 0.933528 0.244789
O O2 0.494500 0.904790 0.333600
O O3 0.518548 0.983976 0.295569
O O4 0.499741 0.935155 0.127817
O O5 0.250000 0.383474 0.348859
O O6 0.022558 0.437983 0.363790
O O7 0.999128 0.369378 0.468082
O O8 0.984213 0.371048 0.248477
O O9 0.250000 0.008332 0.379768
O O10 0.000000 0.000000 0.500000
O O11 0.750000 0.123047 0.114044
O O12 0.493707 0.081099 0.076774
O O13 0.501065 0.165220 0.058839
O O14 0.250000 0.046664 0.986772
O O15 0.500000 0.000000 0.000000
O O16 0.750000 0.297577 0.979894
O O17 0.504881 0.250000 0.003358
O O18 0.506488 0.309259 0.858705
O O19 0.250000 0.689988 0.268435
O O20 0.455009 0.750000 0.276026
O O21 0.529316 0.674441 0.350027
O O22 0.750000 0.876216 0.420769
#
# Coordination Sequence:
#
# PCOD9451164 Si02
#       8
#     8   8   8   8   8   8   8   8
#     4  10  21  37  55  79 107 139 181 226 271 320
#     4  10  22  39  55  74 109 151 186 225 273 325
#     4  11  21  35  55  77 105 143 184 228 272 322
#     4  11  22  36  58  85 113 147 191 236 283 339
#     4  11  23  38  57  80 113 150 187 232 280 335
#     4   8  16  34  59  85 113 144 179 225 281 336
#     4   9  18  34  57  84 111 137 170 216 269 327
#     4  10  20  36  55  77 107 140 177 220 268 320
#
# _framework density 19.074283999999999
#
# number of rings (size 3 to 8) (size 9 to 14) (size 15 to 20)
#    0.000    2.000    1.250    3.375    0.000    5.250 
#    0.000    1.250    0.000    5.250    0.000    0.000 
#    0.000    0.000    0.000    0.000    0.000    0.000 
#
# Total GULP energy -357297.066516 kJ/mol
# GULP energy per Si atom -5582.766664 kJ/mol
# Density = 1.903087 g / cm^3
# Si number density = 19.074284 Si / 1000 Ang^3
#
#
#
# Elastic Constant Matrix: (Units=GPa)
#
#
# Indices 1 2 3 4 5 6 
#
# 1 4.7228 9.7735 18.2530 0.0000 0.0000 0.0000
# 2 9.7735 57.8253 57.2626 0.0000 0.0000 0.0000
# 3 18.2530 57.2626 151.4209 0.0000 0.0000 0.0000
# 4 0.0000 0.0000 0.0000 32.4326 0.0000 0.0000
# 5 0.0000 0.0000 0.0000 0.0000 21.4314 0.0000
# 6 0.0000 0.0000 0.0000 0.0000 0.0000 24.2114
#
#
#
# Elastic Compliance Matrix: (Units=1/GPa)
#
#
# Indices 1 2 3 4 5 6 
#
# 1 0.435801 -0.034589 -0.039453 0.000000 0.000000 0.000000
# 2 -0.034589 0.030392 -0.007324 0.000000 0.000000 0.000000
# 3 -0.039453 -0.007324 0.014130 0.000000 0.000000 0.000000
# 4 0.000000 0.000000 0.000000 0.030833 0.000000 0.000000
# 5 0.000000 0.000000 0.000000 0.000000 0.046660 0.000000
# 6 0.000000 0.000000 0.000000 0.000000 0.000000 0.041303
#
#
# Mechanical properties :
#
#
# Convention : Reuss Voigt Hill
#
# Bulk Modulus (GPa) = 3.14871 42.72746 22.93808
# Shear Modulus (GPa) = 5.76226 24.19373 14.97800
#
# Velocity S-wave (km/s) = 1.73998 3.56532 2.80526
# Velocity P-wave (km/s) = 2.38559 6.27677 4.74810
#
# Compressibility (1/GPa) = 0.31759062
#
# Stress axis : x y z
#
# Youngs Moduli (GPa) = 2.29462 32.90311 70.77341
#
# Poissons Ratio (x) = 1.13810 2.79222
# Poissons Ratio (y) = 0.07937 0.51833
# Poissons Ratio (z) = 0.09053 0.24098
#
# Static dielectric constant tensor:
#      x y z
#    x 1.569040 0.000000 0.000000 
#    y 0.000000 1.647690 0.000000 
#    z 0.000000 0.000000 1.672240 
# 
# From -- ./inp_files/15040.got.cif
#   From: 2010.05.17/outbox.cif.g08.bks.cpg/sg59_8_cif.got.tgz:15040.got - 2010.06.03 14:40:33.
