data_PCOD9451071
_publ_section_title
;
Structure prediction by ZEFSAII (Michael W. Deem and Ramdas Pophale) SiO2 
 PCOD9451071
Probable space group: P M M N
;
_chemical_formula_sum "Si O2"
_cell_formula_units_Z 48
_cell_length_a 8.383910
_cell_length_b 19.597929
_cell_length_c 15.568567
_cell_angle_alpha 90.000000
_cell_angle_beta 90.000000
_cell_angle_gamma 90.000000
_cell_volume 2558.028787
_symmetry_space_group_name_H-M "P M M N"
_symmetry_group_IT_number 59
_space_group.IT_coordinate_system_code '2'
_symmetry_cell_setting 'orthorhombic'
loop_
_space_group_symop_operation_xyz
x,y,z
1/2-x,1/2-y,z
1/2+x,-y,-z
-x,1/2+y,-z
-x,-y,-z
1/2+x,1/2+y,-z
1/2-x,y,z
x,1/2-y,z
loop_
_atom_site_type_symbol
_atom_site_label
_atom_site_fract_x
_atom_site_fract_y
_atom_site_fract_z
Si Si1 0.441322 0.926708 0.720150
Si Si2 0.558869 0.423744 0.776065
Si Si3 0.941421 0.925416 0.528935
Si Si4 0.057406 0.327868 0.624921
Si Si5 0.442863 0.574626 0.028588
Si Si6 0.444823 0.671731 0.874244
O O1 0.250000 0.929378 0.721185
O O2 0.497891 0.910334 0.624335
O O3 0.494615 0.871262 0.790578
O O4 0.504275 0.001166 0.746741
O O5 0.750000 0.421752 0.774491
O O6 0.494577 0.368460 0.709424
O O7 0.503984 0.411623 0.873963
O O8 0.750000 0.926093 0.529661
O O9 0.996845 0.870439 0.458486
O O10 0.000000 0.000000 0.500000
O O11 0.250000 0.326971 0.622848
O O12 0.999949 0.250000 0.624357
O O13 0.250000 0.574302 0.028052
O O14 0.500000 0.500000 0.000000
O O15 0.496299 0.630575 0.959147
O O16 0.250000 0.672381 0.874496
O O17 0.498652 0.750000 0.872977
#
# Coordination Sequence:
#
# PCOD9451071 Si02
#       6
#     8   8   8   8   8   8
#     4  11  21  35  59  86 114 153 195 239 287 341
#     4  11  22  35  58  89 117 151 195 242 287 340
#     4  11  22  37  60  87 116 150 192 237 285 345
#     4  10  23  42  61  83 116 156 192 234 292 349
#     4  10  20  35  58  86 115 151 193 238 285 340
#     4   9  19  36  57  83 116 153 192 236 288 343
#
# _framework density 18.764448999999999
#
# number of rings (size 3 to 8) (size 9 to 14) (size 15 to 20)
#    0.000    1.667    3.333    1.500    0.000    3.000 
#    0.000    1.667    0.000    4.000    0.000    0.000 
#    0.000    0.000    0.000    0.000    0.000    0.000 
#
# Total GULP energy -268151.491849 kJ/mol
# GULP energy per Si atom -5586.489414 kJ/mol
# Density = 1.872174 g / cm^3
# Si number density = 18.764449 Si / 1000 Ang^3
#
#
#
# Elastic Constant Matrix: (Units=GPa)
#
#
# Indices 1 2 3 4 5 6 
#
# 1 12.1451 17.0812 18.9954 0.0000 0.0000 0.0000
# 2 17.0812 199.2418 121.7292 0.0000 0.0000 0.0000
# 3 18.9954 121.7292 223.2133 0.0000 0.0000 0.0000
# 4 0.0000 0.0000 0.0000 33.7523 0.0000 0.0000
# 5 0.0000 0.0000 0.0000 0.0000 25.4536 0.0000
# 6 0.0000 0.0000 0.0000 0.0000 0.0000 16.9617
#
#
#
# Elastic Compliance Matrix: (Units=1/GPa)
#
#
# Indices 1 2 3 4 5 6 
#
# 1 0.098150 -0.004966 -0.005644 0.000000 0.000000 0.000000
# 2 -0.004966 0.007778 -0.003819 0.000000 0.000000 0.000000
# 3 -0.005644 -0.003819 0.007043 0.000000 0.000000 0.000000
# 4 0.000000 0.000000 0.000000 0.029628 0.000000 0.000000
# 5 0.000000 0.000000 0.000000 0.000000 0.039287 0.000000
# 6 0.000000 0.000000 0.000000 0.000000 0.000000 0.058956
#
#
# Mechanical properties :
#
#
# Convention : Reuss Voigt Hill
#
# Bulk Modulus (GPa) = 11.88883 83.35684 47.62283
# Shear Modulus (GPa) = 16.79319 33.68647 25.23983
#
# Velocity S-wave (km/s) = 2.99481 4.24161 3.67152
# Velocity P-wave (km/s) = 4.27880 8.27693 6.58846
#
# Compressibility (1/GPa) = 0.08411259
#
# Stress axis : x y z
#
# Youngs Moduli (GPa) = 10.18844 128.56513 141.98182
#
# Poissons Ratio (x) = 0.63846 0.80140
# Poissons Ratio (y) = 0.05060 0.54226
# Poissons Ratio (z) = 0.05751 0.49102
#
# Static dielectric constant tensor:
#      x y z
#    x 1.653860 0.000000 0.000000 
#    y 0.000000 1.614430 0.000000 
#    z 0.000000 0.000000 1.642560 
# 
# From -- ./inp_files/20323.got.cif
#   From: 2010.05.17/outbox.cif.g08.bks.cpg/sg59_11_cif.got.tgz:20323.got - 2010.06.03 14:40:33.
