data_PCOD9451191
_publ_section_title
;
Structure prediction by ZEFSAII (Michael W. Deem and Ramdas Pophale) SiO2 
 PCOD9451191
Probable space group: P M M N
;
_chemical_formula_sum "Si O2"
_cell_formula_units_Z 48
_cell_length_a 16.622645
_cell_length_b 7.788243
_cell_length_c 17.551388
_cell_angle_alpha 90.000000
_cell_angle_beta 90.000000
_cell_angle_gamma 90.000000
_cell_volume 2272.223727
_symmetry_space_group_name_H-M "P M M N"
_symmetry_group_IT_number 59
_space_group.IT_coordinate_system_code '2'
_symmetry_cell_setting 'orthorhombic'
loop_
_space_group_symop_operation_xyz
x,y,z
1/2-x,1/2-y,z
1/2+x,-y,-z
-x,1/2+y,-z
-x,-y,-z
1/2+x,1/2+y,-z
1/2-x,y,z
x,1/2-y,z
loop_
_atom_site_type_symbol
_atom_site_label
_atom_site_fract_x
_atom_site_fract_y
_atom_site_fract_z
Si Si1 0.750000 0.041775 0.269788
Si Si2 0.411448 0.047632 0.471233
Si Si3 0.575446 0.455958 0.837863
Si Si4 0.842873 0.040420 0.991194
Si Si5 0.250000 0.455193 0.552956
Si Si6 0.391982 0.543218 0.840541
Si Si7 0.659691 0.042927 0.685959
O O1 0.750000 0.250000 0.269946
O O2 0.671959 0.982829 0.222113
O O3 0.750000 0.984573 0.356762
O O4 0.406665 0.250000 0.480622
O O5 0.332878 0.973773 0.515705
O O6 0.500000 0.000000 0.500000
O O7 0.398765 0.004744 0.382700
O O8 0.585171 0.250000 0.840129
O O9 0.603587 0.521291 0.920518
O O10 0.482909 0.495630 0.822590
O O11 0.629013 0.520522 0.767727
O O12 0.750000 0.993913 0.978546
O O13 0.846536 0.250000 0.992585
O O14 0.870615 0.980041 0.074367
O O15 0.250000 0.250000 0.539758
O O16 0.385599 0.750000 0.842522
O O17 0.750000 0.980019 0.669338
O O18 0.662319 0.250000 0.689320
#
# Coordination Sequence:
#
# PCOD9451191 Si02
#       7
#     4   8   8   8   4   8   8
#     4  10  22  38  58  83 110 148 194 233 280 342
#     4  11  24  43  65  91 120 155 196 241 297 357
#     4  10  21  34  55  86 115 147 189 235 283 336
#     4   9  16  32  57  80 109 150 192 232 276 331
#     4  10  24  44  64  87 118 152 192 243 296 350
#     4  10  20  36  56  81 112 149 192 236 281 335
#     4  10  21  39  61  87 119 153 193 238 287 346
#
# _framework density 21.124682
#
# number of rings (size 3 to 8) (size 9 to 14) (size 15 to 20)
#    0.000    2.000    1.667    1.500    2.333    4.667 
#    0.000    0.000    0.000    2.500    0.000    0.000 
#    0.000    0.000    0.000    0.000    0.000    0.000 
#
# Total GULP energy -268138.169285 kJ/mol
# GULP energy per Si atom -5586.211860 kJ/mol
# Density = 2.107660 g / cm^3
# Si number density = 21.124682 Si / 1000 Ang^3
#
#
#
# Elastic Constant Matrix: (Units=GPa)
#
#
# Indices 1 2 3 4 5 6 
#
# 1 102.2703 8.4529 34.7115 0.0000 0.0000 0.0000
# 2 8.4529 28.9679 5.2900 0.0000 0.0000 0.0000
# 3 34.7115 5.2900 113.0844 0.0000 0.0000 0.0000
# 4 0.0000 0.0000 0.0000 5.7703 0.0000 0.0000
# 5 0.0000 0.0000 0.0000 0.0000 10.4173 0.0000
# 6 0.0000 0.0000 0.0000 0.0000 0.0000 20.3390
#
#
#
# Elastic Compliance Matrix: (Units=1/GPa)
#
#
# Indices 1 2 3 4 5 6 
#
# 1 0.011112 -0.002642 -0.003287 0.000000 0.000000 0.000000
# 2 -0.002642 0.035447 -0.000847 0.000000 0.000000 0.000000
# 3 -0.003287 -0.000847 0.009892 0.000000 0.000000 0.000000
# 4 0.000000 0.000000 0.000000 0.173302 0.000000 0.000000
# 5 0.000000 0.000000 0.000000 0.000000 0.095994 0.000000
# 6 0.000000 0.000000 0.000000 0.000000 0.000000 0.049167
#
#
# Mechanical properties :
#
#
# Convention : Reuss Voigt Hill
#
# Bulk Modulus (GPa) = 23.31160 37.91461 30.61310
# Shear Modulus (GPa) = 12.41418 20.36321 16.38870
#
# Velocity S-wave (km/s) = 2.42680 3.10813 2.78835
# Velocity P-wave (km/s) = 4.34876 5.55586 4.98895
#
# Compressibility (1/GPa) = 0.04289709
#
# Stress axis : x y z
#
# Youngs Moduli (GPa) = 89.99168 28.21141 101.09566
#
# Poissons Ratio (x) = 0.07454 0.33233
# Poissons Ratio (y) = 0.23778 0.08564
# Poissons Ratio (z) = 0.29583 0.02390
#
# Static dielectric constant tensor:
#      x y z
#    x 1.740590 0.000000 0.000000 
#    y 0.000000 1.780470 0.000000 
#    z 0.000000 0.000000 1.656500 
# 
# From -- ./inp_files/20625.got.cif
#   From: 2010.05.17/outbox.cif.g08.bks.cpg/sg59_11_cif.got.tgz:20625.got - 2010.06.03 14:40:33.
