data_PCOD9451869
_publ_section_title
;
Structure prediction by ZEFSAII (Michael W. Deem and Ramdas Pophale) SiO2 
 PCOD9451869
Probable space group: P M M N
;
_chemical_formula_sum "Si O2"
_cell_formula_units_Z 64
_cell_length_a 28.836778
_cell_length_b 9.286702
_cell_length_c 12.629738
_cell_angle_alpha 90.000000
_cell_angle_beta 90.000000
_cell_angle_gamma 90.000000
_cell_volume 3382.225699
_symmetry_space_group_name_H-M "P M M N"
_symmetry_group_IT_number 59
_space_group.IT_coordinate_system_code '2'
_symmetry_cell_setting 'orthorhombic'
loop_
_space_group_symop_operation_xyz
x,y,z
1/2-x,1/2-y,z
1/2+x,-y,-z
-x,1/2+y,-z
-x,-y,-z
1/2+x,1/2+y,-z
1/2-x,y,z
x,1/2-y,z
loop_
_atom_site_type_symbol
_atom_site_label
_atom_site_fract_x
_atom_site_fract_y
_atom_site_fract_z
Si Si1 0.198476 0.921265 0.713664
Si Si2 0.064928 0.083606 0.495422
Si Si3 0.826692 0.583069 0.494368
Si Si4 0.195479 0.419822 0.082539
Si Si5 0.975913 0.576118 0.099105
Si Si6 0.489790 0.922665 0.329876
Si Si7 0.694150 0.086704 0.707124
Si Si8 0.132854 0.420932 0.875876
O O1 0.250000 0.949883 0.759818
O O2 0.192458 0.750000 0.705911
O O3 0.196757 0.992244 0.598084
O O4 0.158548 0.991506 0.784349
O O5 0.052958 0.250000 0.472606
O O6 0.118293 0.077133 0.525453
O O7 0.033371 0.036796 0.594624
O O8 0.053188 0.992387 0.391241
O O9 0.811880 0.750000 0.493292
O O10 0.818469 0.511443 0.607771
O O11 0.250000 0.450767 0.058904
O O12 0.192814 0.250000 0.109836
O O13 0.179930 0.513957 0.182526
O O14 0.162663 0.444952 0.982291
O O15 0.979334 0.750000 0.088524
O O16 0.000534 0.533075 0.209621
O O17 0.921082 0.541220 0.108094
O O18 0.000000 0.500000 0.000000
O O19 0.485831 0.750000 0.330671
O O20 0.750000 0.092746 0.709988
O O21 0.676387 0.250000 0.696036
O O22 0.134820 0.250000 0.850213
#
# Coordination Sequence:
#
# PCOD9451869 Si02
#       8
#     8   8   8   8   8   8   8   8
#     4  11  24  39  57  86 122 154 186 230 284 342
#     4   9  19  35  56  81 106 136 177 224 270 318
#     4  11  22  36  56  81 111 147 186 227 272 326
#     4   9  18  34  57  83 109 141 185 232 278 334
#     4  10  22  39  58  82 114 150 189 235 286 340
#     4   9  18  35  56  78 107 140 175 218 270 326
#     4  10  21  36  53  75 107 144 179 221 272 321
#     4  10  21  39  62  85 112 149 193 239 285 339
#
# _framework density 18.922450000000001
#
# number of rings (size 3 to 8) (size 9 to 14) (size 15 to 20)
#    0.000    2.125    0.000    2.625    0.000    9.250 
#    0.000    7.500    0.000    0.000    0.000    0.000 
#    0.000    0.000    0.000    0.000    0.000    0.000 
#
# Total GULP energy -357320.629718 kJ/mol
# GULP energy per Si atom -5583.134839 kJ/mol
# Density = 1.887938 g / cm^3
# Si number density = 18.922450 Si / 1000 Ang^3
#
#
#
# Elastic Constant Matrix: (Units=GPa)
#
#
# Indices 1 2 3 4 5 6 
#
# 1 70.1713 35.9995 39.5822 0.0000 0.0000 0.0000
# 2 35.9995 57.9237 56.2617 0.0000 0.0000 0.0000
# 3 39.5822 56.2617 117.8653 0.0000 0.0000 0.0000
# 4 0.0000 0.0000 0.0000 30.8253 0.0000 0.0000
# 5 0.0000 0.0000 0.0000 0.0000 54.3124 0.0000
# 6 0.0000 0.0000 0.0000 0.0000 0.0000 19.7863
#
#
#
# Elastic Compliance Matrix: (Units=1/GPa)
#
#
# Indices 1 2 3 4 5 6 
#
# 1 0.021070 -0.011601 -0.001538 0.000000 0.000000 0.000000
# 2 -0.011601 0.038575 -0.014517 0.000000 0.000000 0.000000
# 3 -0.001538 -0.014517 0.015931 0.000000 0.000000 0.000000
# 4 0.000000 0.000000 0.000000 0.032441 0.000000 0.000000
# 5 0.000000 0.000000 0.000000 0.000000 0.018412 0.000000
# 6 0.000000 0.000000 0.000000 0.000000 0.000000 0.050540
#
#
# Mechanical properties :
#
#
# Convention : Reuss Voigt Hill
#
# Bulk Modulus (GPa) = 49.35258 56.62747 52.99002
# Shear Modulus (GPa) = 20.91738 28.59260 24.75499
#
# Velocity S-wave (km/s) = 3.32840 3.89143 3.62088
# Velocity P-wave (km/s) = 6.39602 7.08393 6.74875
#
# Compressibility (1/GPa) = 0.02026236
#
# Stress axis : x y z
#
# Youngs Moduli (GPa) = 47.46074 25.92364 62.77214
#
# Poissons Ratio (x) = 0.30073 0.09657
# Poissons Ratio (y) = 0.55058 0.91129
# Poissons Ratio (z) = 0.07301 0.37635
#
# Static dielectric constant tensor:
#      x y z
#    x 1.664690 0.000000 0.000000 
#    y 0.000000 1.642220 0.000000 
#    z 0.000000 0.000000 1.631720 
# 
# From -- ./inp_files/14937.got.cif
#   From: 2010.05.17/outbox.cif.g08.bks.cpg/sg59_8_cif.got.tgz:14937.got - 2010.06.03 14:40:33.
