data_PCOD9451180
_publ_section_title
;
Structure prediction by ZEFSAII (Michael W. Deem and Ramdas Pophale) SiO2 
 PCOD9451180
Probable space group: P M M N
;
_chemical_formula_sum "Si O2"
_cell_formula_units_Z 56
_cell_length_a 7.502408
_cell_length_b 17.276988
_cell_length_c 20.103220
_cell_angle_alpha 90.000000
_cell_angle_beta 90.000000
_cell_angle_gamma 90.000000
_cell_volume 2605.759534
_symmetry_space_group_name_H-M "P M M N"
_symmetry_group_IT_number 59
_space_group.IT_coordinate_system_code '2'
_symmetry_cell_setting 'orthorhombic'
loop_
_space_group_symop_operation_xyz
x,y,z
1/2-x,1/2-y,z
1/2+x,-y,-z
-x,1/2+y,-z
-x,-y,-z
1/2+x,1/2+y,-z
1/2-x,y,z
x,1/2-y,z
loop_
_atom_site_type_symbol
_atom_site_label
_atom_site_fract_x
_atom_site_fract_y
_atom_site_fract_z
Si Si1 0.966155 0.160724 0.030125
Si Si2 0.460628 0.898775 0.111775
Si Si3 0.459102 0.438776 0.160001
Si Si4 0.531187 0.661206 0.716381
Si Si5 0.963120 0.750000 0.200618
Si Si6 0.035522 0.099978 0.564765
Si Si7 0.468508 0.250000 0.646712
Si Si8 0.962178 0.575877 0.584556
O O1 0.750000 0.160890 0.029136
O O2 0.024332 0.250000 0.033447
O O3 0.024646 0.113039 0.094147
O O4 0.031403 0.122683 0.961296
O O5 0.250000 0.912424 0.101936
O O6 0.480195 0.825859 0.160168
O O7 0.536805 0.976902 0.143656
O O8 0.250000 0.450125 0.175083
O O9 0.532250 0.392134 0.222903
O O10 0.750000 0.660976 0.716685
O O11 0.476121 0.750000 0.724601
O O12 0.470814 0.625568 0.646287
O O13 0.750000 0.750000 0.202429
O O14 0.027524 0.750000 0.276689
O O15 0.250000 0.105275 0.562038
O O16 0.973112 0.172719 0.607829
O O17 0.967510 0.098891 0.488499
O O18 0.992428 0.015686 0.594301
O O19 0.250000 0.250000 0.646842
O O20 0.750000 0.588059 0.582068
#
# Coordination Sequence:
#
# PCOD9451180 Si02
#       8
#     8   8   8   8   4   8   4   8
#     4  10  20  36  56  78 109 144 177 217 264 319
#     4  10  21  39  58  78 109 145 177 217 276 326
#     4  10  21  35  56  82 108 141 180 222 268 317
#     4   9  18  32  51  79 110 136 172 223 264 303
#     4  11  23  37  55  81 108 139 184 228 265 321
#     4   9  18  34  54  76 106 141 176 220 268 317
#     4   9  20  35  53  79 110 143 180 218 269 323
#     4   9  18  32  54  80 104 137 182 221 263 317
#
# _framework density 21.490853999999999
#
# number of rings (size 3 to 8) (size 9 to 14) (size 15 to 20)
#    0.000    2.429    0.714    1.071    3.000    2.000 
#    0.000    1.786    0.000    1.286    0.000    0.000 
#    0.000    0.000    0.000    0.000    0.000    0.000 
#
# Total GULP energy -312853.236407 kJ/mol
# GULP energy per Si atom -5586.664936 kJ/mol
# Density = 2.144194 g / cm^3
# Si number density = 21.490854 Si / 1000 Ang^3
#
#
#
# Elastic Constant Matrix: (Units=GPa)
#
#
# Indices 1 2 3 4 5 6 
#
# 1 52.5009 -13.8913 -12.4170 0.0000 0.0000 0.0000
# 2 -13.8913 131.9232 71.3813 0.0000 0.0000 0.0000
# 3 -12.4170 71.3813 121.7148 0.0000 0.0000 0.0000
# 4 0.0000 0.0000 0.0000 7.6319 0.0000 0.0000
# 5 0.0000 0.0000 0.0000 0.0000 -35.7846 0.0000
# 6 0.0000 0.0000 0.0000 0.0000 0.0000 11.2736
#
#
#
# Elastic Compliance Matrix: (Units=1/GPa)
#
#
# Indices 1 2 3 4 5 6 
#
# 1 0.019705 0.001446 0.001162 0.000000 0.000000 0.000000
# 2 0.001446 0.011210 -0.006427 0.000000 0.000000 0.000000
# 3 0.001162 -0.006427 0.012103 0.000000 0.000000 0.000000
# 4 0.000000 0.000000 0.000000 0.131028 0.000000 0.000000
# 5 0.000000 0.000000 0.000000 0.000000 -0.027945 0.000000
# 6 0.000000 0.000000 0.000000 0.000000 0.000000 0.088703
#
#
# Mechanical properties :
#
#
# Convention : Reuss Voigt Hill
#
# Bulk Modulus (GPa) = 28.26357 44.03164 36.14761
# Shear Modulus (GPa) = 19.66688 14.02858 16.84773
#
# Velocity S-wave (km/s) = 3.02839 2.55771 2.80295
# Velocity P-wave (km/s) = 5.04065 5.40884 5.22799
#
# Compressibility (1/GPa) = 0.03538124
#
# Stress axis : x y z
#
# Youngs Moduli (GPa) = 50.74915 89.20805 82.62102
#
# Poissons Ratio (x) = -0.12900 -0.09602
# Poissons Ratio (y) = -0.07339 0.53097
# Poissons Ratio (z) = -0.05898 0.57330
#
# Static dielectric constant tensor:
#      x y z
#    x 1.820540 0.000000 0.000000 
#    y 0.000000 1.724440 0.000000 
#    z 0.000000 0.000000 1.746180 
# 
# From -- ./inp_files/29210.got.cif
#   From: 2010.05.17/outbox.cif.g08.bks.cpg/sg59_15_cif.got.tgz:29210.got - 2010.06.03 14:40:33.
