data_PCOD9451499
_publ_section_title
;
Structure prediction by ZEFSAII (Michael W. Deem and Ramdas Pophale) SiO2 
 PCOD9451499
Probable space group: P M M N
;
_chemical_formula_sum "Si O2"
_cell_formula_units_Z 48
_cell_length_a 8.719170
_cell_length_b 14.935026
_cell_length_c 20.100678
_cell_angle_alpha 90.000000
_cell_angle_beta 90.000000
_cell_angle_gamma 90.000000
_cell_volume 2617.531006
_symmetry_space_group_name_H-M "P M M N"
_symmetry_group_IT_number 59
_space_group.IT_coordinate_system_code '2'
_symmetry_cell_setting 'orthorhombic'
loop_
_space_group_symop_operation_xyz
x,y,z
1/2-x,1/2-y,z
1/2+x,-y,-z
-x,1/2+y,-z
-x,-y,-z
1/2+x,1/2+y,-z
1/2-x,y,z
x,1/2-y,z
loop_
_atom_site_type_symbol
_atom_site_label
_atom_site_fract_x
_atom_site_fract_y
_atom_site_fract_z
Si Si1 0.434536 0.250000 0.633321
Si Si2 0.566947 0.644939 0.913081
Si Si3 0.432605 0.486548 0.830978
Si Si4 0.563756 0.750000 0.522445
Si Si5 0.932090 0.143685 0.942029
Si Si6 0.934354 0.435033 0.688255
Si Si7 0.935379 0.945315 0.562529
O O1 0.250000 0.250000 0.636606
O O2 0.480591 0.250000 0.555347
O O3 0.499244 0.161254 0.667715
O O4 0.750000 0.632668 0.912674
O O5 0.533517 0.750000 0.901934
O O6 0.490855 0.581490 0.858813
O O7 0.502541 0.620953 0.986060
O O8 0.250000 0.484905 0.827643
O O9 0.490887 0.413414 0.884222
O O10 0.502899 0.464857 0.759363
O O11 0.750000 0.750000 0.524029
O O12 0.512685 0.657729 0.556385
O O13 0.750000 0.126514 0.943018
O O14 0.956201 0.250000 0.931260
O O15 0.750000 0.430193 0.690418
O O16 0.979729 0.505377 0.630558
O O17 0.750000 0.946612 0.558541
O O18 0.000000 0.000000 0.500000
#
# Coordination Sequence:
#
# PCOD9451499 Si02
#       7
#     4   8   8   4   8   8   8
#     4  11  21  37  63  89 119 156 193 236 297 361
#     4  10  21  40  65  90 118 154 200 248 298 355
#     4  12  25  40  60  85 121 162 202 246 299 358
#     4   9  18  35  61  89 115 148 191 240 293 351
#     4  10  21  38  62  91 122 155 197 247 298 353
#     4  11  24  40  59  87 123 157 197 245 298 357
#     4  10  20  37  61  87 117 152 195 242 291 349
#
# _framework density 18.337892
#
# number of rings (size 3 to 8) (size 9 to 14) (size 15 to 20)
#    0.000    1.500    1.667    3.750    1.167    2.667 
#    1.500    0.417    0.000    0.000    0.000    0.000 
#    0.000    0.000    0.000    0.000    0.000    0.000 
#
# Total GULP energy -268331.472671 kJ/mol
# GULP energy per Si atom -5590.239014 kJ/mol
# Density = 1.829615 g / cm^3
# Si number density = 18.337892 Si / 1000 Ang^3
#
#
#
# Elastic Constant Matrix: (Units=GPa)
#
#
# Indices 1 2 3 4 5 6 
#
# 1 81.8308 58.8534 65.6335 0.0000 0.0000 0.0000
# 2 58.8534 156.8446 112.9917 0.0000 0.0000 0.0000
# 3 65.6335 112.9917 174.0221 0.0000 0.0000 0.0000
# 4 0.0000 0.0000 0.0000 -9.0347 0.0000 0.0000
# 5 0.0000 0.0000 0.0000 0.0000 31.0431 0.0000
# 6 0.0000 0.0000 0.0000 0.0000 0.0000 24.6526
#
#
#
# Elastic Compliance Matrix: (Units=1/GPa)
#
#
# Indices 1 2 3 4 5 6 
#
# 1 0.018547 -0.003608 -0.004653 0.000000 0.000000 0.000000
# 2 -0.003608 0.012681 -0.006873 0.000000 0.000000 0.000000
# 3 -0.004653 -0.006873 0.011964 0.000000 0.000000 0.000000
# 4 0.000000 0.000000 0.000000 -0.110685 0.000000 0.000000
# 5 0.000000 0.000000 0.000000 0.000000 0.032213 0.000000
# 6 0.000000 0.000000 0.000000 0.000000 0.000000 0.040564
#
#
# Mechanical properties :
#
#
# Convention : Reuss Voigt Hill
#
# Bulk Modulus (GPa) = 77.37018 98.62831 87.99924
# Shear Modulus (GPa) = 125.44706 21.01348 73.23027
#
# Velocity S-wave (km/s) = 8.27993 3.38879 6.32618
# Velocity P-wave (km/s) = 11.56255 8.31941 10.07237
#
# Compressibility (1/GPa) = 0.01292488
#
# Stress axis : x y z
#
# Youngs Moduli (GPa) = 53.91824 78.86015 83.58636
#
# Poissons Ratio (x) = 0.28449 0.38889
# Poissons Ratio (y) = 0.19451 0.57448
# Poissons Ratio (z) = 0.25086 0.54200
#
# Static dielectric constant tensor:
#      x y z
#    x 1.611450 0.000000 0.000000 
#    y 0.000000 1.630900 0.000000 
#    z 0.000000 0.000000 1.587920 
# 
# From -- ./inp_files/25568.got.cif
#   From: 2010.05.17/outbox.cif.g08.bks.cpg/sg59_13_cif.got.tgz:25568.got - 2010.06.03 14:40:33.
