data_PCOD9451888
_publ_section_title
;
Structure prediction by ZEFSAII (Michael W. Deem and Ramdas Pophale) SiO2 
 PCOD9451888
Probable space group: P M M N
;
_chemical_formula_sum "Si O2"
_cell_formula_units_Z 48
_cell_length_a 7.507918
_cell_length_b 9.726227
_cell_length_c 31.831936
_cell_angle_alpha 90.000000
_cell_angle_beta 90.000000
_cell_angle_gamma 90.000000
_cell_volume 2324.486215
_symmetry_space_group_name_H-M "P M M N"
_symmetry_group_IT_number 59
_space_group.IT_coordinate_system_code '2'
_symmetry_cell_setting 'orthorhombic'
loop_
_space_group_symop_operation_xyz
x,y,z
1/2-x,1/2-y,z
1/2+x,-y,-z
-x,1/2+y,-z
-x,-y,-z
1/2+x,1/2+y,-z
1/2-x,y,z
x,1/2-y,z
loop_
_atom_site_type_symbol
_atom_site_label
_atom_site_fract_x
_atom_site_fract_y
_atom_site_fract_z
Si Si1 0.963119 0.593544 0.383991
Si Si2 0.967115 0.090541 0.867261
Si Si3 0.031750 0.408000 0.211138
Si Si4 0.463509 0.593769 0.288153
Si Si5 0.036954 0.595165 0.039442
Si Si6 0.036262 0.906261 0.540417
O O1 0.750000 0.600389 0.389149
O O2 0.032159 0.750000 0.389861
O O3 0.031940 0.486958 0.418474
O O4 0.997856 0.551754 0.335965
O O5 0.750000 0.088603 0.866480
O O6 0.018991 0.250000 0.860451
O O7 0.026573 0.991188 0.830164
O O8 0.025555 0.048614 0.914283
O O9 0.250000 0.407935 0.211143
O O10 0.974732 0.250000 0.210877
O O11 0.972163 0.489819 0.252620
O O12 0.250000 0.599935 0.283933
O O13 0.531620 0.750000 0.282250
O O14 0.250000 0.603084 0.042777
O O15 0.969164 0.750000 0.032299
O O16 0.000000 0.500000 0.000000
O O17 0.250000 0.896818 0.544344
O O18 0.968194 0.750000 0.536234
O O19 0.000000 0.000000 0.500000
#
# Coordination Sequence:
#
# PCOD9451888 Si02
#       6
#     8   8   8   8   8   8
#     4   9  18  33  51  70  95 127 160 193 231 278
#     4   8  14  26  43  62  87 119 152 186 227 276
#     4   9  16  25  40  65  93 117 146 188 233 273
#     4   9  17  29  46  68  93 121 152 187 229 275
#     4   9  18  31  47  69  95 123 157 196 238 286
#     4  10  21  36  54  76 101 130 164 201 242 287
#
# _framework density 20.649723999999999
#
# number of rings (size 3 to 8) (size 9 to 14) (size 15 to 20)
#    0.000    3.000    0.000    2.000    0.000    5.333 
#    0.000    3.333    0.000    1.000    0.000    2.333 
#    0.000    0.000    0.000    0.000    0.000    0.000 
#
# Total GULP energy -267834.031767 kJ/mol
# GULP energy per Si atom -5579.875662 kJ/mol
# Density = 2.060272 g / cm^3
# Si number density = 20.649724 Si / 1000 Ang^3
#
#
#
# Elastic Constant Matrix: (Units=GPa)
#
#
# Indices 1 2 3 4 5 6 
#
# 1 53.2959 5.9148 1.1539 0.0000 0.0000 0.0000
# 2 5.9148 169.9780 164.0076 0.0000 0.0000 0.0000
# 3 1.1539 164.0076 230.5008 0.0000 0.0000 0.0000
# 4 0.0000 0.0000 0.0000 39.9898 0.0000 0.0000
# 5 0.0000 0.0000 0.0000 0.0000 19.4978 0.0000
# 6 0.0000 0.0000 0.0000 0.0000 0.0000 8.2798
#
#
#
# Elastic Compliance Matrix: (Units=1/GPa)
#
#
# Indices 1 2 3 4 5 6 
#
# 1 0.018938 -0.001811 0.001193 0.000000 0.000000 0.000000
# 2 -0.001811 0.018941 -0.013468 0.000000 0.000000 0.000000
# 3 0.001193 -0.013468 0.013915 0.000000 0.000000 0.000000
# 4 0.000000 0.000000 0.000000 0.025006 0.000000 0.000000
# 5 0.000000 0.000000 0.000000 0.000000 0.051288 0.000000
# 6 0.000000 0.000000 0.000000 0.000000 0.000000 0.120776
#
#
# Mechanical properties :
#
#
# Convention : Reuss Voigt Hill
#
# Bulk Modulus (GPa) = 42.32916 88.43638 65.38277
# Shear Modulus (GPa) = 17.54940 32.40004 24.97472
#
# Velocity S-wave (km/s) = 2.91840 3.96540 3.48148
# Velocity P-wave (km/s) = 5.64794 7.99285 6.92044
#
# Compressibility (1/GPa) = 0.02362437
#
# Stress axis : x y z
#
# Youngs Moduli (GPa) = 52.80318 52.79525 71.86342
#
# Poissons Ratio (x) = 0.09559 -0.08576
# Poissons Ratio (y) = 0.09560 0.96786
# Poissons Ratio (z) = -0.06302 0.71105
#
# Static dielectric constant tensor:
#      x y z
#    x 1.808310 0.000000 0.000000 
#    y 0.000000 1.729310 0.000000 
#    z 0.000000 0.000000 1.712790 
# 
# From -- ./inp_files/31856.got.cif
#   From: 2010.05.17/outbox.cif.g08.bks.cpg/sg59_16_cif.got.tgz:31856.got - 2010.06.03 14:40:33.
