data_PCOD9451840
_publ_section_title
;
Structure prediction by ZEFSAII (Michael W. Deem and Ramdas Pophale) SiO2 
 PCOD9451840
Probable space group: P M M N
;
_chemical_formula_sum "Si O2"
_cell_formula_units_Z 48
_cell_length_a 8.798343
_cell_length_b 14.867617
_cell_length_c 19.041713
_cell_angle_alpha 90.000000
_cell_angle_beta 90.000000
_cell_angle_gamma 90.000000
_cell_volume 2490.853979
_symmetry_space_group_name_H-M "P M M N"
_symmetry_group_IT_number 59
_space_group.IT_coordinate_system_code '2'
_symmetry_cell_setting 'orthorhombic'
loop_
_space_group_symop_operation_xyz
x,y,z
1/2-x,1/2-y,z
1/2+x,-y,-z
-x,1/2+y,-z
-x,-y,-z
1/2+x,1/2+y,-z
1/2-x,y,z
x,1/2-y,z
loop_
_atom_site_type_symbol
_atom_site_label
_atom_site_fract_x
_atom_site_fract_y
_atom_site_fract_z
Si Si1 0.928279 0.356865 0.045225
Si Si2 0.567103 0.852087 0.396777
Si Si3 0.430316 0.473082 0.170262
Si Si4 0.931204 0.854645 0.106853
Si Si5 0.931031 0.144067 0.453563
Si Si6 0.933684 0.472835 0.318582
O O1 0.750000 0.377962 0.035421
O O2 0.942021 0.250000 0.059271
O O3 0.995019 0.413218 0.109188
O O4 0.016669 0.375213 0.972833
O O5 0.750000 0.850586 0.397592
O O6 0.512289 0.750000 0.384107
O O7 0.511880 0.881620 0.473909
O O8 0.521254 0.925443 0.339528
O O9 0.250000 0.467063 0.165850
O O10 0.485695 0.574988 0.156617
O O11 0.489700 0.444160 0.246487
O O12 0.750000 0.865371 0.113159
O O13 0.969062 0.750000 0.120850
O O14 0.750000 0.131838 0.462901
O O15 0.960487 0.250000 0.442163
O O16 0.976845 0.088255 0.385240
O O17 0.750000 0.468885 0.310810
#
# Coordination Sequence:
#
# PCOD9451840 Si02
#       6
#     8   8   8   8   8   8
#     4  10  21  39  63  87 112 145 186 231 277 328
#     4   9  18  33  54  78 103 134 174 221 271 323
#     4  12  25  38  55  82 117 152 187 230 279 332
#     4  10  21  39  63  87 112 145 186 231 277 328
#     4   9  18  33  54  78 103 134 174 221 271 323
#     4  10  21  36  52  74 107 144 182 222 269 326
#
# _framework density 19.270498
#
# number of rings (size 3 to 8) (size 9 to 14) (size 15 to 20)
#    0.000    2.000    0.000    3.500    0.000    4.667 
#    0.000    3.333    0.000    0.000    0.000    0.000 
#    0.000    0.000    0.000    0.000    0.000    0.000 
#
# Total GULP energy -268195.987827 kJ/mol
# GULP energy per Si atom -5587.416413 kJ/mol
# Density = 1.922664 g / cm^3
# Si number density = 19.270498 Si / 1000 Ang^3
#
#
#
# Elastic Constant Matrix: (Units=GPa)
#
#
# Indices 1 2 3 4 5 6 
#
# 1 30.1699 8.5966 -1.6697 0.0000 0.0000 0.0000
# 2 8.5966 23.2604 2.7615 0.0000 0.0000 0.0000
# 3 -1.6697 2.7615 29.5149 0.0000 0.0000 0.0000
# 4 0.0000 0.0000 0.0000 9.3156 0.0000 0.0000
# 5 0.0000 0.0000 0.0000 0.0000 31.2838 0.0000
# 6 0.0000 0.0000 0.0000 0.0000 0.0000 22.6837
#
#
#
# Elastic Compliance Matrix: (Units=1/GPa)
#
#
# Indices 1 2 3 4 5 6 
#
# 1 0.037391 -0.014228 0.003447 0.000000 0.000000 0.000000
# 2 -0.014228 0.048889 -0.005379 0.000000 0.000000 0.000000
# 3 0.003447 -0.005379 0.034579 0.000000 0.000000 0.000000
# 4 0.000000 0.000000 0.000000 0.107346 0.000000 0.000000
# 5 0.000000 0.000000 0.000000 0.000000 0.031965 0.000000
# 6 0.000000 0.000000 0.000000 0.000000 0.000000 0.044085
#
#
# Mechanical properties :
#
#
# Convention : Reuss Voigt Hill
#
# Bulk Modulus (GPa) = 11.29466 11.36909 11.33188
# Shear Modulus (GPa) = 13.65790 17.54041 15.59916
#
# Velocity S-wave (km/s) = 2.66512 3.02026 2.84823
# Velocity P-wave (km/s) = 3.91718 4.25149 4.08775
#
# Compressibility (1/GPa) = 0.08853742
#
# Stress axis : x y z
#
# Youngs Moduli (GPa) = 26.74474 20.45469 28.91887
#
# Poissons Ratio (x) = 0.29103 -0.09967
# Poissons Ratio (y) = 0.38052 0.15556
# Poissons Ratio (z) = -0.09218 0.11003
#
# Static dielectric constant tensor:
#      x y z
#    x 1.641600 0.000000 0.000000 
#    y 0.000000 1.696370 0.000000 
#    z 0.000000 0.000000 1.632690 
# 
# From -- ./inp_files/25427.got.cif
#   From: 2010.05.17/outbox.cif.g08.bks.cpg/sg59_13_cif.got.tgz:25427.got - 2010.06.03 14:40:33.
