data_PCOD9451911
_publ_section_title
;
Structure prediction by ZEFSAII (Michael W. Deem and Ramdas Pophale) SiO2 
 PCOD9451911
Probable space group: P M M N
;
_chemical_formula_sum "Si O2"
_cell_formula_units_Z 64
_cell_length_a 9.047735
_cell_length_b 13.566256
_cell_length_c 24.388889
_cell_angle_alpha 90.000000
_cell_angle_beta 90.000000
_cell_angle_gamma 90.000000
_cell_volume 2993.587090
_symmetry_space_group_name_H-M "P M M N"
_symmetry_group_IT_number 59
_space_group.IT_coordinate_system_code '2'
_symmetry_cell_setting 'orthorhombic'
loop_
_space_group_symop_operation_xyz
x,y,z
1/2-x,1/2-y,z
1/2+x,-y,-z
-x,1/2+y,-z
-x,-y,-z
1/2+x,1/2+y,-z
1/2-x,y,z
x,1/2-y,z
loop_
_atom_site_type_symbol
_atom_site_label
_atom_site_fract_x
_atom_site_fract_y
_atom_site_fract_z
Si Si1 0.427861 0.569360 0.076480
Si Si2 0.078008 0.870415 0.535226
Si Si3 0.422531 0.630123 0.414158
Si Si4 0.582266 0.631429 0.303568
Si Si5 0.574212 0.135518 0.240948
Si Si6 0.073468 0.951795 0.197113
Si Si7 0.417805 0.369681 0.354384
Si Si8 0.927602 0.856885 0.967864
O O1 0.250000 0.578484 0.070901
O O2 0.468447 0.595289 0.138717
O O3 0.505417 0.629650 0.028483
O O4 0.469412 0.454487 0.065797
O O5 0.250000 0.900812 0.541140
O O6 0.079294 0.750000 0.536160
O O7 0.020954 0.898635 0.474654
O O8 0.980848 0.902272 0.586890
O O9 0.250000 0.603372 0.410916
O O10 0.427836 0.750000 0.413339
O O11 0.508134 0.596872 0.360188
O O12 0.750000 0.594829 0.299338
O O13 0.586051 0.750000 0.305981
O O14 0.492168 0.602210 0.249819
O O15 0.750000 0.125145 0.236536
O O16 0.535500 0.250000 0.232021
O O17 0.520708 0.107837 0.302458
O O18 0.490223 0.062227 0.200718
O O19 0.250000 0.954326 0.200252
O O20 0.250000 0.403688 0.344619
O O21 0.413946 0.250000 0.356800
O O22 0.750000 0.858053 0.971472
O O23 0.973615 0.750000 0.945230
#
# Coordination Sequence:
#
# PCOD9451911 Si02
#       8
#     8   8   8   8   8   8   8   8
#     4   9  20  37  56  83 116 148 185 226 266 313
#     4   8  13  22  39  65  96 130 169 216 272 331
#     4   8  14  26  45  69  98 133 175 223 275 333
#     4  10  21  36  54  77 107 144 186 232 281 333
#     4  10  21  37  56  78 107 143 183 229 280 333
#     4  11  23  38  58  82 111 149 189 230 273 320
#     4   9  16  26  43  69 100 134 175 222 271 328
#     4   9  18  35  60  87 116 150 183 219 266 315
#
# _framework density 21.379034000000001
#
# number of rings (size 3 to 8) (size 9 to 14) (size 15 to 20)
#    0.000    2.750    0.000    2.250    0.000    5.750 
#    0.000    6.250    0.000    0.750    0.000    0.000 
#    0.000    0.000    0.000    0.000    0.000    0.000 
#
# Total GULP energy -357568.017420 kJ/mol
# GULP energy per Si atom -5587.000272 kJ/mol
# Density = 2.133037 g / cm^3
# Si number density = 21.379034 Si / 1000 Ang^3
#
#
#
# Elastic Constant Matrix: (Units=GPa)
#
#
# Indices 1 2 3 4 5 6 
#
# 1 56.3134 -7.7602 26.8699 0.0000 0.0000 0.0000
# 2 -7.7602 53.7814 -8.6016 0.0000 0.0000 0.0000
# 3 26.8699 -8.6016 89.4632 0.0000 0.0000 0.0000
# 4 0.0000 0.0000 0.0000 13.9406 0.0000 0.0000
# 5 0.0000 0.0000 0.0000 0.0000 30.3918 0.0000
# 6 0.0000 0.0000 0.0000 0.0000 0.0000 21.6877
#
#
#
# Elastic Compliance Matrix: (Units=1/GPa)
#
#
# Indices 1 2 3 4 5 6 
#
# 1 0.020948 0.002048 -0.006095 0.000000 0.000000 0.000000
# 2 0.002048 0.019084 0.001220 0.000000 0.000000 0.000000
# 3 -0.006095 0.001220 0.013126 0.000000 0.000000 0.000000
# 4 0.000000 0.000000 0.000000 0.071733 0.000000 0.000000
# 5 0.000000 0.000000 0.000000 0.000000 0.032904 0.000000
# 6 0.000000 0.000000 0.000000 0.000000 0.000000 0.046109
#
#
# Mechanical properties :
#
#
# Convention : Reuss Voigt Hill
#
# Bulk Modulus (GPa) = 21.05092 24.50826 22.77959
# Shear Modulus (GPa) = 22.18351 25.80735 23.99543
#
# Velocity S-wave (km/s) = 3.22472 3.47815 3.35383
# Velocity P-wave (km/s) = 4.87165 5.25534 5.06713
#
# Compressibility (1/GPa) = 0.04750386
#
# Stress axis : x y z
#
# Youngs Moduli (GPa) = 47.73706 52.39890 76.18696
#
# Poissons Ratio (x) = -0.10730 0.46434
# Poissons Ratio (y) = -0.09776 -0.09294
# Poissons Ratio (z) = 0.29095 -0.06392
#
# Static dielectric constant tensor:
#      x y z
#    x 1.719560 0.000000 0.000000 
#    y 0.000000 1.855410 0.000000 
#    z 0.000000 0.000000 1.741410 
# 
# From -- ./inp_files/31522.got.cif
#   From: 2010.05.17/outbox.cif.g08.bks.cpg/sg59_16_cif.got.tgz:31522.got - 2010.06.03 14:40:33.
