data_PCOD9451713
_publ_section_title
;
Structure prediction by ZEFSAII (Michael W. Deem and Ramdas Pophale) SiO2 
 PCOD9451713
Probable space group: P M M N
;
_chemical_formula_sum "Si O2"
_cell_formula_units_Z 48
_cell_length_a 9.702998
_cell_length_b 7.931342
_cell_length_c 32.427535
_cell_angle_alpha 90.000000
_cell_angle_beta 90.000000
_cell_angle_gamma 90.000000
_cell_volume 2495.551609
_symmetry_space_group_name_H-M "P M M N"
_symmetry_group_IT_number 59
_space_group.IT_coordinate_system_code '2'
_symmetry_cell_setting 'orthorhombic'
loop_
_space_group_symop_operation_xyz
x,y,z
1/2-x,1/2-y,z
1/2+x,-y,-z
-x,1/2+y,-z
-x,-y,-z
1/2+x,1/2+y,-z
1/2-x,y,z
x,1/2-y,z
loop_
_atom_site_type_symbol
_atom_site_label
_atom_site_fract_x
_atom_site_fract_y
_atom_site_fract_z
Si Si1 0.591567 0.545758 0.217891
Si Si2 0.407365 0.547987 0.629332
Si Si3 0.907593 0.953709 0.038658
Si Si4 0.417780 0.054848 0.872166
Si Si5 0.093567 0.049115 0.538346
Si Si6 0.406792 0.453155 0.295486
O O1 0.750000 0.490308 0.225765
O O2 0.594613 0.750000 0.215668
O O3 0.545973 0.481156 0.172505
O O4 0.490887 0.494566 0.254281
O O5 0.250000 0.481936 0.633272
O O6 0.400331 0.750000 0.633786
O O7 0.457381 0.511255 0.583052
O O8 0.507157 0.482577 0.665052
O O9 0.750000 0.011936 0.032583
O O10 0.904098 0.750000 0.041757
O O11 0.959261 0.018697 0.083470
O O12 0.000000 0.000000 0.000000
O O13 0.250000 0.056613 0.872871
O O14 0.464544 0.250000 0.871707
O O15 0.250000 0.982417 0.533225
O O16 0.099720 0.250000 0.539881
O O17 0.000000 0.000000 0.500000
O O18 0.250000 0.516955 0.294434
O O19 0.400552 0.250000 0.298796
#
# Coordination Sequence:
#
# PCOD9451713 Si02
#       6
#     8   8   8   8   8   8
#     4   9  17  31  53  76  94 119 161 208 247 286
#     4   9  18  34  54  73  97 133 174 210 242 282
#     4   9  17  30  48  69  94 124 158 197 241 289
#     4   7  12  26  47  68  90 119 157 199 240 283
#     4  10  21  36  55  80 108 136 167 205 248 292
#     4  10  21  35  50  72 104 137 164 195 242 296
#
# _framework density 19.234224999999999
#
# number of rings (size 3 to 8) (size 9 to 14) (size 15 to 20)
#    0.000    3.000    0.000    3.000    0.000    4.000 
#    0.000    5.000    0.000    8.000    0.000    0.000 
#    0.000    0.000    0.000    0.000    0.000    0.000 
#
# Total GULP energy -267469.479040 kJ/mol
# GULP energy per Si atom -5572.280813 kJ/mol
# Density = 1.919045 g / cm^3
# Si number density = 19.234225 Si / 1000 Ang^3
#
#
#
# Elastic Constant Matrix: (Units=GPa)
#
#
# Indices 1 2 3 4 5 6 
#
# 1 92.8150 7.7338 109.4026 0.0000 0.0000 0.0000
# 2 7.7338 16.8574 5.0042 0.0000 0.0000 0.0000
# 3 109.4026 5.0042 232.2060 0.0000 0.0000 0.0000
# 4 0.0000 0.0000 0.0000 28.4126 0.0000 0.0000
# 5 0.0000 0.0000 0.0000 0.0000 31.2238 0.0000
# 6 0.0000 0.0000 0.0000 0.0000 0.0000 18.7357
#
#
#
# Elastic Compliance Matrix: (Units=1/GPa)
#
#
# Indices 1 2 3 4 5 6 
#
# 1 0.025288 -0.008117 -0.011739 0.000000 0.000000 0.000000
# 2 -0.008117 0.062308 0.002481 0.000000 0.000000 0.000000
# 3 -0.011739 0.002481 0.009784 0.000000 0.000000 0.000000
# 4 0.000000 0.000000 0.000000 0.035196 0.000000 0.000000
# 5 0.000000 0.000000 0.000000 0.000000 0.032027 0.000000
# 6 0.000000 0.000000 0.000000 0.000000 0.000000 0.053374
#
#
# Mechanical properties :
#
#
# Convention : Reuss Voigt Hill
#
# Bulk Modulus (GPa) = 15.96662 65.12886 40.54774
# Shear Modulus (GPa) = 18.27473 30.32361 24.29917
#
# Velocity S-wave (km/s) = 3.08574 3.97488 3.55819
# Velocity P-wave (km/s) = 4.58420 7.41624 6.16504
#
# Compressibility (1/GPa) = 0.06263066
#
# Stress axis : x y z
#
# Youngs Moduli (GPa) = 39.54503 16.04929 102.20860
#
# Poissons Ratio (x) = 0.13026 1.19985
# Poissons Ratio (y) = 0.32097 -0.25361
# Poissons Ratio (z) = 0.46423 -0.03982
#
# Static dielectric constant tensor:
#      x y z
#    x 1.658250 0.000000 0.000000 
#    y 0.000000 1.704820 0.000000 
#    z 0.000000 0.000000 1.691230 
# 
# From -- ./inp_files/32917.got.cif
#   From: 2010.05.17/outbox.cif.g08.bks.cpg/sg59_17_cif.got.tgz:32917.got - 2010.06.03 14:40:33.
