data_PCOD9451323
_publ_section_title
;
Structure prediction by ZEFSAII (Michael W. Deem and Ramdas Pophale) SiO2 
 PCOD9451323
Probable space group: P M M N
;
_chemical_formula_sum "Si O2"
_cell_formula_units_Z 64
_cell_length_a 17.124231
_cell_length_b 20.969850
_cell_length_c 8.027153
_cell_angle_alpha 90.000000
_cell_angle_beta 90.000000
_cell_angle_gamma 90.000000
_cell_volume 2882.490884
_symmetry_space_group_name_H-M "P M M N"
_symmetry_group_IT_number 59
_space_group.IT_coordinate_system_code '2'
_symmetry_cell_setting 'orthorhombic'
loop_
_space_group_symop_operation_xyz
x,y,z
1/2-x,1/2-y,z
1/2+x,-y,-z
-x,1/2+y,-z
-x,-y,-z
1/2+x,1/2+y,-z
1/2-x,y,z
x,1/2-y,z
loop_
_atom_site_type_symbol
_atom_site_label
_atom_site_fract_x
_atom_site_fract_y
_atom_site_fract_z
Si Si1 0.164309 0.655115 0.918616
Si Si2 0.107999 0.958876 0.362758
Si Si3 0.340767 0.679671 0.318685
Si Si4 0.337810 0.176295 0.245163
Si Si5 0.499308 0.179006 0.047198
Si Si6 0.458682 0.070333 0.811424
Si Si7 0.165687 0.510219 0.002635
Si Si8 0.838920 0.579367 0.449390
O O1 0.250000 0.676817 0.855415
O O2 0.165147 0.578696 0.914466
O O3 0.160690 0.674571 0.115564
O O4 0.080268 0.676393 0.847727
O O5 0.119229 0.883471 0.393431
O O6 0.019469 0.968541 0.301026
O O7 0.134805 0.007581 0.503364
O O8 0.158302 0.976467 0.198927
O O9 0.250000 0.676857 0.369782
O O10 0.372375 0.750000 0.362467
O O11 0.250000 0.168285 0.168072
O O12 0.340221 0.250000 0.305445
O O13 0.343586 0.124611 0.390612
O O14 0.415788 0.168288 0.135529
O O15 0.495859 0.250000 0.973426
O O16 0.505812 0.122644 0.914241
O O17 0.396960 0.103737 0.690956
O O18 0.407794 0.028247 0.936361
O O19 0.250000 0.479164 0.971863
O O20 0.750000 0.578255 0.393122
#
# Coordination Sequence:
#
# PCOD9451323 Si02
#       8
#     8   8   8   8   8   8   8   8
#     4   9  18  32  55  88 121 153 190 235 295 362
#     4  11  21  36  57  85 116 158 196 242 293 363
#     4   9  16  29  53  83 113 145 188 240 287 343
#     4   9  21  42  65  87 115 160 211 252 298 362
#     4  11  22  37  62  94 124 155 196 251 309 362
#     4  12  24  36  56  89 124 152 193 251 308 358
#     4  10  20  36  59  86 116 152 193 241 299 355
#     4  11  24  41  60  81 115 160 205 252 301 358
#
# _framework density 22.203019000000001
#
# number of rings (size 3 to 8) (size 9 to 14) (size 15 to 20)
#    0.000    1.750    2.500    4.125    1.750    3.250 
#    0.000    0.000    0.000    0.000    0.000    1.750 
#    0.000    7.000    0.000    0.000    0.000    0.000 
#
# Total GULP energy -357254.483028 kJ/mol
# GULP energy per Si atom -5582.101297 kJ/mol
# Density = 2.215248 g / cm^3
# Si number density = 22.203019 Si / 1000 Ang^3
#
#
#
# Elastic Constant Matrix: (Units=GPa)
#
#
# Indices 1 2 3 4 5 6 
#
# 1 177.9435 24.0777 16.6277 0.0000 0.0000 0.0000
# 2 24.0777 92.0927 4.6575 0.0000 0.0000 0.0000
# 3 16.6277 4.6575 6.8851 0.0000 0.0000 0.0000
# 4 0.0000 0.0000 0.0000 -3.7590 0.0000 0.0000
# 5 0.0000 0.0000 0.0000 0.0000 10.3758 0.0000
# 6 0.0000 0.0000 0.0000 0.0000 0.0000 29.2653
#
#
#
# Elastic Compliance Matrix: (Units=1/GPa)
#
#
# Indices 1 2 3 4 5 6 
#
# 1 0.007356 -0.001061 -0.017048 0.000000 0.000000 0.000000
# 2 -0.001061 0.011396 -0.005147 0.000000 0.000000 0.000000
# 3 -0.017048 -0.005147 0.189894 0.000000 0.000000 0.000000
# 4 0.000000 0.000000 0.000000 -0.266030 0.000000 0.000000
# 5 0.000000 0.000000 0.000000 0.000000 0.096378 0.000000
# 6 0.000000 0.000000 0.000000 0.000000 0.000000 0.034170
#
#
# Mechanical properties :
#
#
# Convention : Reuss Voigt Hill
#
# Bulk Modulus (GPa) = 6.16768 40.84966 23.50867
# Shear Modulus (GPa) = 28.78170 22.61366 25.69768
#
# Velocity S-wave (km/s) = 3.60432 3.19485 3.40574
# Velocity P-wave (km/s) = 4.48390 5.66106 5.10651
#
# Compressibility (1/GPa) = 0.16213547
#
# Stress axis : x y z
#
# Youngs Moduli (GPa) = 135.93662 87.74746 5.26609
#
# Poissons Ratio (x) = 0.09311 0.08978
# Poissons Ratio (y) = 0.14425 0.02710
# Poissons Ratio (z) = 2.31745 0.45159
#
# Static dielectric constant tensor:
#      x y z
#    x 1.956330 0.000000 0.000000 
#    y 0.000000 1.817930 0.000000 
#    z 0.000000 0.000000 1.816070 
# 
# From -- ./inp_files/9607.got.cif
#   From: 2010.05.17/outbox.cif.g08.bks.cpg/sg59_5_cif.got.tgz:9607.got - 2010.06.03 14:40:33.
