data_PCOD9451956
_publ_section_title
;
Structure prediction by ZEFSAII (Michael W. Deem and Ramdas Pophale) SiO2 
 PCOD9451956
Probable space group: P M M N
;
_chemical_formula_sum "Si O2"
_cell_formula_units_Z 64
_cell_length_a 14.678013
_cell_length_b 9.096988
_cell_length_c 26.760082
_cell_angle_alpha 90.000000
_cell_angle_beta 90.000000
_cell_angle_gamma 90.000000
_cell_volume 3573.158899
_symmetry_space_group_name_H-M "P M M N"
_symmetry_group_IT_number 59
_space_group.IT_coordinate_system_code '2'
_symmetry_cell_setting 'orthorhombic'
loop_
_space_group_symop_operation_xyz
x,y,z
1/2-x,1/2-y,z
1/2+x,-y,-z
-x,1/2+y,-z
-x,-y,-z
1/2+x,1/2+y,-z
1/2-x,y,z
x,1/2-y,z
loop_
_atom_site_type_symbol
_atom_site_label
_atom_site_fract_x
_atom_site_fract_y
_atom_site_fract_z
Si Si1 0.143025 0.423546 0.769512
Si Si2 0.996257 0.925495 0.579090
Si Si3 0.356906 0.924264 0.135957
Si Si4 0.640791 0.078939 0.127328
Si Si5 0.643496 0.073862 0.505047
Si Si6 0.493997 0.074471 0.946249
Si Si7 0.995083 0.425477 0.686519
Si Si8 0.859131 0.578267 0.760164
O O1 0.250000 0.449281 0.759687
O O2 0.131083 0.250000 0.780918
O O3 0.115861 0.515194 0.818288
O O4 0.081956 0.458575 0.721746
O O5 0.987538 0.750000 0.583549
O O6 0.085657 0.957447 0.545216
O O7 0.910032 0.990740 0.549002
O O8 0.003011 0.999135 0.632966
O O9 0.250000 0.951121 0.125971
O O10 0.368324 0.750000 0.146324
O O11 0.418745 0.961463 0.088575
O O12 0.383574 0.012837 0.185543
O O13 0.750000 0.066642 0.122837
O O14 0.615515 0.250000 0.123544
O O15 0.591411 0.986778 0.084684
O O16 0.750000 0.033994 0.501428
O O17 0.637933 0.250000 0.513638
O O18 0.489102 0.250000 0.951461
O O19 0.500000 0.000000 0.000000
O O20 0.987834 0.250000 0.680968
O O21 0.909711 0.488750 0.717182
O O22 0.750000 0.564503 0.755156
O O23 0.883383 0.750000 0.757359
#
# Coordination Sequence:
#
# PCOD9451956 Si02
#       8
#     8   8   8   8   8   8   8   8
#     4   9  19  36  56  79 108 142 180 219 262 317
#     4  10  21  36  55  82 112 141 178 223 268 314
#     4   9  19  37  58  78 104 139 176 215 264 323
#     4  10  21  37  57  80 107 141 180 222 269 321
#     4   9  19  38  61  81 105 141 182 222 267 319
#     4  11  23  37  55  80 108 140 178 221 271 324
#     4  11  22  35  54  80 112 148 180 216 264 315
#     4  10  21  36  55  80 108 139 177 220 265 314
#
# _framework density 17.911321999999998
#
# number of rings (size 3 to 8) (size 9 to 14) (size 15 to 20)
#    0.000    2.125    0.000    2.625    0.000    8.750 
#    0.000    1.250    0.000    0.000    0.000    0.000 
#    0.000    0.000    0.000    0.000    0.000    0.000 
#
# Total GULP energy -357443.491216 kJ/mol
# GULP energy per Si atom -5585.054550 kJ/mol
# Density = 1.787055 g / cm^3
# Si number density = 17.911322 Si / 1000 Ang^3
#
#
#
# Elastic Constant Matrix: (Units=GPa)
#
#
# Indices 1 2 3 4 5 6 
#
# 1 91.1518 57.4570 68.2405 0.0000 0.0000 0.0000
# 2 57.4570 77.7889 88.8857 0.0000 0.0000 0.0000
# 3 68.2405 88.8857 175.3841 0.0000 0.0000 0.0000
# 4 0.0000 0.0000 0.0000 38.4544 0.0000 0.0000
# 5 0.0000 0.0000 0.0000 0.0000 78.7925 0.0000
# 6 0.0000 0.0000 0.0000 0.0000 0.0000 25.2638
#
#
#
# Elastic Compliance Matrix: (Units=1/GPa)
#
#
# Indices 1 2 3 4 5 6 
#
# 1 0.020567 -0.014368 -0.000721 0.000000 0.000000 0.000000
# 2 -0.014368 0.040580 -0.014976 0.000000 0.000000 0.000000
# 3 -0.000721 -0.014976 0.013572 0.000000 0.000000 0.000000
# 4 0.000000 0.000000 0.000000 0.026005 0.000000 0.000000
# 5 0.000000 0.000000 0.000000 0.000000 0.012692 0.000000
# 6 0.000000 0.000000 0.000000 0.000000 0.000000 0.039582
#
#
# Mechanical properties :
#
#
# Convention : Reuss Voigt Hill
#
# Bulk Modulus (GPa) = 68.53877 85.94347 77.24112
# Shear Modulus (GPa) = 22.93695 37.15159 30.04427
#
# Velocity S-wave (km/s) = 3.58241 4.55928 4.10004
# Velocity P-wave (km/s) = 7.44716 8.70649 8.10133
#
# Compressibility (1/GPa) = 0.01459028
#
# Stress axis : x y z
#
# Youngs Moduli (GPa) = 48.62183 24.64290 73.68120
#
# Poissons Ratio (x) = 0.35406 0.05311
# Poissons Ratio (y) = 0.69858 1.10343
# Poissons Ratio (z) = 0.03505 0.36904
#
# Static dielectric constant tensor:
#      x y z
#    x 1.616220 0.000000 0.000000 
#    y 0.000000 1.578070 0.000000 
#    z 0.000000 0.000000 1.568810 
# 
# From -- ./inp_files/31484.got.cif
#   From: 2010.05.17/outbox.cif.g08.bks.cpg/sg59_16_cif.got.tgz:31484.got - 2010.06.03 14:40:33.
