data_PCOD9451490
_publ_section_title
;
Structure prediction by ZEFSAII (Michael W. Deem and Ramdas Pophale) SiO2 
 PCOD9451490
Probable space group: P M M N
;
_chemical_formula_sum "Si O2"
_cell_formula_units_Z 64
_cell_length_a 28.724277
_cell_length_b 9.058443
_cell_length_c 12.556196
_cell_angle_alpha 90.000000
_cell_angle_beta 90.000000
_cell_angle_gamma 90.000000
_cell_volume 3267.087367
_symmetry_space_group_name_H-M "P M M N"
_symmetry_group_IT_number 59
_space_group.IT_coordinate_system_code '2'
_symmetry_cell_setting 'orthorhombic'
loop_
_space_group_symop_operation_xyz
x,y,z
1/2-x,1/2-y,z
1/2+x,-y,-z
-x,1/2+y,-z
-x,-y,-z
1/2+x,1/2+y,-z
1/2-x,y,z
x,1/2-y,z
loop_
_atom_site_type_symbol
_atom_site_label
_atom_site_fract_x
_atom_site_fract_y
_atom_site_fract_z
Si Si1 0.630990 0.426595 0.870864
Si Si2 0.804695 0.572797 0.047307
Si Si3 0.806037 0.583277 0.290905
Si Si4 0.436729 0.581082 0.476213
Si Si5 0.827214 0.417392 0.501219
Si Si6 0.004147 0.924518 0.679154
Si Si7 0.978431 0.072689 0.894398
Si Si8 0.801575 0.925081 0.707026
O O1 0.633598 0.250000 0.866004
O O2 0.576502 0.466751 0.881244
O O3 0.657160 0.493615 0.768721
O O4 0.661006 0.488809 0.969000
O O5 0.750000 0.533068 0.032712
O O6 0.807869 0.750000 0.030031
O O7 0.818437 0.543490 0.169903
O O8 0.750000 0.588176 0.292838
O O9 0.823110 0.750000 0.313708
O O10 0.821511 0.471705 0.381100
O O11 0.453008 0.750000 0.454405
O O12 0.381730 0.579251 0.472533
O O13 0.454428 0.543165 0.595142
O O14 0.459356 0.474679 0.389542
O O15 0.810048 0.250000 0.514396
O O16 0.803014 0.525690 0.584472
O O17 0.003498 0.750000 0.700755
O O18 0.004276 0.012581 0.789100
O O19 0.981905 0.250000 0.900463
O O20 0.000000 0.000000 0.000000
O O21 0.750000 0.963728 0.750902
O O22 0.807261 0.750000 0.716981
#
# Coordination Sequence:
#
# PCOD9451490 Si02
#       8
#     8   8   8   8   8   8   8   8
#     4  11  24  40  60  87 117 148 188 241 295 346
#     4   9  19  37  60  85 114 150 193 238 284 342
#     4   9  19  36  55  76 107 145 182 223 270 321
#     4   9  20  37  56  82 115 147 181 228 281 331
#     4  11  22  35  54  82 116 150 185 229 280 331
#     4  10  20  37  61  85 110 143 185 230 278 335
#     4  11  25  43  61  84 116 152 191 239 294 350
#     4  11  24  40  59  85 119 158 197 237 282 338
#
# _framework density 19.589314000000002
#
# number of rings (size 3 to 8) (size 9 to 14) (size 15 to 20)
#    0.000    1.875    0.000    4.125    0.000   12.500 
#    0.000    5.000    0.000    0.000    0.000    0.000 
#    0.000    0.000    0.000    0.000    0.000    0.000 
#
# Total GULP energy -357531.581732 kJ/mol
# GULP energy per Si atom -5586.430965 kJ/mol
# Density = 1.954473 g / cm^3
# Si number density = 19.589314 Si / 1000 Ang^3
#
#
#
# Elastic Constant Matrix: (Units=GPa)
#
#
# Indices 1 2 3 4 5 6 
#
# 1 65.3474 29.5995 30.6713 0.0000 0.0000 0.0000
# 2 29.5995 50.4853 44.5297 0.0000 0.0000 0.0000
# 3 30.6713 44.5297 104.0927 0.0000 0.0000 0.0000
# 4 0.0000 0.0000 0.0000 73.4355 0.0000 0.0000
# 5 0.0000 0.0000 0.0000 0.0000 -48.1544 0.0000
# 6 0.0000 0.0000 0.0000 0.0000 0.0000 24.3353
#
#
#
# Elastic Compliance Matrix: (Units=1/GPa)
#
#
# Indices 1 2 3 4 5 6 
#
# 1 0.020977 -0.010996 -0.001477 0.000000 0.000000 0.000000
# 2 -0.010996 0.037575 -0.012834 0.000000 0.000000 0.000000
# 3 -0.001477 -0.012834 0.015532 0.000000 0.000000 0.000000
# 4 0.000000 0.000000 0.000000 0.013617 0.000000 0.000000
# 5 0.000000 0.000000 0.000000 0.000000 -0.020767 0.000000
# 6 0.000000 0.000000 0.000000 0.000000 0.000000 0.041093
#
#
# Mechanical properties :
#
#
# Convention : Reuss Voigt Hill
#
# Bulk Modulus (GPa) = 42.60781 47.72515 45.16648
# Shear Modulus (GPa) = 30.03650 17.59828 23.81739
#
# Velocity S-wave (km/s) = 3.92000 3.00052 3.49067
# Velocity P-wave (km/s) = 6.50279 6.03489 6.27320
#
# Compressibility (1/GPa) = 0.02346988
#
# Stress axis : x y z
#
# Youngs Moduli (GPa) = 47.67199 26.61364 64.38213
#
# Poissons Ratio (x) = 0.29264 0.09509
# Poissons Ratio (y) = 0.52420 0.82628
# Poissons Ratio (z) = 0.07041 0.34156
#
# Static dielectric constant tensor:
#      x y z
#    x 1.681650 0.000000 0.000000 
#    y 0.000000 1.676880 0.000000 
#    z 0.000000 0.000000 1.695200 
# 
# From -- ./inp_files/19336.got.cif
#   From: 2010.05.17/outbox.cif.g08.bks.cpg/sg59_10_cif.got.tgz:19336.got - 2010.06.03 14:40:33.
