data_PCOD9451400
_publ_section_title
;
Structure prediction by ZEFSAII (Michael W. Deem and Ramdas Pophale) SiO2 
 PCOD9451400
Probable space group: P M M N
;
_chemical_formula_sum "Si O2"
_cell_formula_units_Z 56
_cell_length_a 23.752308
_cell_length_b 18.363403
_cell_length_c 6.754420
_cell_angle_alpha 90.000000
_cell_angle_beta 90.000000
_cell_angle_gamma 90.000000
_cell_volume 2946.097012
_symmetry_space_group_name_H-M "P M M N"
_symmetry_group_IT_number 59
_space_group.IT_coordinate_system_code '2'
_symmetry_cell_setting 'orthorhombic'
loop_
_space_group_symop_operation_xyz
x,y,z
1/2-x,1/2-y,z
1/2+x,-y,-z
-x,1/2+y,-z
-x,-y,-z
1/2+x,1/2+y,-z
1/2-x,y,z
x,1/2-y,z
loop_
_atom_site_type_symbol
_atom_site_label
_atom_site_fract_x
_atom_site_fract_y
_atom_site_fract_z
Si Si1 0.813449 0.332892 0.417368
Si Si2 0.392697 0.071369 0.518448
Si Si3 0.609400 0.081334 0.689163
Si Si4 0.414194 0.335450 0.130175
Si Si5 0.012824 0.067497 0.851680
Si Si6 0.311904 0.559086 0.951058
Si Si7 0.814688 0.612184 0.149743
O O1 0.750000 0.339797 0.503999
O O2 0.819419 0.250000 0.347055
O O3 0.862067 0.353740 0.569369
O O4 0.816491 0.389911 0.239028
O O5 0.413923 0.120263 0.335945
O O6 0.439163 0.053797 0.686819
O O7 0.343237 0.114247 0.633499
O O8 0.376024 0.993931 0.424614
O O9 0.543345 0.085749 0.730270
O O10 0.639009 0.076883 0.900030
O O11 0.421081 0.250000 0.162664
O O12 0.462874 0.368544 0.990029
O O13 0.355830 0.350519 0.010046
O O14 0.000000 0.000000 0.000000
O O15 0.250000 0.571774 0.041902
O O16 0.314975 0.474218 0.896983
O O17 0.750000 0.637711 0.144964
#
# Coordination Sequence:
#
# PCOD9451400 Si02
#       7
#     8   8   8   8   8   8   8
#     4  10  23  40  58  89 131 164 198 258 321 369
#     4  11  22  39  65  96 123 164 210 262 313 376
#     4  12  21  36  66  93 118 159 218 255 305 372
#     4  11  25  44  63  91 131 167 204 262 323 368
#     4  11  24  41  67  92 123 164 212 265 315 373
#     4  10  20  36  61  92 124 162 204 251 308 375
#     4  10  21  39  65  95 125 163 212 257 306 380
#
# _framework density 19.008199999999999
#
# number of rings (size 3 to 8) (size 9 to 14) (size 15 to 20)
#    0.000    1.286    4.286    1.714    0.000    4.857 
#    0.000    2.857    0.000    0.000    0.000    0.000 
#    0.000    0.000    0.000    0.000    0.000    0.000 
#
# Total GULP energy -312646.459738 kJ/mol
# GULP energy per Si atom -5582.972495 kJ/mol
# Density = 1.896494 g / cm^3
# Si number density = 19.008200 Si / 1000 Ang^3
#
#
#
# Elastic Constant Matrix: (Units=GPa)
#
#
# Indices 1 2 3 4 5 6 
#
# 1 84.2640 4.0862 17.6274 0.0000 0.0000 0.0000
# 2 4.0862 83.9220 14.1396 0.0000 0.0000 0.0000
# 3 17.6274 14.1396 66.3563 0.0000 0.0000 0.0000
# 4 0.0000 0.0000 0.0000 17.7205 0.0000 0.0000
# 5 0.0000 0.0000 0.0000 0.0000 33.4072 0.0000
# 6 0.0000 0.0000 0.0000 0.0000 0.0000 17.9646
#
#
#
# Elastic Compliance Matrix: (Units=1/GPa)
#
#
# Indices 1 2 3 4 5 6 
#
# 1 0.012566 -0.000051 -0.003327 0.000000 0.000000 0.000000
# 2 -0.000051 0.012360 -0.002620 0.000000 0.000000 0.000000
# 3 -0.003327 -0.002620 0.016512 0.000000 0.000000 0.000000
# 4 0.000000 0.000000 0.000000 0.056432 0.000000 0.000000
# 5 0.000000 0.000000 0.000000 0.000000 0.029934 0.000000
# 6 0.000000 0.000000 0.000000 0.000000 0.000000 0.055665
#
#
# Mechanical properties :
#
#
# Convention : Reuss Voigt Hill
#
# Bulk Modulus (GPa) = 33.96625 34.02764 33.99695
# Shear Modulus (GPa) = 24.35709 27.06441 25.71075
#
# Velocity S-wave (km/s) = 3.58355 3.77746 3.68178
# Velocity P-wave (km/s) = 5.91865 6.07997 5.99985
#
# Compressibility (1/GPa) = 0.02944099
#
# Stress axis : x y z
#
# Youngs Moduli (GPa) = 79.58001 80.90771 60.56083
#
# Poissons Ratio (x) = 0.00415 0.20150
# Poissons Ratio (y) = 0.00408 0.15867
# Poissons Ratio (z) = 0.26478 0.21198
#
# Static dielectric constant tensor:
#      x y z
#    x 1.180760 0.000000 0.000000 
#    y 0.000000 1.632760 0.000000 
#    z 0.000000 0.000000 1.649510 
# 
# From -- ./inp_files/3442.got.cif
#   From: 2010.05.17/outbox.cif.g08.bks.cpg/sg59_2_cif.got.tgz:3442.got - 2010.06.03 14:40:33.
