data_PCOD9451235
_publ_section_title
;
Structure prediction by ZEFSAII (Michael W. Deem and Ramdas Pophale) SiO2 
 PCOD9451235
Probable space group: P M M N
;
_chemical_formula_sum "Si O2"
_cell_formula_units_Z 48
_cell_length_a 16.497140
_cell_length_b 10.229634
_cell_length_c 14.610315
_cell_angle_alpha 90.000000
_cell_angle_beta 90.000000
_cell_angle_gamma 90.000000
_cell_volume 2465.632438
_symmetry_space_group_name_H-M "P M M N"
_symmetry_group_IT_number 59
_space_group.IT_coordinate_system_code '2'
_symmetry_cell_setting 'orthorhombic'
loop_
_space_group_symop_operation_xyz
x,y,z
1/2-x,1/2-y,z
1/2+x,-y,-z
-x,1/2+y,-z
-x,-y,-z
1/2+x,1/2+y,-z
1/2-x,y,z
x,1/2-y,z
loop_
_atom_site_type_symbol
_atom_site_label
_atom_site_fract_x
_atom_site_fract_y
_atom_site_fract_z
Si Si1 0.657196 0.250000 0.895799
Si Si2 0.128200 0.750000 0.887984
Si Si3 0.662543 0.750000 0.089703
Si Si4 0.935234 0.750000 0.914135
Si Si5 0.414072 0.094369 0.593161
Si Si6 0.119712 0.011796 0.784432
Si Si7 0.077335 0.501244 0.198036
Si Si8 0.571319 0.905874 0.608773
O O1 0.750000 0.250000 0.865844
O O2 0.612626 0.373950 0.852159
O O3 0.657153 0.250000 0.006892
O O4 0.148883 0.876370 0.827710
O O5 0.031146 0.750000 0.900306
O O6 0.750000 0.750000 0.041622
O O7 0.654581 0.625088 0.153276
O O8 0.589852 0.750000 0.018535
O O9 0.903159 0.878498 0.865427
O O10 0.434368 0.250000 0.608550
O O11 0.382796 0.086261 0.488601
O O12 0.361534 0.043907 0.678560
O O13 0.491168 0.995945 0.596284
O O14 0.020814 0.014216 0.793218
O O15 0.109578 0.466418 0.299608
O O16 0.552617 0.750000 0.624455
#
# Coordination Sequence:
#
# PCOD9451235 Si02
#       8
#     4   4   4   4   8   8   8   8
#     4  12  26  40  55  78 110 150 195 234 281 334
#     4  10  22  38  59  80 112 144 183 236 283 336
#     4  12  24  36  53  78 110 146 191 234 271 328
#     4  10  20  36  57  84 106 140 185 232 281 336
#     4   9  17  29  52  86 124 145 171 222 277 331
#     4  10  20  36  57  86 112 145 181 224 283 332
#     4  10  20  36  59  83 112 146 180 231 280 330
#     4   9  17  30  52  88 121 143 176 221 277 330
#
# _framework density 19.467623
#
# number of rings (size 3 to 8) (size 9 to 14) (size 15 to 20)
#    0.000    2.000    1.667    2.500    7.000    5.333 
#    0.000    0.000    0.000    1.000    0.000    1.167 
#    0.000    0.000    0.000    0.000    0.000    0.000 
#
# Total GULP energy -267492.665213 kJ/mol
# GULP energy per Si atom -5572.763859 kJ/mol
# Density = 1.942331 g / cm^3
# Si number density = 19.467623 Si / 1000 Ang^3
#
#
#
# Elastic Constant Matrix: (Units=GPa)
#
#
# Indices 1 2 3 4 5 6 
#
# 1 25.7330 26.6790 19.4177 0.0000 0.0000 0.0000
# 2 26.6790 170.3483 67.9576 0.0000 0.0000 0.0000
# 3 19.4177 67.9576 147.2213 0.0000 0.0000 0.0000
# 4 0.0000 0.0000 0.0000 34.4465 0.0000 0.0000
# 5 0.0000 0.0000 0.0000 0.0000 -5.4064 0.0000
# 6 0.0000 0.0000 0.0000 0.0000 0.0000 82.1069
#
#
#
# Elastic Compliance Matrix: (Units=1/GPa)
#
#
# Indices 1 2 3 4 5 6 
#
# 1 0.047816 -0.006095 -0.003493 0.000000 0.000000 0.000000
# 2 -0.006095 0.007972 -0.002876 0.000000 0.000000 0.000000
# 3 -0.003493 -0.002876 0.008581 0.000000 0.000000 0.000000
# 4 0.000000 0.000000 0.000000 0.029031 0.000000 0.000000
# 5 0.000000 0.000000 0.000000 0.000000 -0.184967 0.000000
# 6 0.000000 0.000000 0.000000 0.000000 0.000000 0.012179
#
#
# Mechanical properties :
#
#
# Convention : Reuss Voigt Hill
#
# Bulk Modulus (GPa) = 25.35493 63.49011 44.42252
# Shear Modulus (GPa) = -121.02540 37.51262 -41.75639
#
# Velocity S-wave (km/s) = -7.89319 4.39444 -4.63635
# Velocity P-wave (km/s) = 8.36765 7.64409 2.40681
#
# Compressibility (1/GPa) = 0.03944007
#
# Stress axis : x y z
#
# Youngs Moduli (GPa) = 20.91370 125.43458 116.53884
#
# Poissons Ratio (x) = 0.76454 0.40708
# Poissons Ratio (y) = 0.12747 0.33518
# Poissons Ratio (z) = 0.07305 0.36076
#
# Static dielectric constant tensor:
#      x y z
#    x 1.598940 0.000000 0.000000 
#    y 0.000000 1.713070 0.000000 
#    z 0.000000 0.000000 1.711540 
# 
# From -- ./inp_files/23795.got.cif
#   From: 2010.05.17/outbox.cif.g08.bks.cpg/sg59_12_cif.got.tgz:23795.got - 2010.06.03 14:40:33.
