data_PCOD9451127
_publ_section_title
;
Structure prediction by ZEFSAII (Michael W. Deem and Ramdas Pophale) SiO2 
 PCOD9451127
Probable space group: P M M N
;
_chemical_formula_sum "Si O2"
_cell_formula_units_Z 48
_cell_length_a 8.429899
_cell_length_b 28.213538
_cell_length_c 9.823735
_cell_angle_alpha 90.000000
_cell_angle_beta 90.000000
_cell_angle_gamma 90.000000
_cell_volume 2336.450370
_symmetry_space_group_name_H-M "P M M N"
_symmetry_group_IT_number 59
_space_group.IT_coordinate_system_code '2'
_symmetry_cell_setting 'orthorhombic'
loop_
_space_group_symop_operation_xyz
x,y,z
1/2-x,1/2-y,z
1/2+x,-y,-z
-x,1/2+y,-z
-x,-y,-z
1/2+x,1/2+y,-z
1/2-x,y,z
x,1/2-y,z
loop_
_atom_site_type_symbol
_atom_site_label
_atom_site_fract_x
_atom_site_fract_y
_atom_site_fract_z
Si Si1 0.437713 0.604692 0.934004
Si Si2 0.060302 0.802980 0.100835
Si Si3 0.433213 0.598576 0.430925
Si Si4 0.064980 0.046507 0.819448
Si Si5 0.064810 0.449991 0.310087
Si Si6 0.562084 0.802993 0.407824
O O1 0.250000 0.605319 0.903667
O O2 0.533014 0.591062 0.799882
O O3 0.485449 0.654749 0.000661
O O4 0.472874 0.565160 0.048799
O O5 0.250000 0.807884 0.126381
O O6 0.031959 0.750000 0.045762
O O7 0.975056 0.806176 0.246309
O O8 0.250000 0.595078 0.390572
O O9 0.538371 0.584321 0.301378
O O10 0.471486 0.563114 0.553393
O O11 0.474287 0.652279 0.472905
O O12 0.250000 0.041730 0.852280
O O13 0.997954 0.997736 0.759735
O O14 0.250000 0.454512 0.341696
O O15 0.750000 0.807187 0.429814
O O16 0.510771 0.750000 0.451291
#
# Coordination Sequence:
#
# PCOD9451127 Si02
#       6
#     8   8   8   8   8   8
#     4  11  22  39  62  91 124 160 202 248 298 357
#     4   9  18  34  59  89 120 155 197 244 292 348
#     4  12  24  41  63  90 122 159 202 249 301 360
#     4  12  24  41  64  90 120 157 203 251 300 358
#     4  12  26  43  61  85 121 162 203 251 305 361
#     4  10  20  35  59  91 123 155 197 247 297 350
#
# _framework density 20.543983000000001
#
# number of rings (size 3 to 8) (size 9 to 14) (size 15 to 20)
#    0.000    1.000    1.667    6.500    0.000    1.667 
#    0.000    0.833    0.000    3.000    0.000    0.000 
#    0.000    0.000    0.000    0.000    0.000    0.000 
#
# Total GULP energy -268542.166595 kJ/mol
# GULP energy per Si atom -5594.628471 kJ/mol
# Density = 2.049722 g / cm^3
# Si number density = 20.543983 Si / 1000 Ang^3
#
#
#
# Elastic Constant Matrix: (Units=GPa)
#
#
# Indices 1 2 3 4 5 6 
#
# 1 53.1966 14.7695 -17.5039 0.0000 0.0000 0.0000
# 2 14.7695 87.4481 -12.0545 0.0000 0.0000 0.0000
# 3 -17.5039 -12.0545 29.1321 0.0000 0.0000 0.0000
# 4 0.0000 0.0000 0.0000 12.1607 0.0000 0.0000
# 5 0.0000 0.0000 0.0000 0.0000 28.9031 0.0000
# 6 0.0000 0.0000 0.0000 0.0000 0.0000 29.3089
#
#
#
# Elastic Compliance Matrix: (Units=1/GPa)
#
#
# Indices 1 2 3 4 5 6 
#
# 1 0.023814 -0.002174 0.013409 0.000000 0.000000 0.000000
# 2 -0.002174 0.012325 0.003794 0.000000 0.000000 0.000000
# 3 0.013409 0.003794 0.043953 0.000000 0.000000 0.000000
# 4 0.000000 0.000000 0.000000 0.082232 0.000000 0.000000
# 5 0.000000 0.000000 0.000000 0.000000 0.034598 0.000000
# 6 0.000000 0.000000 0.000000 0.000000 0.000000 0.034119
#
#
# Mechanical properties :
#
#
# Convention : Reuss Voigt Hill
#
# Bulk Modulus (GPa) = 9.07840 15.57767 12.32803
# Shear Modulus (GPa) = 21.03487 26.37893 23.70690
#
# Velocity S-wave (km/s) = 3.20331 3.58721 3.40068
# Velocity P-wave (km/s) = 4.25560 4.97559 4.62962
#
# Compressibility (1/GPa) = 0.11015159
#
# Stress axis : x y z
#
# Youngs Moduli (GPa) = 41.99244 81.13282 22.75147
#
# Poissons Ratio (x) = 0.17635 -0.30508
# Poissons Ratio (y) = 0.09128 -0.08632
# Poissons Ratio (z) = -0.56308 -0.30783
#
# Static dielectric constant tensor:
#      x y z
#    x 1.690110 0.000000 0.000000 
#    y 0.000000 1.784020 0.000000 
#    z 0.000000 0.000000 1.692210 
# 
# From -- ./inp_files/6249.got.cif
#   From: 2010.05.17/outbox.cif.g08.bks.cpg/sg59_4_cif.got.tgz:6249.got - 2010.06.03 14:40:33.
