data_PCOD9451882
_publ_section_title
;
Structure prediction by ZEFSAII (Michael W. Deem and Ramdas Pophale) SiO2 
 PCOD9451882
Probable space group: P M M N
;
_chemical_formula_sum "Si O2"
_cell_formula_units_Z 64
_cell_length_a 8.885147
_cell_length_b 23.424565
_cell_length_c 18.775933
_cell_angle_alpha 90.000000
_cell_angle_beta 90.000000
_cell_angle_gamma 90.000000
_cell_volume 3907.848143
_symmetry_space_group_name_H-M "P M M N"
_symmetry_group_IT_number 59
_space_group.IT_coordinate_system_code '2'
_symmetry_cell_setting 'orthorhombic'
loop_
_space_group_symop_operation_xyz
x,y,z
1/2-x,1/2-y,z
1/2+x,-y,-z
-x,1/2+y,-z
-x,-y,-z
1/2+x,1/2+y,-z
1/2-x,y,z
x,1/2-y,z
loop_
_atom_site_type_symbol
_atom_site_label
_atom_site_fract_x
_atom_site_fract_y
_atom_site_fract_z
Si Si1 0.568563 0.681923 0.759861
Si Si2 0.073527 0.180594 0.928948
Si Si3 0.930879 0.370534 0.633276
Si Si4 0.567143 0.816889 0.917158
Si Si5 0.570917 0.111655 0.369249
Si Si6 0.927297 0.817032 0.503680
Si Si7 0.569259 0.316327 0.781541
Si Si8 0.070146 0.997567 0.420986
O O1 0.750000 0.676278 0.753534
O O2 0.536178 0.750000 0.753577
O O3 0.522365 0.661067 0.839323
O O4 0.489391 0.646354 0.698532
O O5 0.250000 0.166877 0.923128
O O6 0.061632 0.250000 0.931280
O O7 0.991545 0.162011 0.857227
O O8 0.015645 0.159375 0.006282
O O9 0.750000 0.361817 0.627161
O O10 0.977335 0.352347 0.712640
O O11 0.962312 0.436265 0.614163
O O12 0.013216 0.332307 0.574505
O O13 0.750000 0.818876 0.919015
O O14 0.525602 0.750000 0.916070
O O15 0.750000 0.107449 0.368140
O O16 0.517854 0.145881 0.439359
O O17 0.498048 0.049241 0.375727
O O18 0.750000 0.830433 0.509544
O O19 0.947487 0.750000 0.518239
O O20 0.750000 0.316665 0.784477
O O21 0.520966 0.250000 0.772342
O O22 0.250000 0.003944 0.426588
O O23 0.000000 0.000000 0.500000
#
# Coordination Sequence:
#
# PCOD9451882 Si02
#       8
#     8   8   8   8   8   8   8   8
#     4   9  17  31  51  74 101 132 166 205 246 290
#     4   8  13  23  41  66  96 130 165 195 227 277
#     4  10  21  36  54  73  95 127 164 203 250 297
#     4   7  11  22  42  67  95 128 163 197 235 281
#     4  12  24  36  51  72  99 132 164 201 250 297
#     4  11  23  36  52  74  99 128 162 200 243 293
#     4   9  17  29  45  69 102 133 158 189 234 290
#     4  11  22  38  58  76  93 121 165 214 256 296
#
# _framework density 16.377300000000002
#
# number of rings (size 3 to 8) (size 9 to 14) (size 15 to 20)
#    0.000    2.375    1.250    4.125    0.000    4.250 
#    0.000    1.875    0.000    2.250    0.000    0.875 
#    0.000    0.000    0.000    0.000    0.000    0.000 
#
# Total GULP energy -356712.967751 kJ/mol
# GULP energy per Si atom -5573.640121 kJ/mol
# Density = 1.634002 g / cm^3
# Si number density = 16.377300 Si / 1000 Ang^3
#
#
#
# Elastic Constant Matrix: (Units=GPa)
#
#
# Indices 1 2 3 4 5 6 
#
# 1 33.7684 25.0453 25.2300 0.0000 0.0000 0.0000
# 2 25.0453 43.0544 20.8811 0.0000 0.0000 0.0000
# 3 25.2300 20.8811 121.4395 0.0000 0.0000 0.0000
# 4 0.0000 0.0000 0.0000 1.7518 0.0000 0.0000
# 5 0.0000 0.0000 0.0000 0.0000 20.3329 0.0000
# 6 0.0000 0.0000 0.0000 0.0000 0.0000 17.0001
#
#
#
# Elastic Compliance Matrix: (Units=1/GPa)
#
#
# Indices 1 2 3 4 5 6 
#
# 1 0.056621 -0.029709 -0.006655 0.000000 0.000000 0.000000
# 2 -0.029709 0.040928 -0.000865 0.000000 0.000000 0.000000
# 3 -0.006655 -0.000865 0.009766 0.000000 0.000000 0.000000
# 4 0.000000 0.000000 0.000000 0.570853 0.000000 0.000000
# 5 0.000000 0.000000 0.000000 0.000000 0.049181 0.000000
# 6 0.000000 0.000000 0.000000 0.000000 0.000000 0.058823
#
#
# Mechanical properties :
#
#
# Convention : Reuss Voigt Hill
#
# Bulk Modulus (GPa) = 30.43585 37.84169 34.13877
# Shear Modulus (GPa) = 5.73669 16.29069 11.01369
#
# Velocity S-wave (km/s) = 1.87362 3.15733 2.59607
# Velocity P-wave (km/s) = 4.82753 6.03721 5.46594
#
# Compressibility (1/GPa) = 0.03285599
#
# Stress axis : x y z
#
# Youngs Moduli (GPa) = 17.66144 24.43295 102.39688
#
# Poissons Ratio (x) = 0.72589 0.68144
# Poissons Ratio (y) = 0.52471 0.08859
# Poissons Ratio (z) = 0.11754 0.02114
#
# Static dielectric constant tensor:
#      x y z
#    x 1.548050 0.000000 0.000000 
#    y 0.000000 1.530820 0.000000 
#    z 0.000000 0.000000 1.573320 
# 
# From -- ./inp_files/26435.got.cif
#   From: 2010.05.17/outbox.cif.g08.bks.cpg/sg59_14_cif.got.tgz:26435.got - 2010.06.03 14:40:33.
