data_PCOD9451224
_publ_section_title
;
Structure prediction by ZEFSAII (Michael W. Deem and Ramdas Pophale) SiO2 
 PCOD9451224
Probable space group: P M M N
;
_chemical_formula_sum "Si O2"
_cell_formula_units_Z 48
_cell_length_a 18.489971
_cell_length_b 8.661000
_cell_length_c 16.265770
_cell_angle_alpha 90.000000
_cell_angle_beta 90.000000
_cell_angle_gamma 90.000000
_cell_volume 2604.827065
_symmetry_space_group_name_H-M "P M M N"
_symmetry_group_IT_number 59
_space_group.IT_coordinate_system_code '2'
_symmetry_cell_setting 'orthorhombic'
loop_
_space_group_symop_operation_xyz
x,y,z
1/2-x,1/2-y,z
1/2+x,-y,-z
-x,1/2+y,-z
-x,-y,-z
1/2+x,1/2+y,-z
1/2-x,y,z
x,1/2-y,z
loop_
_atom_site_type_symbol
_atom_site_label
_atom_site_fract_x
_atom_site_fract_y
_atom_site_fract_z
Si Si1 0.250000 0.067636 0.709483
Si Si2 0.603947 0.065653 0.015304
Si Si3 0.166945 0.562072 0.427458
Si Si4 0.250000 0.566666 0.888946
Si Si5 0.033425 0.564915 0.316039
Si Si6 0.471761 0.066400 0.133413
Si Si7 0.114706 0.935477 0.609850
O O1 0.250000 0.250000 0.695596
O O2 0.250000 0.028188 0.805474
O O3 0.178388 0.995158 0.668858
O O4 0.596068 0.250000 0.001841
O O5 0.680122 0.034756 0.056607
O O6 0.543156 0.018584 0.081899
O O7 0.591536 0.981418 0.929166
O O8 0.250000 0.508873 0.415822
O O9 0.169037 0.750000 0.425963
O O10 0.107777 0.512734 0.360278
O O11 0.137037 0.517584 0.517361
O O12 0.250000 0.750000 0.867599
O O13 0.030335 0.750000 0.320464
O O14 0.032047 0.512722 0.221503
O O15 0.962886 0.499064 0.362230
O O16 0.474077 0.250000 0.145132
O O17 0.112754 0.750000 0.613421
#
# Coordination Sequence:
#
# PCOD9451224 Si02
#       7
#     4   8   8   4   8   8   8
#     4  12  24  36  56  89 124 153 192 243 294 343
#     4   9  19  36  58  81 108 146 190 235 283 340
#     4   9  19  38  61  84 113 155 198 239 289 343
#     4  10  20  36  58  85 114 149 190 231 288 353
#     4  11  22  36  59  89 118 149 197 247 287 343
#     4  10  20  36  57  81 113 151 190 232 287 345
#     4  11  21  38  62  84 116 156 196 239 294 351
#
# _framework density 18.427326000000001
#
# number of rings (size 3 to 8) (size 9 to 14) (size 15 to 20)
#    0.000    1.833    0.833    3.750    0.000    2.667 
#    1.500    2.500    0.000    0.000    0.000    0.000 
#    0.000    0.000    0.000    0.000    0.000    0.000 
#
# Total GULP energy -268077.268293 kJ/mol
# GULP energy per Si atom -5584.943089 kJ/mol
# Density = 1.838538 g / cm^3
# Si number density = 18.427326 Si / 1000 Ang^3
#
#
#
# Elastic Constant Matrix: (Units=GPa)
#
#
# Indices 1 2 3 4 5 6 
#
# 1 137.5521 41.1444 90.8432 0.0000 0.0000 0.0000
# 2 41.1444 48.6144 37.0199 0.0000 0.0000 0.0000
# 3 90.8432 37.0199 99.8107 0.0000 0.0000 0.0000
# 4 0.0000 0.0000 0.0000 23.9072 0.0000 0.0000
# 5 0.0000 0.0000 0.0000 0.0000 10.1709 0.0000
# 6 0.0000 0.0000 0.0000 0.0000 0.0000 19.4662
#
#
#
# Elastic Compliance Matrix: (Units=1/GPa)
#
#
# Indices 1 2 3 4 5 6 
#
# 1 0.018769 -0.004009 -0.015596 0.000000 0.000000 0.000000
# 2 -0.004009 0.029523 -0.007301 0.000000 0.000000 0.000000
# 3 -0.015596 -0.007301 0.026922 0.000000 0.000000 0.000000
# 4 0.000000 0.000000 0.000000 0.041828 0.000000 0.000000
# 5 0.000000 0.000000 0.000000 0.000000 0.098319 0.000000
# 6 0.000000 0.000000 0.000000 0.000000 0.000000 0.051371
#
#
# Mechanical properties :
#
#
# Convention : Reuss Voigt Hill
#
# Bulk Modulus (GPa) = 46.72579 69.33246 58.02912
# Shear Modulus (GPa) = 15.25887 18.50685 16.88286
#
# Velocity S-wave (km/s) = 2.88072 3.17253 3.03014
# Velocity P-wave (km/s) = 6.03958 7.15027 6.61827
#
# Compressibility (1/GPa) = 0.02140146
#
# Stress axis : x y z
#
# Youngs Moduli (GPa) = 53.27944 33.87204 37.14477
#
# Poissons Ratio (x) = 0.13578 0.57930
# Poissons Ratio (y) = 0.21358 0.27121
# Poissons Ratio (z) = 0.83094 0.24732
#
# Static dielectric constant tensor:
#      x y z
#    x 1.626900 0.000000 0.000000 
#    y 0.000000 1.631940 0.000000 
#    z 0.000000 0.000000 1.602980 
# 
# From -- ./inp_files/23683.got.cif
#   From: 2010.05.17/outbox.cif.g08.bks.cpg/sg59_12_cif.got.tgz:23683.got - 2010.06.03 14:40:33.
