data_PCOD9451861
_publ_section_title
;
Structure prediction by ZEFSAII (Michael W. Deem and Ramdas Pophale) SiO2 
 PCOD9451861
Probable space group: P M M N
;
_chemical_formula_sum "Si O2"
_cell_formula_units_Z 56
_cell_length_a 9.672456
_cell_length_b 14.578918
_cell_length_c 20.708409
_cell_angle_alpha 90.000000
_cell_angle_beta 90.000000
_cell_angle_gamma 90.000000
_cell_volume 2920.174404
_symmetry_space_group_name_H-M "P M M N"
_symmetry_group_IT_number 59
_space_group.IT_coordinate_system_code '2'
_symmetry_cell_setting 'orthorhombic'
loop_
_space_group_symop_operation_xyz
x,y,z
1/2-x,1/2-y,z
1/2+x,-y,-z
-x,1/2+y,-z
-x,-y,-z
1/2+x,1/2+y,-z
1/2-x,y,z
x,1/2-y,z
loop_
_atom_site_type_symbol
_atom_site_label
_atom_site_fract_x
_atom_site_fract_y
_atom_site_fract_z
Si Si1 0.917830 0.145775 0.671632
Si Si2 0.916262 0.503604 0.565945
Si Si3 0.091632 0.361973 0.935830
Si Si4 0.089718 0.861637 0.942967
Si Si5 0.590890 0.138179 0.201398
Si Si6 0.410500 0.359622 0.323031
Si Si7 0.091197 0.862041 0.185574
O O1 0.750000 0.147474 0.674487
O O2 0.966046 0.250000 0.662212
O O3 0.955040 0.080969 0.612689
O O4 0.960112 0.112077 0.742891
O O5 0.750000 0.501551 0.554515
O O6 0.949379 0.591998 0.610106
O O7 0.000000 0.500000 0.500000
O O8 0.250000 0.392604 0.934739
O O9 0.092401 0.250000 0.936011
O O10 0.007719 0.390532 0.872309
O O11 0.010734 0.391707 0.000027
O O12 0.250000 0.887935 0.953835
O O13 0.088463 0.750000 0.943608
O O14 0.046186 0.889985 0.870696
O O15 0.750000 0.110109 0.210035
O O16 0.588378 0.250000 0.201480
O O17 0.498366 0.109057 0.261448
O O18 0.250000 0.383055 0.310982
O O19 0.422791 0.250000 0.328829
O O20 0.250000 0.892661 0.175767
O O21 0.094865 0.750000 0.185949
#
# Coordination Sequence:
#
# PCOD9451861 Si02
#       7
#     8   8   8   8   8   8   8
#     4   8  15  30  52  74  94 121 161 204 239 274
#     4  10  21  36  53  75 101 126 156 193 233 283
#     4   9  15  20  29  52  87 122 154 190 232 278
#     4   8  13  21  33  52  82 119 157 197 237 273
#     4   8  14  25  42  64  89 120 162 206 239 272
#     4   9  18  32  49  70  99 132 159 187 232 289
#     4   8  13  23  40  59  80 111 151 192 233 275
#
# _framework density 19.176936999999999
#
# number of rings (size 3 to 8) (size 9 to 14) (size 15 to 20)
#    0.000    3.429    0.000    2.143    0.000    3.429 
#    0.000    3.571    0.000    0.857    0.000    1.000 
#    0.000    0.000    0.000    0.000    0.000    0.000 
#
# Total GULP energy -312291.797552 kJ/mol
# GULP energy per Si atom -5576.639242 kJ/mol
# Density = 1.913329 g / cm^3
# Si number density = 19.176937 Si / 1000 Ang^3
#
#
#
# Elastic Constant Matrix: (Units=GPa)
#
#
# Indices 1 2 3 4 5 6 
#
# 1 86.5921 25.8460 111.3512 0.0000 0.0000 0.0000
# 2 25.8460 55.9777 36.8985 0.0000 0.0000 0.0000
# 3 111.3512 36.8985 229.9874 0.0000 0.0000 0.0000
# 4 0.0000 0.0000 0.0000 82.7833 0.0000 0.0000
# 5 0.0000 0.0000 0.0000 0.0000 10.8371 0.0000
# 6 0.0000 0.0000 0.0000 0.0000 0.0000 1.9246
#
#
#
# Elastic Compliance Matrix: (Units=1/GPa)
#
#
# Indices 1 2 3 4 5 6 
#
# 1 0.031839 -0.005076 -0.014601 0.000000 0.000000 0.000000
# 2 -0.005076 0.020786 -0.000877 0.000000 0.000000 0.000000
# 3 -0.014601 -0.000877 0.011558 0.000000 0.000000 0.000000
# 4 0.000000 0.000000 0.000000 0.012080 0.000000 0.000000
# 5 0.000000 0.000000 0.000000 0.000000 0.092275 0.000000
# 6 0.000000 0.000000 0.000000 0.000000 0.000000 0.519584
#
#
# Mechanical properties :
#
#
# Convention : Reuss Voigt Hill
#
# Bulk Modulus (GPa) = 43.33745 80.08318 61.71031
# Shear Modulus (GPa) = 6.78496 32.33977 19.56237
#
# Velocity S-wave (km/s) = 1.88302 4.11102 3.19736
# Velocity P-wave (km/s) = 5.23216 8.02401 6.77349
#
# Compressibility (1/GPa) = 0.02307473
#
# Stress axis : x y z
#
# Youngs Moduli (GPa) = 31.40757 48.10863 86.51993
#
# Poissons Ratio (x) = 0.24422 1.26328
# Poissons Ratio (y) = 0.15944 0.07588
# Poissons Ratio (z) = 0.45858 0.04219
#
# Static dielectric constant tensor:
#      x y z
#    x 1.697920 0.000000 0.000000 
#    y 0.000000 1.752320 0.000000 
#    z 0.000000 0.000000 1.642910 
# 
# From -- ./inp_files/29167.got.cif
#   From: 2010.05.17/outbox.cif.g08.bks.cpg/sg59_15_cif.got.tgz:29167.got - 2010.06.03 14:40:33.
