data_PCOD9451247
_publ_section_title
;
Structure prediction by ZEFSAII (Michael W. Deem and Ramdas Pophale) SiO2 
 PCOD9451247
Probable space group: P M M N
;
_chemical_formula_sum "Si O2"
_cell_formula_units_Z 40
_cell_length_a 7.539955
_cell_length_b 17.079163
_cell_length_c 12.414966
_cell_angle_alpha 90.000000
_cell_angle_beta 90.000000
_cell_angle_gamma 90.000000
_cell_volume 1598.751157
_symmetry_space_group_name_H-M "P M M N"
_symmetry_group_IT_number 59
_space_group.IT_coordinate_system_code '2'
_symmetry_cell_setting 'orthorhombic'
loop_
_space_group_symop_operation_xyz
x,y,z
1/2-x,1/2-y,z
1/2+x,-y,-z
-x,1/2+y,-z
-x,-y,-z
1/2+x,1/2+y,-z
1/2-x,y,z
x,1/2-y,z
loop_
_atom_site_type_symbol
_atom_site_label
_atom_site_fract_x
_atom_site_fract_y
_atom_site_fract_z
Si Si1 0.467630 0.337344 0.319321
Si Si2 0.453471 0.105968 0.552906
Si Si3 0.462816 0.582352 0.056212
Si Si4 0.962036 0.250000 0.702514
Si Si5 0.037744 0.750000 0.040475
Si Si6 0.957241 0.000461 0.738760
O O1 0.250000 0.336196 0.318189
O O2 0.526080 0.250000 0.288755
O O3 0.525514 0.358977 0.441394
O O4 0.530138 0.412559 0.251760
O O5 0.250000 0.086736 0.532716
O O6 0.466909 0.175524 0.639205
O O7 0.531029 0.032108 0.616999
O O8 0.250000 0.593049 0.060459
O O9 0.532818 0.664076 0.006691
O O10 0.531003 0.563348 0.177032
O O11 0.500000 0.500000 0.000000
O O12 0.750000 0.250000 0.690922
O O13 0.993292 0.250000 0.830011
O O14 0.250000 0.750000 0.018662
O O15 0.750000 0.994513 0.764293
#
# Coordination Sequence:
#
# PCOD9451247 Si02
#       6
#     8   8   8   4   4   8
#     4   9  18  33  52  77 113 152 185 224 274 325
#     4  11  20  32  53  83 116 145 181 230 278 315
#     4  10  21  39  60  85 111 143 185 232 284 339
#     4  11  19  33  57  82 109 146 190 225 261 325
#     4   9  18  37  61  80 107 144 180 223 283 337
#     4  10  20  36  58  80 107 148 191 226 274 339
#
# _framework density 25.019528000000001
#
# number of rings (size 3 to 8) (size 9 to 14) (size 15 to 20)
#    0.000    2.000    3.000    1.500    0.000    0.800 
#    1.800    1.500    0.000    0.000    0.000    0.000 
#    0.000    0.000    0.000    0.000    0.000    0.000 
#
# Total GULP energy -223322.477289 kJ/mol
# GULP energy per Si atom -5583.061932 kJ/mol
# Density = 2.496258 g / cm^3
# Si number density = 25.019528 Si / 1000 Ang^3
#
#
#
# Elastic Constant Matrix: (Units=GPa)
#
#
# Indices 1 2 3 4 5 6 
#
# 1 60.3854 9.6899 -0.8362 0.0000 0.0000 0.0000
# 2 9.6899 250.4087 13.7419 0.0000 0.0000 0.0000
# 3 -0.8362 13.7419 17.5715 0.0000 0.0000 0.0000
# 4 0.0000 0.0000 0.0000 35.0614 0.0000 0.0000
# 5 0.0000 0.0000 0.0000 0.0000 10.6983 0.0000
# 6 0.0000 0.0000 0.0000 0.0000 0.0000 19.5742
#
#
#
# Elastic Compliance Matrix: (Units=1/GPa)
#
#
# Indices 1 2 3 4 5 6 
#
# 1 0.016695 -0.000721 0.001358 0.000000 0.000000 0.000000
# 2 -0.000721 0.004204 -0.003322 0.000000 0.000000 0.000000
# 3 0.001358 -0.003322 0.059573 0.000000 0.000000 0.000000
# 4 0.000000 0.000000 0.000000 0.028521 0.000000 0.000000
# 5 0.000000 0.000000 0.000000 0.000000 0.093473 0.000000
# 6 0.000000 0.000000 0.000000 0.000000 0.000000 0.051088
#
#
# Mechanical properties :
#
#
# Convention : Reuss Voigt Hill
#
# Bulk Modulus (GPa) = 13.31517 41.50631 27.41074
# Shear Modulus (GPa) = 17.60837 33.45143 25.52990
#
# Velocity S-wave (km/s) = 2.65577 3.66049 3.19783
# Velocity P-wave (km/s) = 3.83896 5.87291 4.96129
#
# Compressibility (1/GPa) = 0.07510229
#
# Stress axis : x y z
#
# Youngs Moduli (GPa) = 59.89915 237.88870 16.78622
#
# Poissons Ratio (x) = 0.17141 -0.02279
# Poissons Ratio (y) = 0.04316 0.05576
# Poissons Ratio (z) = -0.08134 0.79021
#
# Static dielectric constant tensor:
#      x y z
#    x 1.930700 0.000000 0.000000 
#    y 0.000000 2.046360 0.000000 
#    z 0.000000 0.000000 2.024360 
# 
# From -- ./inp_files/19985.got.cif
#   From: 2010.05.17/outbox.cif.g08.bks.cpg/sg59_10_cif.got.tgz:19985.got - 2010.06.03 14:40:33.
