data_PCOD9451187
_publ_section_title
;
Structure prediction by ZEFSAII (Michael W. Deem and Ramdas Pophale) SiO2 
 PCOD9451187
Probable space group: P M M N
;
_chemical_formula_sum "Si O2"
_cell_formula_units_Z 48
_cell_length_a 8.505517
_cell_length_b 15.791767
_cell_length_c 19.450039
_cell_angle_alpha 90.000000
_cell_angle_beta 90.000000
_cell_angle_gamma 90.000000
_cell_volume 2612.473663
_symmetry_space_group_name_H-M "P M M N"
_symmetry_group_IT_number 59
_space_group.IT_coordinate_system_code '2'
_symmetry_cell_setting 'orthorhombic'
loop_
_space_group_symop_operation_xyz
x,y,z
1/2-x,1/2-y,z
1/2+x,-y,-z
-x,1/2+y,-z
-x,-y,-z
1/2+x,1/2+y,-z
1/2-x,y,z
x,1/2-y,z
loop_
_atom_site_type_symbol
_atom_site_label
_atom_site_fract_x
_atom_site_fract_y
_atom_site_fract_z
Si Si1 0.939406 0.506113 0.077358
Si Si2 0.937057 0.060168 0.439634
Si Si3 0.576571 0.250000 0.272765
Si Si4 0.939119 0.844726 0.182547
Si Si5 0.071787 0.393061 0.190130
Si Si6 0.931656 0.750000 0.582197
Si Si7 0.438453 0.477071 0.708657
O O1 0.750000 0.502539 0.079146
O O2 0.988957 0.589200 0.122449
O O3 0.013054 0.427056 0.117815
O O4 0.000000 0.500000 0.000000
O O5 0.750000 0.066311 0.444941
O O6 0.999472 0.157721 0.440305
O O7 0.971296 0.009695 0.368164
O O8 0.000000 0.000000 0.500000
O O9 0.750000 0.250000 0.304069
O O10 0.547452 0.172149 0.223482
O O11 0.455706 0.250000 0.335338
O O12 0.750000 0.840199 0.175215
O O13 0.003869 0.750000 0.175232
O O14 0.964176 0.883552 0.259321
O O15 0.250000 0.361279 0.187619
O O16 0.053565 0.469779 0.243105
O O17 0.750000 0.750000 0.563010
O O18 0.250000 0.494773 0.720963
#
# Coordination Sequence:
#
# PCOD9451187 Si02
#       7
#     8   8   4   8   8   4   8
#     4  10  20  36  56  79 112 152 191 238 297 353
#     4  11  23  40  61  88 125 165 201 249 306 365
#     4  12  22  36  58  86 118 147 186 241 296 348
#     4   8  15  31  56  82 106 140 189 240 288 345
#     4  11  21  34  56  84 111 146 190 235 285 345
#     4  12  24  40  64  92 118 157 206 251 308 374
#     4   9  18  34  57  83 112 148 190 237 292 345
#
# _framework density 18.373391999999999
#
# number of rings (size 3 to 8) (size 9 to 14) (size 15 to 20)
#    0.000    1.833    1.667    5.000    0.000    0.667 
#    3.000    0.000    0.000   12.000    0.000    0.000 
#    0.000    0.000    0.000    0.000    0.000    0.000 
#
# Total GULP energy -267209.465265 kJ/mol
# GULP energy per Si atom -5566.863860 kJ/mol
# Density = 1.833157 g / cm^3
# Si number density = 18.373392 Si / 1000 Ang^3
#
#
#
# Elastic Constant Matrix: (Units=GPa)
#
#
# Indices 1 2 3 4 5 6 
#
# 1 51.2699 15.5274 30.0498 0.0000 0.0000 0.0000
# 2 15.5274 117.5467 51.9659 0.0000 0.0000 0.0000
# 3 30.0498 51.9659 126.8455 0.0000 0.0000 0.0000
# 4 0.0000 0.0000 0.0000 21.9881 0.0000 0.0000
# 5 0.0000 0.0000 0.0000 0.0000 26.5173 0.0000
# 6 0.0000 0.0000 0.0000 0.0000 0.0000 22.6527
#
#
#
# Elastic Compliance Matrix: (Units=1/GPa)
#
#
# Indices 1 2 3 4 5 6 
#
# 1 0.022705 -0.000759 -0.005068 0.000000 0.000000 0.000000
# 2 -0.000759 0.010414 -0.004087 0.000000 0.000000 0.000000
# 3 -0.005068 -0.004087 0.010758 0.000000 0.000000 0.000000
# 4 0.000000 0.000000 0.000000 0.045479 0.000000 0.000000
# 5 0.000000 0.000000 0.000000 0.000000 0.037711 0.000000
# 6 0.000000 0.000000 0.000000 0.000000 0.000000 0.044145
#
#
# Mechanical properties :
#
#
# Convention : Reuss Voigt Hill
#
# Bulk Modulus (GPa) = 41.57900 54.52759 48.05330
# Shear Modulus (GPa) = 25.11851 27.43954 26.27903
#
# Velocity S-wave (km/s) = 3.70146 3.86870 3.78600
# Velocity P-wave (km/s) = 6.39898 7.04966 6.73218
#
# Compressibility (1/GPa) = 0.02405060
#
# Stress axis : x y z
#
# Youngs Moduli (GPa) = 44.04363 96.02304 92.95023
#
# Poissons Ratio (x) = 0.07285 0.47107
# Poissons Ratio (y) = 0.03342 0.37986
# Poissons Ratio (z) = 0.22321 0.39242
#
# Static dielectric constant tensor:
#      x y z
#    x 1.633800 0.000000 0.000000 
#    y 0.000000 1.651590 0.000000 
#    z 0.000000 0.000000 1.620220 
# 
# From -- ./inp_files/25610.got.cif
#   From: 2010.05.17/outbox.cif.g08.bks.cpg/sg59_13_cif.got.tgz:25610.got - 2010.06.03 14:40:33.
