data_PCOD9451050
_publ_section_title
;
Structure prediction by ZEFSAII (Michael W. Deem and Ramdas Pophale) SiO2 
 PCOD9451050
Probable space group: P M M N
;
_chemical_formula_sum "Si O2"
_cell_formula_units_Z 64
_cell_length_a 8.120046
_cell_length_b 19.083964
_cell_length_c 20.986465
_cell_angle_alpha 90.000000
_cell_angle_beta 90.000000
_cell_angle_gamma 90.000000
_cell_volume 3252.118557
_symmetry_space_group_name_H-M "P M M N"
_symmetry_group_IT_number 59
_space_group.IT_coordinate_system_code '2'
_symmetry_cell_setting 'orthorhombic'
loop_
_space_group_symop_operation_xyz
x,y,z
1/2-x,1/2-y,z
1/2+x,-y,-z
-x,1/2+y,-z
-x,-y,-z
1/2+x,1/2+y,-z
1/2-x,y,z
x,1/2-y,z
loop_
_atom_site_type_symbol
_atom_site_label
_atom_site_fract_x
_atom_site_fract_y
_atom_site_fract_z
Si Si1 0.552479 0.924612 0.305427
Si Si2 0.053934 0.413427 0.930927
Si Si3 0.050722 0.916296 0.685911
Si Si4 0.550316 0.571710 0.924461
Si Si5 0.944936 0.329168 0.810921
Si Si6 0.948644 0.669797 0.421914
Si Si7 0.448949 0.170126 0.190519
Si Si8 0.051298 0.669391 0.563456
O O1 0.750000 0.928736 0.311616
O O2 0.516114 0.882006 0.241387
O O3 0.489529 0.880683 0.366164
O O4 0.489516 0.004236 0.305113
O O5 0.250000 0.404576 0.929652
O O6 0.011559 0.493178 0.911513
O O7 0.978786 0.359627 0.880963
O O8 0.996652 0.406561 0.004272
O O9 0.250000 0.917948 0.684079
O O10 0.993100 0.880747 0.620096
O O11 0.999939 0.868702 0.745185
O O12 0.750000 0.569484 0.924579
O O13 0.494261 0.625171 0.870299
O O14 0.750000 0.326893 0.800966
O O15 0.011457 0.250000 0.803828
O O16 0.750000 0.671176 0.418750
O O17 0.007791 0.750000 0.412728
O O18 0.997390 0.647120 0.492928
O O19 0.250000 0.171687 0.188047
O O20 0.509131 0.250000 0.189159
O O21 0.250000 0.670103 0.564816
O O22 0.994573 0.750000 0.573345
#
# Coordination Sequence:
#
# PCOD9451050 Si02
#       8
#     8   8   8   8   8   8   8   8
#     4  10  21  37  57  80 106 138 178 222 267 319
#     4  10  20  35  58  84 109 141 179 219 265 319
#     4  10  21  36  54  78 107 139 177 219 263 313
#     4   9  19  36  57  81 111 144 177 217 265 317
#     4  11  24  39  55  78 109 143 180 224 271 320
#     4   9  18  33  53  77 105 136 172 216 262 309
#     4  10  21  36  54  77 105 138 177 219 262 310
#     4   9  18  33  52  74 104 141 176 211 255 310
#
# _framework density 19.679479000000001
#
# number of rings (size 3 to 8) (size 9 to 14) (size 15 to 20)
#    0.000    2.250    0.000    2.250    0.000    7.750 
#    0.000    3.750    0.000    0.000    0.000    0.000 
#    0.000    0.000    0.000    0.000    0.000    0.000 
#
# Total GULP energy -357396.114231 kJ/mol
# GULP energy per Si atom -5584.314285 kJ/mol
# Density = 1.963469 g / cm^3
# Si number density = 19.679479 Si / 1000 Ang^3
#
#
#
# Elastic Constant Matrix: (Units=GPa)
#
#
# Indices 1 2 3 4 5 6 
#
# 1 6.5236 2.0021 -2.5240 0.0000 0.0000 0.0000
# 2 2.0021 70.8708 36.3444 0.0000 0.0000 0.0000
# 3 -2.5240 36.3444 76.9549 0.0000 0.0000 0.0000
# 4 0.0000 0.0000 0.0000 42.1000 0.0000 0.0000
# 5 0.0000 0.0000 0.0000 0.0000 12.6353 0.0000
# 6 0.0000 0.0000 0.0000 0.0000 0.0000 30.0517
#
#
#
# Elastic Compliance Matrix: (Units=1/GPa)
#
#
# Indices 1 2 3 4 5 6 
#
# 1 0.159978 -0.009515 0.009741 0.000000 0.000000 0.000000
# 2 -0.009515 0.019186 -0.009373 0.000000 0.000000 0.000000
# 3 0.009741 -0.009373 0.017741 0.000000 0.000000 0.000000
# 4 0.000000 0.000000 0.000000 0.023753 0.000000 0.000000
# 5 0.000000 0.000000 0.000000 0.000000 0.079143 0.000000
# 6 0.000000 0.000000 0.000000 0.000000 0.000000 0.033276
#
#
# Mechanical properties :
#
#
# Convention : Reuss Voigt Hill
#
# Bulk Modulus (GPa) = 5.59878 25.11048 15.35463
# Shear Modulus (GPa) = 12.16817 24.85919 18.51368
#
# Velocity S-wave (km/s) = 2.48930 3.55801 3.07051
# Velocity P-wave (km/s) = 3.33366 5.44672 4.51553
#
# Compressibility (1/GPa) = 0.17861034
#
# Stress axis : x y z
#
# Youngs Moduli (GPa) = 6.25086 52.12195 56.36701
#
# Poissons Ratio (x) = 0.49592 -0.54905
# Poissons Ratio (y) = 0.05947 0.52834
# Poissons Ratio (z) = -0.06089 0.48855
#
# Static dielectric constant tensor:
#      x y z
#    x 1.698140 0.000000 0.000000 
#    y 0.000000 1.683620 0.000000 
#    z 0.000000 0.000000 1.664760 
# 
# From -- ./inp_files/29551.got.cif
#   From: 2010.05.17/outbox.cif.g08.bks.cpg/sg59_15_cif.got.tgz:29551.got - 2010.06.03 14:40:33.
