data_PCOD9451202
_publ_section_title
;
Structure prediction by ZEFSAII (Michael W. Deem and Ramdas Pophale) SiO2 
 PCOD9451202
Probable space group: P M M N
;
_chemical_formula_sum "Si O2"
_cell_formula_units_Z 40
_cell_length_a 16.133797
_cell_length_b 7.643134
_cell_length_c 15.076601
_cell_angle_alpha 90.000000
_cell_angle_beta 90.000000
_cell_angle_gamma 90.000000
_cell_volume 1859.137468
_symmetry_space_group_name_H-M "P M M N"
_symmetry_group_IT_number 59
_space_group.IT_coordinate_system_code '2'
_symmetry_cell_setting 'orthorhombic'
loop_
_space_group_symop_operation_xyz
x,y,z
1/2-x,1/2-y,z
1/2+x,-y,-z
-x,1/2+y,-z
-x,-y,-z
1/2+x,1/2+y,-z
1/2-x,y,z
x,1/2-y,z
loop_
_atom_site_type_symbol
_atom_site_label
_atom_site_fract_x
_atom_site_fract_y
_atom_site_fract_z
Si Si1 0.154893 0.540281 0.900083
Si Si2 0.750000 0.464739 0.403498
Si Si3 0.654706 0.540199 0.906079
Si Si4 0.908219 0.036027 0.289580
Si Si5 0.411226 0.459209 0.279763
Si Si6 0.250000 0.957770 0.394717
O O1 0.250000 0.473500 0.897761
O O2 0.158523 0.750000 0.894321
O O3 0.108283 0.480488 0.812099
O O4 0.119089 0.498247 0.996746
O O5 0.750000 0.250000 0.402971
O O6 0.667514 0.521499 0.351261
O O7 0.750000 0.526261 0.504862
O O8 0.750000 0.473769 0.903855
O O9 0.658509 0.750000 0.898477
O O10 0.607248 0.473075 0.819672
O O11 0.905999 0.250000 0.291666
O O12 0.000338 0.976825 0.315570
O O13 0.419195 0.250000 0.272135
O O14 0.332196 0.491944 0.340983
O O15 0.250000 0.750000 0.400802
#
# Coordination Sequence:
#
# PCOD9451202 Si02
#       6
#     8   4   8   8   8   4
#     4   9  16  28  50  79 106 136 177 217 251 299
#     4   9  18  35  56  81 108 134 169 221 278 319
#     4   9  17  30  47  70 105 144 176 210 255 306
#     4   9  17  32  56  81 107 140 178 216 258 316
#     4  10  20  36  57  79 105 143 183 214 255 318
#     4  11  23  37  56  79 106 136 171 225 282 317
#
# _framework density 21.515353000000001
#
# number of rings (size 3 to 8) (size 9 to 14) (size 15 to 20)
#    0.000    2.600    2.000    0.300    0.000    2.400 
#    0.000    1.000    0.000    3.600    0.000    0.000 
#    0.000    0.000    0.000    0.000    0.000    0.000 
#
# Total GULP energy -223239.133089 kJ/mol
# GULP energy per Si atom -5580.978327 kJ/mol
# Density = 2.146638 g / cm^3
# Si number density = 21.515353 Si / 1000 Ang^3
#
#
#
# Elastic Constant Matrix: (Units=GPa)
#
#
# Indices 1 2 3 4 5 6 
#
# 1 178.0951 0.4711 102.7515 0.0000 0.0000 0.0000
# 2 0.4711 33.9530 -3.3263 0.0000 0.0000 0.0000
# 3 102.7515 -3.3263 172.4026 0.0000 0.0000 0.0000
# 4 0.0000 0.0000 0.0000 -28.1608 0.0000 0.0000
# 5 0.0000 0.0000 0.0000 0.0000 -5.7090 0.0000
# 6 0.0000 0.0000 0.0000 0.0000 0.0000 -1.0787
#
#
#
# Elastic Compliance Matrix: (Units=1/GPa)
#
#
# Indices 1 2 3 4 5 6 
#
# 1 0.008571 -0.000621 -0.005120 0.000000 0.000000 0.000000
# 2 -0.000621 0.029553 0.000940 0.000000 0.000000 0.000000
# 3 -0.005120 0.000940 0.008870 0.000000 0.000000 0.000000
# 4 0.000000 0.000000 0.000000 -0.035510 0.000000 0.000000
# 5 0.000000 0.000000 0.000000 0.000000 -0.175161 0.000000
# 6 0.000000 0.000000 0.000000 0.000000 0.000000 -0.927014
#
#
# Mechanical properties :
#
#
# Convention : Reuss Voigt Hill
#
# Bulk Modulus (GPa) = 26.74315 64.91592 45.82953
# Shear Modulus (GPa) = -4.67891 11.98058 3.65084
#
# Velocity S-wave (km/s) = -1.47628 2.36230 1.30405
# Velocity P-wave (km/s) = 3.09045 6.13824 4.85947
#
# Compressibility (1/GPa) = 0.03739276
#
# Stress axis : x y z
#
# Youngs Moduli (GPa) = 116.67792 33.83732 112.73917
#
# Poissons Ratio (x) = 0.02100 0.57723
# Poissons Ratio (y) = 0.07240 -0.10598
# Poissons Ratio (z) = 0.59739 -0.03181
#
# Static dielectric constant tensor:
#      x y z
#    x 1.669870 0.000000 0.000000 
#    y 0.000000 1.801220 0.000000 
#    z 0.000000 0.000000 1.768360 
# 
# From -- ./inp_files/23019.got.cif
#   From: 2010.05.17/outbox.cif.g08.bks.cpg/sg59_12_cif.got.tgz:23019.got - 2010.06.03 14:40:33.
