data_PCOD9451155
_publ_section_title
;
Structure prediction by ZEFSAII (Michael W. Deem and Ramdas Pophale) SiO2 
 PCOD9451155
Probable space group: P M M N
;
_chemical_formula_sum "Si O2"
_cell_formula_units_Z 48
_cell_length_a 7.734487
_cell_length_b 15.572526
_cell_length_c 19.408816
_cell_angle_alpha 90.000000
_cell_angle_beta 90.000000
_cell_angle_gamma 90.000000
_cell_volume 2337.704546
_symmetry_space_group_name_H-M "P M M N"
_symmetry_group_IT_number 59
_space_group.IT_coordinate_system_code '2'
_symmetry_cell_setting 'orthorhombic'
loop_
_space_group_symop_operation_xyz
x,y,z
1/2-x,1/2-y,z
1/2+x,-y,-z
-x,1/2+y,-z
-x,-y,-z
1/2+x,1/2+y,-z
1/2-x,y,z
x,1/2-y,z
loop_
_atom_site_type_symbol
_atom_site_label
_atom_site_fract_x
_atom_site_fract_y
_atom_site_fract_z
Si Si1 0.043973 0.900155 0.992110
Si Si2 0.540182 0.006195 0.757605
Si Si3 0.454600 0.012838 0.598041
Si Si4 0.454235 0.849494 0.512481
Si Si5 0.038890 0.656269 0.141397
Si Si6 0.545486 0.843323 0.839844
O O1 0.250000 0.888935 0.988764
O O2 0.972101 0.865817 0.920402
O O3 0.980849 0.856779 0.062625
O O4 0.000000 0.000000 0.000000
O O5 0.750000 0.006369 0.759799
O O6 0.474639 0.918385 0.791984
O O7 0.487422 0.016200 0.678978
O O8 0.479542 0.082442 0.807464
O O9 0.250000 0.013394 0.584696
O O10 0.525494 0.097287 0.558935
O O11 0.524173 0.921926 0.566541
O O12 0.250000 0.841463 0.526265
O O13 0.522233 0.750000 0.512730
O O14 0.250000 0.652285 0.139530
O O15 0.988036 0.750000 0.166271
O O16 0.750000 0.839534 0.825596
O O17 0.468396 0.750000 0.826738
#
# Coordination Sequence:
#
# PCOD9451155 Si02
#       6
#     8   8   8   8   8   8
#     4  11  20  34  56  79 105 139 185 237 286 333
#     4  10  20  36  54  76 110 150 185 218 267 332
#     4  10  21  36  56  86 117 142 177 229 272 312
#     4   9  19  38  62  84 109 146 184 216 262 326
#     4   9  18  33  53  75 100 136 183 228 270 324
#     4  10  21  37  55  78 109 145 187 234 280 327
#
# _framework density 20.532964
#
# number of rings (size 3 to 8) (size 9 to 14) (size 15 to 20)
#    0.000    2.167    1.667    1.500    0.000    4.000 
#    0.000    1.667    0.000    2.000    0.000    0.000 
#    0.000    0.000    0.000    0.000    0.000    0.000 
#
# Total GULP energy -267811.020902 kJ/mol
# GULP energy per Si atom -5579.396269 kJ/mol
# Density = 2.048623 g / cm^3
# Si number density = 20.532964 Si / 1000 Ang^3
#
#
#
# Elastic Constant Matrix: (Units=GPa)
#
#
# Indices 1 2 3 4 5 6 
#
# 1 31.6161 -2.5707 -15.9596 0.0000 0.0000 0.0000
# 2 -2.5707 132.2777 12.6468 0.0000 0.0000 0.0000
# 3 -15.9596 12.6468 80.4106 0.0000 0.0000 0.0000
# 4 0.0000 0.0000 0.0000 -34.6183 0.0000 0.0000
# 5 0.0000 0.0000 0.0000 0.0000 19.2429 0.0000
# 6 0.0000 0.0000 0.0000 0.0000 0.0000 2.6165
#
#
#
# Elastic Compliance Matrix: (Units=1/GPa)
#
#
# Indices 1 2 3 4 5 6 
#
# 1 0.035151 0.000016 0.006974 0.000000 0.000000 0.000000
# 2 0.000016 0.007675 -0.001204 0.000000 0.000000 0.000000
# 3 0.006974 -0.001204 0.014010 0.000000 0.000000 0.000000
# 4 0.000000 0.000000 0.000000 -0.028886 0.000000 0.000000
# 5 0.000000 0.000000 0.000000 0.000000 0.051967 0.000000
# 6 0.000000 0.000000 0.000000 0.000000 0.000000 0.382191
#
#
# Mechanical properties :
#
#
# Convention : Reuss Voigt Hill
#
# Bulk Modulus (GPa) = 14.61790 25.83750 20.22770
# Shear Modulus (GPa) = 10.56328 14.12741 12.34534
#
# Velocity S-wave (km/s) = 2.27062 2.62589 2.45469
# Velocity P-wave (km/s) = 3.74286 4.66953 4.23163
#
# Compressibility (1/GPa) = 0.06840927
#
# Stress axis : x y z
#
# Youngs Moduli (GPa) = 28.44852 130.28850 71.37908
#
# Poissons Ratio (x) = -0.00213 -0.49780
# Poissons Ratio (y) = -0.00046 0.08593
# Poissons Ratio (z) = -0.19840 0.15685
#
# Static dielectric constant tensor:
#      x y z
#    x 1.771270 0.000000 0.000000 
#    y 0.000000 1.755540 0.000000 
#    z 0.000000 0.000000 1.691780 
# 
# From -- ./inp_files/25420.got.cif
#   From: 2010.05.17/outbox.cif.g08.bks.cpg/sg59_13_cif.got.tgz:25420.got - 2010.06.03 14:40:33.
