data_PCOD9451661
_publ_section_title
;
Structure prediction by ZEFSAII (Michael W. Deem and Ramdas Pophale) SiO2 
 PCOD9451661
Probable space group: P M M N
;
_chemical_formula_sum "Si O2"
_cell_formula_units_Z 38
_cell_length_a 10.105954
_cell_length_b 24.396278
_cell_length_c 7.461757
_cell_angle_alpha 90.000000
_cell_angle_beta 90.000000
_cell_angle_gamma 90.000000
_cell_volume 1839.678752
_symmetry_space_group_name_H-M "P M M N"
_symmetry_group_IT_number 59
_space_group.IT_coordinate_system_code '2'
_symmetry_cell_setting 'orthorhombic'
loop_
_space_group_symop_operation_xyz
x,y,z
1/2-x,1/2-y,z
1/2+x,-y,-z
-x,1/2+y,-z
-x,-y,-z
1/2+x,1/2+y,-z
1/2-x,y,z
x,1/2-y,z
loop_
_atom_site_type_symbol
_atom_site_label
_atom_site_fract_x
_atom_site_fract_y
_atom_site_fract_z
Si Si1 0.510743 0.398270 0.298356
Si Si2 0.250000 0.031465 0.220553
Si Si3 0.250000 0.064844 0.833467
Si Si4 0.403908 0.685966 0.428340
Si Si5 0.750000 0.750000 0.003628
Si Si6 0.032997 0.346729 0.933471
Si Si7 0.750000 0.470868 0.438452
O O1 0.377450 0.432233 0.269007
O O2 0.503405 0.350668 0.446108
O O3 0.540365 0.369592 0.108529
O O4 0.622176 0.439317 0.368063
O O5 0.250000 0.978554 0.347385
O O6 0.250000 0.024084 0.006058
O O7 0.250000 0.030652 0.652604
O O8 0.377294 0.103740 0.854543
O O9 0.250000 0.672960 0.466546
O O10 0.425764 0.750000 0.463895
O O11 0.437747 0.673811 0.222817
O O12 0.634122 0.701609 0.011716
#
# Coordination Sequence:
#
# PCOD9451661 Si02
#       7
#     8   4   4   8   2   8   4
#     4  11  25  43  64  99 130 172 220 266 327 387
#     4  10  23  43  65  94 131 165 215 273 316 383
#     4   9  22  41  67  98 128 163 224 267 323 392
#     4  11  24  41  62  93 130 172 217 268 325 391
#     4  10  20  44  68  96 124 172 208 268 334 384
#     4  10  22  42  67  96 130 165 219 271 323 390
#     4  12  23  41  68  91 135 179 211 267 332 377
#
# _framework density 20.65578
#
# number of rings (size 3 to 8) (size 9 to 14) (size 15 to 20)
#    0.000    1.474    2.105    2.526    2.947    5.895 
#    0.000    2.105    0.000    0.000    0.000    0.000 
#    0.000    0.000    0.000    0.000    0.000    0.000 
#
# Total GULP energy -211906.390625 kJ/mol
# GULP energy per Si atom -5576.483964 kJ/mol
# Density = 2.060877 g / cm^3
# Si number density = 20.655780 Si / 1000 Ang^3
#
#
#
# Elastic Constant Matrix: (Units=GPa)
#
#
# Indices 1 2 3 4 5 6 
#
# 1 24.5703 -17.7862 -20.4364 0.0000 0.0000 0.0000
# 2 -17.7862 53.9127 -3.8153 0.0000 0.0000 0.0000
# 3 -20.4364 -3.8153 42.2156 0.0000 0.0000 0.0000
# 4 0.0000 0.0000 0.0000 19.9235 0.0000 0.0000
# 5 0.0000 0.0000 0.0000 0.0000 16.4296 0.0000
# 6 0.0000 0.0000 0.0000 0.0000 0.0000 16.8593
#
#
#
# Elastic Compliance Matrix: (Units=1/GPa)
#
#
# Indices 1 2 3 4 5 6 
#
# 1 0.133665 0.048990 0.069134 0.000000 0.000000 0.000000
# 2 0.048990 0.036623 0.027026 0.000000 0.000000 0.000000
# 3 0.069134 0.027026 0.059598 0.000000 0.000000 0.000000
# 4 0.000000 0.000000 0.000000 0.050192 0.000000 0.000000
# 5 0.000000 0.000000 0.000000 0.000000 0.060866 0.000000
# 6 0.000000 0.000000 0.000000 0.000000 0.000000 0.059314
#
#
# Mechanical properties :
#
#
# Convention : Reuss Voigt Hill
#
# Bulk Modulus (GPa) = 1.92239 4.06921 2.99580
# Shear Modulus (GPa) = 17.64573 21.49159 19.56866
#
# Velocity S-wave (km/s) = 2.92597 3.22912 3.08128
# Velocity P-wave (km/s) = 3.51394 3.98463 3.75666
#
# Compressibility (1/GPa) = 0.52018525
#
# Stress axis : x y z
#
# Youngs Moduli (GPa) = 7.48138 27.30521 16.77907
#
# Poissons Ratio (x) = -1.33767 -1.16001
# Poissons Ratio (y) = -0.36651 -0.45346
# Poissons Ratio (z) = -0.51722 -0.73794
#
# Static dielectric constant tensor:
#      x y z
#    x 1.702710 0.000000 0.000000 
#    y 0.000000 1.735720 0.000000 
#    z 0.000000 0.000000 1.739320 
# 
# From -- ./inp_files/5731.got.cif
#   From: 2010.05.17/outbox.cif.g08.bks.cpg/sg59_3_cif.got.tgz:5731.got - 2010.06.03 14:40:33.
