data_PCOD9451350
_publ_section_title
;
Structure prediction by ZEFSAII (Michael W. Deem and Ramdas Pophale) SiO2 
 PCOD9451350
Probable space group: P M M N
;
_chemical_formula_sum "Si O2"
_cell_formula_units_Z 40
_cell_length_a 30.910863
_cell_length_b 8.381516
_cell_length_c 7.165972
_cell_angle_alpha 90.000000
_cell_angle_beta 90.000000
_cell_angle_gamma 90.000000
_cell_volume 1856.559258
_symmetry_space_group_name_H-M "P M M N"
_symmetry_group_IT_number 59
_space_group.IT_coordinate_system_code '2'
_symmetry_cell_setting 'orthorhombic'
loop_
_space_group_symop_operation_xyz
x,y,z
1/2-x,1/2-y,z
1/2+x,-y,-z
-x,1/2+y,-z
-x,-y,-z
1/2+x,1/2+y,-z
1/2-x,y,z
x,1/2-y,z
loop_
_atom_site_type_symbol
_atom_site_label
_atom_site_fract_x
_atom_site_fract_y
_atom_site_fract_z
Si Si1 0.701305 0.057395 0.105778
Si Si2 0.037545 0.062671 0.229372
Si Si3 0.551060 0.059339 0.349914
Si Si4 0.871398 0.060006 0.815929
Si Si5 0.641088 0.937701 0.398917
O O1 0.750000 0.004864 0.061678
O O2 0.700799 0.250000 0.106195
O O3 0.684992 0.996721 0.305131
O O4 0.664774 0.001992 0.960118
O O5 0.040588 0.250000 0.189364
O O6 0.987462 0.008997 0.209927
O O7 0.044486 0.031622 0.452936
O O8 0.078513 0.977713 0.137233
O O9 0.546406 0.250000 0.381008
O O10 0.600326 0.023451 0.298815
O O11 0.867780 0.250000 0.798102
O O12 0.861535 0.983707 0.615252
O O13 0.636021 0.750000 0.376547
#
# Coordination Sequence:
#
# PCOD9451350 Si02
#       5
#     8   8   8   8   8
#     4  10  23  43  63  82 107 143 189 237 282 333
#     4   9  16  27  48  79 113 148 185 227 274 323
#     4   9  16  28  49  77 111 151 190 224 265 324
#     4  10  20  36  60  86 113 149 190 231 279 335
#     4  11  22  36  58  87 118 150 184 228 282 334
#
# _framework density 21.545231999999999
#
# number of rings (size 3 to 8) (size 9 to 14) (size 15 to 20)
#    0.000    2.200    0.000    6.000    0.000    5.200 
#    0.000    3.000    0.000    0.000    0.000    0.000 
#    0.000    0.000    0.000    0.000    0.000    0.000 
#
# Total GULP energy -223395.026295 kJ/mol
# GULP energy per Si atom -5584.875657 kJ/mol
# Density = 2.149619 g / cm^3
# Si number density = 21.545232 Si / 1000 Ang^3
#
#
#
# Elastic Constant Matrix: (Units=GPa)
#
#
# Indices 1 2 3 4 5 6 
#
# 1 144.6291 13.2416 34.4678 0.0000 0.0000 0.0000
# 2 13.2416 42.0733 -6.9009 0.0000 0.0000 0.0000
# 3 34.4678 -6.9009 57.6722 0.0000 0.0000 0.0000
# 4 0.0000 0.0000 0.0000 2.0719 0.0000 0.0000
# 5 0.0000 0.0000 0.0000 0.0000 37.0435 0.0000
# 6 0.0000 0.0000 0.0000 0.0000 0.0000 26.0827
#
#
#
# Elastic Compliance Matrix: (Units=1/GPa)
#
#
# Indices 1 2 3 4 5 6 
#
# 1 0.008568 -0.003607 -0.005552 0.000000 0.000000 0.000000
# 2 -0.003607 0.025763 0.005238 0.000000 0.000000 0.000000
# 3 -0.005552 0.005238 0.021284 0.000000 0.000000 0.000000
# 4 0.000000 0.000000 0.000000 0.482638 0.000000 0.000000
# 5 0.000000 0.000000 0.000000 0.000000 0.026995 0.000000
# 6 0.000000 0.000000 0.000000 0.000000 0.000000 0.038340
#
#
# Mechanical properties :
#
#
# Convention : Reuss Voigt Hill
#
# Bulk Modulus (GPa) = 20.93227 36.22130 28.57679
# Shear Modulus (GPa) = 7.96999 26.61071 17.29035
#
# Velocity S-wave (km/s) = 1.92541 3.51822 2.83594
# Velocity P-wave (km/s) = 3.83139 5.77513 4.90060
#
# Compressibility (1/GPa) = 0.04777312
#
# Stress axis : x y z
#
# Youngs Moduli (GPa) = 116.71792 38.81608 46.98271
#
# Poissons Ratio (x) = 0.14002 0.26085
# Poissons Ratio (y) = 0.42102 -0.24612
# Poissons Ratio (z) = 0.64803 -0.20334
#
# Static dielectric constant tensor:
#      x y z
#    x 1.822210 0.000000 0.000000 
#    y 0.000000 1.719130 0.000000 
#    z 0.000000 0.000000 1.804120 
# 
# From -- ./inp_files/12780.got.cif
#   From: 2010.05.17/outbox.cif.g08.bks.cpg/sg59_7_cif.got.tgz:12780.got - 2010.06.03 14:40:33.
