data_PCOD9451626
_publ_section_title
;
Structure prediction by ZEFSAII (Michael W. Deem and Ramdas Pophale) SiO2 
 PCOD9451626
Probable space group: P M M N
;
_chemical_formula_sum "Si O2"
_cell_formula_units_Z 56
_cell_length_a 14.078701
_cell_length_b 22.268955
_cell_length_c 9.387222
_cell_angle_alpha 90.000000
_cell_angle_beta 90.000000
_cell_angle_gamma 90.000000
_cell_volume 2943.062682
_symmetry_space_group_name_H-M "P M M N"
_symmetry_group_IT_number 59
_space_group.IT_coordinate_system_code '2'
_symmetry_cell_setting 'orthorhombic'
loop_
_space_group_symop_operation_xyz
x,y,z
1/2-x,1/2-y,z
1/2+x,-y,-z
-x,1/2+y,-z
-x,-y,-z
1/2+x,1/2+y,-z
1/2-x,y,z
x,1/2-y,z
loop_
_atom_site_type_symbol
_atom_site_label
_atom_site_fract_x
_atom_site_fract_y
_atom_site_fract_z
Si Si1 0.005947 0.931676 0.947586
Si Si2 0.636424 0.551708 0.436047
Si Si3 0.636588 0.620163 0.729120
Si Si4 0.362596 0.820027 0.457739
Si Si5 0.863619 0.750000 0.278362
Si Si6 0.015008 0.136798 0.767502
Si Si7 0.365079 0.250000 0.382742
Si Si8 0.862542 0.421938 0.323217
O O1 0.085565 0.926353 0.826622
O O2 0.912249 0.908248 0.866232
O O3 0.020392 0.890759 0.085461
O O4 0.000000 0.000000 0.000000
O O5 0.750000 0.561846 0.410290
O O6 0.615647 0.578387 0.591794
O O7 0.573336 0.587213 0.322234
O O8 0.617005 0.481166 0.417797
O O9 0.750000 0.621781 0.746481
O O10 0.603725 0.688020 0.691026
O O11 0.250000 0.829143 0.428664
O O12 0.377196 0.750000 0.490172
O O13 0.427566 0.839256 0.326025
O O14 0.389256 0.862802 0.589039
O O15 0.750000 0.750000 0.264713
O O16 0.911671 0.691463 0.212182
O O17 0.887702 0.750000 0.448529
O O18 0.250000 0.250000 0.377473
O O19 0.750000 0.420734 0.300035
#
# Coordination Sequence:
#
# PCOD9451626 Si02
#       8
#     8   8   8   8   4   8   4   8
#     4  12  27  41  57  89 132 171 204 249 317 382
#     4  10  20  38  67  97 123 158 209 261 314 371
#     4  10  22  39  63  93 125 165 208 255 308 371
#     4  10  23  45  70  94 119 158 219 277 318 360
#     4  11  22  39  66 102 131 163 203 250 316 382
#     4  12  23  39  64  94 130 168 203 251 315 377
#     4   9  18  37  63  92 123 157 202 252 303 360
#     4  10  23  44  68  91 120 164 215 271 319 367
#
# _framework density 19.027797
#
# number of rings (size 3 to 8) (size 9 to 14) (size 15 to 20)
#    0.000    1.429    3.571    1.286    2.000    4.000 
#    1.286    0.714    0.000    0.000    0.000    0.000 
#    0.000    0.000    0.000    0.000    0.000    0.000 
#
# Total GULP energy -313070.043484 kJ/mol
# GULP energy per Si atom -5590.536491 kJ/mol
# Density = 1.898449 g / cm^3
# Si number density = 19.027797 Si / 1000 Ang^3
#
#
#
# Elastic Constant Matrix: (Units=GPa)
#
#
# Indices 1 2 3 4 5 6 
#
# 1 74.1245 64.2449 35.1609 0.0000 0.0000 0.0000
# 2 64.2449 167.8552 91.9413 0.0000 0.0000 0.0000
# 3 35.1609 91.9413 106.8430 0.0000 0.0000 0.0000
# 4 0.0000 0.0000 0.0000 32.1151 0.0000 0.0000
# 5 0.0000 0.0000 0.0000 0.0000 18.3792 0.0000
# 6 0.0000 0.0000 0.0000 0.0000 0.0000 20.9673
#
#
#
# Elastic Compliance Matrix: (Units=1/GPa)
#
#
# Indices 1 2 3 4 5 6 
#
# 1 0.020188 -0.007732 0.000010 0.000000 0.000000 0.000000
# 2 -0.007732 0.014231 -0.009701 0.000000 0.000000 0.000000
# 3 0.000010 -0.009701 0.017704 0.000000 0.000000 0.000000
# 4 0.000000 0.000000 0.000000 0.031138 0.000000 0.000000
# 5 0.000000 0.000000 0.000000 0.000000 0.054409 0.000000
# 6 0.000000 0.000000 0.000000 0.000000 0.000000 0.047693
#
#
# Mechanical properties :
#
#
# Convention : Reuss Voigt Hill
#
# Bulk Modulus (GPa) = 57.88322 81.27965 69.58144
# Shear Modulus (GPa) = 22.12693 24.79070 23.45882
#
# Velocity S-wave (km/s) = 3.41379 3.61344 3.51504
# Velocity P-wave (km/s) = 6.78418 7.76004 7.28846
#
# Compressibility (1/GPa) = 0.01727616
#
# Stress axis : x y z
#
# Youngs Moduli (GPa) = 49.53532 70.27003 56.48292
#
# Poissons Ratio (x) = 0.54335 -0.00058
# Poissons Ratio (y) = 0.38302 0.54796
# Poissons Ratio (z) = -0.00051 0.68172
#
# Static dielectric constant tensor:
#      x y z
#    x 1.692310 0.000000 0.000000 
#    y 0.000000 1.667330 0.000000 
#    z 0.000000 0.000000 1.612010 
# 
# From -- ./inp_files/9407.got.cif
#   From: 2010.05.17/outbox.cif.g08.bks.cpg/sg59_5_cif.got.tgz:9407.got - 2010.06.03 14:40:33.
