data_PCOD9451386
_publ_section_title
;
Structure prediction by ZEFSAII (Michael W. Deem and Ramdas Pophale) SiO2 
 PCOD9451386
Probable space group: P M M N
;
_chemical_formula_sum "Si O2"
_cell_formula_units_Z 48
_cell_length_a 13.263687
_cell_length_b 16.653452
_cell_length_c 9.975756
_cell_angle_alpha 90.000000
_cell_angle_beta 90.000000
_cell_angle_gamma 90.000000
_cell_volume 2203.506584
_symmetry_space_group_name_H-M "P M M N"
_symmetry_group_IT_number 59
_space_group.IT_coordinate_system_code '2'
_symmetry_cell_setting 'orthorhombic'
loop_
_space_group_symop_operation_xyz
x,y,z
1/2-x,1/2-y,z
1/2+x,-y,-z
-x,1/2+y,-z
-x,-y,-z
1/2+x,1/2+y,-z
1/2-x,y,z
x,1/2-y,z
loop_
_atom_site_type_symbol
_atom_site_label
_atom_site_fract_x
_atom_site_fract_y
_atom_site_fract_z
Si Si1 0.914571 0.655141 0.964925
Si Si2 0.641346 0.342142 0.969282
Si Si3 0.443850 0.438819 0.284863
Si Si4 0.636219 0.950786 0.227153
Si Si5 0.558051 0.839715 0.453660
Si Si6 0.360441 0.602689 0.325294
O O1 0.885587 0.750000 0.965538
O O2 0.883679 0.602195 0.837245
O O3 0.883885 0.608943 0.100772
O O4 0.036937 0.651724 0.954189
O O5 0.750000 0.356882 0.036849
O O6 0.643635 0.250000 0.920063
O O7 0.635373 0.395106 0.836400
O O8 0.547532 0.482771 0.236820
O O9 0.459541 0.372203 0.397572
O O10 0.383322 0.510488 0.357820
O O11 0.750000 0.982381 0.216233
O O12 0.624650 0.897962 0.361582
O O13 0.598416 0.750000 0.453758
O O14 0.449106 0.843772 0.382104
O O15 0.250000 0.628183 0.368932
#
# Coordination Sequence:
#
# PCOD9451386 Si02
#       6
#     8   8   8   8   8   8
#     4  11  22  40  62  90 124 160 204 251 302 360
#     4   9  17  31  56  87 115 147 192 247 299 346
#     4  11  24  40  60  92 126 160 197 248 314 363
#     4  11  24  42  66  90 120 164 211 252 293 357
#     4  11  23  41  63  90 123 159 201 250 305 363
#     4  10  20  36  61  87 115 152 201 250 297 355
#
# _framework density 21.783460999999999
#
# number of rings (size 3 to 8) (size 9 to 14) (size 15 to 20)
#    0.000    1.500    3.333    4.000    0.000    6.333 
#    0.000    0.000    0.000    6.000    0.000    0.000 
#    0.000    0.000    0.000    0.000    0.000    0.000 
#
# Total GULP energy -267918.295926 kJ/mol
# GULP energy per Si atom -5581.631165 kJ/mol
# Density = 2.173388 g / cm^3
# Si number density = 21.783461 Si / 1000 Ang^3
#
#
#
# Elastic Constant Matrix: (Units=GPa)
#
#
# Indices 1 2 3 4 5 6 
#
# 1 72.9370 -9.0351 -1.6427 0.0000 0.0000 0.0000
# 2 -9.0351 87.8748 53.7495 0.0000 0.0000 0.0000
# 3 -1.6427 53.7495 74.9760 0.0000 0.0000 0.0000
# 4 0.0000 0.0000 0.0000 86.7257 0.0000 0.0000
# 5 0.0000 0.0000 0.0000 0.0000 -2.0222 0.0000
# 6 0.0000 0.0000 0.0000 0.0000 0.0000 2.5364
#
#
#
# Elastic Compliance Matrix: (Units=1/GPa)
#
#
# Indices 1 2 3 4 5 6 
#
# 1 0.013957 0.002223 -0.001288 0.000000 0.000000 0.000000
# 2 0.002223 0.020620 -0.014734 0.000000 0.000000 0.000000
# 3 -0.001288 -0.014734 0.023872 0.000000 0.000000 0.000000
# 4 0.000000 0.000000 0.000000 0.011531 0.000000 0.000000
# 5 0.000000 0.000000 0.000000 0.000000 -0.494522 0.000000
# 6 0.000000 0.000000 0.000000 0.000000 0.000000 0.394262
#
#
# Mechanical properties :
#
#
# Convention : Reuss Voigt Hill
#
# Bulk Modulus (GPa) = 32.41338 35.77012 34.09175
# Shear Modulus (GPa) = 657.83141 30.29572 344.06357
#
# Velocity S-wave (km/s) = 17.39662 3.73334 12.58134
# Velocity P-wave (km/s) = 20.45569 5.91948 15.05781
#
# Compressibility (1/GPa) = 0.03085146
#
# Stress axis : x y z
#
# Youngs Moduli (GPa) = 71.64971 48.49549 41.89014
#
# Poissons Ratio (x) = -0.10778 0.05393
# Poissons Ratio (y) = -0.15924 0.61720
# Poissons Ratio (z) = 0.09225 0.71453
#
# Static dielectric constant tensor:
#      x y z
#    x 1.832430 0.000000 0.000000 
#    y 0.000000 1.823250 0.000000 
#    z 0.000000 0.000000 1.782900 
# 
# From -- ./inp_files/8981.got.cif
#   From: 2010.05.17/outbox.cif.g08.bks.cpg/sg59_5_cif.got.tgz:8981.got - 2010.06.03 14:40:33.
