data_PCOD9451982
_publ_section_title
;
Structure prediction by ZEFSAII (Michael W. Deem and Ramdas Pophale) SiO2 
 PCOD9451982
Probable space group: P M M N
;
_chemical_formula_sum "Si O2"
_cell_formula_units_Z 48
_cell_length_a 10.164631
_cell_length_b 7.780872
_cell_length_c 29.744318
_cell_angle_alpha 90.000000
_cell_angle_beta 90.000000
_cell_angle_gamma 90.000000
_cell_volume 2352.468971
_symmetry_space_group_name_H-M "P M M N"
_symmetry_group_IT_number 59
_space_group.IT_coordinate_system_code '2'
_symmetry_cell_setting 'orthorhombic'
loop_
_space_group_symop_operation_xyz
x,y,z
1/2-x,1/2-y,z
1/2+x,-y,-z
-x,1/2+y,-z
-x,-y,-z
1/2+x,1/2+y,-z
1/2-x,y,z
x,1/2-y,z
loop_
_atom_site_type_symbol
_atom_site_label
_atom_site_fract_x
_atom_site_fract_y
_atom_site_fract_z
Si Si1 0.597477 0.957178 0.541199
Si Si2 0.250000 0.956419 0.043098
Si Si3 0.396696 0.953450 0.206459
Si Si4 0.899654 0.043677 0.382606
Si Si5 0.602178 0.542426 0.279142
Si Si6 0.512647 0.547399 0.892100
Si Si7 0.750000 0.461092 0.060285
O O1 0.750000 0.019797 0.537239
O O2 0.605938 0.750000 0.543696
O O3 0.515701 0.020192 0.584890
O O4 0.500000 0.000000 0.500000
O O5 0.250000 0.750000 0.042961
O O6 0.375591 0.017496 0.070917
O O7 0.250000 0.016847 0.991607
O O8 0.250000 0.027989 0.209528
O O9 0.387175 0.750000 0.215443
O O10 0.497726 0.024835 0.243157
O O11 0.447773 0.971464 0.155734
O O12 0.750000 0.979494 0.393103
O O13 0.895047 0.250000 0.387640
O O14 0.927937 0.003320 0.330649
O O15 0.750000 0.479666 0.269231
O O16 0.604755 0.750000 0.276277
O O17 0.498226 0.750000 0.884694
O O18 0.378058 0.479775 0.913100
O O19 0.750000 0.250000 0.059514
#
# Coordination Sequence:
#
# PCOD9451982 Si02
#       7
#     8   4   8   8   8   8   4
#     4  10  21  36  55  81 113 150 192 237 283 333
#     4  11  21  39  61  81 111 147 181 221 274 329
#     4  10  21  37  55  77 109 144 179 221 274 329
#     4   9  18  34  54  77 108 144 181 226 281 334
#     4   9  19  35  55  79 107 141 183 229 274 326
#     4  11  22  38  58  83 112 143 182 227 273 325
#     4   9  22  39  57  83 113 143 179 227 274 323
#
# _framework density 20.404095000000002
#
# number of rings (size 3 to 8) (size 9 to 14) (size 15 to 20)
#    0.000    2.167    0.833    1.750    1.167    3.000 
#    0.000    5.417    0.000    0.000    0.000    0.000 
#    0.000    0.000    0.000    0.000    0.000    0.000 
#
# Total GULP energy -267957.047332 kJ/mol
# GULP energy per Si atom -5582.438486 kJ/mol
# Density = 2.035765 g / cm^3
# Si number density = 20.404095 Si / 1000 Ang^3
#
#
#
# Elastic Constant Matrix: (Units=GPa)
#
#
# Indices 1 2 3 4 5 6 
#
# 1 224.7194 1.0317 136.7795 0.0000 0.0000 0.0000
# 2 1.0317 24.2015 -3.6790 0.0000 0.0000 0.0000
# 3 136.7795 -3.6790 156.6685 0.0000 0.0000 0.0000
# 4 0.0000 0.0000 0.0000 23.0971 0.0000 0.0000
# 5 0.0000 0.0000 0.0000 0.0000 42.5423 0.0000
# 6 0.0000 0.0000 0.0000 0.0000 0.0000 20.5341
#
#
#
# Elastic Compliance Matrix: (Units=1/GPa)
#
#
# Indices 1 2 3 4 5 6 
#
# 1 0.009564 -0.001683 -0.008390 0.000000 0.000000 0.000000
# 2 -0.001683 0.041764 0.002450 0.000000 0.000000 0.000000
# 3 -0.008390 0.002450 0.013765 0.000000 0.000000 0.000000
# 4 0.000000 0.000000 0.000000 0.043296 0.000000 0.000000
# 5 0.000000 0.000000 0.000000 0.000000 0.023506 0.000000
# 6 0.000000 0.000000 0.000000 0.000000 0.000000 0.048699
#
#
# Mechanical properties :
#
#
# Convention : Reuss Voigt Hill
#
# Bulk Modulus (GPa) = 20.06091 74.87265 47.46678
# Shear Modulus (GPa) = 23.53440 35.33184 29.43312
#
# Velocity S-wave (km/s) = 3.39988 4.16577 3.80216
# Velocity P-wave (km/s) = 5.02647 7.74033 6.52603
#
# Compressibility (1/GPa) = 0.04984818
#
# Stress axis : x y z
#
# Youngs Moduli (GPa) = 104.55714 23.94406 72.64851
#
# Poissons Ratio (x) = 0.04030 0.60949
# Poissons Ratio (y) = 0.17597 -0.17800
# Poissons Ratio (z) = 0.87718 -0.05867
#
# Static dielectric constant tensor:
#      x y z
#    x 1.706630 0.000000 0.000000 
#    y 0.000000 1.757190 0.000000 
#    z 0.000000 0.000000 1.681670 
# 
# From -- ./inp_files/32995.got.cif
#   From: 2010.05.17/outbox.cif.g08.bks.cpg/sg59_17_cif.got.tgz:32995.got - 2010.06.03 14:40:33.
