data_PCOD9451757
_publ_section_title
;
Structure prediction by ZEFSAII (Michael W. Deem and Ramdas Pophale) SiO2 
 PCOD9451757
Probable space group: P M M N
;
_chemical_formula_sum "Si O2"
_cell_formula_units_Z 64
_cell_length_a 25.397728
_cell_length_b 8.660484
_cell_length_c 15.425783
_cell_angle_alpha 90.000000
_cell_angle_beta 90.000000
_cell_angle_gamma 90.000000
_cell_volume 3393.003043
_symmetry_space_group_name_H-M "P M M N"
_symmetry_group_IT_number 59
_space_group.IT_coordinate_system_code '2'
_symmetry_cell_setting 'orthorhombic'
loop_
_space_group_symop_operation_xyz
x,y,z
1/2-x,1/2-y,z
1/2+x,-y,-z
-x,1/2+y,-z
-x,-y,-z
1/2+x,1/2+y,-z
1/2-x,y,z
x,1/2-y,z
loop_
_atom_site_type_symbol
_atom_site_label
_atom_site_fract_x
_atom_site_fract_y
_atom_site_fract_z
Si Si1 0.462909 0.925861 0.929154
Si Si2 0.616965 0.935136 0.294159
Si Si3 0.609511 0.565544 0.786343
Si Si4 0.353730 0.574925 0.030962
Si Si5 0.006315 0.430570 0.754883
Si Si6 0.188798 0.565466 0.554528
Si Si7 0.308878 0.937187 0.856831
Si Si8 0.189109 0.435981 0.364987
O O1 0.478475 0.750000 0.904769
O O2 0.467848 0.038190 0.848444
O O3 0.406576 0.917786 0.973476
O O4 0.500000 0.000000 0.000000
O O5 0.616165 0.750000 0.286884
O O6 0.555583 0.987154 0.303506
O O7 0.650781 0.987431 0.376321
O O8 0.647297 0.001243 0.209539
O O9 0.608620 0.750000 0.789616
O O10 0.630543 0.507059 0.879684
O O11 0.550846 0.508848 0.761157
O O12 0.650141 0.515584 0.711520
O O13 0.336879 0.750000 0.052781
O O14 0.314978 0.508209 0.957113
O O15 0.997499 0.250000 0.738988
O O16 0.250000 0.521834 0.570782
O O17 0.184820 0.750000 0.562206
O O18 0.176163 0.513103 0.456810
O O19 0.250000 0.976182 0.825384
O O20 0.313516 0.750000 0.858724
O O21 0.250000 0.473208 0.343849
O O22 0.185439 0.250000 0.374551
#
# Coordination Sequence:
#
# PCOD9451757 Si02
#       8
#     8   8   8   8   8   8   8   8
#     4  11  20  32  53  77 105 144 190 238 282 325
#     4  11  23  37  57  84 115 151 189 231 283 339
#     4  11  23  37  59  87 114 149 191 235 284 336
#     4  10  21  35  52  77 111 150 189 233 281 330
#     4  11  23  37  54  80 115 153 193 235 279 333
#     4  10  21  38  63  92 116 144 185 231 281 338
#     4  10  21  37  55  78 112 152 193 237 285 337
#     4   9  20  41  65  88 115 145 182 232 286 339
#
# _framework density 18.862345999999999
#
# number of rings (size 3 to 8) (size 9 to 14) (size 15 to 20)
#    0.000    1.625    2.500    2.250    0.000    6.500 
#    0.000    0.625    0.000    0.000    0.000    0.000 
#    0.000    0.000    0.000    0.000    0.000    0.000 
#
# Total GULP energy -356886.359694 kJ/mol
# GULP energy per Si atom -5576.349370 kJ/mol
# Density = 1.881941 g / cm^3
# Si number density = 18.862346 Si / 1000 Ang^3
#
#
#
# Elastic Constant Matrix: (Units=GPa)
#
#
# Indices 1 2 3 4 5 6 
#
# 1 101.1752 26.7638 68.5427 0.0000 0.0000 0.0000
# 2 26.7638 30.6825 24.9111 0.0000 0.0000 0.0000
# 3 68.5427 24.9111 109.4214 0.0000 0.0000 0.0000
# 4 0.0000 0.0000 0.0000 23.6023 0.0000 0.0000
# 5 0.0000 0.0000 0.0000 0.0000 35.5970 0.0000
# 6 0.0000 0.0000 0.0000 0.0000 0.0000 16.7063
#
#
#
# Elastic Compliance Matrix: (Units=1/GPa)
#
#
# Indices 1 2 3 4 5 6 
#
# 1 0.018776 -0.008377 -0.009854 0.000000 0.000000 0.000000
# 2 -0.008377 0.043720 -0.004706 0.000000 0.000000 0.000000
# 3 -0.009854 -0.004706 0.016383 0.000000 0.000000 0.000000
# 4 0.000000 0.000000 0.000000 0.042369 0.000000 0.000000
# 5 0.000000 0.000000 0.000000 0.000000 0.028092 0.000000
# 6 0.000000 0.000000 0.000000 0.000000 0.000000 0.059858
#
#
# Mechanical properties :
#
#
# Convention : Reuss Voigt Hill
#
# Bulk Modulus (GPa) = 30.29905 53.52382 41.91144
# Shear Modulus (GPa) = 18.79187 23.25189 21.02188
#
# Velocity S-wave (km/s) = 3.15979 3.51481 3.34202
# Velocity P-wave (km/s) = 5.42314 6.70145 6.09590
#
# Compressibility (1/GPa) = 0.03300433
#
# Stress axis : x y z
#
# Youngs Moduli (GPa) = 53.26050 22.87297 61.03875
#
# Poissons Ratio (x) = 0.19161 0.60148
# Poissons Ratio (y) = 0.44617 0.28724
# Poissons Ratio (z) = 0.52483 0.10764
#
# Static dielectric constant tensor:
#      x y z
#    x 1.706580 0.000000 0.000000 
#    y 0.000000 1.652870 0.000000 
#    z 0.000000 0.000000 1.644240 
# 
# From -- ./inp_files/24701.got.cif
#   From: 2010.05.17/outbox.cif.g08.bks.cpg/sg59_13_cif.got.tgz:24701.got - 2010.06.03 14:40:33.
