data_PCOD9451802
_publ_section_title
;
Structure prediction by ZEFSAII (Michael W. Deem and Ramdas Pophale) SiO2 
 PCOD9451802
Probable space group: P M M N
;
_chemical_formula_sum "Si O2"
_cell_formula_units_Z 40
_cell_length_a 7.742638
_cell_length_b 16.164264
_cell_length_c 14.980041
_cell_angle_alpha 90.000000
_cell_angle_beta 90.000000
_cell_angle_gamma 90.000000
_cell_volume 1874.812721
_symmetry_space_group_name_H-M "P M M N"
_symmetry_group_IT_number 59
_space_group.IT_coordinate_system_code '2'
_symmetry_cell_setting 'orthorhombic'
loop_
_space_group_symop_operation_xyz
x,y,z
1/2-x,1/2-y,z
1/2+x,-y,-z
-x,1/2+y,-z
-x,-y,-z
1/2+x,1/2+y,-z
1/2-x,y,z
x,1/2-y,z
loop_
_atom_site_type_symbol
_atom_site_label
_atom_site_fract_x
_atom_site_fract_y
_atom_site_fract_z
Si Si1 0.542444 0.844280 0.222975
Si Si2 0.962530 0.750000 0.722728
Si Si3 0.038622 0.250000 0.070350
Si Si4 0.451015 0.099818 0.397157
Si Si5 0.957644 0.588792 0.040037
Si Si6 0.547954 0.085999 0.588823
O O1 0.750000 0.851459 0.229381
O O2 0.501907 0.750000 0.198182
O O3 0.479309 0.901206 0.141877
O O4 0.471669 0.865296 0.319811
O O5 0.750000 0.750000 0.719827
O O6 0.013801 0.750000 0.826048
O O7 0.023292 0.831330 0.669103
O O8 0.250000 0.250000 0.069005
O O9 0.981342 0.166626 0.019434
O O10 0.250000 0.091118 0.372764
O O11 0.463789 0.125374 0.501028
O O12 0.525402 0.006779 0.394990
O O13 0.750000 0.596015 0.043105
O O14 0.000000 0.500000 0.000000
O O15 0.750000 0.078641 0.566964
#
# Coordination Sequence:
#
# PCOD9451802 Si02
#       6
#     8   4   4   8   8   8
#     4  10  21  38  58  81 110 149 190 226 272 336
#     4   9  18  32  56  81 102 138 189 225 256 317
#     4   9  18  36  60  83 110 146 191 233 270 333
#     4   9  19  36  55  79 109 146 185 222 269 330
#     4  10  21  38  61  86 113 148 188 233 284 333
#     4  10  21  35  55  83 113 143 180 231 282 321
#
# _framework density 21.335464000000002
#
# number of rings (size 3 to 8) (size 9 to 14) (size 15 to 20)
#    0.000    2.400    1.000    0.600    4.200    2.000 
#    0.000    0.500    0.000    1.200    0.000    0.000 
#    0.000    0.000    0.000    0.000    0.000    0.000 
#
# Total GULP energy -223301.045788 kJ/mol
# GULP energy per Si atom -5582.526145 kJ/mol
# Density = 2.128690 g / cm^3
# Si number density = 21.335464 Si / 1000 Ang^3
#
#
#
# Elastic Constant Matrix: (Units=GPa)
#
#
# Indices 1 2 3 4 5 6 
#
# 1 28.6554 5.6840 -3.6539 0.0000 0.0000 0.0000
# 2 5.6840 61.4888 19.0709 0.0000 0.0000 0.0000
# 3 -3.6539 19.0709 92.4997 0.0000 0.0000 0.0000
# 4 0.0000 0.0000 0.0000 39.8523 0.0000 0.0000
# 5 0.0000 0.0000 0.0000 0.0000 10.4327 0.0000
# 6 0.0000 0.0000 0.0000 0.0000 0.0000 16.2261
#
#
#
# Elastic Compliance Matrix: (Units=1/GPa)
#
#
# Indices 1 2 3 4 5 6 
#
# 1 0.035983 -0.004024 0.002251 0.000000 0.000000 0.000000
# 2 -0.004024 0.017824 -0.003834 0.000000 0.000000 0.000000
# 3 0.002251 -0.003834 0.011690 0.000000 0.000000 0.000000
# 4 0.000000 0.000000 0.000000 0.025093 0.000000 0.000000
# 5 0.000000 0.000000 0.000000 0.000000 0.095852 0.000000
# 6 0.000000 0.000000 0.000000 0.000000 0.000000 0.061629
#
#
# Mechanical properties :
#
#
# Convention : Reuss Voigt Hill
#
# Bulk Modulus (GPa) = 18.42202 24.98287 21.70245
# Shear Modulus (GPa) = 18.02582 24.07174 21.04878
#
# Velocity S-wave (km/s) = 2.90983 3.36259 3.14437
# Velocity P-wave (km/s) = 4.46572 5.17793 4.83496
#
# Compressibility (1/GPa) = 0.05428285
#
# Stress axis : x y z
#
# Youngs Moduli (GPa) = 27.79114 56.10343 85.54170
#
# Poissons Ratio (x) = 0.22578 -0.19256
# Poissons Ratio (y) = 0.11184 0.32795
# Poissons Ratio (z) = -0.06256 0.21509
#
# Static dielectric constant tensor:
#      x y z
#    x 1.805980 0.000000 0.000000 
#    y 0.000000 1.777040 0.000000 
#    z 0.000000 0.000000 1.758860 
# 
# From -- ./inp_files/19950.got.cif
#   From: 2010.05.17/outbox.cif.g08.bks.cpg/sg59_10_cif.got.tgz:19950.got - 2010.06.03 14:40:33.
