data_PCOD9451783
_publ_section_title
;
Structure prediction by ZEFSAII (Michael W. Deem and Ramdas Pophale) SiO2 
 PCOD9451783
Probable space group: P M M N
;
_chemical_formula_sum "Si O2"
_cell_formula_units_Z 48
_cell_length_a 9.519950
_cell_length_b 7.783079
_cell_length_c 35.211638
_cell_angle_alpha 90.000000
_cell_angle_beta 90.000000
_cell_angle_gamma 90.000000
_cell_volume 2608.989519
_symmetry_space_group_name_H-M "P M M N"
_symmetry_group_IT_number 59
_space_group.IT_coordinate_system_code '2'
_symmetry_cell_setting 'orthorhombic'
loop_
_space_group_symop_operation_xyz
x,y,z
1/2-x,1/2-y,z
1/2+x,-y,-z
-x,1/2+y,-z
-x,-y,-z
1/2+x,1/2+y,-z
1/2-x,y,z
x,1/2-y,z
loop_
_atom_site_type_symbol
_atom_site_label
_atom_site_fract_x
_atom_site_fract_y
_atom_site_fract_z
Si Si1 0.590266 0.043756 0.963002
Si Si2 0.590608 0.043508 0.463526
Si Si3 0.080875 0.250000 0.250034
Si Si4 0.416575 0.956697 0.620142
Si Si5 0.584114 0.442749 0.693976
Si Si6 0.583172 0.250000 0.171492
Si Si7 0.416464 0.453235 0.888682
O O1 0.750000 0.976428 0.964988
O O2 0.598054 0.250000 0.961300
O O3 0.508145 0.991057 0.924931
O O4 0.500000 0.000000 0.000000
O O5 0.750000 0.979401 0.468363
O O6 0.596907 0.250000 0.460975
O O7 0.537296 0.984675 0.422074
O O8 0.500000 0.000000 0.500000
O O9 0.250000 0.250000 0.244954
O O10 0.041621 0.415630 0.275282
O O11 0.004598 0.250000 0.209908
O O12 0.250000 0.992510 0.623114
O O13 0.434035 0.750000 0.622468
O O14 0.500478 0.035386 0.654898
O O15 0.750000 0.468142 0.686219
O O16 0.563916 0.250000 0.708723
O O17 0.750000 0.250000 0.179832
O O18 0.553362 0.419378 0.146136
O O19 0.250000 0.469702 0.897715
O O20 0.442649 0.250000 0.880618
#
# Coordination Sequence:
#
# PCOD9451783 Si02
#       7
#     8   8   4   8   8   4   8
#     4  10  21  35  53  80 113 149 190 236 284 333
#     4   9  19  34  50  72 104 141 181 224 268 318
#     4  10  22  40  58  82 116 146 178 228 282 334
#     4   9  18  34  55  77 105 142 182 227 277 327
#     4  10  21  37  58  84 112 144 183 225 274 333
#     4  10  22  38  60  86 110 146 190 230 280 340
#     4   9  19  37  57  79 112 148 185 234 284 330
#
# _framework density 18.397929000000001
#
# number of rings (size 3 to 8) (size 9 to 14) (size 15 to 20)
#    0.000    2.500    0.833    1.500    1.167    5.000 
#    0.000    5.000    0.000    0.000    0.000    0.000 
#    0.000    0.000    0.000    0.000    0.000    0.000 
#
# Total GULP energy -267789.847847 kJ/mol
# GULP energy per Si atom -5578.955163 kJ/mol
# Density = 1.835605 g / cm^3
# Si number density = 18.397929 Si / 1000 Ang^3
#
#
#
# Elastic Constant Matrix: (Units=GPa)
#
#
# Indices 1 2 3 4 5 6 
#
# 1 66.5449 43.5691 84.1256 0.0000 0.0000 0.0000
# 2 43.5691 77.4285 66.3461 0.0000 0.0000 0.0000
# 3 84.1256 66.3461 179.4676 0.0000 0.0000 0.0000
# 4 0.0000 0.0000 0.0000 21.5005 0.0000 0.0000
# 5 0.0000 0.0000 0.0000 0.0000 41.8080 0.0000
# 6 0.0000 0.0000 0.0000 0.0000 0.0000 19.7198
#
#
#
# Elastic Compliance Matrix: (Units=1/GPa)
#
#
# Indices 1 2 3 4 5 6 
#
# 1 0.041370 -0.009751 -0.015788 0.000000 0.000000 0.000000
# 2 -0.009751 0.021202 -0.003267 0.000000 0.000000 0.000000
# 3 -0.015788 -0.003267 0.014180 0.000000 0.000000 0.000000
# 4 0.000000 0.000000 0.000000 0.046511 0.000000 0.000000
# 5 0.000000 0.000000 0.000000 0.000000 0.023919 0.000000
# 6 0.000000 0.000000 0.000000 0.000000 0.000000 0.050710
#
#
# Mechanical properties :
#
#
# Convention : Reuss Voigt Hill
#
# Bulk Modulus (GPa) = 52.24492 79.05806 65.65149
# Shear Modulus (GPa) = 19.09244 25.23233 22.16238
#
# Velocity S-wave (km/s) = 3.22491 3.70736 3.47452
# Velocity P-wave (km/s) = 6.50581 7.83521 7.20125
#
# Compressibility (1/GPa) = 0.01914062
#
# Stress axis : x y z
#
# Youngs Moduli (GPa) = 24.17185 47.16637 70.52104
#
# Poissons Ratio (x) = 0.45994 1.11335
# Poissons Ratio (y) = 0.23571 0.23039
# Poissons Ratio (z) = 0.38161 0.15409
#
# Static dielectric constant tensor:
#      x y z
#    x 1.625480 0.000000 0.000000 
#    y 0.000000 1.738050 0.000000 
#    z 0.000000 0.000000 1.599280 
# 
# From -- ./inp_files/32942.got.cif
#   From: 2010.05.17/outbox.cif.g08.bks.cpg/sg59_17_cif.got.tgz:32942.got - 2010.06.03 14:40:33.
