data_PCOD9451825
_publ_section_title
;
Structure prediction by ZEFSAII (Michael W. Deem and Ramdas Pophale) SiO2 
 PCOD9451825
Probable space group: P M M N
;
_chemical_formula_sum "Si O2"
_cell_formula_units_Z 56
_cell_length_a 7.647200
_cell_length_b 15.386125
_cell_length_c 22.709797
_cell_angle_alpha 90.000000
_cell_angle_beta 90.000000
_cell_angle_gamma 90.000000
_cell_volume 2672.052317
_symmetry_space_group_name_H-M "P M M N"
_symmetry_group_IT_number 59
_space_group.IT_coordinate_system_code '2'
_symmetry_cell_setting 'orthorhombic'
loop_
_space_group_symop_operation_xyz
x,y,z
1/2-x,1/2-y,z
1/2+x,-y,-z
-x,1/2+y,-z
-x,-y,-z
1/2+x,1/2+y,-z
1/2-x,y,z
x,1/2-y,z
loop_
_atom_site_type_symbol
_atom_site_label
_atom_site_fract_x
_atom_site_fract_y
_atom_site_fract_z
Si Si1 0.043778 0.499134 0.283599
Si Si2 0.464840 0.649524 0.368575
Si Si3 0.461476 0.650297 0.624959
Si Si4 0.539354 0.151440 0.060954
Si Si5 0.542532 0.495146 0.147785
Si Si6 0.548078 0.143998 0.502611
Si Si7 0.040296 0.348010 0.928372
O O1 0.250000 0.511481 0.279391
O O2 0.973581 0.583026 0.318933
O O3 0.009473 0.414769 0.323401
O O4 0.979318 0.489455 0.217344
O O5 0.250000 0.648622 0.370419
O O6 0.515378 0.750000 0.358594
O O7 0.527525 0.620346 0.433791
O O8 0.250000 0.652670 0.620917
O O9 0.519725 0.750000 0.634951
O O10 0.529076 0.618883 0.560660
O O11 0.750000 0.155354 0.065109
O O12 0.472211 0.250000 0.067374
O O13 0.472117 0.086560 0.110870
O O14 0.496128 0.121130 0.994888
O O15 0.750000 0.496027 0.136449
O O16 0.471616 0.583940 0.119300
O O17 0.750000 0.114463 0.502941
O O18 0.549577 0.250000 0.502011
O O19 0.250000 0.342576 0.922132
O O20 0.969612 0.250000 0.922343
#
# Coordination Sequence:
#
# PCOD9451825 Si02
#       7
#     8   8   8   8   8   8   8
#     4  11  23  34  48  75 105 135 173 213 254 296
#     4   8  15  30  50  72 101 133 166 209 258 306
#     4   9  18  34  55  75  97 130 170 209 253 310
#     4   9  18  33  54  78  99 122 158 202 245 291
#     4  10  21  36  51  69 100 139 172 201 237 291
#     4   7  11  24  49  75  94 121 165 209 250 303
#     4   9  18  33  54  79 103 127 158 200 251 298
#
# _framework density 20.957673
#
# number of rings (size 3 to 8) (size 9 to 14) (size 15 to 20)
#    0.000    3.000    0.000    2.571    0.000    3.143 
#    0.000    1.429    0.000    2.143    0.000    4.000 
#    0.000    0.000    0.000    0.000    0.000    0.000 
#
# Total GULP energy -312363.916291 kJ/mol
# GULP energy per Si atom -5577.927077 kJ/mol
# Density = 2.090997 g / cm^3
# Si number density = 20.957673 Si / 1000 Ang^3
#
#
#
# Elastic Constant Matrix: (Units=GPa)
#
#
# Indices 1 2 3 4 5 6 
#
# 1 36.1944 -6.2333 -18.1127 0.0000 0.0000 0.0000
# 2 -6.2333 233.8981 308.1220 0.0000 0.0000 0.0000
# 3 -18.1127 308.1220 531.5158 0.0000 0.0000 0.0000
# 4 0.0000 0.0000 0.0000 856.4504 0.0000 0.0000
# 5 0.0000 0.0000 0.0000 0.0000 74.9989 0.0000
# 6 0.0000 0.0000 0.0000 0.0000 0.0000 1.0913
#
#
#
# Elastic Compliance Matrix: (Units=1/GPa)
#
#
# Indices 1 2 3 4 5 6 
#
# 1 0.028371 -0.002190 0.002236 0.000000 0.000000 0.000000
# 2 -0.002190 0.018259 -0.010660 0.000000 0.000000 0.000000
# 3 0.002236 -0.010660 0.008137 0.000000 0.000000 0.000000
# 4 0.000000 0.000000 0.000000 0.001168 0.000000 0.000000
# 5 0.000000 0.000000 0.000000 0.000000 0.013334 0.000000
# 6 0.000000 0.000000 0.000000 0.000000 0.000000 0.916297
#
#
# Mechanical properties :
#
#
# Convention : Reuss Voigt Hill
#
# Bulk Modulus (GPa) = 29.81469 152.12892 90.97180
# Shear Modulus (GPa) = 4.91173 221.03026 112.97100
#
# Velocity S-wave (km/s) = 1.53256 10.28076 7.34992
# Velocity P-wave (km/s) = 4.16997 14.61751 10.74849
#
# Compressibility (1/GPa) = 0.03354052
#
# Stress axis : x y z
#
# Youngs Moduli (GPa) = 35.24779 54.76673 122.89496
#
# Poissons Ratio (x) = 0.11993 -0.27482
# Poissons Ratio (y) = 0.07719 1.31001
# Poissons Ratio (z) = -0.07882 0.58379
#
# Static dielectric constant tensor:
#      x y z
#    x 1.778000 0.000000 0.000000 
#    y 0.000000 1.768100 0.000000 
#    z 0.000000 0.000000 1.747200 
# 
# From -- ./inp_files/29157.got.cif
#   From: 2010.05.17/outbox.cif.g08.bks.cpg/sg59_15_cif.got.tgz:29157.got - 2010.06.03 14:40:33.
