data_PCOD9451146
_publ_section_title
;
Structure prediction by ZEFSAII (Michael W. Deem and Ramdas Pophale) SiO2 
 PCOD9451146
Probable space group: P M M N
;
_chemical_formula_sum "Si O2"
_cell_formula_units_Z 64
_cell_length_a 15.933779
_cell_length_b 16.335423
_cell_length_c 11.762546
_cell_angle_alpha 90.000000
_cell_angle_beta 90.000000
_cell_angle_gamma 90.000000
_cell_volume 3061.614520
_symmetry_space_group_name_H-M "P M M N"
_symmetry_group_IT_number 59
_space_group.IT_coordinate_system_code '2'
_symmetry_cell_setting 'orthorhombic'
loop_
_space_group_symop_operation_xyz
x,y,z
1/2-x,1/2-y,z
1/2+x,-y,-z
-x,1/2+y,-z
-x,-y,-z
1/2+x,1/2+y,-z
1/2-x,y,z
x,1/2-y,z
loop_
_atom_site_type_symbol
_atom_site_label
_atom_site_fract_x
_atom_site_fract_y
_atom_site_fract_z
Si Si1 0.901894 0.660534 0.764151
Si Si2 0.342173 0.376678 0.994188
Si Si3 0.431248 0.941653 0.775015
Si Si4 0.495365 0.120216 0.841376
Si Si5 0.846215 0.425343 0.996086
Si Si6 0.654218 0.030104 0.462929
Si Si7 0.053797 0.839164 0.407922
Si Si8 0.126896 0.157584 0.487350
O O1 0.941014 0.750000 0.756816
O O2 0.848342 0.655148 0.877635
O O3 0.853727 0.649300 0.646209
O O4 0.978398 0.599267 0.772131
O O5 0.250000 0.358232 0.944376
O O6 0.421128 0.344503 0.921270
O O7 0.348597 0.475393 0.008175
O O8 0.373872 0.904960 0.875093
O O9 0.386928 0.940178 0.654093
O O10 0.453281 0.034423 0.806914
O O11 0.519832 0.159450 0.721306
O O12 0.580729 0.108004 0.913682
O O13 0.750000 0.399973 0.970931
O O14 0.750000 0.055635 0.469561
O O15 0.605358 0.078481 0.563133
O O16 0.652612 0.930522 0.462170
O O17 0.096516 0.750000 0.426154
O O18 0.972794 0.841408 0.489738
O O19 0.155275 0.250000 0.524862
#
# Coordination Sequence:
#
# PCOD9451146 Si02
#       8
#     8   8   8   8   8   8   8   8
#     4  11  21  36  63  89 120 166 210 261 321 380
#     4  10  21  37  60  93 125 158 209 266 326 399
#     4  11  19  39  61  91 125 161 217 269 318 395
#     4  11  20  39  66  89 124 171 211 265 330 386
#     4  10  20  35  61  93 122 160 212 271 326 385
#     4  12  25  40  68  98 128 173 219 274 339 394
#     4  11  24  42  64  92 128 173 225 271 320 394
#     4  10  22  42  66  94 128 167 214 269 326 395
#
# _framework density 20.904002999999999
#
# number of rings (size 3 to 8) (size 9 to 14) (size 15 to 20)
#    0.000    1.250    5.000    2.250    0.000    2.750 
#    0.000    1.250    0.000    1.875    0.000    0.000 
#    0.000    0.000    0.000    0.000    0.000    0.000 
#
# Total GULP energy -356917.893603 kJ/mol
# GULP energy per Si atom -5576.842088 kJ/mol
# Density = 2.085642 g / cm^3
# Si number density = 20.904003 Si / 1000 Ang^3
#
#
#
# Elastic Constant Matrix: (Units=GPa)
#
#
# Indices 1 2 3 4 5 6 
#
# 1 132.6687 25.9392 39.0027 0.0000 0.0000 0.0000
# 2 25.9392 59.0492 7.8400 0.0000 0.0000 0.0000
# 3 39.0027 7.8400 109.4542 0.0000 0.0000 0.0000
# 4 0.0000 0.0000 0.0000 4.5772 0.0000 0.0000
# 5 0.0000 0.0000 0.0000 0.0000 6.9978 0.0000
# 6 0.0000 0.0000 0.0000 0.0000 0.0000 -9.0835
#
#
#
# Elastic Compliance Matrix: (Units=1/GPa)
#
#
# Indices 1 2 3 4 5 6 
#
# 1 0.009123 -0.003610 -0.002992 0.000000 0.000000 0.000000
# 2 -0.003610 0.018526 -0.000040 0.000000 0.000000 0.000000
# 3 -0.002992 -0.000040 0.010205 0.000000 0.000000 0.000000
# 4 0.000000 0.000000 0.000000 0.218476 0.000000 0.000000
# 5 0.000000 0.000000 0.000000 0.000000 0.142901 0.000000
# 6 0.000000 0.000000 0.000000 0.000000 0.000000 -0.110090
#
#
# Mechanical properties :
#
#
# Convention : Reuss Voigt Hill
#
# Bulk Modulus (GPa) = 40.70236 49.63731 45.16984
# Shear Modulus (GPa) = 16.09691 15.72431 15.91061
#
# Velocity S-wave (km/s) = 2.77797 2.74563 2.76185
# Velocity P-wave (km/s) = 5.45920 5.81792 5.64141
#
# Compressibility (1/GPa) = 0.02456860
#
# Stress axis : x y z
#
# Youngs Moduli (GPa) = 109.61106 53.97717 97.98706
#
# Poissons Ratio (x) = 0.19488 0.29321
# Poissons Ratio (y) = 0.39573 0.00397
# Poissons Ratio (z) = 0.32799 0.00219
#
# Static dielectric constant tensor:
#      x y z
#    x 1.745500 0.000000 0.000000 
#    y 0.000000 1.792510 0.000000 
#    z 0.000000 0.000000 1.767870 
# 
# From -- ./inp_files/17214.got.cif
#   From: 2010.05.17/outbox.cif.g08.bks.cpg/sg59_9_cif.got.tgz:17214.got - 2010.06.03 14:40:33.
