data_PCOD9451653
_publ_section_title
;
Structure prediction by ZEFSAII (Michael W. Deem and Ramdas Pophale) SiO2 
 PCOD9451653
Probable space group: P M M N
;
_chemical_formula_sum "Si O2"
_cell_formula_units_Z 48
_cell_length_a 10.226626
_cell_length_b 8.530571
_cell_length_c 28.878066
_cell_angle_alpha 90.000000
_cell_angle_beta 90.000000
_cell_angle_gamma 90.000000
_cell_volume 2519.292421
_symmetry_space_group_name_H-M "P M M N"
_symmetry_group_IT_number 59
_space_group.IT_coordinate_system_code '2'
_symmetry_cell_setting 'orthorhombic'
loop_
_space_group_symop_operation_xyz
x,y,z
1/2-x,1/2-y,z
1/2+x,-y,-z
-x,1/2+y,-z
-x,-y,-z
1/2+x,1/2+y,-z
1/2-x,y,z
x,1/2-y,z
loop_
_atom_site_type_symbol
_atom_site_label
_atom_site_fract_x
_atom_site_fract_y
_atom_site_fract_z
Si Si1 0.750000 0.436084 0.197092
Si Si2 0.500722 0.062358 0.358254
Si Si3 0.250000 0.436221 0.697139
Si Si4 0.250000 0.560913 0.305078
Si Si5 0.403698 0.560322 0.039990
Si Si6 0.500835 0.939931 0.141761
Si Si7 0.750000 0.440331 0.800980
Si Si8 0.596080 0.939630 0.540094
O O1 0.750000 0.250000 0.200240
O O2 0.750000 0.499889 0.250000
O O3 0.873289 0.493440 0.167179
O O4 0.513483 0.250000 0.358205
O O5 0.469196 0.012287 0.410975
O O6 0.625474 0.991309 0.332588
O O7 0.376026 0.008506 0.329428
O O8 0.250000 0.250000 0.700739
O O9 0.250000 0.750000 0.307974
O O10 0.250000 0.511926 0.251815
O O11 0.250000 0.509683 0.036502
O O12 0.401539 0.750000 0.038764
O O13 0.468037 0.513039 0.089139
O O14 0.500000 0.500000 0.000000
O O15 0.509786 0.750000 0.142257
O O16 0.377809 0.991478 0.172209
O O17 0.750000 0.250000 0.802000
O O18 0.750000 0.990661 0.536927
O O19 0.598299 0.750000 0.538803
O O20 0.500000 0.000000 0.500000
#
# Coordination Sequence:
#
# PCOD9451653 Si02
#       8
#     4   8   4   4   8   8   4   8
#     4  12  26  42  61  92 129 167 207 253 313 378
#     4  11  23  43  65  90 129 170 207 259 322 378
#     4  12  26  44  65  94 127 166 217 266 311 380
#     4  11  21  35  62  97 124 159 209 257 310 375
#     4  10  22  40  63  91 123 162 206 255 312 372
#     4  10  20  40  65  88 120 162 206 255 309 368
#     4   9  18  35  62  89 114 148 197 252 300 357
#     4  10  23  43  65  93 127 166 208 257 316 377
#
# _framework density 19.052968
#
# number of rings (size 3 to 8) (size 9 to 14) (size 15 to 20)
#    0.000    1.500    1.667    3.250    2.333    4.000 
#    0.000    1.250    0.000    0.000    0.000    0.000 
#    0.000    0.000    0.000    0.000    0.000    0.000 
#
# Total GULP energy -268057.199838 kJ/mol
# GULP energy per Si atom -5584.524997 kJ/mol
# Density = 1.900960 g / cm^3
# Si number density = 19.052968 Si / 1000 Ang^3
#
#
#
# Elastic Constant Matrix: (Units=GPa)
#
#
# Indices 1 2 3 4 5 6 
#
# 1 224.7844 45.1507 135.8848 0.0000 0.0000 0.0000
# 2 45.1507 47.1076 49.8243 0.0000 0.0000 0.0000
# 3 135.8848 49.8243 235.6391 0.0000 0.0000 0.0000
# 4 0.0000 0.0000 0.0000 34.6212 0.0000 0.0000
# 5 0.0000 0.0000 0.0000 0.0000 40.6072 0.0000
# 6 0.0000 0.0000 0.0000 0.0000 0.0000 -26.8987
#
#
#
# Elastic Compliance Matrix: (Units=1/GPa)
#
#
# Indices 1 2 3 4 5 6 
#
# 1 0.007191 -0.003229 -0.003464 0.000000 0.000000 0.000000
# 2 -0.003229 0.028792 -0.004226 0.000000 0.000000 0.000000
# 3 -0.003464 -0.004226 0.007135 0.000000 0.000000 0.000000
# 4 0.000000 0.000000 0.000000 0.028884 0.000000 0.000000
# 5 0.000000 0.000000 0.000000 0.000000 0.024626 0.000000
# 6 0.000000 0.000000 0.000000 0.000000 0.000000 -0.037177
#
#
# Mechanical properties :
#
#
# Convention : Reuss Voigt Hill
#
# Bulk Modulus (GPa) = 46.99083 107.69452 77.34267
# Shear Modulus (GPa) = 56.57103 28.11069 42.34086
#
# Velocity S-wave (km/s) = 5.45490 3.84526 4.71921
# Velocity P-wave (km/s) = 8.02442 8.73849 8.38905
#
# Compressibility (1/GPa) = 0.02128075
#
# Stress axis : x y z
#
# Youngs Moduli (GPa) = 139.05331 34.73151 140.15055
#
# Poissons Ratio (x) = 0.11213 0.48554
# Poissons Ratio (y) = 0.44894 0.59230
# Poissons Ratio (z) = 0.48174 0.14678
#
# Static dielectric constant tensor:
#      x y z
#    x 1.946940 0.000000 0.000000 
#    y 0.000000 1.652940 0.000000 
#    z 0.000000 0.000000 1.658420 
# 
# From -- ./inp_files/33124.got.cif
#   From: 2010.05.17/outbox.cif.g08.bks.cpg/sg59_17_cif.got.tgz:33124.got - 2010.06.03 14:40:33.
