data_PCOD9451436
_publ_section_title
;
Structure prediction by ZEFSAII (Michael W. Deem and Ramdas Pophale) SiO2 
 PCOD9451436
Probable space group: P M M N
;
_chemical_formula_sum "Si O2"
_cell_formula_units_Z 64
_cell_length_a 18.285107
_cell_length_b 8.837864
_cell_length_c 22.135347
_cell_angle_alpha 90.000000
_cell_angle_beta 90.000000
_cell_angle_gamma 90.000000
_cell_volume 3577.100605
_symmetry_space_group_name_H-M "P M M N"
_symmetry_group_IT_number 59
_space_group.IT_coordinate_system_code '2'
_symmetry_cell_setting 'orthorhombic'
loop_
_space_group_symop_operation_xyz
x,y,z
1/2-x,1/2-y,z
1/2+x,-y,-z
-x,1/2+y,-z
-x,-y,-z
1/2+x,1/2+y,-z
1/2-x,y,z
x,1/2-y,z
loop_
_atom_site_type_symbol
_atom_site_label
_atom_site_fract_x
_atom_site_fract_y
_atom_site_fract_z
Si Si1 0.835531 0.931272 0.727319
Si Si2 0.335299 0.067841 0.499899
Si Si3 0.080511 0.569039 0.387284
Si Si4 0.667973 0.568173 0.131438
Si Si5 0.977323 0.568578 0.063428
Si Si6 0.951260 0.431642 0.811186
Si Si7 0.096412 0.930054 0.753442
Si Si8 0.909099 0.568511 0.373606
O O1 0.750000 0.971467 0.725867
O O2 0.841879 0.750000 0.728190
O O3 0.876270 0.994558 0.668239
O O4 0.877210 0.000617 0.784759
O O5 0.250000 0.028834 0.492444
O O6 0.342332 0.250000 0.493199
O O7 0.363693 0.028378 0.566714
O O8 0.383946 0.988821 0.449153
O O9 0.086797 0.750000 0.382910
O O10 0.994563 0.530279 0.383973
O O11 0.750000 0.534477 0.110731
O O12 0.661425 0.750000 0.140112
O O13 0.604026 0.522467 0.085218
O O14 0.651120 0.489312 0.195086
O O15 0.978160 0.750000 0.058448
O O16 0.030328 0.527496 0.119509
O O17 0.000000 0.500000 0.000000
O O18 0.951479 0.250000 0.805784
O O19 0.018174 0.496649 0.771367
O O20 0.090724 0.750000 0.755176
O O21 0.116811 0.986978 0.687016
O O22 0.904021 0.750000 0.364922
#
# Coordination Sequence:
#
# PCOD9451436 Si02
#       8
#     8   8   8   8   8   8   8   8
#     4  11  23  37  56  84 114 144 183 233 286 335
#     4  10  22  39  56  75 104 142 184 232 283 336
#     4  11  22  36  57  80 106 143 186 232 278 336
#     4   9  19  37  59  82 113 153 194 235 279 332
#     4   9  19  35  58  86 114 149 191 231 275 328
#     4  10  20  37  58  81 112 148 188 227 268 329
#     4  11  21  33  55  85 114 144 180 229 284 332
#     4  10  21  37  56  79 107 144 188 228 276 340
#
# _framework density 17.891584999999999
#
# number of rings (size 3 to 8) (size 9 to 14) (size 15 to 20)
#    0.000    1.875    1.250    3.750    0.000    7.000 
#    0.000    1.875    0.000    2.250    0.000    0.000 
#    0.000    0.000    0.000    0.000    0.000    0.000 
#
# Total GULP energy -357465.977674 kJ/mol
# GULP energy per Si atom -5585.405901 kJ/mol
# Density = 1.785086 g / cm^3
# Si number density = 17.891585 Si / 1000 Ang^3
#
#
#
# Elastic Constant Matrix: (Units=GPa)
#
#
# Indices 1 2 3 4 5 6 
#
# 1 54.7666 21.1716 30.2858 0.0000 0.0000 0.0000
# 2 21.1716 32.8595 31.9312 0.0000 0.0000 0.0000
# 3 30.2858 31.9312 124.2658 0.0000 0.0000 0.0000
# 4 0.0000 0.0000 0.0000 36.1755 0.0000 0.0000
# 5 0.0000 0.0000 0.0000 0.0000 17.6076 0.0000
# 6 0.0000 0.0000 0.0000 0.0000 0.0000 23.5346
#
#
#
# Elastic Compliance Matrix: (Units=1/GPa)
#
#
# Indices 1 2 3 4 5 6 
#
# 1 0.024929 -0.013539 -0.002597 0.000000 0.000000 0.000000
# 2 -0.013539 0.047913 -0.009012 0.000000 0.000000 0.000000
# 3 -0.002597 -0.009012 0.010996 0.000000 0.000000 0.000000
# 4 0.000000 0.000000 0.000000 0.027643 0.000000 0.000000
# 5 0.000000 0.000000 0.000000 0.000000 0.056794 0.000000
# 6 0.000000 0.000000 0.000000 0.000000 0.000000 0.042491
#
#
# Mechanical properties :
#
#
# Convention : Reuss Voigt Hill
#
# Bulk Modulus (GPa) = 29.81236 42.07435 35.94336
# Shear Modulus (GPa) = 18.36607 24.03043 21.19825
#
# Velocity S-wave (km/s) = 3.20741 3.66883 3.44585
# Velocity P-wave (km/s) = 5.51503 6.44317 5.99708
#
# Compressibility (1/GPa) = 0.03354314
#
# Stress axis : x y z
#
# Youngs Moduli (GPa) = 40.11385 20.87111 90.94293
#
# Poissons Ratio (x) = 0.28256 0.23616
# Poissons Ratio (y) = 0.54308 0.81959
# Poissons Ratio (z) = 0.10417 0.18809
#
# Static dielectric constant tensor:
#      x y z
#    x 1.609000 0.000000 0.000000 
#    y 0.000000 1.598200 0.000000 
#    z 0.000000 0.000000 1.589400 
# 
# From -- ./inp_files/30784.got.cif
#   From: 2010.05.17/outbox.cif.g08.bks.cpg/sg59_16_cif.got.tgz:30784.got - 2010.06.03 14:40:33.
