data_PCOD9451365
_publ_section_title
;
Structure prediction by ZEFSAII (Michael W. Deem and Ramdas Pophale) SiO2 
 PCOD9451365
Probable space group: P M M N
;
_chemical_formula_sum "Si O2"
_cell_formula_units_Z 48
_cell_length_a 18.505199
_cell_length_b 14.217300
_cell_length_c 10.174465
_cell_angle_alpha 90.000000
_cell_angle_beta 90.000000
_cell_angle_gamma 90.000000
_cell_volume 2676.840346
_symmetry_space_group_name_H-M "P M M N"
_symmetry_group_IT_number 59
_space_group.IT_coordinate_system_code '2'
_symmetry_cell_setting 'orthorhombic'
loop_
_space_group_symop_operation_xyz
x,y,z
1/2-x,1/2-y,z
1/2+x,-y,-z
-x,1/2+y,-z
-x,-y,-z
1/2+x,1/2+y,-z
1/2-x,y,z
x,1/2-y,z
loop_
_atom_site_type_symbol
_atom_site_label
_atom_site_fract_x
_atom_site_fract_y
_atom_site_fract_z
Si Si1 0.834229 0.361933 0.189810
Si Si2 0.068232 0.861667 0.307968
Si Si3 0.918857 0.029671 0.964722
Si Si4 0.664653 0.040512 0.471074
Si Si5 0.102523 0.358886 0.649795
Si Si6 0.836212 0.857755 0.055152
O O1 0.750000 0.381948 0.156854
O O2 0.843779 0.250000 0.194346
O O3 0.884897 0.408247 0.081280
O O4 0.848021 0.405852 0.332817
O O5 0.082356 0.750000 0.298487
O O6 0.118441 0.909189 0.417048
O O7 0.983663 0.873447 0.344493
O O8 0.081621 0.912088 0.169237
O O9 0.871990 0.934311 0.961319
O O10 0.000000 0.000000 0.000000
O O11 0.750000 0.044189 0.499670
O O12 0.639008 0.933896 0.445842
O O13 0.117077 0.250000 0.614999
O O14 0.133700 0.373933 0.797184
O O15 0.750000 0.867605 0.057961
O O16 0.854392 0.750000 0.019599
#
# Coordination Sequence:
#
# PCOD9451365 Si02
#       6
#     8   8   8   8   8   8
#     4  10  21  37  58  83 114 157 210 254 288 346
#     4  11  24  40  60  89 128 165 199 246 310 375
#     4  12  22  37  60  90 121 156 198 250 306 362
#     4  11  22  39  61  89 124 162 204 250 304 362
#     4  10  20  38  64  90 117 155 205 254 303 358
#     4  10  20  36  60  88 116 152 201 253 302 352
#
# _framework density 17.931588999999999
#
# number of rings (size 3 to 8) (size 9 to 14) (size 15 to 20)
#    0.000    1.333    3.333    2.500    0.000    4.000 
#    0.000    0.833    0.000    0.000    0.000    0.000 
#    0.000    0.000    0.000    0.000    0.000    0.000 
#
# Total GULP energy -268255.320023 kJ/mol
# GULP energy per Si atom -5588.652500 kJ/mol
# Density = 1.789078 g / cm^3
# Si number density = 17.931589 Si / 1000 Ang^3
#
#
#
# Elastic Constant Matrix: (Units=GPa)
#
#
# Indices 1 2 3 4 5 6 
#
# 1 91.9258 51.3302 53.3278 0.0000 0.0000 0.0000
# 2 51.3302 110.1179 43.9211 0.0000 0.0000 0.0000
# 3 53.3278 43.9211 76.3465 0.0000 0.0000 0.0000
# 4 0.0000 0.0000 0.0000 34.7063 0.0000 0.0000
# 5 0.0000 0.0000 0.0000 0.0000 33.3859 0.0000
# 6 0.0000 0.0000 0.0000 0.0000 0.0000 34.8551
#
#
#
# Elastic Compliance Matrix: (Units=1/GPa)
#
#
# Indices 1 2 3 4 5 6 
#
# 1 0.020141 -0.004902 -0.011248 0.000000 0.000000 0.000000
# 2 -0.004902 0.012978 -0.004042 0.000000 0.000000 0.000000
# 3 -0.011248 -0.004042 0.023281 0.000000 0.000000 0.000000
# 4 0.000000 0.000000 0.000000 0.028813 0.000000 0.000000
# 5 0.000000 0.000000 0.000000 0.000000 0.029953 0.000000
# 6 0.000000 0.000000 0.000000 0.000000 0.000000 0.028690
#
#
# Mechanical properties :
#
#
# Convention : Reuss Voigt Hill
#
# Bulk Modulus (GPa) = 62.44255 63.94982 63.19618
# Shear Modulus (GPa) = 26.37413 29.24352 27.80883
#
# Velocity S-wave (km/s) = 3.83929 4.04274 3.94233
# Velocity P-wave (km/s) = 7.38592 7.58501 7.48612
#
# Compressibility (1/GPa) = 0.01601472
#
# Stress axis : x y z
#
# Youngs Moduli (GPa) = 49.65020 77.05059 42.95424
#
# Poissons Ratio (x) = 0.37770 0.48316
# Poissons Ratio (y) = 0.24339 0.17363
# Poissons Ratio (z) = 0.55848 0.31146
#
# Static dielectric constant tensor:
#      x y z
#    x 1.597270 0.000000 0.000000 
#    y 0.000000 1.623830 0.000000 
#    z 0.000000 0.000000 1.573040 
# 
# From -- ./inp_files/8988.got.cif
#   From: 2010.05.17/outbox.cif.g08.bks.cpg/sg59_5_cif.got.tgz:8988.got - 2010.06.03 14:40:33.
