data_PCOD9451632
_publ_section_title
;
Structure prediction by ZEFSAII (Michael W. Deem and Ramdas Pophale) SiO2 
 PCOD9451632
Probable space group: P M M N
;
_chemical_formula_sum "Si O2"
_cell_formula_units_Z 38
_cell_length_a 11.902931
_cell_length_b 12.468193
_cell_length_c 14.038269
_cell_angle_alpha 90.000000
_cell_angle_beta 90.000000
_cell_angle_gamma 90.000000
_cell_volume 2083.392001
_symmetry_space_group_name_H-M "P M M N"
_symmetry_group_IT_number 59
_space_group.IT_coordinate_system_code '2'
_symmetry_cell_setting 'orthorhombic'
loop_
_space_group_symop_operation_xyz
x,y,z
1/2-x,1/2-y,z
1/2+x,-y,-z
-x,1/2+y,-z
-x,-y,-z
1/2+x,1/2+y,-z
1/2-x,y,z
x,1/2-y,z
loop_
_atom_site_type_symbol
_atom_site_label
_atom_site_fract_x
_atom_site_fract_y
_atom_site_fract_z
Si Si1 0.750000 0.618976 0.425998
Si Si2 0.381177 0.750000 0.836493
Si Si3 0.750000 0.250000 0.977065
Si Si4 0.250000 0.504695 0.069859
Si Si5 0.936021 0.569753 0.787117
Si Si6 0.934264 0.871700 0.276286
Si Si7 0.750000 0.632358 0.111724
Si Si8 0.750000 0.628603 0.636215
O O1 0.750000 0.750000 0.417681
O O2 0.640399 0.588305 0.365090
O O3 0.750000 0.572669 0.532748
O O4 0.250000 0.750000 0.798207
O O5 0.356707 0.750000 0.950203
O O6 0.457393 0.853024 0.807962
O O7 0.750000 0.365176 0.924174
O O8 0.358486 0.452082 0.120782
O O9 0.250000 0.465402 0.960990
O O10 0.856889 0.614161 0.703750
O O11 0.970978 0.454476 0.748279
O O12 0.971762 0.750000 0.293945
O O13 0.854704 0.871124 0.183218
O O14 0.750000 0.750000 0.062392
O O15 0.750000 0.750000 0.605049
#
# Coordination Sequence:
#
# PCOD9451632 Si02
#       8
#     4   4   2   4   8   8   4   4
#     4   8  17  35  62  87 118 142 199 242 275 356
#     4  10  24  41  59  86 116 155 204 247 288 347
#     4  10  24  40  54  90 120 154 202 248 302 334
#     4  11  25  38  57  88 120 160 202 243 291 353
#     4  11  23  38  63  82 120 161 193 241 298 352
#     4   9  19  36  58  87 115 153 190 244 293 346
#     4   9  19  35  57  84 111 154 206 238 286 340
#     4  10  20  39  60  90 111 155 200 232 295 355
#
# _framework density 18.239487
#
# number of rings (size 3 to 8) (size 9 to 14) (size 15 to 20)
#    0.316    1.895    1.053    2.526    5.895    4.211 
#    0.000    0.000    0.000    0.000    0.000    0.000 
#    0.000    0.000    0.000    0.000    0.000    0.000 
#
# Total GULP energy -211554.290829 kJ/mol
# GULP energy per Si atom -5567.218180 kJ/mol
# Density = 1.819797 g / cm^3
# Si number density = 18.239487 Si / 1000 Ang^3
#
#
#
# Elastic Constant Matrix: (Units=GPa)
#
#
# Indices 1 2 3 4 5 6 
#
# 1 91.0490 31.2283 24.3952 0.0000 0.0000 0.0000
# 2 31.2283 73.2135 15.1781 0.0000 0.0000 0.0000
# 3 24.3952 15.1781 85.0200 0.0000 0.0000 0.0000
# 4 0.0000 0.0000 0.0000 34.8673 0.0000 0.0000
# 5 0.0000 0.0000 0.0000 0.0000 28.8339 0.0000
# 6 0.0000 0.0000 0.0000 0.0000 0.0000 24.4315
#
#
#
# Elastic Compliance Matrix: (Units=1/GPa)
#
#
# Indices 1 2 3 4 5 6 
#
# 1 0.013549 -0.005164 -0.002966 0.000000 0.000000 0.000000
# 2 -0.005164 0.016152 -0.001402 0.000000 0.000000 0.000000
# 3 -0.002966 -0.001402 0.012863 0.000000 0.000000 0.000000
# 4 0.000000 0.000000 0.000000 0.028680 0.000000 0.000000
# 5 0.000000 0.000000 0.000000 0.000000 0.034681 0.000000
# 6 0.000000 0.000000 0.000000 0.000000 0.000000 0.040931
#
#
# Mechanical properties :
#
#
# Convention : Reuss Voigt Hill
#
# Bulk Modulus (GPa) = 42.55195 43.43176 42.99185
# Shear Modulus (GPa) = 28.77639 29.52527 29.15083
#
# Velocity S-wave (km/s) = 3.97633 4.02774 4.00212
# Velocity P-wave (km/s) = 6.66797 6.74492 6.70655
#
# Compressibility (1/GPa) = 0.02350069
#
# Stress axis : x y z
#
# Youngs Moduli (GPa) = 73.80622 61.91164 77.74151
#
# Poissons Ratio (x) = 0.31973 0.23056
# Poissons Ratio (y) = 0.38116 0.10897
# Poissons Ratio (z) = 0.21889 0.08678
#
# Static dielectric constant tensor:
#      x y z
#    x 1.639820 0.000000 0.000000 
#    y 0.000000 1.671450 0.000000 
#    z 0.000000 0.000000 1.633850 
# 
# From -- ./inp_files/22243.got.cif
#   From: 2010.05.17/outbox.cif.g08.bks.cpg/sg59_12_cif.got.tgz:22243.got - 2010.06.03 14:40:33.
