data_PCOD9451480
_publ_section_title
;
Structure prediction by ZEFSAII (Michael W. Deem and Ramdas Pophale) SiO2 
 PCOD9451480
Probable space group: P M M N
;
_chemical_formula_sum "Si O2"
_cell_formula_units_Z 48
_cell_length_a 8.779621
_cell_length_b 16.307035
_cell_length_c 17.357398
_cell_angle_alpha 90.000000
_cell_angle_beta 90.000000
_cell_angle_gamma 90.000000
_cell_volume 2485.051502
_symmetry_space_group_name_H-M "P M M N"
_symmetry_group_IT_number 59
_space_group.IT_coordinate_system_code '2'
_symmetry_cell_setting 'orthorhombic'
loop_
_space_group_symop_operation_xyz
x,y,z
1/2-x,1/2-y,z
1/2+x,-y,-z
-x,1/2+y,-z
-x,-y,-z
1/2+x,1/2+y,-z
1/2-x,y,z
x,1/2-y,z
loop_
_atom_site_type_symbol
_atom_site_label
_atom_site_fract_x
_atom_site_fract_y
_atom_site_fract_z
Si Si1 0.929357 0.846100 0.500452
Si Si2 0.932672 0.343249 0.192305
Si Si3 0.568323 0.388126 0.663942
Si Si4 0.931375 0.750000 0.228794
Si Si5 0.433533 0.424341 0.341050
Si Si6 0.566328 0.750000 0.047709
Si Si7 0.566054 0.414486 0.031547
O O1 0.750000 0.864478 0.487786
O O2 0.941451 0.750000 0.519798
O O3 0.985821 0.897167 0.573930
O O4 0.016694 0.862968 0.421671
O O5 0.750000 0.345965 0.199310
O O6 0.976315 0.250000 0.171999
O O7 0.975885 0.402060 0.121602
O O8 0.004077 0.368393 0.273076
O O9 0.750000 0.381952 0.669102
O O10 0.495466 0.328680 0.726571
O O11 0.521939 0.482260 0.675422
O O12 0.750000 0.750000 0.235968
O O13 0.970239 0.750000 0.138784
O O14 0.250000 0.418781 0.341815
O O15 0.750000 0.750000 0.038257
O O16 0.498050 0.833355 0.011161
O O17 0.750000 0.414781 0.025117
O O18 0.500000 0.500000 0.000000
#
# Coordination Sequence:
#
# PCOD9451480 Si02
#       7
#     8   8   8   4   8   4   8
#     4  10  20  37  60  85 120 163 202 244 303 363
#     4  10  22  42  64  90 125 164 204 251 308 364
#     4  11  23  39  60  89 122 156 203 254 304 362
#     4  11  25  43  63  86 119 160 203 251 312 373
#     4  10  23  39  59  91 124 159 203 251 302 361
#     4  11  25  45  69  98 127 168 219 263 324 393
#     4  11  24  44  68  97 133 171 213 266 323 385
#
# _framework density 19.315496
#
# number of rings (size 3 to 8) (size 9 to 14) (size 15 to 20)
#    0.000    1.500    1.667    2.500    2.333    5.667 
#    0.000    0.000    0.000    0.000    0.000    0.000 
#    0.000    0.000    0.000    0.000    0.000    0.000 
#
# Total GULP energy -268259.180550 kJ/mol
# GULP energy per Si atom -5588.732928 kJ/mol
# Density = 1.927153 g / cm^3
# Si number density = 19.315496 Si / 1000 Ang^3
#
#
#
# Elastic Constant Matrix: (Units=GPa)
#
#
# Indices 1 2 3 4 5 6 
#
# 1 27.3045 23.7682 22.7692 0.0000 0.0000 0.0000
# 2 23.7682 84.6840 21.4909 0.0000 0.0000 0.0000
# 3 22.7692 21.4909 92.8568 0.0000 0.0000 0.0000
# 4 0.0000 0.0000 0.0000 73.5299 0.0000 0.0000
# 5 0.0000 0.0000 0.0000 0.0000 25.4356 0.0000
# 6 0.0000 0.0000 0.0000 0.0000 0.0000 25.3056
#
#
#
# Elastic Compliance Matrix: (Units=1/GPa)
#
#
# Indices 1 2 3 4 5 6 
#
# 1 0.057378 -0.013316 -0.010988 0.000000 0.000000 0.000000
# 2 -0.013316 0.015636 -0.000354 0.000000 0.000000 0.000000
# 3 -0.010988 -0.000354 0.013545 0.000000 0.000000 0.000000
# 4 0.000000 0.000000 0.000000 0.013600 0.000000 0.000000
# 5 0.000000 0.000000 0.000000 0.000000 0.039315 0.000000
# 6 0.000000 0.000000 0.000000 0.000000 0.000000 0.039517
#
#
# Mechanical properties :
#
#
# Convention : Reuss Voigt Hill
#
# Bulk Modulus (GPa) = 26.84944 37.87800 32.36372
# Shear Modulus (GPa) = 20.77110 33.97537 27.37323
#
# Velocity S-wave (km/s) = 3.28282 4.19856 3.76861
# Velocity P-wave (km/s) = 5.31976 6.56937 5.97731
#
# Compressibility (1/GPa) = 0.03724472
#
# Stress axis : x y z
#
# Youngs Moduli (GPa) = 17.42841 63.95638 73.82609
#
# Poissons Ratio (x) = 0.85162 0.81117
# Poissons Ratio (y) = 0.23207 0.02611
# Poissons Ratio (z) = 0.19150 0.02262
#
# Static dielectric constant tensor:
#      x y z
#    x 1.654030 0.000000 0.000000 
#    y 0.000000 1.669480 0.000000 
#    z 0.000000 0.000000 1.647540 
# 
# From -- ./inp_files/25612.got.cif
#   From: 2010.05.17/outbox.cif.g08.bks.cpg/sg59_13_cif.got.tgz:25612.got - 2010.06.03 14:40:33.
