data_PCOD9451334
_publ_section_title
;
Structure prediction by ZEFSAII (Michael W. Deem and Ramdas Pophale) SiO2 
 PCOD9451334
Probable space group: P M M N
;
_chemical_formula_sum "Si O2"
_cell_formula_units_Z 60
_cell_length_a 26.730775
_cell_length_b 17.690151
_cell_length_c 5.322744
_cell_angle_alpha 90.000000
_cell_angle_beta 90.000000
_cell_angle_gamma 90.000000
_cell_volume 2516.973652
_symmetry_space_group_name_H-M "P M M N"
_symmetry_group_IT_number 59
_space_group.IT_coordinate_system_code '2'
_symmetry_cell_setting 'orthorhombic'
loop_
_space_group_symop_operation_xyz
x,y,z
1/2-x,1/2-y,z
1/2+x,-y,-z
-x,1/2+y,-z
-x,-y,-z
1/2+x,1/2+y,-z
1/2-x,y,z
x,1/2-y,z
loop_
_atom_site_type_symbol
_atom_site_label
_atom_site_fract_x
_atom_site_fract_y
_atom_site_fract_z
Si Si1 0.131805 0.661219 0.857520
Si Si2 0.805723 0.160223 0.651598
Si Si3 0.493080 0.431702 0.806275
Si Si4 0.678128 0.833324 0.354704
Si Si5 0.250000 0.080290 0.991397
Si Si6 0.340399 0.047346 0.255808
Si Si7 0.920126 0.456970 0.455280
Si Si8 0.588522 0.665118 0.016521
O O1 0.115572 0.750000 0.866955
O O2 0.157584 0.639387 0.119047
O O3 0.090381 0.599861 0.774013
O O4 0.170893 0.654468 0.626082
O O5 0.750000 0.126446 0.659094
O O6 0.800573 0.250000 0.694222
O O7 0.450953 0.468408 0.624131
O O8 0.543643 0.416899 0.655477
O O9 0.500000 0.500000 0.000000
O O10 0.467948 0.359521 0.934056
O O11 0.691801 0.750000 0.440825
O O12 0.690017 0.896147 0.559430
O O13 0.707374 0.858083 0.106954
O O14 0.620206 0.833719 0.276064
O O15 0.296545 0.023366 0.067628
O O16 0.384604 0.098125 0.136692
O O17 0.368551 0.986425 0.424857
O O18 0.593560 0.750000 0.908861
#
# Coordination Sequence:
#
# PCOD9451334 Si02
#       8
#     8   8   8   8   4   8   8   8
#     4  10  22  40  65  99 135 175 224 282 341 397
#     4   9  18  37  64  94 131 173 218 269 330 401
#     4  11  23  44  67  91 121 169 215 269 347 411
#     4  10  20  36  59  87 125 165 209 266 317 376
#     4  10  23  36  58  88 127 168 214 260 315 384
#     4  11  21  41  59  91 129 172 219 265 324 392
#     4  11  25  41  67  91 126 175 217 274 344 412
#     4  10  21  38  65  96 124 163 219 273 322 390
#
# _framework density 23.838152000000001
#
# number of rings (size 3 to 8) (size 9 to 14) (size 15 to 20)
#    0.000    1.733    2.667    1.400    1.867    3.733 
#    2.400    0.667    0.000    0.000    0.000    0.000 
#    0.000    0.000    0.000    0.000    0.000    0.000 
#
# Total GULP energy -334196.344009 kJ/mol
# GULP energy per Si atom -5569.939067 kJ/mol
# Density = 2.378390 g / cm^3
# Si number density = 23.838152 Si / 1000 Ang^3
#
#
#
# Elastic Constant Matrix: (Units=GPa)
#
#
# Indices 1 2 3 4 5 6 
#
# 1 88.3532 14.4287 9.5855 0.0000 0.0000 0.0000
# 2 14.4287 76.1524 2.2637 0.0000 0.0000 0.0000
# 3 9.5855 2.2637 66.0020 0.0000 0.0000 0.0000
# 4 0.0000 0.0000 0.0000 34.3456 0.0000 0.0000
# 5 0.0000 0.0000 0.0000 0.0000 26.0542 0.0000
# 6 0.0000 0.0000 0.0000 0.0000 0.0000 23.0614
#
#
#
# Elastic Compliance Matrix: (Units=1/GPa)
#
#
# Indices 1 2 3 4 5 6 
#
# 1 0.011856 -0.002197 -0.001646 0.000000 0.000000 0.000000
# 2 -0.002197 0.013552 -0.000146 0.000000 0.000000 0.000000
# 3 -0.001646 -0.000146 0.015395 0.000000 0.000000 0.000000
# 4 0.000000 0.000000 0.000000 0.029116 0.000000 0.000000
# 5 0.000000 0.000000 0.000000 0.000000 0.038381 0.000000
# 6 0.000000 0.000000 0.000000 0.000000 0.000000 0.043363
#
#
# Mechanical properties :
#
#
# Convention : Reuss Voigt Hill
#
# Bulk Modulus (GPa) = 30.46542 31.45148 30.95845
# Shear Modulus (GPa) = 29.31120 30.30756 29.80938
#
# Velocity S-wave (km/s) = 3.51036 3.56952 3.54006
# Velocity P-wave (km/s) = 5.40722 5.49646 5.45202
#
# Compressibility (1/GPa) = 0.03282410
#
# Stress axis : x y z
#
# Youngs Moduli (GPa) = 84.34776 73.78857 64.95543
#
# Poissons Ratio (x) = 0.16214 0.10695
# Poissons Ratio (y) = 0.18534 0.00946
# Poissons Ratio (z) = 0.13887 0.01075
#
# Static dielectric constant tensor:
#      x y z
#    x 1.967610 0.000000 0.000000 
#    y 0.000000 1.942360 0.000000 
#    z 0.000000 0.000000 2.018860 
# 
# From -- ./inp_files/3878.got.cif
#   From: 2010.05.17/outbox.cif.g08.bks.cpg/sg59_2_cif.got.tgz:3878.got - 2010.06.03 14:40:33.
