data_PCOD9451335
_publ_section_title
;
Structure prediction by ZEFSAII (Michael W. Deem and Ramdas Pophale) SiO2 
 PCOD9451335
Probable space group: P M M N
;
_chemical_formula_sum "Si O2"
_cell_formula_units_Z 64
_cell_length_a 8.045473
_cell_length_b 32.045353
_cell_length_c 12.274087
_cell_angle_alpha 90.000000
_cell_angle_beta 90.000000
_cell_angle_gamma 90.000000
_cell_volume 3164.505385
_symmetry_space_group_name_H-M "P M M N"
_symmetry_group_IT_number 59
_space_group.IT_coordinate_system_code '2'
_symmetry_cell_setting 'orthorhombic'
loop_
_space_group_symop_operation_xyz
x,y,z
1/2-x,1/2-y,z
1/2+x,-y,-z
-x,1/2+y,-z
-x,-y,-z
1/2+x,1/2+y,-z
1/2-x,y,z
x,1/2-y,z
loop_
_atom_site_type_symbol
_atom_site_label
_atom_site_fract_x
_atom_site_fract_y
_atom_site_fract_z
Si Si1 0.949635 0.454933 0.238430
Si Si2 0.052338 0.954372 0.232258
Si Si3 0.053602 0.375218 0.625066
Si Si4 0.951065 0.296576 0.768431
Si Si5 0.050660 0.624212 0.624527
Si Si6 0.547536 0.329247 0.002799
Si Si7 0.046928 0.573388 0.997072
Si Si8 0.546499 0.203458 0.237764
O O1 0.750000 0.451705 0.235325
O O2 0.012547 0.417327 0.314269
O O3 0.992701 0.501246 0.276395
O O4 0.010811 0.448046 0.114364
O O5 0.250000 0.955948 0.225219
O O6 0.986222 0.947082 0.109157
O O7 0.007106 0.914933 0.305853
O O8 0.250000 0.377216 0.619784
O O9 0.003093 0.332927 0.686893
O O10 0.985956 0.376125 0.502765
O O11 0.750000 0.296376 0.770493
O O12 0.007440 0.250000 0.738320
O O13 0.008434 0.308027 0.890833
O O14 0.250000 0.624294 0.638118
O O15 0.988907 0.666218 0.683870
O O16 0.750000 0.328190 0.002195
O O17 0.499534 0.377857 0.004484
O O18 0.494929 0.306929 0.113908
O O19 0.250000 0.572167 0.997832
O O20 0.750000 0.203229 0.238922
O O21 0.493042 0.250000 0.269323
#
# Coordination Sequence:
#
# PCOD9451335 Si02
#       8
#     8   8   8   8   8   8   8   8
#     4  10  20  36  59  88 119 151 187 232 291 349
#     4  11  22  38  61  87 117 151 189 235 285 344
#     4  12  26  42  59  80 112 154 198 245 290 338
#     4  10  20  36  62  92 120 152 191 234 281 339
#     4  10  21  38  59  82 113 152 193 241 287 337
#     4   9  14  27  54  89 122 149 180 224 280 335
#     4   9  16  30  56  86 119 152 181 226 285 344
#     4   9  16  28  53  89 120 146 182 229 280 334
#
# _framework density 20.224329000000001
#
# number of rings (size 3 to 8) (size 9 to 14) (size 15 to 20)
#    0.000    2.000    2.500    2.250    0.000    3.250 
#    0.000    1.875    0.000    0.750    0.000    0.000 
#    0.000    0.000    0.000    0.000    0.000    0.000 
#
# Total GULP energy -357464.940849 kJ/mol
# GULP energy per Si atom -5585.389701 kJ/mol
# Density = 2.017830 g / cm^3
# Si number density = 20.224329 Si / 1000 Ang^3
#
#
#
# Elastic Constant Matrix: (Units=GPa)
#
#
# Indices 1 2 3 4 5 6 
#
# 1 15.3524 6.9776 0.4165 0.0000 0.0000 0.0000
# 2 6.9776 202.5326 83.3211 0.0000 0.0000 0.0000
# 3 0.4165 83.3211 143.7827 0.0000 0.0000 0.0000
# 4 0.0000 0.0000 0.0000 1.8400 0.0000 0.0000
# 5 0.0000 0.0000 0.0000 0.0000 -8.9437 0.0000
# 6 0.0000 0.0000 0.0000 0.0000 0.0000 17.2373
#
#
#
# Elastic Compliance Matrix: (Units=1/GPa)
#
#
# Indices 1 2 3 4 5 6 
#
# 1 0.066414 -0.002900 0.001488 0.000000 0.000000 0.000000
# 2 -0.002900 0.006610 -0.003822 0.000000 0.000000 0.000000
# 3 0.001488 -0.003822 0.009165 0.000000 0.000000 0.000000
# 4 0.000000 0.000000 0.000000 0.543481 0.000000 0.000000
# 5 0.000000 0.000000 0.000000 0.000000 -0.111810 0.000000
# 6 0.000000 0.000000 0.000000 0.000000 0.000000 0.058014
#
#
# Mechanical properties :
#
#
# Convention : Reuss Voigt Hill
#
# Bulk Modulus (GPa) = 13.94281 60.34424 37.14352
# Shear Modulus (GPa) = 8.24744 20.09020 14.16882
#
# Velocity S-wave (km/s) = 2.02159 3.15519 2.64972
# Velocity P-wave (km/s) = 3.51542 6.57084 5.26944
#
# Compressibility (1/GPa) = 0.07172157
#
# Stress axis : x y z
#
# Youngs Moduli (GPa) = 15.05700 151.29260 109.10617
#
# Poissons Ratio (x) = 0.43881 -0.16239
# Poissons Ratio (y) = 0.04367 0.41699
# Poissons Ratio (z) = -0.02241 0.57822
#
# Static dielectric constant tensor:
#      x y z
#    x 1.731570 0.000000 0.000000 
#    y 0.000000 1.686360 0.000000 
#    z 0.000000 0.000000 1.663280 
# 
# From -- ./inp_files/15054.got.cif
#   From: 2010.05.17/outbox.cif.g08.bks.cpg/sg59_8_cif.got.tgz:15054.got - 2010.06.03 14:40:33.
