data_PCOD9451647
_publ_section_title
;
Structure prediction by ZEFSAII (Michael W. Deem and Ramdas Pophale) SiO2 
 PCOD9451647
Probable space group: P M M N
;
_chemical_formula_sum "Si O2"
_cell_formula_units_Z 36
_cell_length_a 14.030390
_cell_length_b 14.493938
_cell_length_c 9.122288
_cell_angle_alpha 90.000000
_cell_angle_beta 90.000000
_cell_angle_gamma 90.000000
_cell_volume 1855.068375
_symmetry_space_group_name_H-M "P M M N"
_symmetry_group_IT_number 59
_space_group.IT_coordinate_system_code '2'
_symmetry_cell_setting 'orthorhombic'
loop_
_space_group_symop_operation_xyz
x,y,z
1/2-x,1/2-y,z
1/2+x,-y,-z
-x,1/2+y,-z
-x,-y,-z
1/2+x,1/2+y,-z
1/2-x,y,z
x,1/2-y,z
loop_
_atom_site_type_symbol
_atom_site_label
_atom_site_fract_x
_atom_site_fract_y
_atom_site_fract_z
Si Si1 0.250000 0.891911 0.673001
Si Si2 0.250000 0.250000 0.359812
Si Si3 0.959285 0.610721 0.324141
Si Si4 0.550340 0.250000 0.883139
Si Si5 0.750000 0.250000 0.061281
Si Si6 0.058638 0.250000 0.167341
Si Si7 0.460247 0.891788 0.636489
Si Si8 0.750000 0.615031 0.364121
O O1 0.250000 0.841064 0.832358
O O2 0.351059 0.864411 0.605992
O O3 0.250000 0.003244 0.651107
O O4 0.159704 0.250000 0.249880
O O5 0.250000 0.338094 0.472866
O O6 0.966046 0.499876 0.324958
O O7 0.850817 0.641120 0.292654
O O8 0.980340 0.633823 0.493308
O O9 0.033634 0.661041 0.219620
O O10 0.652288 0.250000 0.965804
O O11 0.461040 0.250000 0.995736
O O12 0.001396 0.162428 0.227620
#
# Coordination Sequence:
#
# PCOD9451647 Si02
#       8
#     4   2   8   4   2   4   8   4
#     4  10  20  39  69  96 122 169 216 257 321 377
#     4  12  22  38  66  98 126 162 220 270 304 378
#     4  10  22  39  67  96 124 161 217 266 314 369
#     4  12  26  42  62  92 134 169 205 257 324 392
#     4  12  24  44  60  94 134 174 204 256 326 394
#     4  12  23  39  61  90 130 171 199 254 325 378
#     4  10  20  40  67  94 120 166 216 263 310 367
#     4  10  20  39  69  94 124 159 218 275 311 359
#
# _framework density 19.406293999999999
#
# number of rings (size 3 to 8) (size 9 to 14) (size 15 to 20)
#    0.000    1.333    4.444    1.333    0.000    2.667 
#    0.000    2.222    0.000    0.000    0.000    0.000 
#    0.000    0.000    0.000    0.000    0.000    0.000 
#
# Total GULP energy -200556.574889 kJ/mol
# GULP energy per Si atom -5571.015969 kJ/mol
# Density = 1.936212 g / cm^3
# Si number density = 19.406294 Si / 1000 Ang^3
#
#
#
# Elastic Constant Matrix: (Units=GPa)
#
#
# Indices 1 2 3 4 5 6 
#
# 1 118.9681 28.8203 15.2050 0.0000 0.0000 0.0000
# 2 28.8203 101.1002 41.7811 0.0000 0.0000 0.0000
# 3 15.2050 41.7811 77.0380 0.0000 0.0000 0.0000
# 4 0.0000 0.0000 0.0000 38.6150 0.0000 0.0000
# 5 0.0000 0.0000 0.0000 0.0000 35.9084 0.0000
# 6 0.0000 0.0000 0.0000 0.0000 0.0000 10.2119
#
#
#
# Elastic Compliance Matrix: (Units=1/GPa)
#
#
# Indices 1 2 3 4 5 6 
#
# 1 0.009044 -0.002372 -0.000498 0.000000 0.000000 0.000000
# 2 -0.002372 0.013371 -0.006783 0.000000 0.000000 0.000000
# 3 -0.000498 -0.006783 0.016758 0.000000 0.000000 0.000000
# 4 0.000000 0.000000 0.000000 0.025897 0.000000 0.000000
# 5 0.000000 0.000000 0.000000 0.000000 0.027849 0.000000
# 6 0.000000 0.000000 0.000000 0.000000 0.000000 0.097925
#
#
# Mechanical properties :
#
#
# Convention : Reuss Voigt Hill
#
# Bulk Modulus (GPa) = 50.34066 52.07990 51.21028
# Shear Modulus (GPa) = 23.06568 31.03374 27.04971
#
# Velocity S-wave (km/s) = 3.45130 4.00329 3.73750
# Velocity P-wave (km/s) = 6.47137 6.94718 6.71349
#
# Compressibility (1/GPa) = 0.01986466
#
# Stress axis : x y z
#
# Youngs Moduli (GPa) = 110.57084 74.79042 59.67336
#
# Poissons Ratio (x) = 0.17741 0.02975
# Poissons Ratio (y) = 0.26229 0.40478
# Poissons Ratio (z) = 0.05512 0.50733
#
# Static dielectric constant tensor:
#      x y z
#    x 1.690900 0.000000 0.000000 
#    y 0.000000 1.771050 0.000000 
#    z 0.000000 0.000000 1.622100 
# 
# From -- ./inp_files/8579.got.cif
#   From: 2010.05.17/outbox.cif.g08.bks.cpg/sg59_5_cif.got.tgz:8579.got - 2010.06.03 14:40:33.
