data_PCOD9451005
_publ_section_title
;
Structure prediction by ZEFSAII (Michael W. Deem and Ramdas Pophale) SiO2 
 PCOD9451005
Probable space group: P M M N
;
_chemical_formula_sum "Si O2"
_cell_formula_units_Z 40
_cell_length_a 7.775330
_cell_length_b 25.163860
_cell_length_c 8.544482
_cell_angle_alpha 90.000000
_cell_angle_beta 90.000000
_cell_angle_gamma 90.000000
_cell_volume 1671.790411
_symmetry_space_group_name_H-M "P M M N"
_symmetry_group_IT_number 59
_space_group.IT_coordinate_system_code '2'
_symmetry_cell_setting 'orthorhombic'
loop_
_space_group_symop_operation_xyz
x,y,z
1/2-x,1/2-y,z
1/2+x,-y,-z
-x,1/2+y,-z
-x,-y,-z
1/2+x,1/2+y,-z
1/2-x,y,z
x,1/2-y,z
loop_
_atom_site_type_symbol
_atom_site_label
_atom_site_fract_x
_atom_site_fract_y
_atom_site_fract_z
Si Si1 0.958700 0.366364 0.684749
Si Si2 0.057906 0.833202 0.986340
Si Si3 0.450924 0.009809 0.674901
Si Si4 0.044084 0.688346 0.637248
Si Si5 0.440900 0.444053 0.068191
O O1 0.750000 0.363317 0.685388
O O2 0.018032 0.346152 0.512501
O O3 0.006837 0.428396 0.711215
O O4 0.017093 0.330731 0.836074
O O5 0.250000 0.809917 0.991186
O O6 0.975719 0.817495 0.817552
O O7 0.065867 0.896621 0.965795
O O8 0.250000 0.001207 0.707144
O O9 0.500000 0.000000 0.500000
O O10 0.554253 0.961774 0.754409
O O11 0.250000 0.677013 0.651012
O O12 0.022528 0.750000 0.594118
O O13 0.250000 0.428906 0.018396
O O14 0.500000 0.500000 0.000000
#
# Coordination Sequence:
#
# PCOD9451005 Si02
#       5
#     8   8   8   8   8
#     4  10  20  35  57  84 116 155 200 249 300 358
#     4  10  20  35  58  86 119 159 203 250 302 359
#     4  12  24  38  58  85 120 161 202 248 298 357
#     4   9  19  36  58  86 117 150 197 257 310 358
#     4  12  23  37  58  86 121 160 200 244 296 360
#
# _framework density 23.926445000000001
#
# number of rings (size 3 to 8) (size 9 to 14) (size 15 to 20)
#    0.000    1.400    2.000    4.800    0.000    2.400 
#    0.000    4.000    0.000    2.400    0.000    2.800 
#    0.000    0.000    0.000    0.000    0.000    0.000 
#
# Total GULP energy -222892.849993 kJ/mol
# GULP energy per Si atom -5572.321250 kJ/mol
# Density = 2.387199 g / cm^3
# Si number density = 23.926445 Si / 1000 Ang^3
#
#
#
# Elastic Constant Matrix: (Units=GPa)
#
#
# Indices 1 2 3 4 5 6 
#
# 1 85.3380 10.1318 5.1785 0.0000 0.0000 0.0000
# 2 10.1318 79.4607 20.8535 0.0000 0.0000 0.0000
# 3 5.1785 20.8535 161.8179 0.0000 0.0000 0.0000
# 4 0.0000 0.0000 0.0000 29.7587 0.0000 0.0000
# 5 0.0000 0.0000 0.0000 0.0000 12.0889 0.0000
# 6 0.0000 0.0000 0.0000 0.0000 0.0000 -2.7358
#
#
#
# Elastic Compliance Matrix: (Units=1/GPa)
#
#
# Indices 1 2 3 4 5 6 
#
# 1 0.011904 -0.001467 -0.000192 0.000000 0.000000 0.000000
# 2 -0.001467 0.013206 -0.001655 0.000000 0.000000 0.000000
# 3 -0.000192 -0.001655 0.006399 0.000000 0.000000 0.000000
# 4 0.000000 0.000000 0.000000 0.033604 0.000000 0.000000
# 5 0.000000 0.000000 0.000000 0.000000 0.082720 0.000000
# 6 0.000000 0.000000 0.000000 0.000000 0.000000 -0.365520
#
#
# Mechanical properties :
#
#
# Convention : Reuss Voigt Hill
#
# Bulk Modulus (GPa) = 40.19144 44.32714 42.25929
# Shear Modulus (GPa) = -24.65912 27.18588 1.26338
#
# Velocity S-wave (km/s) = -3.21381 3.37445 0.72744
# Velocity P-wave (km/s) = 1.75012 5.80941 4.29023
#
# Compressibility (1/GPa) = 0.02488092
#
# Stress axis : x y z
#
# Youngs Moduli (GPa) = 84.00551 75.72163 156.26964
#
# Poissons Ratio (x) = 0.11112 0.02998
# Poissons Ratio (y) = 0.12328 0.25862
# Poissons Ratio (z) = 0.01612 0.12531
#
# Static dielectric constant tensor:
#      x y z
#    x 1.952220 0.000000 0.000000 
#    y 0.000000 1.850280 0.000000 
#    z 0.000000 0.000000 1.789640 
# 
# From -- ./inp_files/5656.got.cif
#   From: 2010.05.17/outbox.cif.g08.bks.cpg/sg59_3_cif.got.tgz:5656.got - 2010.06.03 14:40:33.
