data_PCOD9451003
_publ_section_title
;
Structure prediction by ZEFSAII (Michael W. Deem and Ramdas Pophale) SiO2 
 PCOD9451003
Probable space group: P M M N
;
_chemical_formula_sum "Si O2"
_cell_formula_units_Z 48
_cell_length_a 16.373031
_cell_length_b 8.683623
_cell_length_c 18.431231
_cell_angle_alpha 90.000000
_cell_angle_beta 90.000000
_cell_angle_gamma 90.000000
_cell_volume 2620.501343
_symmetry_space_group_name_H-M "P M M N"
_symmetry_group_IT_number 59
_space_group.IT_coordinate_system_code '2'
_symmetry_cell_setting 'orthorhombic'
loop_
_space_group_symop_operation_xyz
x,y,z
1/2-x,1/2-y,z
1/2+x,-y,-z
-x,1/2+y,-z
-x,-y,-z
1/2+x,1/2+y,-z
1/2-x,y,z
x,1/2-y,z
loop_
_atom_site_type_symbol
_atom_site_label
_atom_site_fract_x
_atom_site_fract_y
_atom_site_fract_z
Si Si1 0.414469 0.933188 0.030664
Si Si2 0.158746 0.566058 0.324196
Si Si3 0.004793 0.566337 0.419755
Si Si4 0.750000 0.436493 0.205780
Si Si5 0.750000 0.565975 0.043568
Si Si6 0.425591 0.066948 0.189622
Si Si7 0.916613 0.434846 0.285190
O O1 0.414345 0.750000 0.020287
O O2 0.412521 0.977618 0.115313
O O3 0.500000 0.000000 0.000000
O O4 0.333193 0.001687 0.992977
O O5 0.250000 0.536414 0.350284
O O6 0.150022 0.750000 0.311093
O O7 0.141116 0.478569 0.249487
O O8 0.090466 0.520020 0.382154
O O9 0.001391 0.750000 0.423332
O O10 0.937053 0.507392 0.362919
O O11 0.000000 0.500000 0.500000
O O12 0.750000 0.250000 0.196219
O O13 0.750000 0.513335 0.127212
O O14 0.830519 0.479324 0.250830
O O15 0.750000 0.750000 0.037629
O O16 0.425497 0.250000 0.175784
O O17 0.511441 0.024126 0.228348
O O18 0.918587 0.250000 0.293298
#
# Coordination Sequence:
#
# PCOD9451003 Si02
#       7
#     8   8   8   4   4   8   8
#     4  12  25  42  62  87 121 161 204 254 309 364
#     4   9  19  36  57  81 108 145 191 233 282 341
#     4  10  20  36  58  82 114 149 185 232 283 341
#     4  10  20  38  62  86 115 152 197 246 292 346
#     4  12  26  42  62  90 123 162 207 256 308 362
#     4  10  20  35  57  84 116 151 191 239 292 352
#     4   9  19  36  59  85 113 151 193 234 286 345
#
# _framework density 18.317105999999999
#
# number of rings (size 3 to 8) (size 9 to 14) (size 15 to 20)
#    0.000    1.833    0.000    4.250    1.167    3.667 
#    1.500    0.000    0.000    0.000    0.000    0.000 
#    0.000    0.000    0.000    0.000    0.000    0.000 
#
# Total GULP energy -268101.197594 kJ/mol
# GULP energy per Si atom -5585.441617 kJ/mol
# Density = 1.827542 g / cm^3
# Si number density = 18.317106 Si / 1000 Ang^3
#
#
#
# Elastic Constant Matrix: (Units=GPa)
#
#
# Indices 1 2 3 4 5 6 
#
# 1 135.3529 53.4047 81.2688 0.0000 0.0000 0.0000
# 2 53.4047 79.4302 61.9817 0.0000 0.0000 0.0000
# 3 81.2688 61.9817 168.3654 0.0000 0.0000 0.0000
# 4 0.0000 0.0000 0.0000 38.8260 0.0000 0.0000
# 5 0.0000 0.0000 0.0000 0.0000 13.1819 0.0000
# 6 0.0000 0.0000 0.0000 0.0000 0.0000 28.0772
#
#
#
# Elastic Compliance Matrix: (Units=1/GPa)
#
#
# Indices 1 2 3 4 5 6 
#
# 1 0.011577 -0.004803 -0.003820 0.000000 0.000000 0.000000
# 2 -0.004803 0.019656 -0.004918 0.000000 0.000000 0.000000
# 3 -0.003820 -0.004918 0.009594 0.000000 0.000000 0.000000
# 4 0.000000 0.000000 0.000000 0.025756 0.000000 0.000000
# 5 0.000000 0.000000 0.000000 0.000000 0.075862 0.000000
# 6 0.000000 0.000000 0.000000 0.000000 0.000000 0.035616
#
#
# Mechanical properties :
#
#
# Convention : Reuss Voigt Hill
#
# Bulk Modulus (GPa) = 72.75072 86.27318 79.51195
# Shear Modulus (GPa) = 23.84089 28.44991 26.14540
#
# Velocity S-wave (km/s) = 3.61163 3.94533 3.78216
# Velocity P-wave (km/s) = 7.56277 8.24355 7.91049
#
# Compressibility (1/GPa) = 0.01374557
#
# Stress axis : x y z
#
# Youngs Moduli (GPa) = 86.38126 50.87385 104.23397
#
# Poissons Ratio (x) = 0.24433 0.39816
# Poissons Ratio (y) = 0.41487 0.51263
# Poissons Ratio (z) = 0.32996 0.25020
#
# Static dielectric constant tensor:
#      x y z
#    x 1.636820 0.000000 0.000000 
#    y 0.000000 1.634120 0.000000 
#    z 0.000000 0.000000 1.589880 
# 
# From -- ./inp_files/27434.got.cif
#   From: 2010.05.17/outbox.cif.g08.bks.cpg/sg59_14_cif.got.tgz:27434.got - 2010.06.03 14:40:33.
