data_PCOD9451142
_publ_section_title
;
Structure prediction by ZEFSAII (Michael W. Deem and Ramdas Pophale) SiO2 
 PCOD9451142
Probable space group: P M M N
;
_chemical_formula_sum "Si O2"
_cell_formula_units_Z 64
_cell_length_a 14.401436
_cell_length_b 17.589330
_cell_length_c 12.214663
_cell_angle_alpha 90.000000
_cell_angle_beta 90.000000
_cell_angle_gamma 90.000000
_cell_volume 3094.115954
_symmetry_space_group_name_H-M "P M M N"
_symmetry_group_IT_number 59
_space_group.IT_coordinate_system_code '2'
_symmetry_cell_setting 'orthorhombic'
loop_
_space_group_symop_operation_xyz
x,y,z
1/2-x,1/2-y,z
1/2+x,-y,-z
-x,1/2+y,-z
-x,-y,-z
1/2+x,1/2+y,-z
1/2-x,y,z
x,1/2-y,z
loop_
_atom_site_type_symbol
_atom_site_label
_atom_site_fract_x
_atom_site_fract_y
_atom_site_fract_z
Si Si1 0.139553 0.168476 0.673285
Si Si2 0.043686 0.950274 0.871143
Si Si3 0.140402 0.660626 0.299759
Si Si4 0.640360 0.611268 0.096676
Si Si5 0.490863 0.664110 0.695963
Si Si6 0.858498 0.887471 0.853349
Si Si7 0.999173 0.913577 0.463593
Si Si8 0.139266 0.660342 0.042520
O O1 0.250000 0.165654 0.666491
O O2 0.106859 0.250000 0.630032
O O3 0.113074 0.162209 0.800662
O O4 0.093757 0.103049 0.603939
O O5 0.066105 0.900684 0.762345
O O6 0.931200 0.957625 0.863437
O O7 0.089326 0.031217 0.886776
O O8 0.077702 0.894646 0.968077
O O9 0.250000 0.647553 0.315542
O O10 0.121987 0.750000 0.322400
O O11 0.120478 0.648258 0.171246
O O12 0.080682 0.609095 0.380091
O O13 0.750000 0.595061 0.106571
O O14 0.630716 0.646765 0.975760
O O15 0.455161 0.750000 0.707450
O O16 0.591561 0.659680 0.757613
O O17 0.497422 0.638930 0.571083
O O18 0.750000 0.903460 0.834563
O O19 0.000000 0.000000 0.500000
O O20 0.250000 0.646221 0.024319
O O21 0.122160 0.750000 0.018405
#
# Coordination Sequence:
#
# PCOD9451142 Si02
#       8
#     8   8   8   8   8   8   8   8
#     4  10  23  42  65  92 122 160 209 261 312 368
#     4  10  20  35  61  88 125 162 205 245 308 365
#     4   9  20  40  66  93 122 160 207 257 308 364
#     4  10  20  38  62  92 125 158 200 253 311 370
#     4  10  23  39  57  84 121 163 211 251 294 363
#     4   9  22  38  59  88 125 166 206 249 301 366
#     4  12  25  41  65  91 123 159 204 260 315 369
#     4   9  18  34  58  93 129 160 202 251 300 360
#
# _framework density 20.684422000000001
#
# number of rings (size 3 to 8) (size 9 to 14) (size 15 to 20)
#    0.750    1.375    0.000    3.750    1.750    2.750 
#    0.000    3.750    0.000    3.000    0.000    0.000 
#    0.000    0.000    0.000    0.000    0.000    0.000 
#
# Total GULP energy -357026.348502 kJ/mol
# GULP energy per Si atom -5578.536695 kJ/mol
# Density = 2.063734 g / cm^3
# Si number density = 20.684422 Si / 1000 Ang^3
#
#
#
# Elastic Constant Matrix: (Units=GPa)
#
#
# Indices 1 2 3 4 5 6 
#
# 1 77.3136 32.9927 22.2119 0.0000 0.0000 0.0000
# 2 32.9927 84.4399 20.4933 0.0000 0.0000 0.0000
# 3 22.2119 20.4933 81.0348 0.0000 0.0000 0.0000
# 4 0.0000 0.0000 0.0000 29.5504 0.0000 0.0000
# 5 0.0000 0.0000 0.0000 0.0000 28.6491 0.0000
# 6 0.0000 0.0000 0.0000 0.0000 0.0000 19.9396
#
#
#
# Elastic Compliance Matrix: (Units=1/GPa)
#
#
# Indices 1 2 3 4 5 6 
#
# 1 0.016189 -0.005592 -0.003023 0.000000 0.000000 0.000000
# 2 -0.005592 0.014549 -0.002147 0.000000 0.000000 0.000000
# 3 -0.003023 -0.002147 0.013712 0.000000 0.000000 0.000000
# 4 0.000000 0.000000 0.000000 0.033840 0.000000 0.000000
# 5 0.000000 0.000000 0.000000 0.000000 0.034905 0.000000
# 6 0.000000 0.000000 0.000000 0.000000 0.000000 0.050152
#
#
# Mechanical properties :
#
#
# Convention : Reuss Voigt Hill
#
# Bulk Modulus (GPa) = 43.61796 43.79822 43.70809
# Shear Modulus (GPa) = 25.97237 26.76716 26.36977
#
# Velocity S-wave (km/s) = 3.54736 3.60123 3.57439
# Velocity P-wave (km/s) = 6.15723 6.20582 6.18157
#
# Compressibility (1/GPa) = 0.02292634
#
# Stress axis : x y z
#
# Youngs Moduli (GPa) = 61.76971 68.73545 72.92910
#
# Poissons Ratio (x) = 0.38435 0.22049
# Poissons Ratio (y) = 0.34540 0.15654
# Poissons Ratio (z) = 0.18675 0.14754
#
# Static dielectric constant tensor:
#      x y z
#    x 1.772680 0.000000 0.000000 
#    y 0.000000 1.784430 0.000000 
#    z 0.000000 0.000000 1.747660 
# 
# From -- ./inp_files/17196.got.cif
#   From: 2010.05.17/outbox.cif.g08.bks.cpg/sg59_9_cif.got.tgz:17196.got - 2010.06.03 14:40:33.
