data_PCOD9451193
_publ_section_title
;
Structure prediction by ZEFSAII (Michael W. Deem and Ramdas Pophale) SiO2 
 PCOD9451193
Probable space group: P M M N
;
_chemical_formula_sum "Si O2"
_cell_formula_units_Z 48
_cell_length_a 8.277222
_cell_length_b 15.212267
_cell_length_c 19.601751
_cell_angle_alpha 90.000000
_cell_angle_beta 90.000000
_cell_angle_gamma 90.000000
_cell_volume 2468.160575
_symmetry_space_group_name_H-M "P M M N"
_symmetry_group_IT_number 59
_space_group.IT_coordinate_system_code '2'
_symmetry_cell_setting 'orthorhombic'
loop_
_space_group_symop_operation_xyz
x,y,z
1/2-x,1/2-y,z
1/2+x,-y,-z
-x,1/2+y,-z
-x,-y,-z
1/2+x,1/2+y,-z
1/2-x,y,z
x,1/2-y,z
loop_
_atom_site_type_symbol
_atom_site_label
_atom_site_fract_x
_atom_site_fract_y
_atom_site_fract_z
Si Si1 0.439206 0.076133 0.319792
Si Si2 0.443040 0.967512 0.829529
Si Si3 0.555859 0.093785 0.028333
Si Si4 0.438979 0.250000 0.537123
Si Si5 0.434708 0.750000 0.612029
Si Si6 0.555394 0.944708 0.433767
Si Si7 0.945931 0.154918 0.885056
O O1 0.250000 0.090696 0.330744
O O2 0.474727 0.056542 0.241132
O O3 0.531095 0.163129 0.344583
O O4 0.495422 0.995539 0.367111
O O5 0.250000 0.958245 0.822314
O O6 0.499889 0.906010 0.893181
O O7 0.481491 0.068536 0.850108
O O8 0.750000 0.098182 0.031660
O O9 0.506119 0.154748 0.965435
O O10 0.500000 0.000000 0.000000
O O11 0.250000 0.250000 0.555575
O O12 0.456431 0.250000 0.455405
O O13 0.505924 0.343870 0.562289
O O14 0.250000 0.750000 0.588384
O O15 0.750000 0.943514 0.434323
O O16 0.500000 0.000000 0.500000
O O17 0.750000 0.147140 0.882086
O O18 0.991613 0.250000 0.855274
#
# Coordination Sequence:
#
# PCOD9451193 Si02
#       7
#     8   8   8   4   4   8   8
#     4  12  25  42  62  87 123 161 199 245 300 358
#     4  10  20  36  56  81 114 153 197 240 294 351
#     4   8  15  29  51  77 104 139 183 231 281 339
#     4  10  22  40  64  92 124 155 194 247 300 352
#     4  12  24  40  66  92 118 153 196 245 298 360
#     4  11  22  39  64  93 123 159 201 246 296 350
#     4   9  17  32  55  82 112 148 192 239 294 354
#
# _framework density 19.447682
#
# number of rings (size 3 to 8) (size 9 to 14) (size 15 to 20)
#    0.000    1.833    1.667    3.250    0.000    1.667 
#    3.000    0.000    0.000    0.000    0.000    0.000 
#    0.000    0.000    0.000    0.000    0.000    0.000 
#
# Total GULP energy -267710.355712 kJ/mol
# GULP energy per Si atom -5577.299077 kJ/mol
# Density = 1.940342 g / cm^3
# Si number density = 19.447682 Si / 1000 Ang^3
#
#
#
# Elastic Constant Matrix: (Units=GPa)
#
#
# Indices 1 2 3 4 5 6 
#
# 1 29.4370 -4.0656 -10.3143 0.0000 0.0000 0.0000
# 2 -4.0656 109.1753 21.7933 0.0000 0.0000 0.0000
# 3 -10.3143 21.7933 94.8609 0.0000 0.0000 0.0000
# 4 0.0000 0.0000 0.0000 16.3451 0.0000 0.0000
# 5 0.0000 0.0000 0.0000 0.0000 24.6705 0.0000
# 6 0.0000 0.0000 0.0000 0.0000 0.0000 21.8862
#
#
#
# Elastic Compliance Matrix: (Units=1/GPa)
#
#
# Indices 1 2 3 4 5 6 
#
# 1 0.035351 0.000576 0.003711 0.000000 0.000000 0.000000
# 2 0.000576 0.009609 -0.002145 0.000000 0.000000 0.000000
# 3 0.003711 -0.002145 0.011438 0.000000 0.000000 0.000000
# 4 0.000000 0.000000 0.000000 0.061180 0.000000 0.000000
# 5 0.000000 0.000000 0.000000 0.000000 0.040534 0.000000
# 6 0.000000 0.000000 0.000000 0.000000 0.000000 0.045691
#
#
# Mechanical properties :
#
#
# Convention : Reuss Voigt Hill
#
# Bulk Modulus (GPa) = 16.47934 27.58890 22.03412
# Shear Modulus (GPa) = 22.75345 27.65102 25.20224
#
# Velocity S-wave (km/s) = 3.42421 3.77479 3.60377
# Velocity P-wave (km/s) = 4.91179 5.76331 5.35450
#
# Compressibility (1/GPa) = 0.06068205
#
# Stress axis : x y z
#
# Youngs Moduli (GPa) = 28.28794 104.06699 87.42714
#
# Poissons Ratio (x) = -0.05990 -0.32448
# Poissons Ratio (y) = -0.01628 0.18753
# Poissons Ratio (z) = -0.10499 0.22323
#
# Static dielectric constant tensor:
#      x y z
#    x 1.681030 0.000000 0.000000 
#    y 0.000000 1.618990 0.000000 
#    z 0.000000 0.000000 1.669380 
# 
# From -- ./inp_files/25563.got.cif
#   From: 2010.05.17/outbox.cif.g08.bks.cpg/sg59_13_cif.got.tgz:25563.got - 2010.06.03 14:40:33.
