data_PCOD9451002
_publ_section_title
;
Structure prediction by ZEFSAII (Michael W. Deem and Ramdas Pophale) SiO2 
 PCOD9451002
Probable space group: P M M N
;
_chemical_formula_sum "Si O2"
_cell_formula_units_Z 56
_cell_length_a 24.660320
_cell_length_b 8.710723
_cell_length_c 15.060958
_cell_angle_alpha 90.000000
_cell_angle_beta 90.000000
_cell_angle_gamma 90.000000
_cell_volume 3235.232589
_symmetry_space_group_name_H-M "P M M N"
_symmetry_group_IT_number 59
_space_group.IT_coordinate_system_code '2'
_symmetry_cell_setting 'orthorhombic'
loop_
_space_group_symop_operation_xyz
x,y,z
1/2-x,1/2-y,z
1/2+x,-y,-z
-x,1/2+y,-z
-x,-y,-z
1/2+x,1/2+y,-z
1/2-x,y,z
x,1/2-y,z
loop_
_atom_site_type_symbol
_atom_site_label
_atom_site_fract_x
_atom_site_fract_y
_atom_site_fract_z
Si Si1 0.040895 0.931851 0.872966
Si Si2 0.137901 0.932679 0.213998
Si Si3 0.933998 0.566297 0.628589
Si Si4 0.130265 0.933787 0.540446
Si Si5 0.080821 0.068489 0.051034
Si Si6 0.750000 0.933021 0.715950
Si Si7 0.951298 0.567225 0.322841
Si Si8 0.250000 0.933863 0.480748
O O1 0.050187 0.750000 0.864362
O O2 0.978601 0.953878 0.904432
O O3 0.049477 0.012461 0.778964
O O4 0.076774 0.001937 0.952085
O O5 0.135015 0.750000 0.224881
O O6 0.095260 0.010897 0.281385
O O7 0.122342 0.981685 0.114726
O O8 0.196591 0.994678 0.240842
O O9 0.933541 0.750000 0.623902
O O10 0.900439 0.496809 0.546758
O O11 0.995444 0.506135 0.631444
O O12 0.124013 0.750000 0.543670
O O13 0.194156 0.969045 0.531435
O O14 0.101143 0.008824 0.624493
O O15 0.091895 0.250000 0.049417
O O16 0.750000 0.750000 0.725923
O O17 0.750000 0.977623 0.612275
O O18 0.955534 0.750000 0.327557
O O19 0.250000 0.750000 0.461750
#
# Coordination Sequence:
#
# PCOD9451002 Si02
#       8
#     8   8   8   8   8   4   8   4
#     4  10  20  35  57  84 116 151 189 233 284 342
#     4  12  23  37  58  85 119 156 194 236 289 348
#     4  12  23  37  56  84 118 154 193 237 290 348
#     4  11  23  40  60  83 114 152 194 242 293 349
#     4  10  20  35  57  85 117 150 188 231 284 342
#     4  12  24  38  60  85 116 153 196 242 288 342
#     4  12  24  38  57  84 118 157 196 239 291 348
#     4  10  22  40  62  83 110 149 196 242 290 342
#
# _framework density 17.309419999999999
#
# number of rings (size 3 to 8) (size 9 to 14) (size 15 to 20)
#    0.000    0.857    2.857    6.214    0.000    1.714 
#    0.000    0.000    0.000    0.857    0.000    5.000 
#    0.000    0.000    0.000    0.000    0.000    0.000 
#
# Total GULP energy -313196.455106 kJ/mol
# GULP energy per Si atom -5592.793841 kJ/mol
# Density = 1.727002 g / cm^3
# Si number density = 17.309420 Si / 1000 Ang^3
#
#
#
# Elastic Constant Matrix: (Units=GPa)
#
#
# Indices 1 2 3 4 5 6 
#
# 1 91.6516 48.6006 41.2205 0.0000 0.0000 0.0000
# 2 48.6006 104.7839 38.7694 0.0000 0.0000 0.0000
# 3 41.2205 38.7694 82.1590 0.0000 0.0000 0.0000
# 4 0.0000 0.0000 0.0000 33.8149 0.0000 0.0000
# 5 0.0000 0.0000 0.0000 0.0000 15.6336 0.0000
# 6 0.0000 0.0000 0.0000 0.0000 0.0000 23.8277
#
#
#
# Elastic Compliance Matrix: (Units=1/GPa)
#
#
# Indices 1 2 3 4 5 6 
#
# 1 0.016354 -0.005512 -0.005604 0.000000 0.000000 0.000000
# 2 -0.005512 0.013420 -0.003567 0.000000 0.000000 0.000000
# 3 -0.005604 -0.003567 0.016667 0.000000 0.000000 0.000000
# 4 0.000000 0.000000 0.000000 0.029573 0.000000 0.000000
# 5 0.000000 0.000000 0.000000 0.000000 0.063965 0.000000
# 6 0.000000 0.000000 0.000000 0.000000 0.000000 0.041968
#
#
# Mechanical properties :
#
#
# Convention : Reuss Voigt Hill
#
# Bulk Modulus (GPa) = 58.56846 59.53060 59.04953
# Shear Modulus (GPa) = 23.04108 24.65551 23.84830
#
# Velocity S-wave (km/s) = 3.65242 3.77821 3.71585
# Velocity P-wave (km/s) = 7.19003 7.31436 7.25246
#
# Compressibility (1/GPa) = 0.01707403
#
# Stress axis : x y z
#
# Youngs Moduli (GPa) = 61.14639 74.51694 60.00045
#
# Poissons Ratio (x) = 0.41073 0.33626
# Poissons Ratio (y) = 0.33703 0.21403
# Poissons Ratio (z) = 0.34268 0.26581
#
# Static dielectric constant tensor:
#      x y z
#    x 1.594970 0.000000 0.000000 
#    y 0.000000 1.572980 0.000000 
#    z 0.000000 0.000000 1.571150 
# 
# From -- ./inp_files/24323.got.cif
#   From: 2010.05.17/outbox.cif.g08.bks.cpg/sg59_13_cif.got.tgz:24323.got - 2010.06.03 14:40:33.
