data_PCOD9451935
_publ_section_title
;
Structure prediction by ZEFSAII (Michael W. Deem and Ramdas Pophale) SiO2 
 PCOD9451935
Probable space group: P M M N
;
_chemical_formula_sum "Si O2"
_cell_formula_units_Z 48
_cell_length_a 12.941921
_cell_length_b 10.121812
_cell_length_c 17.264597
_cell_angle_alpha 90.000000
_cell_angle_beta 90.000000
_cell_angle_gamma 90.000000
_cell_volume 2261.587819
_symmetry_space_group_name_H-M "P M M N"
_symmetry_group_IT_number 59
_space_group.IT_coordinate_system_code '2'
_symmetry_cell_setting 'orthorhombic'
loop_
_space_group_symop_operation_xyz
x,y,z
1/2-x,1/2-y,z
1/2+x,-y,-z
-x,1/2+y,-z
-x,-y,-z
1/2+x,1/2+y,-z
1/2-x,y,z
x,1/2-y,z
loop_
_atom_site_type_symbol
_atom_site_label
_atom_site_fract_x
_atom_site_fract_y
_atom_site_fract_z
Si Si1 0.360916 0.400251 0.194240
Si Si2 0.129516 0.401882 0.436843
Si Si3 0.413092 0.889422 0.069036
Si Si4 0.946847 0.904291 0.388497
Si Si5 0.084926 0.903092 0.741998
Si Si6 0.863420 0.990350 0.089686
O O1 0.250000 0.421278 0.233368
O O2 0.365022 0.250000 0.166244
O O3 0.370196 0.493596 0.120711
O O4 0.460889 0.417246 0.246682
O O5 0.250000 0.423419 0.419495
O O6 0.101788 0.250000 0.411605
O O7 0.053101 0.514600 0.404855
O O8 0.113086 0.404443 0.529866
O O9 0.376734 0.750000 0.100099
O O10 0.537138 0.898236 0.077659
O O11 0.379401 0.907071 0.980622
O O12 0.962835 0.750000 0.366021
O O13 0.887983 0.990228 0.323350
O O14 0.109370 0.750000 0.723511
O O15 0.128305 0.941399 0.826405
O O16 0.750000 0.929175 0.082196
#
# Coordination Sequence:
#
# PCOD9451935 Si02
#       6
#     8   8   8   8   8   8
#     4   9  19  36  56  78 108 148 191 234 283 339
#     4   9  19  38  63  86 110 146 186 221 268 331
#     4  10  21  37  58  84 110 139 185 244 293 332
#     4  10  21  37  57  85 119 147 178 228 278 322
#     4  10  21  36  54  79 113 153 191 225 270 332
#     4  10  22  38  56  80 112 150 190 233 282 336
#
# _framework density 21.224027
#
# number of rings (size 3 to 8) (size 9 to 14) (size 15 to 20)
#    0.000    2.333    0.000    1.500    0.000   11.667 
#    0.000    1.667    0.000    0.000    0.000    0.000 
#    0.000    0.000    0.000    0.000    0.000    0.000 
#
# Total GULP energy -267878.559007 kJ/mol
# GULP energy per Si atom -5580.803313 kJ/mol
# Density = 2.117572 g / cm^3
# Si number density = 21.224027 Si / 1000 Ang^3
#
#
#
# Elastic Constant Matrix: (Units=GPa)
#
#
# Indices 1 2 3 4 5 6 
#
# 1 111.5648 17.6748 11.3229 0.0000 0.0000 0.0000
# 2 17.6748 107.7993 66.5191 0.0000 0.0000 0.0000
# 3 11.3229 66.5191 113.5016 0.0000 0.0000 0.0000
# 4 0.0000 0.0000 0.0000 0.0702 0.0000 0.0000
# 5 0.0000 0.0000 0.0000 0.0000 -10.1263 0.0000
# 6 0.0000 0.0000 0.0000 0.0000 0.0000 2.3228
#
#
#
# Elastic Compliance Matrix: (Units=1/GPa)
#
#
# Indices 1 2 3 4 5 6 
#
# 1 0.009203 -0.001476 -0.000053 0.000000 0.000000 0.000000
# 2 -0.001476 0.014769 -0.008508 0.000000 0.000000 0.000000
# 3 -0.000053 -0.008508 0.013802 0.000000 0.000000 0.000000
# 4 0.000000 0.000000 0.000000 14.239038 0.000000 0.000000
# 5 0.000000 0.000000 0.000000 0.000000 -0.098753 0.000000
# 6 0.000000 0.000000 0.000000 0.000000 0.000000 0.430511
#
#
# Mechanical properties :
#
#
# Convention : Reuss Voigt Hill
#
# Bulk Modulus (GPa) = 56.50086 58.21105 57.35595
# Shear Modulus (GPa) = 0.34166 14.27662 7.30914
#
# Velocity S-wave (km/s) = 0.40165 2.59639 1.85776
# Velocity P-wave (km/s) = 5.18595 6.03944 5.62889
#
# Compressibility (1/GPa) = 0.01769885
#
# Stress axis : x y z
#
# Youngs Moduli (GPa) = 108.66448 67.71145 72.45345
#
# Poissons Ratio (x) = 0.09996 0.00383
# Poissons Ratio (y) = 0.16041 0.61644
# Poissons Ratio (z) = 0.00575 0.57609
#
# Static dielectric constant tensor:
#      x y z
#    x 1.815980 0.000000 0.000000 
#    y 0.000000 1.753380 0.000000 
#    z 0.000000 0.000000 1.762470 
# 
# From -- ./inp_files/23165.got.cif
#   From: 2010.05.17/outbox.cif.g08.bks.cpg/sg59_12_cif.got.tgz:23165.got - 2010.06.03 14:40:33.
