data_PCOD9451592
_publ_section_title
;
Structure prediction by ZEFSAII (Michael W. Deem and Ramdas Pophale) SiO2 
 PCOD9451592
Probable space group: P M M N
;
_chemical_formula_sum "Si O2"
_cell_formula_units_Z 64
_cell_length_a 15.852497
_cell_length_b 17.930875
_cell_length_c 11.163730
_cell_angle_alpha 90.000000
_cell_angle_beta 90.000000
_cell_angle_gamma 90.000000
_cell_volume 3173.280676
_symmetry_space_group_name_H-M "P M M N"
_symmetry_group_IT_number 59
_space_group.IT_coordinate_system_code '2'
_symmetry_cell_setting 'orthorhombic'
loop_
_space_group_symop_operation_xyz
x,y,z
1/2-x,1/2-y,z
1/2+x,-y,-z
-x,1/2+y,-z
-x,-y,-z
1/2+x,1/2+y,-z
1/2-x,y,z
x,1/2-y,z
loop_
_atom_site_type_symbol
_atom_site_label
_atom_site_fract_x
_atom_site_fract_y
_atom_site_fract_z
Si Si1 0.029355 0.166652 0.787897
Si Si2 0.153812 0.896523 0.814028
Si Si3 0.592953 0.017753 0.546543
Si Si4 0.344199 0.834136 0.170616
Si Si5 0.651556 0.505775 0.816957
Si Si6 0.485520 0.414551 0.039490
Si Si7 0.150877 0.669700 0.553436
Si Si8 0.341752 0.055226 0.680310
O O1 0.063159 0.250000 0.780185
O O2 0.082763 0.109945 0.710230
O O3 0.930377 0.168545 0.755715
O O4 0.031433 0.136706 0.924746
O O5 0.250000 0.884697 0.864910
O O6 0.146076 0.845879 0.695757
O O7 0.069861 0.886219 0.892836
O O8 0.150665 0.981409 0.763448
O O9 0.608970 0.103038 0.515397
O O10 0.500000 0.000000 0.500000
O O11 0.612609 0.002402 0.684217
O O12 0.652645 0.971825 0.456230
O O13 0.250000 0.834656 0.225980
O O14 0.346746 0.750000 0.106945
O O15 0.351109 0.921208 0.123623
O O16 0.750000 0.524784 0.811670
O O17 0.597363 0.570504 0.880215
O O18 0.500000 0.500000 0.000000
O O19 0.250000 0.668546 0.524403
O O20 0.114714 0.750000 0.524623
O O21 0.250000 0.088930 0.704837
#
# Coordination Sequence:
#
# PCOD9451592 Si02
#       8
#     8   8   8   8   8   8   8   8
#     4  11  23  39  59  85 115 151 201 256 303 357
#     4   9  18  33  57  86 117 154 195 240 293 359
#     4  11  21  36  61  89 123 157 200 246 300 366
#     4   9  18  33  53  81 120 156 183 224 290 362
#     4  11  22  36  57  88 121 157 198 242 295 359
#     4  12  22  37  58  84 118 157 204 244 297 354
#     4   9  18  34  57  88 124 158 194 240 301 371
#     4  10  20  38  61  84 111 151 199 250 296 345
#
# _framework density 20.168402
#
# number of rings (size 3 to 8) (size 9 to 14) (size 15 to 20)
#    0.000    1.750    2.500    4.125    0.000    2.750 
#    0.000    1.875    0.000    0.750    0.000    0.000 
#    0.000    0.000    0.000    0.000    0.000    0.000 
#
# Total GULP energy -356717.785522 kJ/mol
# GULP energy per Si atom -5573.715399 kJ/mol
# Density = 2.012250 g / cm^3
# Si number density = 20.168402 Si / 1000 Ang^3
#
#
#
# Elastic Constant Matrix: (Units=GPa)
#
#
# Indices 1 2 3 4 5 6 
#
# 1 129.1178 41.8713 32.5215 0.0000 0.0000 0.0000
# 2 41.8713 98.9089 29.9895 0.0000 0.0000 0.0000
# 3 32.5215 29.9895 78.2490 0.0000 0.0000 0.0000
# 4 0.0000 0.0000 0.0000 16.1324 0.0000 0.0000
# 5 0.0000 0.0000 0.0000 0.0000 22.6253 0.0000
# 6 0.0000 0.0000 0.0000 0.0000 0.0000 24.3046
#
#
#
# Elastic Compliance Matrix: (Units=1/GPa)
#
#
# Indices 1 2 3 4 5 6 
#
# 1 0.009460 -0.003182 -0.002712 0.000000 0.000000 0.000000
# 2 -0.003182 0.012510 -0.003472 0.000000 0.000000 0.000000
# 3 -0.002712 -0.003472 0.015238 0.000000 0.000000 0.000000
# 4 0.000000 0.000000 0.000000 0.061987 0.000000 0.000000
# 5 0.000000 0.000000 0.000000 0.000000 0.044198 0.000000
# 6 0.000000 0.000000 0.000000 0.000000 0.000000 0.041145
#
#
# Mechanical properties :
#
#
# Convention : Reuss Voigt Hill
#
# Bulk Modulus (GPa) = 54.12747 57.22671 55.67709
# Shear Modulus (GPa) = 23.87448 26.07202 24.97325
#
# Velocity S-wave (km/s) = 3.44431 3.59934 3.52268
# Velocity P-wave (km/s) = 6.53557 6.76089 6.64919
#
# Compressibility (1/GPa) = 0.01847491
#
# Stress axis : x y z
#
# Youngs Moduli (GPa) = 105.70857 79.93452 65.62737
#
# Poissons Ratio (x) = 0.25438 0.17798
# Poissons Ratio (y) = 0.33641 0.22786
# Poissons Ratio (z) = 0.28669 0.27753
#
# Static dielectric constant tensor:
#      x y z
#    x 1.746030 0.000000 0.000000 
#    y 0.000000 2.051710 0.000000 
#    z 0.000000 0.000000 1.777560 
# 
# From -- ./inp_files/17249.got.cif
#   From: 2010.05.17/outbox.cif.g08.bks.cpg/sg59_9_cif.got.tgz:17249.got - 2010.06.03 14:40:33.
