data_PCOD9451198
_publ_section_title
;
Structure prediction by ZEFSAII (Michael W. Deem and Ramdas Pophale) SiO2 
 PCOD9451198
Probable space group: P M M N
;
_chemical_formula_sum "Si O2"
_cell_formula_units_Z 56
_cell_length_a 22.520160
_cell_length_b 15.194030
_cell_length_c 9.026787
_cell_angle_alpha 90.000000
_cell_angle_beta 90.000000
_cell_angle_gamma 90.000000
_cell_volume 3088.713641
_symmetry_space_group_name_H-M "P M M N"
_symmetry_group_IT_number 59
_space_group.IT_coordinate_system_code '2'
_symmetry_cell_setting 'orthorhombic'
loop_
_space_group_symop_operation_xyz
x,y,z
1/2-x,1/2-y,z
1/2+x,-y,-z
-x,1/2+y,-z
-x,-y,-z
1/2+x,1/2+y,-z
1/2-x,y,z
x,1/2-y,z
loop_
_atom_site_type_symbol
_atom_site_label
_atom_site_fract_x
_atom_site_fract_y
_atom_site_fract_z
Si Si1 0.320922 0.351426 0.010701
Si Si2 0.681399 0.250000 0.884395
Si Si3 0.179935 0.027339 0.745706
Si Si4 0.317916 0.750000 0.471069
Si Si5 0.983050 0.147831 0.299151
Si Si6 0.890279 0.100904 0.048682
Si Si7 0.592433 0.970121 0.804041
Si Si8 0.112131 0.931163 0.499552
O O1 0.250000 0.359214 0.029180
O O2 0.338462 0.250000 0.026859
O O3 0.353815 0.411938 0.130331
O O4 0.334136 0.386440 0.844063
O O5 0.750000 0.250000 0.934845
O O6 0.681796 0.250000 0.707271
O O7 0.645242 0.332253 0.946549
O O8 0.250000 0.025023 0.714471
O O9 0.142064 0.007243 0.599728
O O10 0.159336 0.950097 0.856296
O O11 0.250000 0.750000 0.524799
O O12 0.350238 0.659465 0.516472
O O13 0.994489 0.250000 0.335685
O O14 0.951713 0.095862 0.434117
O O15 0.040924 0.095332 0.247845
O O16 0.935604 0.143537 0.164400
O O17 0.924354 0.032640 0.942199
O O18 0.609373 0.032597 0.666532
#
# Coordination Sequence:
#
# PCOD9451198 Si02
#       8
#     8   4   8   4   8   8   8   8
#     4   9  19  38  61  84 111 143 187 245 296 342
#     4  11  20  33  57  89 121 153 187 240 295 346
#     4   9  19  34  56  83 112 148 183 227 287 350
#     4  11  22  35  57  87 125 161 187 232 291 350
#     4  11  22  38  58  78 110 153 196 245 289 337
#     4  10  20  36  56  83 114 147 194 242 287 343
#     4  11  22  37  59  83 114 151 198 236 295 346
#     4  11  22  38  55  83 120 153 193 235 283 350
#
# _framework density 18.130524999999999
#
# number of rings (size 3 to 8) (size 9 to 14) (size 15 to 20)
#    0.000    1.714    2.857    2.143    0.000    1.714 
#    0.000    3.571    0.000    1.714    0.000    0.000 
#    0.000    0.000    0.000    0.000    0.000    0.000 
#
# Total GULP energy -312372.182857 kJ/mol
# GULP energy per Si atom -5578.074694 kJ/mol
# Density = 1.808926 g / cm^3
# Si number density = 18.130525 Si / 1000 Ang^3
#
#
#
# Elastic Constant Matrix: (Units=GPa)
#
#
# Indices 1 2 3 4 5 6 
#
# 1 43.9730 23.7748 2.8780 0.0000 0.0000 0.0000
# 2 23.7748 82.3052 21.9714 0.0000 0.0000 0.0000
# 3 2.8780 21.9714 67.0619 0.0000 0.0000 0.0000
# 4 0.0000 0.0000 0.0000 24.7254 0.0000 0.0000
# 5 0.0000 0.0000 0.0000 0.0000 19.2135 0.0000
# 6 0.0000 0.0000 0.0000 0.0000 0.0000 25.8730
#
#
#
# Elastic Compliance Matrix: (Units=1/GPa)
#
#
# Indices 1 2 3 4 5 6 
#
# 1 0.027094 -0.008236 0.001536 0.000000 0.000000 0.000000
# 2 -0.008236 0.015818 -0.004829 0.000000 0.000000 0.000000
# 3 0.001536 -0.004829 0.016428 0.000000 0.000000 0.000000
# 4 0.000000 0.000000 0.000000 0.040444 0.000000 0.000000
# 5 0.000000 0.000000 0.000000 0.000000 0.052047 0.000000
# 6 0.000000 0.000000 0.000000 0.000000 0.000000 0.038650
#
#
# Mechanical properties :
#
#
# Convention : Reuss Voigt Hill
#
# Bulk Modulus (GPa) = 27.56300 32.28761 29.92530
# Shear Modulus (GPa) = 22.15981 23.61012 22.88497
#
# Velocity S-wave (km/s) = 3.49984 3.61256 3.55665
# Velocity P-wave (km/s) = 5.61849 5.93699 5.77993
#
# Compressibility (1/GPa) = 0.03628053
#
# Stress axis : x y z
#
# Youngs Moduli (GPa) = 36.90882 63.21851 60.87235
#
# Poissons Ratio (x) = 0.52069 -0.09348
# Poissons Ratio (y) = 0.30399 0.29395
# Poissons Ratio (z) = -0.05668 0.30528
#
# Static dielectric constant tensor:
#      x y z
#    x 1.604390 0.000000 0.000000 
#    y 0.000000 1.621630 0.000000 
#    z 0.000000 0.000000 1.609470 
# 
# From -- ./inp_files/11490.got.cif
#   From: 2010.05.17/outbox.cif.g08.bks.cpg/sg59_6_cif.got.tgz:11490.got - 2010.06.03 14:40:33.
