data_PCOD9451139
_publ_section_title
;
Structure prediction by ZEFSAII (Michael W. Deem and Ramdas Pophale) SiO2 
 PCOD9451139
Probable space group: P M M N
;
_chemical_formula_sum "Si O2"
_cell_formula_units_Z 40
_cell_length_a 11.279517
_cell_length_b 17.365780
_cell_length_c 9.713422
_cell_angle_alpha 90.000000
_cell_angle_beta 90.000000
_cell_angle_gamma 90.000000
_cell_volume 1902.641893
_symmetry_space_group_name_H-M "P M M N"
_symmetry_group_IT_number 59
_space_group.IT_coordinate_system_code '2'
_symmetry_cell_setting 'orthorhombic'
loop_
_space_group_symop_operation_xyz
x,y,z
1/2-x,1/2-y,z
1/2+x,-y,-z
-x,1/2+y,-z
-x,-y,-z
1/2+x,1/2+y,-z
1/2-x,y,z
x,1/2-y,z
loop_
_atom_site_type_symbol
_atom_site_label
_atom_site_fract_x
_atom_site_fract_y
_atom_site_fract_z
Si Si1 0.016369 0.342609 0.833092
Si Si2 0.250000 0.342815 0.010509
Si Si3 0.250000 0.155793 0.326025
Si Si4 0.110709 0.943689 0.972934
Si Si5 0.037944 0.341947 0.522735
Si Si6 0.110687 0.834933 0.723811
O O1 0.003943 0.250000 0.831913
O O2 0.132886 0.361902 0.923323
O O3 0.035206 0.372157 0.677273
O O4 0.904140 0.380947 0.905761
O O5 0.250000 0.250000 0.020608
O O6 0.250000 0.371894 0.168166
O O7 0.250000 0.250000 0.321490
O O8 0.361755 0.130224 0.417075
O O9 0.250000 0.969791 0.966645
O O10 0.076743 0.899594 0.831830
O O11 0.000000 0.000000 0.000000
O O12 0.058435 0.250000 0.538494
O O13 0.920103 0.352848 0.433619
O O14 0.250000 0.828040 0.739525
O O15 0.055457 0.750000 0.755915
#
# Coordination Sequence:
#
# PCOD9451139 Si02
#       6
#     8   4   4   8   8   8
#     4  10  20  35  60  92 123 156 199 257 313 359
#     4   9  17  29  53  89 125 161 198 241 294 355
#     4   9  15  25  43  75 121 159 189 227 286 357
#     4  11  25  43  62  86 121 162 208 254 306 367
#     4   9  17  30  52  87 123 151 190 248 308 361
#     4   9  18  36  62  88 115 152 198 248 303 364
#
# _framework density 21.023396999999999
#
# number of rings (size 3 to 8) (size 9 to 14) (size 15 to 20)
#    0.000    2.400    0.000    2.400    1.400    7.600 
#    1.800    3.000    0.000    0.000    0.000    0.000 
#    0.000    0.000    0.000    0.000    0.000    0.000 
#
# Total GULP energy -222983.523255 kJ/mol
# GULP energy per Si atom -5574.588081 kJ/mol
# Density = 2.097555 g / cm^3
# Si number density = 21.023397 Si / 1000 Ang^3
#
#
#
# Elastic Constant Matrix: (Units=GPa)
#
#
# Indices 1 2 3 4 5 6 
#
# 1 60.0873 35.4334 14.9122 0.0000 0.0000 0.0000
# 2 35.4334 41.0872 24.5419 0.0000 0.0000 0.0000
# 3 14.9122 24.5419 145.9099 0.0000 0.0000 0.0000
# 4 0.0000 0.0000 0.0000 -3.9374 0.0000 0.0000
# 5 0.0000 0.0000 0.0000 0.0000 20.7348 0.0000
# 6 0.0000 0.0000 0.0000 0.0000 0.0000 30.0018
#
#
#
# Elastic Compliance Matrix: (Units=1/GPa)
#
#
# Indices 1 2 3 4 5 6 
#
# 1 0.034209 -0.030475 0.001630 0.000000 0.000000 0.000000
# 2 -0.030475 0.054206 -0.006003 0.000000 0.000000 0.000000
# 3 0.001630 -0.006003 0.007697 0.000000 0.000000 0.000000
# 4 0.000000 0.000000 0.000000 -0.253975 0.000000 0.000000
# 5 0.000000 0.000000 0.000000 0.000000 0.048228 0.000000
# 6 0.000000 0.000000 0.000000 0.000000 0.000000 0.033331
#
#
# Mechanical properties :
#
#
# Convention : Reuss Voigt Hill
#
# Bulk Modulus (GPa) = 37.85740 44.09548 40.97644
# Shear Modulus (GPa) = 2274.95593 20.83963 1147.89778
#
# Velocity S-wave (km/s) = 32.93108 3.15184 23.39220
# Velocity P-wave (km/s) = 38.26209 5.85367 27.37018
#
# Compressibility (1/GPa) = 0.02641492
#
# Stress axis : x y z
#
# Youngs Moduli (GPa) = 29.23181 18.44820 129.92675
#
# Poissons Ratio (x) = 0.56222 -0.21174
# Poissons Ratio (y) = 0.89085 0.77992
# Poissons Ratio (z) = -0.04764 0.11074
#
# Static dielectric constant tensor:
#      x y z
#    x 1.803250 0.000000 0.000000 
#    y 0.000000 1.821760 0.000000 
#    z 0.000000 0.000000 1.734250 
# 
# From -- ./inp_files/7388.got.cif
#   From: 2010.05.17/outbox.cif.g08.bks.cpg/sg59_4_cif.got.tgz:7388.got - 2010.06.03 14:40:33.
