data_PCOD9451627
_publ_section_title
;
Structure prediction by ZEFSAII (Michael W. Deem and Ramdas Pophale) SiO2 
 PCOD9451627
Probable space group: P M M N
;
_chemical_formula_sum "Si O2"
_cell_formula_units_Z 24
_cell_length_a 11.962229
_cell_length_b 10.421188
_cell_length_c 8.709702
_cell_angle_alpha 90.000000
_cell_angle_beta 90.000000
_cell_angle_gamma 90.000000
_cell_volume 1085.757002
_symmetry_space_group_name_H-M "P M M N"
_symmetry_group_IT_number 59
_space_group.IT_coordinate_system_code '2'
_symmetry_cell_setting 'orthorhombic'
loop_
_space_group_symop_operation_xyz
x,y,z
1/2-x,1/2-y,z
1/2+x,-y,-z
-x,1/2+y,-z
-x,-y,-z
1/2+x,1/2+y,-z
1/2-x,y,z
x,1/2-y,z
loop_
_atom_site_type_symbol
_atom_site_label
_atom_site_fract_x
_atom_site_fract_y
_atom_site_fract_z
Si Si1 0.624296 0.399263 0.382919
Si Si2 0.914489 0.484773 0.731075
Si Si3 0.627948 0.750000 0.886139
Si Si4 0.877737 0.250000 0.956316
O O1 0.750000 0.405918 0.328754
O O2 0.587096 0.250000 0.377811
O O3 0.547091 0.490857 0.282731
O O4 0.620068 0.443830 0.559886
O O5 0.869794 0.621485 0.784705
O O6 0.882364 0.375612 0.849536
O O7 0.750000 0.750000 0.974021
O O8 0.501526 0.750000 0.961369
O O9 0.750000 0.250000 0.027929
#
# Coordination Sequence:
#
# PCOD9451627 Si02
#       4
#     8   8   4   4
#     4  10  20  38  67  98 130 167 208 263 328 392
#     4  11  23  41  65  96 128 167 215 263 324 383
#     4  12  26  43  64  94 130 169 223 276 315 368
#     4  12  26  45  68  90 128 181 221 260 321 388
#
# _framework density 22.104392000000001
#
# number of rings (size 3 to 8) (size 9 to 14) (size 15 to 20)
#    0.000    1.000    3.333    4.000    0.000    2.667 
#    0.000    1.667    0.000    0.000    0.000    0.000 
#    0.000    0.000    0.000    0.000    0.000    0.000 
#
# Total GULP energy -133940.911540 kJ/mol
# GULP energy per Si atom -5580.871314 kJ/mol
# Density = 2.205408 g / cm^3
# Si number density = 22.104392 Si / 1000 Ang^3
#
#
#
# Elastic Constant Matrix: (Units=GPa)
#
#
# Indices 1 2 3 4 5 6 
#
# 1 202.4801 47.9743 54.5220 0.0000 0.0000 0.0000
# 2 47.9743 148.1982 35.9649 0.0000 0.0000 0.0000
# 3 54.5220 35.9649 61.1452 0.0000 0.0000 0.0000
# 4 0.0000 0.0000 0.0000 -8.3109 0.0000 0.0000
# 5 0.0000 0.0000 0.0000 0.0000 0.9663 0.0000
# 6 0.0000 0.0000 0.0000 0.0000 0.0000 51.0590
#
#
#
# Elastic Compliance Matrix: (Units=1/GPa)
#
#
# Indices 1 2 3 4 5 6 
#
# 1 0.006584 -0.000824 -0.005386 0.000000 0.000000 0.000000
# 2 -0.000824 0.007974 -0.003955 0.000000 0.000000 0.000000
# 3 -0.005386 -0.003955 0.023484 0.000000 0.000000 0.000000
# 4 0.000000 0.000000 0.000000 -0.120324 0.000000 0.000000
# 5 0.000000 0.000000 0.000000 0.000000 1.034888 0.000000
# 6 0.000000 0.000000 0.000000 0.000000 0.000000 0.019585
#
#
# Mechanical properties :
#
#
# Convention : Reuss Voigt Hill
#
# Bulk Modulus (GPa) = 56.46329 76.52730 66.49530
# Shear Modulus (GPa) = 5.00787 26.96705 15.98746
#
# Velocity S-wave (km/s) = 1.50681 3.49662 2.69229
# Velocity P-wave (km/s) = 5.35039 7.14128 6.30969
#
# Compressibility (1/GPa) = 0.01771062
#
# Stress axis : x y z
#
# Youngs Moduli (GPa) = 151.87272 125.39992 42.58218
#
# Poissons Ratio (x) = 0.10337 0.22936
# Poissons Ratio (y) = 0.12519 0.16843
# Poissons Ratio (z) = 0.81804 0.49601
#
# Static dielectric constant tensor:
#      x y z
#    x 1.905360 0.000000 0.000000 
#    y 0.000000 1.741050 0.000000 
#    z 0.000000 0.000000 1.804940 
# 
# From -- ./inp_files/6581.got.cif
#   From: 2010.05.17/outbox.cif.g08.bks.cpg/sg59_4_cif.got.tgz:6581.got - 2010.06.03 14:40:33.
