data_PCOD9451412
_publ_section_title
;
Structure prediction by ZEFSAII (Michael W. Deem and Ramdas Pophale) SiO2 
 PCOD9451412
Probable space group: P M M N
;
_chemical_formula_sum "Si O2"
_cell_formula_units_Z 64
_cell_length_a 8.592517
_cell_length_b 31.609870
_cell_length_c 12.276210
_cell_angle_alpha 90.000000
_cell_angle_beta 90.000000
_cell_angle_gamma 90.000000
_cell_volume 3334.321085
_symmetry_space_group_name_H-M "P M M N"
_symmetry_group_IT_number 59
_space_group.IT_coordinate_system_code '2'
_symmetry_cell_setting 'orthorhombic'
loop_
_space_group_symop_operation_xyz
x,y,z
1/2-x,1/2-y,z
1/2+x,-y,-z
-x,1/2+y,-z
-x,-y,-z
1/2+x,1/2+y,-z
1/2-x,y,z
x,1/2-y,z
loop_
_atom_site_type_symbol
_atom_site_label
_atom_site_fract_x
_atom_site_fract_y
_atom_site_fract_z
Si Si1 0.935689 0.180376 0.746513
Si Si2 0.565965 0.546933 0.485773
Si Si3 0.440134 0.796782 0.493971
Si Si4 0.936401 0.876413 0.878118
Si Si5 0.565673 0.079619 0.740047
Si Si6 0.061457 0.702867 0.013277
Si Si7 0.063196 0.621875 0.633755
Si Si8 0.062915 0.454311 0.966699
O O1 0.750000 0.189101 0.745831
O O2 0.995124 0.197500 0.631050
O O3 0.957607 0.130006 0.747956
O O4 0.993999 0.198319 0.861170
O O5 0.500000 0.500000 0.500000
O O6 0.750000 0.546308 0.500670
O O7 0.521781 0.562568 0.365346
O O8 0.493699 0.580346 0.570332
O O9 0.250000 0.798272 0.492136
O O10 0.485027 0.750000 0.533759
O O11 0.490854 0.836168 0.567862
O O12 0.750000 0.876053 0.873006
O O13 0.003444 0.877581 0.756815
O O14 0.984447 0.917943 0.947038
O O15 0.993900 0.834802 0.941522
O O16 0.750000 0.071904 0.727234
O O17 0.504402 0.058457 0.849675
O O18 0.250000 0.698935 0.013106
O O19 0.022197 0.750000 0.973379
O O20 0.250000 0.622079 0.633600
O O21 0.250000 0.455153 0.962023
O O22 0.000000 0.500000 0.000000
#
# Coordination Sequence:
#
# PCOD9451412 Si02
#       8
#     8   8   8   8   8   8   8   8
#     4   9  16  31  58  92 126 156 194 249 307 358
#     4  12  26  44  66  93 127 165 208 255 310 372
#     4   9  17  32  58  92 124 155 197 250 304 359
#     4  11  25  43  61  86 123 167 210 257 316 376
#     4  11  21  39  67  96 127 162 204 255 313 369
#     4  10  20  36  62  94 123 159 209 259 309 369
#     4  11  23  41  64  92 124 163 211 261 312 367
#     4  11  25  43  64  91 123 163 210 258 313 374
#
# _framework density 19.194310999999999
#
# number of rings (size 3 to 8) (size 9 to 14) (size 15 to 20)
#    0.000    1.500    2.500    3.000    1.750    3.750 
#    0.000    1.250    0.000    1.125    0.000    0.000 
#    0.000    0.000    0.000    0.000    0.000    0.000 
#
# Total GULP energy -357655.010578 kJ/mol
# GULP energy per Si atom -5588.359540 kJ/mol
# Density = 1.915062 g / cm^3
# Si number density = 19.194311 Si / 1000 Ang^3
#
#
#
# Elastic Constant Matrix: (Units=GPa)
#
#
# Indices 1 2 3 4 5 6 
#
# 1 45.2068 47.3329 29.7438 0.0000 0.0000 0.0000
# 2 47.3329 144.6485 87.1811 0.0000 0.0000 0.0000
# 3 29.7438 87.1811 148.7331 0.0000 0.0000 0.0000
# 4 0.0000 0.0000 0.0000 39.4267 0.0000 0.0000
# 5 0.0000 0.0000 0.0000 0.0000 31.5453 0.0000
# 6 0.0000 0.0000 0.0000 0.0000 0.0000 25.7726
#
#
#
# Elastic Compliance Matrix: (Units=1/GPa)
#
#
# Indices 1 2 3 4 5 6 
#
# 1 0.033667 -0.010760 -0.000426 0.000000 0.000000 0.000000
# 2 -0.010760 0.014129 -0.006130 0.000000 0.000000 0.000000
# 3 -0.000426 -0.006130 0.010402 0.000000 0.000000 0.000000
# 4 0.000000 0.000000 0.000000 0.025364 0.000000 0.000000
# 5 0.000000 0.000000 0.000000 0.000000 0.031700 0.000000
# 6 0.000000 0.000000 0.000000 0.000000 0.000000 0.038801
#
#
# Mechanical properties :
#
#
# Convention : Reuss Voigt Hill
#
# Bulk Modulus (GPa) = 42.43395 74.12265 58.27830
# Shear Modulus (GPa) = 25.43894 30.97096 28.20495
#
# Velocity S-wave (km/s) = 3.64447 4.02126 3.83749
# Velocity P-wave (km/s) = 6.31388 7.76283 7.07554
#
# Compressibility (1/GPa) = 0.02356604
#
# Stress axis : x y z
#
# Youngs Moduli (GPa) = 29.70279 70.77673 96.13842
#
# Poissons Ratio (x) = 0.76158 0.04091
# Poissons Ratio (y) = 0.31961 0.58932
# Poissons Ratio (z) = 0.01264 0.43386
#
# Static dielectric constant tensor:
#      x y z
#    x 1.658340 0.000000 0.000000 
#    y 0.000000 1.645780 0.000000 
#    z 0.000000 0.000000 1.649920 
# 
# From -- ./inp_files/14934.got.cif
#   From: 2010.05.17/outbox.cif.g08.bks.cpg/sg59_8_cif.got.tgz:14934.got - 2010.06.03 14:40:33.
