data_PCOD9451544
_publ_section_title
;
Structure prediction by ZEFSAII (Michael W. Deem and Ramdas Pophale) SiO2 
 PCOD9451544
Probable space group: P M M N
;
_chemical_formula_sum "Si O2"
_cell_formula_units_Z 48
_cell_length_a 8.702488
_cell_length_b 15.406000
_cell_length_c 19.446193
_cell_angle_alpha 90.000000
_cell_angle_beta 90.000000
_cell_angle_gamma 90.000000
_cell_volume 2607.161404
_symmetry_space_group_name_H-M "P M M N"
_symmetry_group_IT_number 59
_space_group.IT_coordinate_system_code '2'
_symmetry_cell_setting 'orthorhombic'
loop_
_space_group_symop_operation_xyz
x,y,z
1/2-x,1/2-y,z
1/2+x,-y,-z
-x,1/2+y,-z
-x,-y,-z
1/2+x,1/2+y,-z
1/2-x,y,z
x,1/2-y,z
loop_
_atom_site_type_symbol
_atom_site_label
_atom_site_fract_x
_atom_site_fract_y
_atom_site_fract_z
Si Si1 0.935316 0.098236 0.819585
Si Si2 0.933972 0.350443 0.326730
Si Si3 0.563265 0.250000 0.921999
Si Si4 0.066806 0.000747 0.423515
Si Si5 0.565859 0.897592 0.823099
Si Si6 0.065124 0.750000 0.920110
Si Si7 0.566271 0.649323 0.328925
O O1 0.750000 0.104792 0.811555
O O2 0.983840 0.165164 0.878855
O O3 0.010896 0.124624 0.747539
O O4 0.971794 0.998460 0.836177
O O5 0.750000 0.361178 0.324999
O O6 0.968518 0.250000 0.343070
O O7 0.004614 0.416574 0.381322
O O8 0.000589 0.372052 0.251546
O O9 0.750000 0.250000 0.923441
O O10 0.511830 0.250000 0.000747
O O11 0.250000 0.003483 0.425537
O O12 0.000000 0.000000 0.500000
O O13 0.012109 0.915689 0.382246
O O14 0.750000 0.888037 0.822075
O O15 0.495706 0.833844 0.879553
O O16 0.250000 0.750000 0.918294
O O17 0.750000 0.639180 0.333059
O O18 0.527626 0.750000 0.342077
#
# Coordination Sequence:
#
# PCOD9451544 Si02
#       7
#     8   8   4   8   8   4   8
#     4  10  20  37  63  90 118 159 206 254 309 368
#     4  11  23  40  65  94 125 162 206 254 309 371
#     4   9  20  39  61  87 122 161 208 255 311 375
#     4  12  26  44  66  93 128 167 205 255 310 363
#     4  11  22  36  60  92 122 158 207 258 309 369
#     4  11  23  39  59  85 122 169 208 257 315 365
#     4  11  23  39  63  95 127 161 206 256 306 365
#
# _framework density 18.410827000000001
#
# number of rings (size 3 to 8) (size 9 to 14) (size 15 to 20)
#    0.000    1.167    3.333    3.250    0.000    4.000 
#    0.000    1.667    0.000    0.000    0.000    0.000 
#    0.000    0.000    0.000    0.000    0.000    0.000 
#
# Total GULP energy -268396.304367 kJ/mol
# GULP energy per Si atom -5591.589674 kJ/mol
# Density = 1.836892 g / cm^3
# Si number density = 18.410827 Si / 1000 Ang^3
#
#
#
# Elastic Constant Matrix: (Units=GPa)
#
#
# Indices 1 2 3 4 5 6 
#
# 1 83.4113 88.3282 63.7757 0.0000 0.0000 0.0000
# 2 88.3282 201.4915 116.4344 0.0000 0.0000 0.0000
# 3 63.7757 116.4344 196.8924 0.0000 0.0000 0.0000
# 4 0.0000 0.0000 0.0000 32.6808 0.0000 0.0000
# 5 0.0000 0.0000 0.0000 0.0000 27.3946 0.0000
# 6 0.0000 0.0000 0.0000 0.0000 0.0000 31.0976
#
#
#
# Elastic Compliance Matrix: (Units=1/GPa)
#
#
# Indices 1 2 3 4 5 6 
#
# 1 0.023021 -0.008785 -0.002262 0.000000 0.000000 0.000000
# 2 -0.008785 0.010892 -0.003595 0.000000 0.000000 0.000000
# 3 -0.002262 -0.003595 0.007938 0.000000 0.000000 0.000000
# 4 0.000000 0.000000 0.000000 0.030599 0.000000 0.000000
# 5 0.000000 0.000000 0.000000 0.000000 0.036503 0.000000
# 6 0.000000 0.000000 0.000000 0.000000 0.000000 0.032157
#
#
# Mechanical properties :
#
#
# Convention : Reuss Voigt Hill
#
# Bulk Modulus (GPa) = 79.57795 113.20801 96.39298
# Shear Modulus (GPa) = 28.63995 32.45173 30.54584
#
# Velocity S-wave (km/s) = 3.94839 4.20294 4.07765
# Velocity P-wave (km/s) = 8.00648 9.22910 8.63945
#
# Compressibility (1/GPa) = 0.01256630
#
# Stress axis : x y z
#
# Youngs Moduli (GPa) = 43.43954 91.81436 125.98086
#
# Poissons Ratio (x) = 0.80655 0.28494
# Poissons Ratio (y) = 0.38160 0.45295
# Poissons Ratio (z) = 0.09825 0.33011
#
# Static dielectric constant tensor:
#      x y z
#    x 1.620700 0.000000 0.000000 
#    y 0.000000 1.631400 0.000000 
#    z 0.000000 0.000000 1.588370 
# 
# From -- ./inp_files/25533.got.cif
#   From: 2010.05.17/outbox.cif.g08.bks.cpg/sg59_13_cif.got.tgz:25533.got - 2010.06.03 14:40:33.
