data_PCOD9451475
_publ_section_title
;
Structure prediction by ZEFSAII (Michael W. Deem and Ramdas Pophale) SiO2 
 PCOD9451475
Probable space group: P M M N
;
_chemical_formula_sum "Si O2"
_cell_formula_units_Z 64
_cell_length_a 24.167107
_cell_length_b 7.654257
_cell_length_c 15.222462
_cell_angle_alpha 90.000000
_cell_angle_beta 90.000000
_cell_angle_gamma 90.000000
_cell_volume 2815.870017
_symmetry_space_group_name_H-M "P M M N"
_symmetry_group_IT_number 59
_space_group.IT_coordinate_system_code '2'
_symmetry_cell_setting 'orthorhombic'
loop_
_space_group_symop_operation_xyz
x,y,z
1/2-x,1/2-y,z
1/2+x,-y,-z
-x,1/2+y,-z
-x,-y,-z
1/2+x,1/2+y,-z
1/2-x,y,z
x,1/2-y,z
loop_
_atom_site_type_symbol
_atom_site_label
_atom_site_fract_x
_atom_site_fract_y
_atom_site_fract_z
Si Si1 0.099505 0.549451 0.885897
Si Si2 0.983247 0.057814 0.402956
Si Si3 0.138319 0.454468 0.570536
Si Si4 0.313570 0.961180 0.380781
Si Si5 0.310229 0.460354 0.748971
Si Si6 0.368986 0.960735 0.201846
Si Si7 0.312064 0.963974 0.024755
Si Si8 0.005778 0.458441 0.212045
O O1 0.088674 0.750000 0.912969
O O2 0.139547 0.544049 0.801268
O O3 0.138730 0.471411 0.961459
O O4 0.041260 0.470519 0.853923
O O5 0.007984 0.250000 0.396055
O O6 0.000287 0.966631 0.311612
O O7 0.917114 0.056563 0.406266
O O8 0.000000 0.000000 0.500000
O O9 0.124147 0.250000 0.578622
O O10 0.159616 0.487985 0.473106
O O11 0.182830 0.495433 0.645548
O O12 0.250000 0.021405 0.376231
O O13 0.313047 0.750000 0.377514
O O14 0.348274 0.024183 0.296793
O O15 0.250000 0.520687 0.780025
O O16 0.313448 0.250000 0.760791
O O17 0.368587 0.750000 0.204193
O O18 0.431610 0.015903 0.182378
O O19 0.327912 0.013433 0.123907
O O20 0.250000 0.022623 0.001405
O O21 0.311659 0.750000 0.019537
O O22 0.994076 0.250000 0.217666
#
# Coordination Sequence:
#
# PCOD9451475 Si02
#       8
#     8   8   8   8   8   8   8   8
#     4  10  20  37  60  85 113 149 191 234 280 337
#     4  11  22  37  56  80 113 153 197 244 287 338
#     4  11  22  36  55  81 114 151 191 235 288 347
#     4  10  21  37  57  82 113 150 194 244 293 345
#     4  10  21  36  54  80 115 150 184 228 282 338
#     4  10  21  37  59  85 113 148 191 237 288 345
#     4   9  18  35  61  90 115 143 186 238 288 341
#     4  10  22  38  55  81 118 151 188 237 286 336
#
# _framework density 22.728321999999999
#
# number of rings (size 3 to 8) (size 9 to 14) (size 15 to 20)
#    0.000    1.875    1.250    2.625    0.000    8.000 
#    0.000    0.625    0.000    1.875    0.000    0.000 
#    0.000    0.000    0.000    0.000    0.000    0.000 
#
# Total GULP energy -357481.434255 kJ/mol
# GULP energy per Si atom -5585.647410 kJ/mol
# Density = 2.267659 g / cm^3
# Si number density = 22.728322 Si / 1000 Ang^3
#
#
#
# Elastic Constant Matrix: (Units=GPa)
#
#
# Indices 1 2 3 4 5 6 
#
# 1 78.5867 -8.2585 14.4246 0.0000 0.0000 0.0000
# 2 -8.2585 39.4495 -5.2313 0.0000 0.0000 0.0000
# 3 14.4246 -5.2313 91.6717 0.0000 0.0000 0.0000
# 4 0.0000 0.0000 0.0000 -13.7755 0.0000 0.0000
# 5 0.0000 0.0000 0.0000 0.0000 36.3912 0.0000
# 6 0.0000 0.0000 0.0000 0.0000 0.0000 -10.4361
#
#
#
# Elastic Compliance Matrix: (Units=1/GPa)
#
#
# Indices 1 2 3 4 5 6 
#
# 1 0.013350 0.002535 -0.001956 0.000000 0.000000 0.000000
# 2 0.002535 0.026024 0.001086 0.000000 0.000000 0.000000
# 3 -0.001956 0.001086 0.011278 0.000000 0.000000 0.000000
# 4 0.000000 0.000000 0.000000 -0.072592 0.000000 0.000000
# 5 0.000000 0.000000 0.000000 0.000000 0.027479 0.000000
# 6 0.000000 0.000000 0.000000 0.000000 0.000000 -0.095821
#
#
# Mechanical properties :
#
#
# Convention : Reuss Voigt Hill
#
# Bulk Modulus (GPa) = 18.52427 23.50861 21.01644
# Shear Modulus (GPa) = -66.12119 16.35412 -24.88353
#
# Velocity S-wave (km/s) = -5.39955 2.68535 -3.31240
# Velocity P-wave (km/s) = 5.54126 4.46996 2.31570
#
# Compressibility (1/GPa) = 0.05398323
#
# Stress axis : x y z
#
# Youngs Moduli (GPa) = 74.90490 38.42659 88.66629
#
# Poissons Ratio (x) = -0.09743 0.17343
# Poissons Ratio (y) = -0.18991 -0.09630
# Poissons Ratio (z) = 0.14651 -0.04174
#
# Static dielectric constant tensor:
#      x y z
#    x 1.843550 0.000000 0.000000 
#    y 0.000000 1.877960 0.000000 
#    z 0.000000 0.000000 1.853390 
# 
# From -- ./inp_files/21526.got.cif
#   From: 2010.05.17/outbox.cif.g08.bks.cpg/sg59_11_cif.got.tgz:21526.got - 2010.06.03 14:40:33.
