data_PCOD9451148
_publ_section_title
;
Structure prediction by ZEFSAII (Michael W. Deem and Ramdas Pophale) SiO2 
 PCOD9451148
Probable space group: P M M N
;
_chemical_formula_sum "Si O2"
_cell_formula_units_Z 34
_cell_length_a 7.910035
_cell_length_b 10.357125
_cell_length_c 21.421497
_cell_angle_alpha 90.000000
_cell_angle_beta 90.000000
_cell_angle_gamma 90.000000
_cell_volume 1754.960881
_symmetry_space_group_name_H-M "P M M N"
_symmetry_group_IT_number 59
_space_group.IT_coordinate_system_code '2'
_symmetry_cell_setting 'orthorhombic'
loop_
_space_group_symop_operation_xyz
x,y,z
1/2-x,1/2-y,z
1/2+x,-y,-z
-x,1/2+y,-z
-x,-y,-z
1/2+x,1/2+y,-z
1/2-x,y,z
x,1/2-y,z
loop_
_atom_site_type_symbol
_atom_site_label
_atom_site_fract_x
_atom_site_fract_y
_atom_site_fract_z
Si Si1 0.452268 0.250000 0.895312
Si Si2 0.445291 0.513662 0.821244
Si Si3 0.951382 0.396915 0.447758
Si Si4 0.549260 0.602243 0.691928
Si Si5 0.750000 0.250000 0.001793
Si Si6 0.063986 0.250000 0.101088
O O1 0.250000 0.250000 0.915163
O O2 0.477365 0.377144 0.853474
O O3 0.596689 0.250000 0.948142
O O4 0.250000 0.546773 0.832276
O O5 0.476477 0.516647 0.747403
O O6 0.551691 0.624563 0.855036
O O7 0.750000 0.389547 0.446634
O O8 0.017462 0.250000 0.459091
O O9 0.000000 0.500000 0.500000
O O10 0.009731 0.438022 0.378662
O O11 0.750000 0.605007 0.699466
O O12 0.483985 0.750000 0.699293
O O13 0.597435 0.250000 0.055550
O O14 0.250000 0.250000 0.069684
#
# Coordination Sequence:
#
# PCOD9451148 Si02
#       6
#     4   8   8   8   2   4
#     4  10  27  47  65  92 134 168 209 265 324 390
#     4  11  22  44  67  95 128 167 212 268 321 376
#     4  10  21  38  60  90 127 167 209 260 314 373
#     4  10  20  35  63  95 125 163 212 264 312 371
#     4  12  26  48  68  96 128 176 204 258 340 374
#     4  12  25  43  69 100 126 162 219 265 310 394
#
# _framework density 19.373650999999999
#
# number of rings (size 3 to 8) (size 9 to 14) (size 15 to 20)
#    0.000    1.412    2.353    2.471    3.294    3.294 
#    2.118    0.000    0.000    0.000    0.000    0.000 
#    0.000    0.000    0.000    0.000    0.000    0.000 
#
# Total GULP energy -189281.086696 kJ/mol
# GULP energy per Si atom -5567.090785 kJ/mol
# Density = 1.932956 g / cm^3
# Si number density = 19.373651 Si / 1000 Ang^3
#
#
#
# Elastic Constant Matrix: (Units=GPa)
#
#
# Indices 1 2 3 4 5 6 
#
# 1 106.0254 41.4628 45.5418 0.0000 0.0000 0.0000
# 2 41.4628 95.8842 71.6032 0.0000 0.0000 0.0000
# 3 45.5418 71.6032 161.2673 0.0000 0.0000 0.0000
# 4 0.0000 0.0000 0.0000 7.6989 0.0000 0.0000
# 5 0.0000 0.0000 0.0000 0.0000 37.2784 0.0000
# 6 0.0000 0.0000 0.0000 0.0000 0.0000 -139.8926
#
#
#
# Elastic Compliance Matrix: (Units=1/GPa)
#
#
# Indices 1 2 3 4 5 6 
#
# 1 0.011611 -0.003848 -0.001570 0.000000 0.000000 0.000000
# 2 -0.003848 0.016878 -0.006407 0.000000 0.000000 0.000000
# 3 -0.001570 -0.006407 0.009489 0.000000 0.000000 0.000000
# 4 0.000000 0.000000 0.000000 0.129888 0.000000 0.000000
# 5 0.000000 0.000000 0.000000 0.000000 0.026825 0.000000
# 6 0.000000 0.000000 0.000000 0.000000 0.000000 -0.007148
#
#
# Mechanical properties :
#
#
# Convention : Reuss Voigt Hill
#
# Bulk Modulus (GPa) = 69.79940 75.59917 72.69928
# Shear Modulus (GPa) = 23.15130 -5.34510 8.90310
#
# Velocity S-wave (km/s) = 3.46061 -1.66281 2.14603
# Velocity P-wave (km/s) = 7.21623 5.95145 6.61414
#
# Compressibility (1/GPa) = 0.01432677
#
# Stress axis : x y z
#
# Youngs Moduli (GPa) = 86.12418 59.24878 105.38380
#
# Poissons Ratio (x) = 0.22801 0.16549
# Poissons Ratio (y) = 0.33143 0.67521
# Poissons Ratio (z) = 0.13524 0.37961
#
# Static dielectric constant tensor:
#      x y z
#    x 1.696290 0.000000 0.000000 
#    y 0.000000 1.675650 0.000000 
#    z 0.000000 0.000000 1.669030 
# 
# From -- ./inp_files/28663.got.cif
#   From: 2010.05.17/outbox.cif.g08.bks.cpg/sg59_15_cif.got.tgz:28663.got - 2010.06.03 14:40:33.
