data_PCOD9451051
_publ_section_title
;
Structure prediction by ZEFSAII (Michael W. Deem and Ramdas Pophale) SiO2 
 PCOD9451051
Probable space group: P M M N
;
_chemical_formula_sum "Si O2"
_cell_formula_units_Z 32
_cell_length_a 8.147647
_cell_length_b 16.605425
_cell_length_c 11.830440
_cell_angle_alpha 90.000000
_cell_angle_beta 90.000000
_cell_angle_gamma 90.000000
_cell_volume 1600.601050
_symmetry_space_group_name_H-M "P M M N"
_symmetry_group_IT_number 59
_space_group.IT_coordinate_system_code '2'
_symmetry_cell_setting 'orthorhombic'
loop_
_space_group_symop_operation_xyz
x,y,z
1/2-x,1/2-y,z
1/2+x,-y,-z
-x,1/2+y,-z
-x,-y,-z
1/2+x,1/2+y,-z
1/2-x,y,z
x,1/2-y,z
loop_
_atom_site_type_symbol
_atom_site_label
_atom_site_fract_x
_atom_site_fract_y
_atom_site_fract_z
Si Si1 0.946556 0.422809 0.924344
Si Si2 0.942165 0.433414 0.669232
Si Si3 0.053144 0.250000 0.023994
Si Si4 0.947537 0.750000 0.714840
Si Si5 0.554089 0.100569 0.430710
O O1 0.750000 0.427723 0.920913
O O2 0.013473 0.427670 0.795061
O O3 0.000000 0.500000 0.000000
O O4 0.993573 0.334572 0.971177
O O5 0.750000 0.413493 0.680857
O O6 0.004235 0.383809 0.560007
O O7 0.964847 0.523731 0.622957
O O8 0.250000 0.250000 0.017701
O O9 0.002093 0.250000 0.154899
O O10 0.750000 0.750000 0.710208
O O11 0.016716 0.826338 0.650108
O O12 0.750000 0.084546 0.434252
#
# Coordination Sequence:
#
# PCOD9451051 Si02
#       5
#     8   8   4   4   8
#     4  11  23  40  62  87 119 157 195 239 291 344
#     4   9  20  38  57  81 114 147 180 226 285 337
#     4  11  25  42  59  84 118 155 198 243 288 345
#     4  11  23  38  55  78 112 147 180 229 288 333
#     4  10  20  35  58  84 109 142 185 229 274 335
#
# _framework density 19.992491000000001
#
# number of rings (size 3 to 8) (size 9 to 14) (size 15 to 20)
#    0.000    1.750    0.000    3.750    0.000   12.000 
#    0.000    5.000    0.000    0.000    0.000    0.000 
#    0.000    0.000    0.000    0.000    0.000    0.000 
#
# Total GULP energy -178486.528912 kJ/mol
# GULP energy per Si atom -5577.704028 kJ/mol
# Density = 1.994699 g / cm^3
# Si number density = 19.992491 Si / 1000 Ang^3
#
#
#
# Elastic Constant Matrix: (Units=GPa)
#
#
# Indices 1 2 3 4 5 6 
#
# 1 27.6849 3.8338 20.5824 0.0000 0.0000 0.0000
# 2 3.8338 96.5985 82.8695 0.0000 0.0000 0.0000
# 3 20.5824 82.8695 230.9440 0.0000 0.0000 0.0000
# 4 0.0000 0.0000 0.0000 30.7601 0.0000 0.0000
# 5 0.0000 0.0000 0.0000 0.0000 26.7331 0.0000
# 6 0.0000 0.0000 0.0000 0.0000 0.0000 31.6919
#
#
#
# Elastic Compliance Matrix: (Units=1/GPa)
#
#
# Indices 1 2 3 4 5 6 
#
# 1 0.038968 0.002070 -0.004216 0.000000 0.000000 0.000000
# 2 0.002070 0.015066 -0.005591 0.000000 0.000000 0.000000
# 3 -0.004216 -0.005591 0.006712 0.000000 0.000000 0.000000
# 4 0.000000 0.000000 0.000000 0.032510 0.000000 0.000000
# 5 0.000000 0.000000 0.000000 0.000000 0.037407 0.000000
# 6 0.000000 0.000000 0.000000 0.000000 0.000000 0.031554
#
#
# Mechanical properties :
#
#
# Convention : Reuss Voigt Hill
#
# Bulk Modulus (GPa) = 22.08800 63.31096 42.69948
# Shear Modulus (GPa) = 25.93627 34.36647 30.15137
#
# Velocity S-wave (km/s) = 3.60571 4.15054 3.88768
# Velocity P-wave (km/s) = 5.32982 7.39631 6.44641
#
# Compressibility (1/GPa) = 0.04527344
#
# Stress axis : x y z
#
# Youngs Moduli (GPa) = 25.66191 66.37456 148.99029
#
# Poissons Ratio (x) = -0.13740 0.62810
# Poissons Ratio (y) = -0.05312 0.83295
# Poissons Ratio (z) = 0.10818 0.37107
#
# Static dielectric constant tensor:
#      x y z
#    x 1.710640 0.000000 0.000000 
#    y 0.000000 1.670280 0.000000 
#    z 0.000000 0.000000 1.749800 
# 
# From -- ./inp_files/13648.got.cif
#   From: 2010.05.17/outbox.cif.g08.bks.cpg/sg59_7_cif.got.tgz:13648.got - 2010.06.03 14:40:33.
