data_PCOD9451397
_publ_section_title
;
Structure prediction by ZEFSAII (Michael W. Deem and Ramdas Pophale) SiO2 
 PCOD9451397
Probable space group: P M M N
;
_chemical_formula_sum "Si O2"
_cell_formula_units_Z 56
_cell_length_a 22.681794
_cell_length_b 8.922964
_cell_length_c 14.870313
_cell_angle_alpha 90.000000
_cell_angle_beta 90.000000
_cell_angle_gamma 90.000000
_cell_volume 3009.585269
_symmetry_space_group_name_H-M "P M M N"
_symmetry_group_IT_number 59
_space_group.IT_coordinate_system_code '2'
_symmetry_cell_setting 'orthorhombic'
loop_
_space_group_symop_operation_xyz
x,y,z
1/2-x,1/2-y,z
1/2+x,-y,-z
-x,1/2+y,-z
-x,-y,-z
1/2+x,1/2+y,-z
1/2-x,y,z
x,1/2-y,z
loop_
_atom_site_type_symbol
_atom_site_label
_atom_site_fract_x
_atom_site_fract_y
_atom_site_fract_z
Si Si1 0.049735 0.429667 0.616417
Si Si2 0.512162 0.074517 0.903614
Si Si3 0.632803 0.571929 0.872608
Si Si4 0.890323 0.574841 0.205480
Si Si5 0.924740 0.928647 0.591254
Si Si6 0.320261 0.576107 0.947867
Si Si7 0.683387 0.070699 0.698453
O O1 0.041037 0.250000 0.624902
O O2 0.096160 0.474622 0.692939
O O3 0.072273 0.460933 0.515783
O O4 0.986407 0.507303 0.629005
O O5 0.526907 0.250000 0.914673
O O6 0.453210 0.064615 0.845114
O O7 0.566724 0.989293 0.858989
O O8 0.500000 0.000000 0.000000
O O9 0.634667 0.750000 0.864379
O O10 0.673615 0.495433 0.798038
O O11 0.651910 0.521582 0.972209
O O12 0.872388 0.750000 0.205172
O O13 0.845103 0.479564 0.147212
O O14 0.922740 0.750000 0.604228
O O15 0.868055 0.002500 0.636968
O O16 0.250000 0.561921 0.950968
O O17 0.336153 0.750000 0.962359
O O18 0.750000 0.034251 0.667841
O O19 0.677378 0.250000 0.701647
#
# Coordination Sequence:
#
# PCOD9451397 Si02
#       7
#     8   8   8   8   8   8   8
#     4   9  19  37  61  89 120 151 188 234 289 348
#     4  11  21  34  55  85 119 152 188 234 285 336
#     4  12  24  38  59  86 115 151 193 237 289 346
#     4  10  21  37  58  83 112 150 191 231 279 334
#     4  10  20  36  61  91 119 149 188 237 291 347
#     4  11  24  40  57  78 109 150 193 238 285 335
#     4  11  24  41  60  83 115 156 198 242 294 352
#
# _framework density 18.607215
#
# number of rings (size 3 to 8) (size 9 to 14) (size 15 to 20)
#    0.000    1.429    1.429    4.286    0.000    6.857 
#    0.000    0.714    0.000    4.286    0.000    0.000 
#    0.000    0.000    0.000    0.000    0.000    0.000 
#
# Total GULP energy -313039.920519 kJ/mol
# GULP energy per Si atom -5589.998581 kJ/mol
# Density = 1.856486 g / cm^3
# Si number density = 18.607215 Si / 1000 Ang^3
#
#
#
# Elastic Constant Matrix: (Units=GPa)
#
#
# Indices 1 2 3 4 5 6 
#
# 1 59.9184 31.7784 11.0151 0.0000 0.0000 0.0000
# 2 31.7784 69.0699 22.9011 0.0000 0.0000 0.0000
# 3 11.0151 22.9011 66.9779 0.0000 0.0000 0.0000
# 4 0.0000 0.0000 0.0000 27.9789 0.0000 0.0000
# 5 0.0000 0.0000 0.0000 0.0000 26.0585 0.0000
# 6 0.0000 0.0000 0.0000 0.0000 0.0000 24.8320
#
#
#
# Elastic Compliance Matrix: (Units=1/GPa)
#
#
# Indices 1 2 3 4 5 6 
#
# 1 0.022078 -0.010099 -0.000178 0.000000 0.000000 0.000000
# 2 -0.010099 0.020949 -0.005502 0.000000 0.000000 0.000000
# 3 -0.000178 -0.005502 0.016841 0.000000 0.000000 0.000000
# 4 0.000000 0.000000 0.000000 0.035741 0.000000 0.000000
# 5 0.000000 0.000000 0.000000 0.000000 0.038375 0.000000
# 6 0.000000 0.000000 0.000000 0.000000 0.000000 0.040271
#
#
# Mechanical properties :
#
#
# Convention : Reuss Voigt Hill
#
# Bulk Modulus (GPa) = 35.32309 36.37281 35.84795
# Shear Modulus (GPa) = 23.22890 24.45865 23.84378
#
# Velocity S-wave (km/s) = 3.53708 3.62950 3.58359
# Velocity P-wave (km/s) = 5.97545 6.09545 6.03574
#
# Compressibility (1/GPa) = 0.02831010
#
# Stress axis : x y z
#
# Youngs Moduli (GPa) = 45.29360 47.73553 59.37964
#
# Poissons Ratio (x) = 0.48208 0.01056
# Poissons Ratio (y) = 0.45742 0.32670
# Poissons Ratio (z) = 0.00806 0.26264
#
# Static dielectric constant tensor:
#      x y z
#    x 1.624810 0.000000 0.000000 
#    y 0.000000 1.624640 0.000000 
#    z 0.000000 0.000000 1.653920 
# 
# From -- ./inp_files/24261.got.cif
#   From: 2010.05.17/outbox.cif.g08.bks.cpg/sg59_13_cif.got.tgz:24261.got - 2010.06.03 14:40:33.
