data_PCOD9451001
_publ_section_title
;
Structure prediction by ZEFSAII (Michael W. Deem and Ramdas Pophale) SiO2 
 PCOD9451001
Probable space group: P M M N
;
_chemical_formula_sum "Si O2"
_cell_formula_units_Z 56
_cell_length_a 16.211556
_cell_length_b 9.044607
_cell_length_c 19.966074
_cell_angle_alpha 90.000000
_cell_angle_beta 90.000000
_cell_angle_gamma 90.000000
_cell_volume 2927.568585
_symmetry_space_group_name_H-M "P M M N"
_symmetry_group_IT_number 59
_space_group.IT_coordinate_system_code '2'
_symmetry_cell_setting 'orthorhombic'
loop_
_space_group_symop_operation_xyz
x,y,z
1/2-x,1/2-y,z
1/2+x,-y,-z
-x,1/2+y,-z
-x,-y,-z
1/2+x,1/2+y,-z
1/2-x,y,z
x,1/2-y,z
loop_
_atom_site_type_symbol
_atom_site_label
_atom_site_fract_x
_atom_site_fract_y
_atom_site_fract_z
Si Si1 0.919147 0.073595 0.208593
Si Si2 0.849137 0.423132 0.064374
Si Si3 0.495989 0.071344 0.573123
Si Si4 0.660229 0.429517 0.653464
Si Si5 0.349822 0.081106 0.070757
Si Si6 0.843384 0.073240 0.349701
Si Si7 0.406995 0.926398 0.205833
O O1 0.936118 0.250000 0.206661
O O2 0.885328 0.029852 0.135726
O O3 0.857190 0.049089 0.270173
O O4 0.002076 0.984684 0.222037
O O5 0.750000 0.436832 0.068325
O O6 0.868211 0.250000 0.054436
O O7 0.878426 0.512572 0.999639
O O8 0.494168 0.250000 0.569865
O O9 0.579358 0.024485 0.612639
O O10 0.500000 0.000000 0.500000
O O11 0.414985 0.012021 0.611177
O O12 0.750000 0.480202 0.628291
O O13 0.660221 0.250000 0.651364
O O14 0.649229 0.472147 0.731238
O O15 0.250000 0.077468 0.070256
O O16 0.377612 0.250000 0.076245
O O17 0.379590 0.992811 0.135298
O O18 0.750000 0.030819 0.368534
O O19 0.852483 0.250000 0.361639
O O20 0.405902 0.750000 0.201695
#
# Coordination Sequence:
#
# PCOD9451001 Si02
#       7
#     8   8   8   8   8   8   8
#     4  10  20  35  57  84 116 150 194 249 299 349
#     4   9  18  34  55  78 106 146 195 244 295 353
#     4  11  23  41  64  93 127 160 199 247 297 354
#     4   9  19  37  61  87 116 153 197 243 293 350
#     4  10  21  36  53  77 110 147 190 244 302 355
#     4  10  21  39  64  92 124 164 204 245 300 361
#     4  11  21  35  57  83 112 149 196 245 296 355
#
# _framework density 19.128502000000001
#
# number of rings (size 3 to 8) (size 9 to 14) (size 15 to 20)
#    0.000    2.000    1.429    2.143    0.000    5.143 
#    0.000    1.429    0.000    6.429    0.000    0.000 
#    0.000    0.000    0.000    0.000    0.000    0.000 
#
# Total GULP energy -312638.754666 kJ/mol
# GULP energy per Si atom -5582.834905 kJ/mol
# Density = 1.908497 g / cm^3
# Si number density = 19.128502 Si / 1000 Ang^3
#
#
#
# Elastic Constant Matrix: (Units=GPa)
#
#
# Indices 1 2 3 4 5 6 
#
# 1 123.0970 45.8797 65.1717 0.0000 0.0000 0.0000
# 2 45.8797 47.3358 46.7165 0.0000 0.0000 0.0000
# 3 65.1717 46.7165 131.4388 0.0000 0.0000 0.0000
# 4 0.0000 0.0000 0.0000 26.7106 0.0000 0.0000
# 5 0.0000 0.0000 0.0000 0.0000 13.0847 0.0000
# 6 0.0000 0.0000 0.0000 0.0000 0.0000 27.4596
#
#
#
# Elastic Compliance Matrix: (Units=1/GPa)
#
#
# Indices 1 2 3 4 5 6 
#
# 1 0.013515 -0.009990 -0.003151 0.000000 0.000000 0.000000
# 2 -0.009990 0.039924 -0.009237 0.000000 0.000000 0.000000
# 3 -0.003151 -0.009237 0.012453 0.000000 0.000000 0.000000
# 4 0.000000 0.000000 0.000000 0.037438 0.000000 0.000000
# 5 0.000000 0.000000 0.000000 0.000000 0.076425 0.000000
# 6 0.000000 0.000000 0.000000 0.000000 0.000000 0.036417
#
#
# Mechanical properties :
#
#
# Convention : Reuss Voigt Hill
#
# Bulk Modulus (GPa) = 47.30803 68.60082 57.95443
# Shear Modulus (GPa) = 18.65858 23.05790 20.85824
#
# Velocity S-wave (km/s) = 3.12658 3.47568 3.30574
# Velocity P-wave (km/s) = 6.14975 7.21444 6.70327
#
# Compressibility (1/GPa) = 0.02113806
#
# Stress axis : x y z
#
# Youngs Moduli (GPa) = 73.99148 25.04744 80.30097
#
# Poissons Ratio (x) = 0.25023 0.25299
# Poissons Ratio (y) = 0.73918 0.74171
# Poissons Ratio (z) = 0.23311 0.23135
#
# Static dielectric constant tensor:
#      x y z
#    x 1.677740 0.000000 0.000000 
#    y 0.000000 1.641600 0.000000 
#    z 0.000000 0.000000 1.655100 
# 
# From -- ./inp_files/29093.got.cif
#   From: 2010.05.17/outbox.cif.g08.bks.cpg/sg59_15_cif.got.tgz:29093.got - 2010.06.03 14:40:33.
