data_PCOD9451377
_publ_section_title
;
Structure prediction by ZEFSAII (Michael W. Deem and Ramdas Pophale) SiO2 
 PCOD9451377
Probable space group: P M M N
;
_chemical_formula_sum "Si O2"
_cell_formula_units_Z 48
_cell_length_a 16.705539
_cell_length_b 8.496479
_cell_length_c 16.797327
_cell_angle_alpha 90.000000
_cell_angle_beta 90.000000
_cell_angle_gamma 90.000000
_cell_volume 2384.183389
_symmetry_space_group_name_H-M "P M M N"
_symmetry_group_IT_number 59
_space_group.IT_coordinate_system_code '2'
_symmetry_cell_setting 'orthorhombic'
loop_
_space_group_symop_operation_xyz
x,y,z
1/2-x,1/2-y,z
1/2+x,-y,-z
-x,1/2+y,-z
-x,-y,-z
1/2+x,1/2+y,-z
1/2-x,y,z
x,1/2-y,z
loop_
_atom_site_type_symbol
_atom_site_label
_atom_site_fract_x
_atom_site_fract_y
_atom_site_fract_z
Si Si1 0.579865 0.062679 0.543872
Si Si2 0.908534 0.566069 0.204364
Si Si3 0.750000 0.062030 0.285761
Si Si4 0.845783 0.933118 0.876256
Si Si5 0.844911 0.064037 0.045608
Si Si6 0.750000 0.438809 0.474782
Si Si7 0.934838 0.935324 0.720517
O O1 0.579307 0.250000 0.532732
O O2 0.665397 0.000788 0.510010
O O3 0.500000 0.000000 0.500000
O O4 0.575812 0.020908 0.636929
O O5 0.926077 0.750000 0.214743
O O6 0.826702 0.517662 0.246948
O O7 0.895866 0.525733 0.111673
O O8 0.976884 0.463740 0.245545
O O9 0.750000 0.250000 0.269358
O O10 0.750000 0.038082 0.380247
O O11 0.750000 0.938212 0.873261
O O12 0.870788 0.750000 0.884115
O O13 0.879100 0.994180 0.792726
O O14 0.870736 0.023700 0.955833
O O15 0.750000 0.020289 0.053346
O O16 0.850883 0.250000 0.059950
O O17 0.750000 0.250000 0.489620
O O18 0.919654 0.750000 0.708062
#
# Coordination Sequence:
#
# PCOD9451377 Si02
#       7
#     8   8   4   8   8   4   8
#     4  11  23  43  67  95 129 167 211 263 322 389
#     4  12  24  38  60  90 125 165 208 255 308 372
#     4  11  21  39  65  92 123 158 203 255 314 375
#     4   9  20  39  62  87 120 161 208 259 309 366
#     4  10  20  36  60  89 122 162 206 254 311 368
#     4   9  22  41  65  92 123 164 203 251 320 385
#     4  11  24  41  62  90 125 164 206 260 316 368
#
# _framework density 20.132680000000001
#
# number of rings (size 3 to 8) (size 9 to 14) (size 15 to 20)
#    0.000    1.500    0.833    4.250    1.167    4.000 
#    0.000    3.750    0.000    0.000    0.000    0.000 
#    0.000    0.000    0.000    0.000    0.000    0.000 
#
# Total GULP energy -268253.679625 kJ/mol
# GULP energy per Si atom -5588.618326 kJ/mol
# Density = 2.008686 g / cm^3
# Si number density = 20.132680 Si / 1000 Ang^3
#
#
#
# Elastic Constant Matrix: (Units=GPa)
#
#
# Indices 1 2 3 4 5 6 
#
# 1 75.5174 7.4182 45.6082 0.0000 0.0000 0.0000
# 2 7.4182 29.2950 10.8186 0.0000 0.0000 0.0000
# 3 45.6082 10.8186 110.0494 0.0000 0.0000 0.0000
# 4 0.0000 0.0000 0.0000 35.6227 0.0000 0.0000
# 5 0.0000 0.0000 0.0000 0.0000 32.8626 0.0000
# 6 0.0000 0.0000 0.0000 0.0000 0.0000 14.0385
#
#
#
# Elastic Compliance Matrix: (Units=1/GPa)
#
#
# Indices 1 2 3 4 5 6 
#
# 1 0.017759 -0.001846 -0.007178 0.000000 0.000000 0.000000
# 2 -0.001846 0.035613 -0.002736 0.000000 0.000000 0.000000
# 3 -0.007178 -0.002736 0.012331 0.000000 0.000000 0.000000
# 4 0.000000 0.000000 0.000000 0.028072 0.000000 0.000000
# 5 0.000000 0.000000 0.000000 0.000000 0.030430 0.000000
# 6 0.000000 0.000000 0.000000 0.000000 0.000000 0.071232
#
#
# Mechanical properties :
#
#
# Convention : Reuss Voigt Hill
#
# Bulk Modulus (GPa) = 23.70670 38.06130 30.88400
# Shear Modulus (GPa) = 21.45755 26.57254 24.01505
#
# Velocity S-wave (km/s) = 3.26821 3.63694 3.45750
# Velocity P-wave (km/s) = 5.10318 6.04837 5.59576
#
# Compressibility (1/GPa) = 0.04218217
#
# Stress axis : x y z
#
# Youngs Moduli (GPa) = 56.31074 28.07934 81.09828
#
# Poissons Ratio (x) = 0.05183 0.58215
# Poissons Ratio (y) = 0.10395 0.22188
# Poissons Ratio (z) = 0.40421 0.07682
#
# Static dielectric constant tensor:
#      x y z
#    x 1.742790 0.000000 0.000000 
#    y 0.000000 1.719030 0.000000 
#    z 0.000000 0.000000 1.691900 
# 
# From -- ./inp_files/23734.got.cif
#   From: 2010.05.17/outbox.cif.g08.bks.cpg/sg59_12_cif.got.tgz:23734.got - 2010.06.03 14:40:33.
