data_PCOD9451424
_publ_section_title
;
Structure prediction by ZEFSAII (Michael W. Deem and Ramdas Pophale) SiO2 
 PCOD9451424
Probable space group: P M M N
;
_chemical_formula_sum "Si O2"
_cell_formula_units_Z 64
_cell_length_a 29.271924
_cell_length_b 12.378874
_cell_length_c 9.654220
_cell_angle_alpha 90.000000
_cell_angle_beta 90.000000
_cell_angle_gamma 90.000000
_cell_volume 3498.240010
_symmetry_space_group_name_H-M "P M M N"
_symmetry_group_IT_number 59
_space_group.IT_coordinate_system_code '2'
_symmetry_cell_setting 'orthorhombic'
loop_
_space_group_symop_operation_xyz
x,y,z
1/2-x,1/2-y,z
1/2+x,-y,-z
-x,1/2+y,-z
-x,-y,-z
1/2+x,1/2+y,-z
1/2-x,y,z
x,1/2-y,z
loop_
_atom_site_type_symbol
_atom_site_label
_atom_site_fract_x
_atom_site_fract_y
_atom_site_fract_z
Si Si1 0.801110 0.622282 0.256462
Si Si2 0.972979 0.632075 0.143180
Si Si3 0.892656 0.376010 0.066377
Si Si4 0.300926 0.512537 0.012878
Si Si5 0.102806 0.029611 0.687566
Si Si6 0.801489 0.873666 0.714873
Si Si7 0.049722 0.031273 0.137172
Si Si8 0.899658 0.876668 0.595567
O O1 0.750000 0.593719 0.306916
O O2 0.807200 0.750000 0.274104
O O3 0.843772 0.559088 0.318053
O O4 0.802659 0.586821 0.095557
O O5 0.991600 0.750000 0.174602
O O6 0.924432 0.615393 0.217219
O O7 0.006359 0.536386 0.190608
O O8 0.966679 0.616726 0.978276
O O9 0.902224 0.250000 0.055195
O O10 0.902275 0.420988 0.221654
O O11 0.840224 0.404967 0.030002
O O12 0.921253 0.446210 0.955419
O O13 0.250000 0.559905 0.004425
O O14 0.307334 0.460031 0.163011
O O15 0.085532 0.047039 0.531781
O O16 0.750000 0.886451 0.656091
O O17 0.803582 0.750000 0.770023
O O18 0.844790 0.883918 0.615582
O O19 0.077454 0.084865 0.261237
O O20 0.910399 0.750000 0.568049
#
# Coordination Sequence:
#
# PCOD9451424 Si02
#       8
#     8   8   8   8   8   8   8   8
#     4   9  16  27  47  76 109 142 176 215 263 321
#     4  10  20  37  58  79 106 142 182 230 278 328
#     4  10  20  37  56  76 103 140 187 236 274 317
#     4   9  16  28  48  76 105 136 177 227 272 318
#     4  10  22  36  53  79 112 146 183 221 269 329
#     4   9  17  29  49  79 115 150 177 211 267 329
#     4  10  21  36  57  83 106 137 184 229 280 330
#     4  11  21  35  55  84 119 149 177 217 271 335
#
# _framework density 18.294912
#
# number of rings (size 3 to 8) (size 9 to 14) (size 15 to 20)
#    0.000    2.250    1.250    2.250    0.000    2.750 
#    0.000    3.125    0.000    0.000    0.000    0.000 
#    0.000    0.000    0.000    0.000    0.000    0.000 
#
# Total GULP energy -356636.586881 kJ/mol
# GULP energy per Si atom -5572.446670 kJ/mol
# Density = 1.825327 g / cm^3
# Si number density = 18.294912 Si / 1000 Ang^3
#
#
#
# Elastic Constant Matrix: (Units=GPa)
#
#
# Indices 1 2 3 4 5 6 
#
# 1 53.6449 11.6909 6.0252 0.0000 0.0000 0.0000
# 2 11.6909 60.7023 16.5563 0.0000 0.0000 0.0000
# 3 6.0252 16.5563 66.5351 0.0000 0.0000 0.0000
# 4 0.0000 0.0000 0.0000 11.8603 0.0000 0.0000
# 5 0.0000 0.0000 0.0000 0.0000 4.1682 0.0000
# 6 0.0000 0.0000 0.0000 0.0000 0.0000 14.1709
#
#
#
# Elastic Compliance Matrix: (Units=1/GPa)
#
#
# Indices 1 2 3 4 5 6 
#
# 1 0.019507 -0.003514 -0.000892 0.000000 0.000000 0.000000
# 2 -0.003514 0.018306 -0.004237 0.000000 0.000000 0.000000
# 3 -0.000892 -0.004237 0.016165 0.000000 0.000000 0.000000
# 4 0.000000 0.000000 0.000000 0.084315 0.000000 0.000000
# 5 0.000000 0.000000 0.000000 0.000000 0.239910 0.000000
# 6 0.000000 0.000000 0.000000 0.000000 0.000000 0.070567
#
#
# Mechanical properties :
#
#
# Convention : Reuss Voigt Hill
#
# Bulk Modulus (GPa) = 27.25365 27.71413 27.48389
# Shear Modulus (GPa) = 10.45400 15.81389 13.13394
#
# Velocity S-wave (km/s) = 2.39302 2.94324 2.68227
# Velocity P-wave (km/s) = 4.75022 5.17026 4.96469
#
# Compressibility (1/GPa) = 0.03669233
#
# Stress axis : x y z
#
# Youngs Moduli (GPa) = 51.26355 54.62639 61.86287
#
# Poissons Ratio (x) = 0.19194 0.05519
# Poissons Ratio (y) = 0.18012 0.26212
# Poissons Ratio (z) = 0.04574 0.23145
#
# Static dielectric constant tensor:
#      x y z
#    x 1.676670 0.000000 0.000000 
#    y 0.000000 1.589630 0.000000 
#    z 0.000000 0.000000 1.632770 
# 
# From -- ./inp_files/13200.got.cif
#   From: 2010.05.17/outbox.cif.g08.bks.cpg/sg59_7_cif.got.tgz:13200.got - 2010.06.03 14:40:33.
