data_PCOD9451672
_publ_section_title
;
Structure prediction by ZEFSAII (Michael W. Deem and Ramdas Pophale) SiO2 
 PCOD9451672
Probable space group: P M M N
;
_chemical_formula_sum "Si O2"
_cell_formula_units_Z 16
_cell_length_a 13.726242
_cell_length_b 5.785372
_cell_length_c 7.500453
_cell_angle_alpha 90.000000
_cell_angle_beta 90.000000
_cell_angle_gamma 90.000000
_cell_volume 595.621594
_symmetry_space_group_name_H-M "P M M N"
_symmetry_group_IT_number 59
_space_group.IT_coordinate_system_code '2'
_symmetry_cell_setting 'orthorhombic'
loop_
_space_group_symop_operation_xyz
x,y,z
1/2-x,1/2-y,z
1/2+x,-y,-z
-x,1/2+y,-z
-x,-y,-z
1/2+x,1/2+y,-z
1/2-x,y,z
x,1/2-y,z
loop_
_atom_site_type_symbol
_atom_site_label
_atom_site_fract_x
_atom_site_fract_y
_atom_site_fract_z
Si Si1 0.414307 0.250000 0.905795
Si Si2 0.915149 0.750000 0.675849
Si Si3 0.250000 0.498448 0.725729
Si Si4 0.916684 0.250000 0.614676
O O1 0.507737 0.250000 0.781111
O O2 0.345308 0.465402 0.849804
O O3 0.432988 0.250000 0.113559
O O4 0.750000 0.750000 0.372623
O O5 0.015171 0.750000 0.561236
O O6 0.367860 0.498422 0.372025
O O7 0.750000 0.250000 0.357670
#
# Coordination Sequence:
#
# PCOD9451672 Si02
#       4
#     4   4   4   4
#     4   9  20  34  58  68 106 135 164 206 258 285
#     4  10  21  33  51  80 104 129 167 204 248 306
#     4   8  20  32  50  78  94 128 180 204 236 302
#     4  10  21  33  51  80 104 129 167 204 248 306
#
# _framework density 26.862691000000002
#
# number of rings (size 3 to 8) (size 9 to 14) (size 15 to 20)
#    1.500    1.000    0.000    1.500    7.000    0.000 
#    0.000    5.000    0.000    3.000    0.000    0.000 
#    0.000    0.000    0.000    0.000    0.000    0.000 
#
# Total GULP energy -89414.009031 kJ/mol
# GULP energy per Si atom -5588.375564 kJ/mol
# Density = 2.680155 g / cm^3
# Si number density = 26.862691 Si / 1000 Ang^3
#
#
#
# Elastic Constant Matrix: (Units=GPa)
#
#
# Indices 1 2 3 4 5 6 
#
# 1 76.0575 66.4088 51.6388 0.0000 0.0000 0.0000
# 2 66.4088 320.1207 111.3541 0.0000 0.0000 0.0000
# 3 51.6388 111.3541 177.4770 0.0000 0.0000 0.0000
# 4 0.0000 0.0000 0.0000 37.7685 0.0000 0.0000
# 5 0.0000 0.0000 0.0000 0.0000 16.5127 0.0000
# 6 0.0000 0.0000 0.0000 0.0000 0.0000 31.8935
#
#
#
# Elastic Compliance Matrix: (Units=1/GPa)
#
#
# Indices 1 2 3 4 5 6 
#
# 1 0.017727 -0.002409 -0.003646 0.000000 0.000000 0.000000
# 2 -0.002409 0.004323 -0.002012 0.000000 0.000000 0.000000
# 3 -0.003646 -0.002012 0.007958 0.000000 0.000000 0.000000
# 4 0.000000 0.000000 0.000000 0.026477 0.000000 0.000000
# 5 0.000000 0.000000 0.000000 0.000000 0.060559 0.000000
# 6 0.000000 0.000000 0.000000 0.000000 0.000000 0.031354
#
#
# Mechanical properties :
#
#
# Convention : Reuss Voigt Hill
#
# Bulk Modulus (GPa) = 72.07774 114.71762 93.39768
# Shear Modulus (GPa) = 29.55824 40.18518 34.87171
#
# Velocity S-wave (km/s) = 3.32074 3.87194 3.60689
# Velocity P-wave (km/s) = 6.44929 7.92384 7.22428
#
# Compressibility (1/GPa) = 0.01387391
#
# Stress axis : x y z
#
# Youngs Moduli (GPa) = 56.41084 231.30316 125.66544
#
# Poissons Ratio (x) = 0.55723 0.45822
# Poissons Ratio (y) = 0.13590 0.25279
# Poissons Ratio (z) = 0.20569 0.46530
#
# Static dielectric constant tensor:
#      x y z
#    x 2.176290 0.000000 0.000000 
#    y 0.000000 2.165290 0.000000 
#    z 0.000000 0.000000 1.983850 
# 
# From -- ./inp_files/722.got.cif
#   From: 2010.05.17/outbox.cif.g08.bks.cpg/sg59_1_cif.got.tgz:722.got - 2010.06.03 14:40:33.
