data_PCOD9451204
_publ_section_title
;
Structure prediction by ZEFSAII (Michael W. Deem and Ramdas Pophale) SiO2 
 PCOD9451204
Probable space group: P M M N
;
_chemical_formula_sum "Si O2"
_cell_formula_units_Z 64
_cell_length_a 7.918639
_cell_length_b 15.682051
_cell_length_c 24.406117
_cell_angle_alpha 90.000000
_cell_angle_beta 90.000000
_cell_angle_gamma 90.000000
_cell_volume 3030.763828
_symmetry_space_group_name_H-M "P M M N"
_symmetry_group_IT_number 59
_space_group.IT_coordinate_system_code '2'
_symmetry_cell_setting 'orthorhombic'
loop_
_space_group_symop_operation_xyz
x,y,z
1/2-x,1/2-y,z
1/2+x,-y,-z
-x,1/2+y,-z
-x,-y,-z
1/2+x,1/2+y,-z
1/2-x,y,z
x,1/2-y,z
loop_
_atom_site_type_symbol
_atom_site_label
_atom_site_fract_x
_atom_site_fract_y
_atom_site_fract_z
Si Si1 0.440819 0.877501 0.614388
Si Si2 0.952275 0.350252 0.010800
Si Si3 0.543440 0.512751 0.205890
Si Si4 0.437896 0.943602 0.395119
Si Si5 0.043672 0.658283 0.735294
Si Si6 0.446337 0.344694 0.506223
Si Si7 0.045254 0.486014 0.919396
Si Si8 0.545929 0.845330 0.292796
O O1 0.250000 0.845569 0.608449
O O2 0.512661 0.846672 0.672063
O O3 0.535665 0.855802 0.558642
O O4 0.438497 0.979526 0.617925
O O5 0.750000 0.344427 0.016947
O O6 0.013773 0.250000 0.012355
O O7 0.989367 0.404212 0.955307
O O8 0.012200 0.421783 0.055653
O O9 0.750000 0.513038 0.205759
O O10 0.486465 0.422455 0.230413
O O11 0.489612 0.523477 0.143317
O O12 0.489358 0.586440 0.247666
O O13 0.250000 0.976866 0.386339
O O14 0.456936 0.912502 0.457156
O O15 0.475030 0.869206 0.352279
O O16 0.250000 0.654145 0.733235
O O17 0.996291 0.750000 0.758859
O O18 0.250000 0.351501 0.521252
O O19 0.507593 0.250000 0.520323
O O20 0.250000 0.487242 0.921234
O O21 0.750000 0.849354 0.296246
O O22 0.497174 0.750000 0.277205
#
# Coordination Sequence:
#
# PCOD9451204 Si02
#       8
#     8   8   8   8   8   8   8   8
#     4  11  21  37  59  81 109 141 180 225 277 338
#     4   9  18  33  52  78 115 154 187 227 280 328
#     4   9  17  32  53  81 113 142 180 229 276 324
#     4  12  24  38  57  80 107 140 183 230 279 333
#     4   9  17  30  53  83 110 137 173 221 276 330
#     4  11  24  40  57  80 110 142 178 224 281 340
#     4   9  18  32  54  82 111 147 191 234 273 324
#     4  10  20  36  57  79 107 144 181 223 280 338
#
# _framework density 21.116790000000002
#
# number of rings (size 3 to 8) (size 9 to 14) (size 15 to 20)
#    0.000    2.000    1.250    3.000    0.000    4.500 
#    0.000    4.375    0.000    0.000    0.000    0.000 
#    0.000    0.000    0.000    0.000    0.000    0.000 
#
# Total GULP energy -357238.631845 kJ/mol
# GULP energy per Si atom -5581.853623 kJ/mol
# Density = 2.106873 g / cm^3
# Si number density = 21.116790 Si / 1000 Ang^3
#
#
#
# Elastic Constant Matrix: (Units=GPa)
#
#
# Indices 1 2 3 4 5 6 
#
# 1 30.6026 11.1443 0.9621 0.0000 0.0000 0.0000
# 2 11.1443 138.5012 27.7692 0.0000 0.0000 0.0000
# 3 0.9621 27.7692 93.2879 0.0000 0.0000 0.0000
# 4 0.0000 0.0000 0.0000 36.4070 0.0000 0.0000
# 5 0.0000 0.0000 0.0000 0.0000 18.9351 0.0000
# 6 0.0000 0.0000 0.0000 0.0000 0.0000 7.9447
#
#
#
# Elastic Compliance Matrix: (Units=1/GPa)
#
#
# Indices 1 2 3 4 5 6 
#
# 1 0.033684 -0.002808 0.000489 0.000000 0.000000 0.000000
# 2 -0.002808 0.007913 -0.002326 0.000000 0.000000 0.000000
# 3 0.000489 -0.002326 0.011407 0.000000 0.000000 0.000000
# 4 0.000000 0.000000 0.000000 0.027467 0.000000 0.000000
# 5 0.000000 0.000000 0.000000 0.000000 0.052812 0.000000
# 6 0.000000 0.000000 0.000000 0.000000 0.000000 0.125871
#
#
# Mechanical properties :
#
#
# Convention : Reuss Voigt Hill
#
# Bulk Modulus (GPa) = 22.87724 38.01588 30.44656
# Shear Modulus (GPa) = 17.66681 27.49175 22.57928
#
# Velocity S-wave (km/s) = 2.89558 3.61209 3.27350
# Velocity P-wave (km/s) = 4.69429 5.95298 5.36071
#
# Compressibility (1/GPa) = 0.04371156
#
# Stress axis : x y z
#
# Youngs Moduli (GPa) = 29.68740 126.38138 87.66578
#
# Poissons Ratio (x) = 0.35492 -0.04283
# Poissons Ratio (y) = 0.08337 0.20394
# Poissons Ratio (z) = -0.01450 0.29401
#
# Static dielectric constant tensor:
#      x y z
#    x 1.765010 0.000000 0.000000 
#    y 0.000000 1.774390 0.000000 
#    z 0.000000 0.000000 1.729320 
# 
# From -- ./inp_files/31644.got.cif
#   From: 2010.05.17/outbox.cif.g08.bks.cpg/sg59_16_cif.got.tgz:31644.got - 2010.06.03 14:40:33.
