data_PCOD9451928
_publ_section_title
;
Structure prediction by ZEFSAII (Michael W. Deem and Ramdas Pophale) SiO2 
 PCOD9451928
Probable space group: P M M N
;
_chemical_formula_sum "Si O2"
_cell_formula_units_Z 64
_cell_length_a 8.793566
_cell_length_b 23.091176
_cell_length_c 17.981229
_cell_angle_alpha 90.000000
_cell_angle_beta 90.000000
_cell_angle_gamma 90.000000
_cell_volume 3651.156521
_symmetry_space_group_name_H-M "P M M N"
_symmetry_group_IT_number 59
_space_group.IT_coordinate_system_code '2'
_symmetry_cell_setting 'orthorhombic'
loop_
_space_group_symop_operation_xyz
x,y,z
1/2-x,1/2-y,z
1/2+x,-y,-z
-x,1/2+y,-z
-x,-y,-z
1/2+x,1/2+y,-z
1/2-x,y,z
x,1/2-y,z
loop_
_atom_site_type_symbol
_atom_site_label
_atom_site_fract_x
_atom_site_fract_y
_atom_site_fract_z
Si Si1 0.066682 0.916336 0.646223
Si Si2 0.931599 0.564294 0.493900
Si Si3 0.067769 0.356728 0.092603
Si Si4 0.067723 0.317210 0.925699
Si Si5 0.069723 0.915644 0.176546
Si Si6 0.567158 0.314211 0.242460
Si Si7 0.068491 0.982670 0.920377
Si Si8 0.932696 0.948550 0.328410
O O1 0.250000 0.915961 0.642210
O O2 0.017806 0.867684 0.705313
O O3 0.001502 0.902976 0.564291
O O4 0.023333 0.982683 0.668132
O O5 0.750000 0.562070 0.501493
O O6 0.965912 0.580429 0.408554
O O7 0.000000 0.500000 0.500000
O O8 0.250000 0.360421 0.095738
O O9 0.006899 0.320105 0.161524
O O10 0.994562 0.419933 0.099943
O O11 0.026611 0.332251 0.011142
O O12 0.250000 0.326451 0.918854
O O13 0.035283 0.250000 0.911436
O O14 0.983817 0.359516 0.869054
O O15 0.250000 0.922267 0.170543
O O16 0.016748 0.916896 0.261677
O O17 0.987246 0.970078 0.138133
O O18 0.750000 0.318662 0.234600
O O19 0.532663 0.250000 0.273252
O O20 0.250000 0.982042 0.924150
O O21 0.000000 0.000000 0.000000
O O22 0.750000 0.946984 0.316920
#
# Coordination Sequence:
#
# PCOD9451928 Si02
#       8
#     8   8   8   8   8   8   8   8
#     4   9  18  33  53  78 109 145 181 220 269 322
#     4   9  17  30  52  80 108 138 170 209 262 320
#     4  11  22  37  58  82 107 141 183 230 278 323
#     4  10  22  40  59  76 101 141 183 226 275 322
#     4  12  24  36  55  83 111 144 182 224 272 320
#     4  10  21  36  54  78 111 152 192 229 272 323
#     4  12  23  37  56  80 110 143 178 221 275 331
#     4   9  18  33  53  79 111 143 176 221 278 333
#
# _framework density 17.528691999999999
#
# number of rings (size 3 to 8) (size 9 to 14) (size 15 to 20)
#    0.000    1.750    1.250    4.875    0.000    5.500 
#    0.000    0.000    0.000    0.750    0.000    3.500 
#    0.000    0.000    0.000    0.000    0.000    0.000 
#
# Total GULP energy -357273.699311 kJ/mol
# GULP energy per Si atom -5582.401552 kJ/mol
# Density = 1.748880 g / cm^3
# Si number density = 17.528692 Si / 1000 Ang^3
#
#
#
# Elastic Constant Matrix: (Units=GPa)
#
#
# Indices 1 2 3 4 5 6 
#
# 1 29.6008 24.5934 34.6290 0.0000 0.0000 0.0000
# 2 24.5934 75.3989 38.7302 0.0000 0.0000 0.0000
# 3 34.6290 38.7302 126.6793 0.0000 0.0000 0.0000
# 4 0.0000 0.0000 0.0000 14.5896 0.0000 0.0000
# 5 0.0000 0.0000 0.0000 0.0000 32.3046 0.0000
# 6 0.0000 0.0000 0.0000 0.0000 0.0000 18.9621
#
#
#
# Elastic Compliance Matrix: (Units=1/GPa)
#
#
# Indices 1 2 3 4 5 6 
#
# 1 0.058657 -0.012926 -0.012083 0.000000 0.000000 0.000000
# 2 -0.012926 0.018582 -0.002148 0.000000 0.000000 0.000000
# 3 -0.012083 -0.002148 0.011853 0.000000 0.000000 0.000000
# 4 0.000000 0.000000 0.000000 0.068542 0.000000 0.000000
# 5 0.000000 0.000000 0.000000 0.000000 0.030955 0.000000
# 6 0.000000 0.000000 0.000000 0.000000 0.000000 0.052737
#
#
# Mechanical properties :
#
#
# Convention : Reuss Voigt Hill
#
# Bulk Modulus (GPa) = 28.75205 47.50933 38.13069
# Shear Modulus (GPa) = 16.27426 22.08637 19.18031
#
# Velocity S-wave (km/s) = 3.05033 3.55352 3.31149
# Velocity P-wave (km/s) = 5.37071 6.63319 6.03505
#
# Compressibility (1/GPa) = 0.03478012
#
# Stress axis : x y z
#
# Youngs Moduli (GPa) = 17.04813 53.81479 84.36359
#
# Poissons Ratio (x) = 0.69562 1.01933
# Poissons Ratio (y) = 0.22037 0.18119
# Poissons Ratio (z) = 0.20599 0.11558
#
# Static dielectric constant tensor:
#      x y z
#    x 1.580090 0.000000 0.000000 
#    y 0.000000 1.579620 0.000000 
#    z 0.000000 0.000000 1.610330 
# 
# From -- ./inp_files/26167.got.cif
#   From: 2010.05.17/outbox.cif.g08.bks.cpg/sg59_14_cif.got.tgz:26167.got - 2010.06.03 14:40:33.
