data_PCOD9451225
_publ_section_title
;
Structure prediction by ZEFSAII (Michael W. Deem and Ramdas Pophale) SiO2 
 PCOD9451225
Probable space group: P M M N
;
_chemical_formula_sum "Si O2"
_cell_formula_units_Z 64
_cell_length_a 25.172285
_cell_length_b 8.339508
_cell_length_c 15.403220
_cell_angle_alpha 90.000000
_cell_angle_beta 90.000000
_cell_angle_gamma 90.000000
_cell_volume 3233.512828
_symmetry_space_group_name_H-M "P M M N"
_symmetry_group_IT_number 59
_space_group.IT_coordinate_system_code '2'
_symmetry_cell_setting 'orthorhombic'
loop_
_space_group_symop_operation_xyz
x,y,z
1/2-x,1/2-y,z
1/2+x,-y,-z
-x,1/2+y,-z
-x,-y,-z
1/2+x,1/2+y,-z
1/2-x,y,z
x,1/2-y,z
loop_
_atom_site_type_symbol
_atom_site_label
_atom_site_fract_x
_atom_site_fract_y
_atom_site_fract_z
Si Si1 0.309902 0.441985 0.451670
Si Si2 0.602505 0.945063 0.681675
Si Si3 0.525052 0.938412 0.130804
Si Si4 0.591966 0.941990 0.880885
Si Si5 0.983998 0.055349 0.327338
Si Si6 0.688769 0.560144 0.220167
Si Si7 0.627645 0.060949 0.384819
Si Si8 0.132774 0.563336 0.946950
O O1 0.250000 0.506296 0.446642
O O2 0.307006 0.250000 0.440847
O O3 0.349956 0.505480 0.378104
O O4 0.336181 0.475526 0.544453
O O5 0.604059 0.750000 0.681013
O O6 0.606168 0.993888 0.782699
O O7 0.543887 0.990283 0.646514
O O8 0.533784 0.750000 0.115884
O O9 0.466642 0.988985 0.099590
O O10 0.525286 0.978596 0.233028
O O11 0.572929 0.034406 0.087753
O O12 0.588052 0.750000 0.881630
O O13 0.632118 0.997388 0.955250
O O14 0.982507 0.250000 0.317660
O O15 0.934072 0.008127 0.386264
O O16 0.750000 0.511407 0.232780
O O17 0.684397 0.750000 0.236073
O O18 0.651125 0.472638 0.289267
O O19 0.670138 0.523995 0.122507
O O20 0.629495 0.250000 0.401701
O O21 0.145424 0.750000 0.946513
#
# Coordination Sequence:
#
# PCOD9451225 Si02
#       8
#     8   8   8   8   8   8   8   8
#     4  10  21  38  60  84 110 146 193 239 283 337
#     4   8  17  36  59  81 111 149 191 239 289 339
#     4  11  20  32  53  83 117 152 191 234 282 339
#     4  10  20  36  57  81 113 151 193 240 290 340
#     4   9  18  34  55  81 114 152 188 230 289 353
#     4  11  24  41  60  83 113 151 195 241 288 343
#     4  11  22  36  58  86 116 148 186 232 289 351
#     4  12  23  36  55  82 116 153 193 234 283 343
#
# _framework density 19.792715000000001
#
# number of rings (size 3 to 8) (size 9 to 14) (size 15 to 20)
#    0.000    1.750    1.250    4.875    0.000    3.750 
#    0.000    3.750    0.000    2.250    0.000    0.000 
#    0.000    0.000    0.000    0.000    0.000    0.000 
#
# Total GULP energy -357481.186683 kJ/mol
# GULP energy per Si atom -5585.643542 kJ/mol
# Density = 1.974767 g / cm^3
# Si number density = 19.792715 Si / 1000 Ang^3
#
#
#
# Elastic Constant Matrix: (Units=GPa)
#
#
# Indices 1 2 3 4 5 6 
#
# 1 112.6883 3.7507 64.3058 0.0000 0.0000 0.0000
# 2 3.7507 21.4136 -6.1587 0.0000 0.0000 0.0000
# 3 64.3058 -6.1587 55.5105 0.0000 0.0000 0.0000
# 4 0.0000 0.0000 0.0000 20.1671 0.0000 0.0000
# 5 0.0000 0.0000 0.0000 0.0000 24.9027 0.0000
# 6 0.0000 0.0000 0.0000 0.0000 0.0000 17.7443
#
#
#
# Elastic Compliance Matrix: (Units=1/GPa)
#
#
# Indices 1 2 3 4 5 6 
#
# 1 0.030790 -0.016167 -0.037462 0.000000 0.000000 0.000000
# 2 -0.016167 0.056728 0.025023 0.000000 0.000000 0.000000
# 3 -0.037462 0.025023 0.064189 0.000000 0.000000 0.000000
# 4 0.000000 0.000000 0.000000 0.049586 0.000000 0.000000
# 5 0.000000 0.000000 0.000000 0.000000 0.040156 0.000000
# 6 0.000000 0.000000 0.000000 0.000000 0.000000 0.056356
#
#
# Mechanical properties :
#
#
# Convention : Reuss Voigt Hill
#
# Bulk Modulus (GPa) = 10.58282 34.82311 22.70296
# Shear Modulus (GPa) = 12.93609 21.07714 17.00661
#
# Velocity S-wave (km/s) = 2.55929 3.26681 2.93445
# Velocity P-wave (km/s) = 3.75389 5.64460 4.79339
#
# Compressibility (1/GPa) = 0.09449279
#
# Stress axis : x y z
#
# Youngs Moduli (GPa) = 32.47808 17.62806 15.57908
#
# Poissons Ratio (x) = 0.28500 0.58363
# Poissons Ratio (y) = 0.52509 -0.38983
# Poissons Ratio (z) = 1.21670 -0.44110
#
# Static dielectric constant tensor:
#      x y z
#    x 1.701840 0.000000 0.000000 
#    y 0.000000 1.680730 0.000000 
#    z 0.000000 0.000000 1.703560 
# 
# From -- ./inp_files/24800.got.cif
#   From: 2010.05.17/outbox.cif.g08.bks.cpg/sg59_13_cif.got.tgz:24800.got - 2010.06.03 14:40:33.
