data_PCOD9451916
_publ_section_title
;
Structure prediction by ZEFSAII (Michael W. Deem and Ramdas Pophale) SiO2 
 PCOD9451916
Probable space group: P M M N
;
_chemical_formula_sum "Si O2"
_cell_formula_units_Z 48
_cell_length_a 8.900334
_cell_length_b 25.866520
_cell_length_c 12.093700
_cell_angle_alpha 90.000000
_cell_angle_beta 90.000000
_cell_angle_gamma 90.000000
_cell_volume 2784.219686
_symmetry_space_group_name_H-M "P M M N"
_symmetry_group_IT_number 59
_space_group.IT_coordinate_system_code '2'
_symmetry_cell_setting 'orthorhombic'
loop_
_space_group_symop_operation_xyz
x,y,z
1/2-x,1/2-y,z
1/2+x,-y,-z
-x,1/2+y,-z
-x,-y,-z
1/2+x,1/2+y,-z
1/2-x,y,z
x,1/2-y,z
loop_
_atom_site_type_symbol
_atom_site_label
_atom_site_fract_x
_atom_site_fract_y
_atom_site_fract_z
Si Si1 0.068900 0.557227 0.999023
Si Si2 0.430353 0.599419 0.763019
Si Si3 0.569798 0.502925 0.378545
Si Si4 0.068999 0.309414 0.376117
Si Si5 0.929885 0.096804 0.759939
Si Si6 0.069621 0.189561 0.630763
O O1 0.250000 0.552178 0.994812
O O2 0.029210 0.586330 0.112325
O O3 0.020939 0.587319 0.888400
O O4 0.000000 0.500000 0.000000
O O5 0.250000 0.605094 0.762346
O O6 0.467477 0.549119 0.689242
O O7 0.501904 0.649691 0.708249
O O8 0.500000 0.500000 0.500000
O O9 0.750000 0.507383 0.385238
O O10 0.503757 0.551650 0.313109
O O11 0.250000 0.311193 0.371636
O O12 0.023132 0.250000 0.354216
O O13 0.026103 0.322243 0.503216
O O14 0.750000 0.093969 0.749904
O O15 0.988451 0.151029 0.713499
O O16 0.250000 0.183021 0.638962
O O17 0.036291 0.250000 0.650772
#
# Coordination Sequence:
#
# PCOD9451916 Si02
#       6
#     8   8   8   8   8   8
#     4  10  21  38  56  77 107 145 187 226 268 322
#     4  10  21  36  54  78 107 141 181 222 268 321
#     4  11  22  35  53  79 112 143 177 224 275 331
#     4   9  19  36  57  81 108 140 179 222 269 322
#     4  11  22  35  55  82 110 142 183 227 275 328
#     4   9  19  37  59  81 109 146 184 224 274 329
#
# _framework density 17.240019
#
# number of rings (size 3 to 8) (size 9 to 14) (size 15 to 20)
#    0.000    2.000    1.667    3.000    0.000    6.667 
#    0.000    2.500    0.000    5.000    0.000    0.000 
#    0.000    0.000    0.000    0.000    0.000    0.000 
#
# Total GULP energy -268017.963739 kJ/mol
# GULP energy per Si atom -5583.707578 kJ/mol
# Density = 1.720078 g / cm^3
# Si number density = 17.240019 Si / 1000 Ang^3
#
#
#
# Elastic Constant Matrix: (Units=GPa)
#
#
# Indices 1 2 3 4 5 6 
#
# 1 29.7520 45.6973 55.6980 0.0000 0.0000 0.0000
# 2 45.6973 121.9172 103.6649 0.0000 0.0000 0.0000
# 3 55.6980 103.6649 186.8860 0.0000 0.0000 0.0000
# 4 0.0000 0.0000 0.0000 17.6131 0.0000 0.0000
# 5 0.0000 0.0000 0.0000 0.0000 27.0824 0.0000
# 6 0.0000 0.0000 0.0000 0.0000 0.0000 35.8446
#
#
#
# Elastic Compliance Matrix: (Units=1/GPa)
#
#
# Indices 1 2 3 4 5 6 
#
# 1 0.102555 -0.023566 -0.017493 0.000000 0.000000 0.000000
# 2 -0.023566 0.020940 -0.004592 0.000000 0.000000 0.000000
# 3 -0.017493 -0.004592 0.013111 0.000000 0.000000 0.000000
# 4 0.000000 0.000000 0.000000 0.056776 0.000000 0.000000
# 5 0.000000 0.000000 0.000000 0.000000 0.036924 0.000000
# 6 0.000000 0.000000 0.000000 0.000000 0.000000 0.027898
#
#
# Mechanical properties :
#
#
# Convention : Reuss Voigt Hill
#
# Bulk Modulus (GPa) = 22.07269 83.18618 52.62943
# Shear Modulus (GPa) = 13.71342 25.00769 19.36056
#
# Velocity S-wave (km/s) = 2.82342 3.81275 3.35476
# Velocity P-wave (km/s) = 4.84354 8.23039 6.75275
#
# Compressibility (1/GPa) = 0.04530486
#
# Stress axis : x y z
#
# Youngs Moduli (GPa) = 9.75090 47.75633 76.27060
#
# Poissons Ratio (x) = 1.12543 1.33417
# Poissons Ratio (y) = 0.22979 0.35021
# Poissons Ratio (z) = 0.17057 0.21928
#
# Static dielectric constant tensor:
#      x y z
#    x 1.578740 0.000000 0.000000 
#    y 0.000000 1.556890 0.000000 
#    z 0.000000 0.000000 1.575920 
# 
# From -- ./inp_files/14294.got.cif
#   From: 2010.05.17/outbox.cif.g08.bks.cpg/sg59_8_cif.got.tgz:14294.got - 2010.06.03 14:40:33.
