data_PCOD9451076
_publ_section_title
;
Structure prediction by ZEFSAII (Michael W. Deem and Ramdas Pophale) SiO2 
 PCOD9451076
Probable space group: P M M N
;
_chemical_formula_sum "Si O2"
_cell_formula_units_Z 64
_cell_length_a 8.413275
_cell_length_b 19.010503
_cell_length_c 20.282102
_cell_angle_alpha 90.000000
_cell_angle_beta 90.000000
_cell_angle_gamma 90.000000
_cell_volume 3243.931353
_symmetry_space_group_name_H-M "P M M N"
_symmetry_group_IT_number 59
_space_group.IT_coordinate_system_code '2'
_symmetry_cell_setting 'orthorhombic'
loop_
_space_group_symop_operation_xyz
x,y,z
1/2-x,1/2-y,z
1/2+x,-y,-z
-x,1/2+y,-z
-x,-y,-z
1/2+x,1/2+y,-z
1/2-x,y,z
x,1/2-y,z
loop_
_atom_site_type_symbol
_atom_site_label
_atom_site_fract_x
_atom_site_fract_y
_atom_site_fract_z
Si Si1 0.556007 0.830439 0.608290
Si Si2 0.057853 0.078343 0.516223
Si Si3 0.059039 0.438532 0.278174
Si Si4 0.063710 0.919724 0.869842
Si Si5 0.559317 0.912397 0.334282
Si Si6 0.061242 0.569178 0.095390
Si Si7 0.937938 0.830741 0.982349
Si Si8 0.941722 0.328899 0.786826
O O1 0.750000 0.829910 0.607684
O O2 0.502094 0.750000 0.612537
O O3 0.503718 0.868634 0.540963
O O4 0.508567 0.877993 0.670530
O O5 0.250000 0.078014 0.515320
O O6 0.006593 0.097899 0.590186
O O7 0.000000 0.000000 0.500000
O O8 0.250000 0.438853 0.273440
O O9 0.989338 0.426687 0.205797
O O10 0.005169 0.513314 0.307396
O O11 0.250000 0.905924 0.873852
O O12 0.971953 0.859237 0.909262
O O13 0.024286 0.994368 0.904258
O O14 0.750000 0.914445 0.332856
O O15 0.499870 0.852937 0.284517
O O16 0.250000 0.556388 0.100834
O O17 0.006217 0.614260 0.158932
O O18 0.025718 0.617109 0.032432
O O19 0.750000 0.834354 0.995601
O O20 0.990558 0.750000 0.990474
O O21 0.750000 0.329299 0.787573
O O22 0.995942 0.250000 0.803322
#
# Coordination Sequence:
#
# PCOD9451076 Si02
#       8
#     8   8   8   8   8   8   8   8
#     4   9  19  36  59  87 118 156 203 252 304 363
#     4  10  20  35  58  86 116 154 200 247 300 360
#     4  11  21  37  62  88 117 159 205 253 306 365
#     4  12  25  41  64  93 125 159 204 257 307 363
#     4  11  22  35  57  88 120 157 199 248 301 360
#     4  11  22  40  66  93 123 162 205 249 302 361
#     4  11  25  44  65  91 125 164 206 251 303 364
#     4  10  22  39  60  87 121 161 201 242 294 358
#
# _framework density 19.729147999999999
#
# number of rings (size 3 to 8) (size 9 to 14) (size 15 to 20)
#    0.000    1.375    2.500    3.375    0.000    3.750 
#    0.000    2.500    0.000    3.000    0.000    0.000 
#    0.000    0.000    0.000    0.000    0.000    0.000 
#
# Total GULP energy -357824.040575 kJ/mol
# GULP energy per Si atom -5591.000634 kJ/mol
# Density = 1.968424 g / cm^3
# Si number density = 19.729148 Si / 1000 Ang^3
#
#
#
# Elastic Constant Matrix: (Units=GPa)
#
#
# Indices 1 2 3 4 5 6 
#
# 1 13.1460 -5.2111 -7.2227 0.0000 0.0000 0.0000
# 2 -5.2111 70.9893 15.4654 0.0000 0.0000 0.0000
# 3 -7.2227 15.4654 89.4628 0.0000 0.0000 0.0000
# 4 0.0000 0.0000 0.0000 28.1663 0.0000 0.0000
# 5 0.0000 0.0000 0.0000 0.0000 14.1863 0.0000
# 6 0.0000 0.0000 0.0000 0.0000 0.0000 19.9255
#
#
#
# Elastic Compliance Matrix: (Units=1/GPa)
#
#
# Indices 1 2 3 4 5 6 
#
# 1 0.081083 0.004703 0.005733 0.000000 0.000000 0.000000
# 2 0.004703 0.014911 -0.002198 0.000000 0.000000 0.000000
# 3 0.005733 -0.002198 0.012021 0.000000 0.000000 0.000000
# 4 0.000000 0.000000 0.000000 0.035503 0.000000 0.000000
# 5 0.000000 0.000000 0.000000 0.000000 0.070490 0.000000
# 6 0.000000 0.000000 0.000000 0.000000 0.000000 0.050187
#
#
# Mechanical properties :
#
#
# Convention : Reuss Voigt Hill
#
# Bulk Modulus (GPa) = 8.03271 19.96236 13.99754
# Shear Modulus (GPa) = 17.28817 23.82675 20.55746
#
# Velocity S-wave (km/s) = 2.96341 3.47896 3.23148
# Velocity P-wave (km/s) = 3.97358 5.12618 4.58623
#
# Compressibility (1/GPa) = 0.12449091
#
# Stress axis : x y z
#
# Youngs Moduli (GPa) = 12.33305 67.06595 83.19027
#
# Poissons Ratio (x) = -0.31542 -0.47694
# Poissons Ratio (y) = -0.05800 0.18284
# Poissons Ratio (z) = -0.07071 0.14740
#
# Static dielectric constant tensor:
#      x y z
#    x 1.676590 0.000000 0.000000 
#    y 0.000000 1.662820 0.000000 
#    z 0.000000 0.000000 1.692200 
# 
# From -- ./inp_files/29440.got.cif
#   From: 2010.05.17/outbox.cif.g08.bks.cpg/sg59_15_cif.got.tgz:29440.got - 2010.06.03 14:40:33.
