data_PCOD9451228
_publ_section_title
;
Structure prediction by ZEFSAII (Michael W. Deem and Ramdas Pophale) SiO2 
 PCOD9451228
Probable space group: P M M N
;
_chemical_formula_sum "Si O2"
_cell_formula_units_Z 64
_cell_length_a 20.358053
_cell_length_b 8.847798
_cell_length_c 20.392783
_cell_angle_alpha 90.000000
_cell_angle_beta 90.000000
_cell_angle_gamma 90.000000
_cell_volume 3673.228434
_symmetry_space_group_name_H-M "P M M N"
_symmetry_group_IT_number 59
_space_group.IT_coordinate_system_code '2'
_symmetry_cell_setting 'orthorhombic'
loop_
_space_group_symop_operation_xyz
x,y,z
1/2-x,1/2-y,z
1/2+x,-y,-z
-x,1/2+y,-z
-x,-y,-z
1/2+x,1/2+y,-z
1/2-x,y,z
x,1/2-y,z
loop_
_atom_site_type_symbol
_atom_site_label
_atom_site_fract_x
_atom_site_fract_y
_atom_site_fract_z
Si Si1 0.826573 0.930802 0.553431
Si Si2 0.433533 0.568835 0.969718
Si Si3 0.931707 0.930862 0.313960
Si Si4 0.325869 0.930263 0.589483
Si Si5 0.899190 0.929749 0.805680
Si Si6 0.959119 0.931066 0.165605
Si Si7 0.584063 0.431330 0.666296
Si Si8 0.325259 0.929403 0.077623
O O1 0.750000 0.967282 0.568706
O O2 0.833842 0.750000 0.555027
O O3 0.839727 0.991422 0.480323
O O4 0.875362 0.006214 0.605205
O O5 0.439691 0.750000 0.965955
O O6 0.424269 0.501106 0.897392
O O7 0.500000 0.500000 0.000000
O O8 0.374370 0.530693 0.018800
O O9 0.924589 0.750000 0.321519
O O10 0.927452 0.965927 0.236346
O O11 0.006257 0.970607 0.335881
O O12 0.877163 0.012813 0.356786
O O13 0.250000 0.966771 0.607219
O O14 0.330828 0.750000 0.581764
O O15 0.904731 0.750000 0.802270
O O16 0.888597 0.997548 0.733504
O O17 0.844717 0.980290 0.857435
O O18 0.967592 0.000786 0.831379
O O19 0.963830 0.750000 0.159335
O O20 0.588551 0.250000 0.669760
O O21 0.250000 0.955818 0.059381
O O22 0.333865 0.750000 0.091038
#
# Coordination Sequence:
#
# PCOD9451228 Si02
#       8
#     8   8   8   8   8   8   8   8
#     4  10  21  37  57  81 110 146 189 232 274 329
#     4  11  21  34  58  85 110 144 186 230 277 329
#     4   9  20  37  57  82 111 145 184 229 278 329
#     4  10  21  37  58  83 110 144 186 230 280 337
#     4  11  21  34  55  81 109 143 183 226 275 329
#     4  10  20  36  57  82 112 143 183 228 273 331
#     4  10  21  37  57  82 114 148 184 228 277 329
#     4  10  22  39  56  77 110 150 188 228 276 330
#
# _framework density 17.423366000000001
#
# number of rings (size 3 to 8) (size 9 to 14) (size 15 to 20)
#    0.000    1.875    1.250    3.750    0.000    6.250 
#    0.000    0.625    0.000    2.250    0.000    0.000 
#    0.000    0.000    0.000    0.000    0.000    0.000 
#
# Total GULP energy -357402.047710 kJ/mol
# GULP energy per Si atom -5584.406995 kJ/mol
# Density = 1.738371 g / cm^3
# Si number density = 17.423366 Si / 1000 Ang^3
#
#
#
# Elastic Constant Matrix: (Units=GPa)
#
#
# Indices 1 2 3 4 5 6 
#
# 1 100.8270 61.0833 89.7814 0.0000 0.0000 0.0000
# 2 61.0833 76.0234 67.5619 0.0000 0.0000 0.0000
# 3 89.7814 67.5619 136.6028 0.0000 0.0000 0.0000
# 4 0.0000 0.0000 0.0000 38.0154 0.0000 0.0000
# 5 0.0000 0.0000 0.0000 0.0000 30.1395 0.0000
# 6 0.0000 0.0000 0.0000 0.0000 0.0000 26.5905
#
#
#
# Elastic Compliance Matrix: (Units=1/GPa)
#
#
# Indices 1 2 3 4 5 6 
#
# 1 0.028337 -0.011092 -0.013138 0.000000 0.000000 0.000000
# 2 -0.011092 0.027812 -0.006465 0.000000 0.000000 0.000000
# 3 -0.013138 -0.006465 0.019153 0.000000 0.000000 0.000000
# 4 0.000000 0.000000 0.000000 0.026305 0.000000 0.000000
# 5 0.000000 0.000000 0.000000 0.000000 0.033179 0.000000
# 6 0.000000 0.000000 0.000000 0.000000 0.000000 0.037607
#
#
# Mechanical properties :
#
#
# Convention : Reuss Voigt Hill
#
# Bulk Modulus (GPa) = 71.88690 83.36738 77.62714
# Shear Modulus (GPa) = 20.97138 25.28419 23.12778
#
# Velocity S-wave (km/s) = 3.47311 3.81355 3.64730
# Velocity P-wave (km/s) = 7.57838 8.20627 7.89856
#
# Compressibility (1/GPa) = 0.01391074
#
# Stress axis : x y z
#
# Youngs Moduli (GPa) = 35.28994 35.95623 52.21134
#
# Poissons Ratio (x) = 0.39883 0.68596
# Poissons Ratio (y) = 0.39144 0.33755
# Poissons Ratio (z) = 0.46364 0.23246
#
# Static dielectric constant tensor:
#      x y z
#    x 1.577520 0.000000 0.000000 
#    y 0.000000 1.582600 0.000000 
#    z 0.000000 0.000000 1.578360 
# 
# From -- ./inp_files/28278.got.cif
#   From: 2010.05.17/outbox.cif.g08.bks.cpg/sg59_15_cif.got.tgz:28278.got - 2010.06.03 14:40:33.
