data_PCOD9451032
_publ_section_title
;
Structure prediction by ZEFSAII (Michael W. Deem and Ramdas Pophale) SiO2 
 PCOD9451032
Probable space group: P M M N
;
_chemical_formula_sum "Si O2"
_cell_formula_units_Z 64
_cell_length_a 8.484677
_cell_length_b 14.912072
_cell_length_c 25.677582
_cell_angle_alpha 90.000000
_cell_angle_beta 90.000000
_cell_angle_gamma 90.000000
_cell_volume 3248.833320
_symmetry_space_group_name_H-M "P M M N"
_symmetry_group_IT_number 59
_space_group.IT_coordinate_system_code '2'
_symmetry_cell_setting 'orthorhombic'
loop_
_space_group_symop_operation_xyz
x,y,z
1/2-x,1/2-y,z
1/2+x,-y,-z
-x,1/2+y,-z
-x,-y,-z
1/2+x,1/2+y,-z
1/2-x,y,z
x,1/2-y,z
loop_
_atom_site_type_symbol
_atom_site_label
_atom_site_fract_x
_atom_site_fract_y
_atom_site_fract_z
Si Si1 0.059268 0.648956 0.371718
Si Si2 0.932880 0.349528 0.407480
Si Si3 0.060342 0.402340 0.015594
Si Si4 0.439007 0.044825 0.126219
Si Si5 0.562359 0.353174 0.227511
Si Si6 0.059154 0.152442 0.903709
Si Si7 0.561749 0.901188 0.486214
Si Si8 0.065796 0.469718 0.321589
O O1 0.250000 0.644007 0.374869
O O2 0.014903 0.750000 0.356475
O O3 0.007880 0.570987 0.331954
O O4 0.993343 0.628344 0.429171
O O5 0.750000 0.377669 0.404243
O O6 0.946705 0.250000 0.384153
O O7 0.985239 0.345460 0.467109
O O8 0.039212 0.418632 0.376141
O O9 0.250000 0.397188 0.016517
O O10 0.007649 0.396062 0.075624
O O11 0.010477 0.346611 0.965019
O O12 0.000000 0.500000 0.000000
O O13 0.250000 0.041462 0.125728
O O14 0.495619 0.093925 0.177894
O O15 0.497527 0.941389 0.120210
O O16 0.750000 0.349392 0.222943
O O17 0.502942 0.250000 0.230739
O O18 0.520096 0.411104 0.278303
O O19 0.250000 0.148073 0.901558
O O20 0.010985 0.250000 0.881026
O O21 0.750000 0.897380 0.488789
O O22 0.500000 0.000000 0.500000
O O23 0.250000 0.472479 0.308348
#
# Coordination Sequence:
#
# PCOD9451032 Si02
#       8
#     8   8   8   8   8   8   8   8
#     4  10  22  41  63  88 120 155 189 231 287 347
#     4  11  23  38  58  85 119 156 190 232 286 340
#     4   8  15  28  48  76 111 151 193 236 283 335
#     4  10  20  35  57  85 117 153 195 246 297 348
#     4  11  25  44  64  85 112 148 190 241 299 354
#     4   9  17  31  53  82 119 162 201 237 285 346
#     4  12  23  36  57  86 120 158 197 237 282 336
#     4  11  23  40  64  89 114 148 190 239 289 342
#
# _framework density 19.699379
#
# number of rings (size 3 to 8) (size 9 to 14) (size 15 to 20)
#    0.000    1.750    1.250    3.375    0.000    7.000 
#    0.000    1.875    0.000    2.250    0.000    0.000 
#    0.000    0.000    0.000    0.000    0.000    0.000 
#
# Total GULP energy -356954.741022 kJ/mol
# GULP energy per Si atom -5577.417828 kJ/mol
# Density = 1.965454 g / cm^3
# Si number density = 19.699379 Si / 1000 Ang^3
#
#
#
# Elastic Constant Matrix: (Units=GPa)
#
#
# Indices 1 2 3 4 5 6 
#
# 1 30.5664 24.2748 8.5875 0.0000 0.0000 0.0000
# 2 24.2748 153.3483 54.0215 0.0000 0.0000 0.0000
# 3 8.5875 54.0215 92.6077 0.0000 0.0000 0.0000
# 4 0.0000 0.0000 0.0000 23.9220 0.0000 0.0000
# 5 0.0000 0.0000 0.0000 0.0000 27.4565 0.0000
# 6 0.0000 0.0000 0.0000 0.0000 0.0000 19.0235
#
#
#
# Elastic Compliance Matrix: (Units=1/GPa)
#
#
# Indices 1 2 3 4 5 6 
#
# 1 0.037420 -0.005917 -0.000018 0.000000 0.000000 0.000000
# 2 -0.005917 0.009143 -0.004785 0.000000 0.000000 0.000000
# 3 -0.000018 -0.004785 0.013591 0.000000 0.000000 0.000000
# 4 0.000000 0.000000 0.000000 0.041803 0.000000 0.000000
# 5 0.000000 0.000000 0.000000 0.000000 0.036421 0.000000
# 6 0.000000 0.000000 0.000000 0.000000 0.000000 0.052567
#
#
# Mechanical properties :
#
#
# Convention : Reuss Voigt Hill
#
# Bulk Modulus (GPa) = 25.83056 50.03221 37.93138
# Shear Modulus (GPa) = 22.19359 26.72298 24.45828
#
# Velocity S-wave (km/s) = 3.36015 3.68712 3.52742
# Velocity P-wave (km/s) = 5.30989 6.60147 5.99059
#
# Compressibility (1/GPa) = 0.03871383
#
# Stress axis : x y z
#
# Youngs Moduli (GPa) = 26.72373 109.36827 73.57704
#
# Poissons Ratio (x) = 0.64714 0.00135
# Poissons Ratio (y) = 0.15813 0.35207
# Poissons Ratio (z) = 0.00049 0.52333
#
# Static dielectric constant tensor:
#      x y z
#    x 1.673920 0.000000 0.000000 
#    y 0.000000 1.723580 0.000000 
#    z 0.000000 0.000000 1.693580 
# 
# From -- ./inp_files/31628.got.cif
#   From: 2010.05.17/outbox.cif.g08.bks.cpg/sg59_16_cif.got.tgz:31628.got - 2010.06.03 14:40:33.
