data_PCOD9451798
_publ_section_title
;
Structure prediction by ZEFSAII (Michael W. Deem and Ramdas Pophale) SiO2 
 PCOD9451798
Probable space group: P M M N
;
_chemical_formula_sum "Si O2"
_cell_formula_units_Z 64
_cell_length_a 29.780871
_cell_length_b 17.629738
_cell_length_c 5.700791
_cell_angle_alpha 90.000000
_cell_angle_beta 90.000000
_cell_angle_gamma 90.000000
_cell_volume 2993.080331
_symmetry_space_group_name_H-M "P M M N"
_symmetry_group_IT_number 59
_space_group.IT_coordinate_system_code '2'
_symmetry_cell_setting 'orthorhombic'
loop_
_space_group_symop_operation_xyz
x,y,z
1/2-x,1/2-y,z
1/2+x,-y,-z
-x,1/2+y,-z
-x,-y,-z
1/2+x,1/2+y,-z
1/2-x,y,z
x,1/2-y,z
loop_
_atom_site_type_symbol
_atom_site_label
_atom_site_fract_x
_atom_site_fract_y
_atom_site_fract_z
Si Si1 0.360994 0.914314 0.611240
Si Si2 0.698528 0.488470 0.740656
Si Si3 0.601360 0.659402 0.475772
Si Si4 0.061896 0.538640 0.934403
Si Si5 0.494542 0.085343 0.406253
Si Si6 0.927298 0.334835 0.687358
Si Si7 0.300352 0.835675 0.992703
Si Si8 0.625561 0.908839 0.967225
O O1 0.331115 0.979894 0.493018
O O2 0.405479 0.954871 0.710041
O O3 0.381374 0.848524 0.449811
O O4 0.333849 0.870261 0.806316
O O5 0.750000 0.516111 0.717746
O O6 0.668621 0.535589 0.927607
O O7 0.701041 0.399836 0.810042
O O8 0.595825 0.750000 0.457543
O O9 0.553124 0.618879 0.517548
O O10 0.625880 0.641138 0.726703
O O11 0.622673 0.631328 0.224443
O O12 0.012684 0.567417 0.856616
O O13 0.075938 0.603443 0.112106
O O14 0.080050 0.460353 0.043038
O O15 0.530685 0.142095 0.524095
O O16 0.500000 0.000000 0.500000
O O17 0.932396 0.250000 0.774844
O O18 0.250000 0.833990 0.889080
O O19 0.311478 0.750000 0.065399
#
# Coordination Sequence:
#
# PCOD9451798 Si02
#       8
#     8   8   8   8   8   8   8   8
#     4  11  20  38  57  88 131 178 230 279 344 410
#     4  11  24  41  68 100 131 178 239 295 355 427
#     4  12  28  48  76 107 143 186 233 290 357 432
#     4  11  23  39  64  96 132 185 234 283 340 413
#     4  11  24  42  67  96 135 184 235 289 342 411
#     4  11  24  38  58  91 138 182 231 288 348 413
#     4  10  21  35  54  86 129 175 228 286 344 409
#     4  12  24  48  74 102 145 180 236 293 357 425
#
# _framework density 21.382653000000001
#
# number of rings (size 3 to 8) (size 9 to 14) (size 15 to 20)
#    0.000    0.875    3.750    3.000    1.750    6.000 
#    0.000    1.250    0.000    2.250    0.000    0.000 
#    0.000    0.000    0.000    0.000    0.000    0.000 
#
# Total GULP energy -356799.303710 kJ/mol
# GULP energy per Si atom -5574.989120 kJ/mol
# Density = 2.133399 g / cm^3
# Si number density = 21.382653 Si / 1000 Ang^3
#
#
#
# Elastic Constant Matrix: (Units=GPa)
#
#
# Indices 1 2 3 4 5 6 
#
# 1 89.6685 -9.3201 17.1580 0.0000 0.0000 0.0000
# 2 -9.3201 107.6774 26.7969 0.0000 0.0000 0.0000
# 3 17.1580 26.7969 80.9527 0.0000 0.0000 0.0000
# 4 0.0000 0.0000 0.0000 19.3248 0.0000 0.0000
# 5 0.0000 0.0000 0.0000 0.0000 23.3478 0.0000
# 6 0.0000 0.0000 0.0000 0.0000 0.0000 25.2010
#
#
#
# Elastic Compliance Matrix: (Units=1/GPa)
#
#
# Indices 1 2 3 4 5 6 
#
# 1 0.011940 0.001813 -0.003131 0.000000 0.000000 0.000000
# 2 0.001813 0.010396 -0.003825 0.000000 0.000000 0.000000
# 3 -0.003131 -0.003825 0.014283 0.000000 0.000000 0.000000
# 4 0.000000 0.000000 0.000000 0.051747 0.000000 0.000000
# 5 0.000000 0.000000 0.000000 0.000000 0.042830 0.000000
# 6 0.000000 0.000000 0.000000 0.000000 0.000000 0.039681
#
#
# Mechanical properties :
#
#
# Convention : Reuss Voigt Hill
#
# Bulk Modulus (GPa) = 37.97767 38.61871 38.29819
# Shear Modulus (GPa) = 26.32401 29.81898 28.07150
#
# Velocity S-wave (km/s) = 3.51250 3.73841 3.62721
# Velocity P-wave (km/s) = 5.85233 6.06088 5.95751
#
# Compressibility (1/GPa) = 0.02633126
#
# Stress axis : x y z
#
# Youngs Moduli (GPa) = 83.75475 96.19183 70.01466
#
# Poissons Ratio (x) = -0.17435 0.21919
# Poissons Ratio (y) = -0.15181 0.26784
# Poissons Ratio (z) = 0.26220 0.36797
#
# Static dielectric constant tensor:
#      x y z
#    x 2.563010 0.000000 0.000000 
#    y 0.000000 1.768520 0.000000 
#    z 0.000000 0.000000 0.695730 
# 
# From -- ./inp_files/4643.got.cif
#   From: 2010.05.17/outbox.cif.g08.bks.cpg/sg59_3_cif.got.tgz:4643.got - 2010.06.03 14:40:33.
