data_PCOD9451387
_publ_section_title
;
Structure prediction by ZEFSAII (Michael W. Deem and Ramdas Pophale) SiO2 
 PCOD9451387
Probable space group: P M M N
;
_chemical_formula_sum "Si O2"
_cell_formula_units_Z 64
_cell_length_a 8.706337
_cell_length_b 23.681457
_cell_length_c 15.648236
_cell_angle_alpha 90.000000
_cell_angle_beta 90.000000
_cell_angle_gamma 90.000000
_cell_volume 3226.333665
_symmetry_space_group_name_H-M "P M M N"
_symmetry_group_IT_number 59
_space_group.IT_coordinate_system_code '2'
_symmetry_cell_setting 'orthorhombic'
loop_
_space_group_symop_operation_xyz
x,y,z
1/2-x,1/2-y,z
1/2+x,-y,-z
-x,1/2+y,-z
-x,-y,-z
1/2+x,1/2+y,-z
1/2-x,y,z
x,1/2-y,z
loop_
_atom_site_type_symbol
_atom_site_label
_atom_site_fract_x
_atom_site_fract_y
_atom_site_fract_z
Si Si1 0.574958 0.529316 0.876104
Si Si2 0.066428 0.185550 0.310332
Si Si3 0.063757 0.187065 0.507666
Si Si4 0.424656 0.923564 0.717954
Si Si5 0.929507 0.091284 0.968003
Si Si6 0.435727 0.816575 0.171396
Si Si7 0.065106 0.113637 0.667277
Si Si8 0.429600 0.997462 0.405580
O O1 0.750000 0.539084 0.846628
O O2 0.457437 0.538800 0.800102
O O3 0.564766 0.465122 0.909279
O O4 0.532095 0.572940 0.951608
O O5 0.250000 0.176173 0.305009
O O6 0.037265 0.250000 0.285313
O O7 0.016639 0.179110 0.409798
O O8 0.973172 0.139684 0.258465
O O9 0.250000 0.185688 0.506410
O O10 0.016764 0.250000 0.534656
O O11 0.013157 0.143427 0.578787
O O12 0.250000 0.927525 0.689712
O O13 0.534992 0.944297 0.642385
O O14 0.750000 0.098146 0.993822
O O15 0.976689 0.145945 0.912540
O O16 0.250000 0.817966 0.177288
O O17 0.482171 0.750000 0.168956
O O18 0.502462 0.850388 0.253008
O O19 0.250000 0.113234 0.671408
O O20 0.004532 0.050401 0.654578
O O21 0.250000 0.987308 0.412199
O O22 0.500000 0.000000 0.500000
#
# Coordination Sequence:
#
# PCOD9451387 Si02
#       8
#     8   8   8   8   8   8   8   8
#     4  10  20  36  61  88 113 145 186 236 292 347
#     4   9  18  35  58  80 106 144 187 231 280 330
#     4   8  15  29  50  75 103 139 183 229 274 321
#     4  12  24  38  58  85 116 150 190 232 278 336
#     4   9  19  37  59  83 111 144 186 238 292 348
#     4  10  21  37  57  83 119 162 202 243 298 362
#     4  11  21  34  55  83 115 153 197 242 291 347
#     4  12  25  41  59  83 118 157 199 246 298 351
#
# _framework density 19.836756000000001
#
# number of rings (size 3 to 8) (size 9 to 14) (size 15 to 20)
#    0.000    1.875    0.000    5.625    0.000    4.000 
#    0.000    1.250    0.000    3.750    0.000    0.000 
#    0.000    0.000    0.000    0.000    0.000    0.000 
#
# Total GULP energy -357279.504126 kJ/mol
# GULP energy per Si atom -5582.492252 kJ/mol
# Density = 1.979161 g / cm^3
# Si number density = 19.836756 Si / 1000 Ang^3
#
#
#
# Elastic Constant Matrix: (Units=GPa)
#
#
# Indices 1 2 3 4 5 6 
#
# 1 43.4040 23.9018 15.0486 0.0000 0.0000 0.0000
# 2 23.9018 105.4109 22.0591 0.0000 0.0000 0.0000
# 3 15.0486 22.0591 39.5597 0.0000 0.0000 0.0000
# 4 0.0000 0.0000 0.0000 31.1373 0.0000 0.0000
# 5 0.0000 0.0000 0.0000 0.0000 29.0559 0.0000
# 6 0.0000 0.0000 0.0000 0.0000 0.0000 24.6746
#
#
#
# Elastic Compliance Matrix: (Units=1/GPa)
#
#
# Indices 1 2 3 4 5 6 
#
# 1 0.028494 -0.004746 -0.008192 0.000000 0.000000 0.000000
# 2 -0.004746 0.011531 -0.004624 0.000000 0.000000 0.000000
# 3 -0.008192 -0.004624 0.030973 0.000000 0.000000 0.000000
# 4 0.000000 0.000000 0.000000 0.032116 0.000000 0.000000
# 5 0.000000 0.000000 0.000000 0.000000 0.034416 0.000000
# 6 0.000000 0.000000 0.000000 0.000000 0.000000 0.040527
#
#
# Mechanical properties :
#
#
# Convention : Reuss Voigt Hill
#
# Bulk Modulus (GPa) = 27.87731 34.48820 31.18275
# Shear Modulus (GPa) = 22.20844 25.46458 23.83651
#
# Velocity S-wave (km/s) = 3.34961 3.58677 3.47022
# Velocity P-wave (km/s) = 5.38922 5.88022 5.64007
#
# Compressibility (1/GPa) = 0.03587147
#
# Stress axis : x y z
#
# Youngs Moduli (GPa) = 35.09572 86.72562 32.28615
#
# Poissons Ratio (x) = 0.41164 0.26450
# Poissons Ratio (y) = 0.16658 0.14929
# Poissons Ratio (z) = 0.28751 0.40102
#
# Static dielectric constant tensor:
#      x y z
#    x 1.677920 0.000000 0.000000 
#    y 0.000000 1.740150 0.000000 
#    z 0.000000 0.000000 1.692820 
# 
# From -- ./inp_files/21631.got.cif
#   From: 2010.05.17/outbox.cif.g08.bks.cpg/sg59_11_cif.got.tgz:21631.got - 2010.06.03 14:40:33.
