data_PCOD9451773
_publ_section_title
;
Structure prediction by ZEFSAII (Michael W. Deem and Ramdas Pophale) SiO2 
 PCOD9451773
Probable space group: P M M N
;
_chemical_formula_sum "Si O2"
_cell_formula_units_Z 64
_cell_length_a 11.686525
_cell_length_b 26.510094
_cell_length_c 11.624857
_cell_angle_alpha 90.000000
_cell_angle_beta 90.000000
_cell_angle_gamma 90.000000
_cell_volume 3601.507134
_symmetry_space_group_name_H-M "P M M N"
_symmetry_group_IT_number 59
_space_group.IT_coordinate_system_code '2'
_symmetry_cell_setting 'orthorhombic'
loop_
_space_group_symop_operation_xyz
x,y,z
1/2-x,1/2-y,z
1/2+x,-y,-z
-x,1/2+y,-z
-x,-y,-z
1/2+x,1/2+y,-z
1/2-x,y,z
x,1/2-y,z
loop_
_atom_site_type_symbol
_atom_site_label
_atom_site_fract_x
_atom_site_fract_y
_atom_site_fract_z
Si Si1 0.615046 0.194218 0.718066
Si Si2 0.615975 0.691966 0.651844
Si Si3 0.015042 0.624344 0.465758
Si Si4 0.113860 0.559906 0.668618
Si Si5 0.114200 0.689429 0.027907
Si Si6 0.113212 0.463036 0.979240
Si Si7 0.114785 0.053840 0.711539
Si Si8 0.970116 0.877553 0.853363
O O1 0.750000 0.199217 0.735563
O O2 0.566313 0.250000 0.695448
O O3 0.595957 0.158613 0.611495
O O4 0.572941 0.176083 0.842749
O O5 0.750000 0.693814 0.627000
O O6 0.573642 0.750000 0.662568
O O7 0.555086 0.661305 0.549809
O O8 0.597571 0.659956 0.768451
O O9 0.941728 0.594393 0.371460
O O10 0.079423 0.585530 0.548956
O O11 0.250000 0.561439 0.684284
O O12 0.074809 0.502058 0.674997
O O13 0.053223 0.590331 0.770628
O O14 0.250000 0.678995 0.015841
O O15 0.099518 0.750000 0.014388
O O16 0.044122 0.657236 0.937658
O O17 0.250000 0.482091 0.984628
O O18 0.096715 0.442805 0.848902
O O19 0.000000 0.500000 0.000000
O O20 0.100957 0.417817 0.071363
O O21 0.250000 0.056487 0.692409
#
# Coordination Sequence:
#
# PCOD9451773 Si02
#       8
#     8   8   8   8   8   8   8   8
#     4   9  18  33  52  77 110 140 172 225 282 331
#     4  10  22  38  55  79 110 144 185 234 281 330
#     4  11  20  34  57  79 105 143 194 226 278 342
#     4  10  21  35  53  78 112 149 186 237 289 333
#     4   9  18  32  53  83 116 151 192 238 289 346
#     4  11  23  40  62  87 118 154 195 243 299 358
#     4  10  21  38  56  78 111 147 185 237 291 335
#     4  11  20  35  59  82 111 150 193 232 288 349
#
# _framework density 17.770337999999999
#
# number of rings (size 3 to 8) (size 9 to 14) (size 15 to 20)
#    0.000    1.875    1.250    4.125    0.000    0.500 
#    0.000    1.250    0.000    6.000    0.000   10.500 
#    0.000    0.000    0.000    0.000    0.000    0.000 
#
# Total GULP energy -356603.431678 kJ/mol
# GULP energy per Si atom -5571.928620 kJ/mol
# Density = 1.772989 g / cm^3
# Si number density = 17.770338 Si / 1000 Ang^3
#
#
#
# Elastic Constant Matrix: (Units=GPa)
#
#
# Indices 1 2 3 4 5 6 
#
# 1 53.4994 23.0265 18.4785 0.0000 0.0000 0.0000
# 2 23.0265 71.4719 35.8661 0.0000 0.0000 0.0000
# 3 18.4785 35.8661 94.8609 0.0000 0.0000 0.0000
# 4 0.0000 0.0000 0.0000 29.6281 0.0000 0.0000
# 5 0.0000 0.0000 0.0000 0.0000 19.5031 0.0000
# 6 0.0000 0.0000 0.0000 0.0000 0.0000 28.8877
#
#
#
# Elastic Compliance Matrix: (Units=1/GPa)
#
#
# Indices 1 2 3 4 5 6 
#
# 1 0.021999 -0.006093 -0.001982 0.000000 0.000000 0.000000
# 2 -0.006093 0.018955 -0.005980 0.000000 0.000000 0.000000
# 3 -0.001982 -0.005980 0.013189 0.000000 0.000000 0.000000
# 4 0.000000 0.000000 0.000000 0.033752 0.000000 0.000000
# 5 0.000000 0.000000 0.000000 0.000000 0.051274 0.000000
# 6 0.000000 0.000000 0.000000 0.000000 0.000000 0.034617
#
#
# Mechanical properties :
#
#
# Convention : Reuss Voigt Hill
#
# Bulk Modulus (GPa) = 38.41174 41.61938 40.01556
# Shear Modulus (GPa) = 23.74480 25.10118 24.42299
#
# Velocity S-wave (km/s) = 3.65938 3.76245 3.71127
# Velocity P-wave (km/s) = 6.28628 6.50740 6.39779
#
# Compressibility (1/GPa) = 0.02603371
#
# Stress axis : x y z
#
# Youngs Moduli (GPa) = 45.45726 52.75536 75.82240
#
# Poissons Ratio (x) = 0.32144 0.15024
# Poissons Ratio (y) = 0.27697 0.45342
# Poissons Ratio (z) = 0.09007 0.31548
#
# Static dielectric constant tensor:
#      x y z
#    x 1.599830 0.000000 0.000000 
#    y 0.000000 1.628120 0.000000 
#    z 0.000000 0.000000 1.596380 
# 
# From -- ./inp_files/8020.got.cif
#   From: 2010.05.17/outbox.cif.g08.bks.cpg/sg59_5_cif.got.tgz:8020.got - 2010.06.03 14:40:33.
