data_PCOD9451805
_publ_section_title
;
Structure prediction by ZEFSAII (Michael W. Deem and Ramdas Pophale) SiO2 
 PCOD9451805
Probable space group: P M M N
;
_chemical_formula_sum "Si O2"
_cell_formula_units_Z 64
_cell_length_a 14.670555
_cell_length_b 15.493571
_cell_length_c 11.999250
_cell_angle_alpha 90.000000
_cell_angle_beta 90.000000
_cell_angle_gamma 90.000000
_cell_volume 2727.420952
_symmetry_space_group_name_H-M "P M M N"
_symmetry_group_IT_number 59
_space_group.IT_coordinate_system_code '2'
_symmetry_cell_setting 'orthorhombic'
loop_
_space_group_symop_operation_xyz
x,y,z
1/2-x,1/2-y,z
1/2+x,-y,-z
-x,1/2+y,-z
-x,-y,-z
1/2+x,1/2+y,-z
1/2-x,y,z
x,1/2-y,z
loop_
_atom_site_type_symbol
_atom_site_label
_atom_site_fract_x
_atom_site_fract_y
_atom_site_fract_z
Si Si1 0.644036 0.618868 0.703289
Si Si2 0.852826 0.018088 0.538012
Si Si3 0.354967 0.148530 0.623761
Si Si4 0.352681 0.853483 0.817015
Si Si5 0.463645 0.151128 0.840000
Si Si6 0.543005 0.347277 0.401341
Si Si7 0.147696 0.093134 0.047717
Si Si8 0.147020 0.890238 0.068198
O O1 0.750000 0.644655 0.680348
O O2 0.638782 0.518527 0.663464
O O3 0.562355 0.658710 0.632834
O O4 0.625135 0.635937 0.833351
O O5 0.750000 0.053649 0.522418
O O6 0.858034 0.929846 0.464595
O O7 0.926816 0.086992 0.497613
O O8 0.250000 0.150362 0.663518
O O9 0.375290 0.250000 0.590431
O O10 0.421932 0.122833 0.723450
O O11 0.250000 0.889106 0.809320
O O12 0.349447 0.750000 0.807669
O O13 0.410019 0.883309 0.711679
O O14 0.385715 0.872058 0.941307
O O15 0.435123 0.250000 0.853437
O O16 0.420037 0.103818 0.945664
O O17 0.572071 0.145080 0.848509
O O18 0.575559 0.250000 0.426524
O O19 0.250000 0.121332 0.014636
O O20 0.151221 0.992588 0.076970
O O21 0.250000 0.855493 0.079507
#
# Coordination Sequence:
#
# PCOD9451805 Si02
#       8
#     8   8   8   8   8   8   8   8
#     4  10  23  42  61  86 120 164 212 253 300 366
#     4  10  22  41  67  92 122 163 205 258 316 366
#     4   9  20  38  61  92 125 158 203 255 309 370
#     4   9  18  33  54  84 122 157 195 247 303 362
#     4  11  22  36  58  89 123 159 198 249 310 368
#     4  11  23  38  61  95 126 158 203 259 318 372
#     4  10  22  38  59  86 118 159 204 249 300 365
#     4  10  21  35  55  84 117 158 201 243 295 362
#
# _framework density 23.465389999999999
#
# number of rings (size 3 to 8) (size 9 to 14) (size 15 to 20)
#    0.000    2.000    0.000    2.625    3.500    4.500 
#    0.000    2.500    0.000    0.750    0.000    7.000 
#    0.000    0.000    0.000    0.000    0.000    0.000 
#
# Total GULP energy -357549.767304 kJ/mol
# GULP energy per Si atom -5586.715114 kJ/mol
# Density = 2.341198 g / cm^3
# Si number density = 23.465390 Si / 1000 Ang^3
#
#
#
# Elastic Constant Matrix: (Units=GPa)
#
#
# Indices 1 2 3 4 5 6 
#
# 1 72.3176 4.1300 33.9485 0.0000 0.0000 0.0000
# 2 4.1300 58.8986 4.4892 0.0000 0.0000 0.0000
# 3 33.9485 4.4892 70.9589 0.0000 0.0000 0.0000
# 4 0.0000 0.0000 0.0000 57.7079 0.0000 0.0000
# 5 0.0000 0.0000 0.0000 0.0000 26.4461 0.0000
# 6 0.0000 0.0000 0.0000 0.0000 0.0000 18.2183
#
#
#
# Elastic Compliance Matrix: (Units=1/GPa)
#
#
# Indices 1 2 3 4 5 6 
#
# 1 0.017854 -0.000604 -0.008504 0.000000 0.000000 0.000000
# 2 -0.000604 0.017081 -0.000792 0.000000 0.000000 0.000000
# 3 -0.008504 -0.000792 0.018211 0.000000 0.000000 0.000000
# 4 0.000000 0.000000 0.000000 0.017329 0.000000 0.000000
# 5 0.000000 0.000000 0.000000 0.000000 0.037813 0.000000
# 6 0.000000 0.000000 0.000000 0.000000 0.000000 0.054890
#
#
# Mechanical properties :
#
#
# Convention : Reuss Voigt Hill
#
# Bulk Modulus (GPa) = 29.98693 31.92341 30.95517
# Shear Modulus (GPa) = 25.76091 31.11495 28.43793
#
# Velocity S-wave (km/s) = 3.31694 3.64537 3.48503
# Velocity P-wave (km/s) = 5.24179 5.59931 5.42350
#
# Compressibility (1/GPa) = 0.03334787
#
# Stress axis : x y z
#
# Youngs Moduli (GPa) = 56.00872 58.54454 54.91138
#
# Poissons Ratio (x) = 0.03535 0.46695
# Poissons Ratio (y) = 0.03382 0.04348
# Poissons Ratio (z) = 0.47629 0.04635
#
# Static dielectric constant tensor:
#      x y z
#    x 1.918040 0.000000 0.000000 
#    y 0.000000 1.880540 0.000000 
#    z 0.000000 0.000000 1.923650 
# 
# From -- ./inp_files/17206.got.cif
#   From: 2010.05.17/outbox.cif.g08.bks.cpg/sg59_9_cif.got.tgz:17206.got - 2010.06.03 14:40:33.
