data_PCOD9451768
_publ_section_title
;
Structure prediction by ZEFSAII (Michael W. Deem and Ramdas Pophale) SiO2 
 PCOD9451768
Probable space group: P M M N
;
_chemical_formula_sum "Si O2"
_cell_formula_units_Z 56
_cell_length_a 13.718842
_cell_length_b 9.514816
_cell_length_c 21.608367
_cell_angle_alpha 90.000000
_cell_angle_beta 90.000000
_cell_angle_gamma 90.000000
_cell_volume 2820.588922
_symmetry_space_group_name_H-M "P M M N"
_symmetry_group_IT_number 59
_space_group.IT_coordinate_system_code '2'
_symmetry_cell_setting 'orthorhombic'
loop_
_space_group_symop_operation_xyz
x,y,z
1/2-x,1/2-y,z
1/2+x,-y,-z
-x,1/2+y,-z
-x,-y,-z
1/2+x,1/2+y,-z
1/2-x,y,z
x,1/2-y,z
loop_
_atom_site_type_symbol
_atom_site_label
_atom_site_fract_x
_atom_site_fract_y
_atom_site_fract_z
Si Si1 0.367511 0.911221 0.851280
Si Si2 0.131624 0.911617 0.088794
Si Si3 0.863748 0.081031 0.771520
Si Si4 0.357380 0.082510 0.469302
Si Si5 0.433338 0.582655 0.585138
Si Si6 0.463614 0.917950 0.720639
Si Si7 0.368898 0.411751 0.969927
O O1 0.250000 0.912595 0.850703
O O2 0.398433 0.750000 0.864502
O O3 0.403933 0.950127 0.782928
O O4 0.400037 0.013659 0.906283
O O5 0.250000 0.909554 0.087456
O O6 0.100424 0.750000 0.082070
O O7 0.108337 0.962352 0.158019
O O8 0.099961 0.004452 0.031081
O O9 0.750000 0.048422 0.761551
O O10 0.874596 0.250000 0.767972
O O11 0.935475 0.000915 0.726244
O O12 0.250000 0.046190 0.443876
O O13 0.359381 0.250000 0.480108
O O14 0.451645 0.051476 0.427221
O O15 0.374562 0.002134 0.533746
O O16 0.418520 0.750000 0.576269
O O17 0.411144 0.546639 0.656197
O O18 0.481415 0.750000 0.719317
O O19 0.250000 0.415298 0.969662
O O20 0.397930 0.250000 0.972888
#
# Coordination Sequence:
#
# PCOD9451768 Si02
#       7
#     8   8   8   8   8   8   8
#     4   9  18  33  50  68  96 134 172 210 256 311
#     4   8  14  27  47  68  92 126 166 207 256 311
#     4   9  19  35  53  74 102 137 174 211 256 311
#     4   9  18  34  56  81 109 140 173 209 251 300
#     4   9  19  35  54  79 110 140 172 212 255 299
#     4  10  21  35  53  78 105 136 174 213 253 298
#     4   9  16  26  44  71  97 122 161 214 266 311
#
# _framework density 19.854009999999999
#
# number of rings (size 3 to 8) (size 9 to 14) (size 15 to 20)
#    0.000    3.000    0.000    1.286    0.000    5.143 
#    0.000    5.000    0.000    1.714    0.000    0.000 
#    0.000    0.000    0.000    0.000    0.000    0.000 
#
# Total GULP energy -312514.885967 kJ/mol
# GULP energy per Si atom -5580.622964 kJ/mol
# Density = 1.980882 g / cm^3
# Si number density = 19.854010 Si / 1000 Ang^3
#
#
#
# Elastic Constant Matrix: (Units=GPa)
#
#
# Indices 1 2 3 4 5 6 
#
# 1 37.6860 -6.6264 -14.6008 0.0000 0.0000 0.0000
# 2 -6.6264 30.2780 28.8214 0.0000 0.0000 0.0000
# 3 -14.6008 28.8214 75.8511 0.0000 0.0000 0.0000
# 4 0.0000 0.0000 0.0000 28.5386 0.0000 0.0000
# 5 0.0000 0.0000 0.0000 0.0000 16.4029 0.0000
# 6 0.0000 0.0000 0.0000 0.0000 0.0000 15.8876
#
#
#
# Elastic Compliance Matrix: (Units=1/GPa)
#
#
# Indices 1 2 3 4 5 6 
#
# 1 0.028723 0.001603 0.004920 0.000000 0.000000 0.000000
# 2 0.001603 0.051831 -0.019386 0.000000 0.000000 0.000000
# 3 0.004920 -0.019386 0.021497 0.000000 0.000000 0.000000
# 4 0.000000 0.000000 0.000000 0.035040 0.000000 0.000000
# 5 0.000000 0.000000 0.000000 0.000000 0.060965 0.000000
# 6 0.000000 0.000000 0.000000 0.000000 0.000000 0.062942
#
#
# Mechanical properties :
#
#
# Convention : Reuss Voigt Hill
#
# Bulk Modulus (GPa) = 13.10189 17.66705 15.38447
# Shear Modulus (GPa) = 16.01708 21.24722 18.63215
#
# Velocity S-wave (km/s) = 2.84340 3.27490 3.06675
# Velocity P-wave (km/s) = 4.17054 4.81848 4.50617
#
# Compressibility (1/GPa) = 0.07632489
#
# Stress axis : x y z
#
# Youngs Moduli (GPa) = 34.81523 19.29334 46.51826
#
# Poissons Ratio (x) = -0.03092 -0.22887
# Poissons Ratio (y) = -0.05580 0.90180
# Poissons Ratio (z) = -0.17129 0.37402
#
# Static dielectric constant tensor:
#      x y z
#    x 1.742480 0.000000 0.000000 
#    y 0.000000 1.660800 0.000000 
#    z 0.000000 0.000000 1.673890 
# 
# From -- ./inp_files/29135.got.cif
#   From: 2010.05.17/outbox.cif.g08.bks.cpg/sg59_15_cif.got.tgz:29135.got - 2010.06.03 14:40:33.
