data_PCOD9451055
_publ_section_title
;
Structure prediction by ZEFSAII (Michael W. Deem and Ramdas Pophale) SiO2 
 PCOD9451055
Probable space group: P M M N
;
_chemical_formula_sum "Si O2"
_cell_formula_units_Z 64
_cell_length_a 7.889149
_cell_length_b 31.872367
_cell_length_c 12.169870
_cell_angle_alpha 90.000000
_cell_angle_beta 90.000000
_cell_angle_gamma 90.000000
_cell_volume 3060.063334
_symmetry_space_group_name_H-M "P M M N"
_symmetry_group_IT_number 59
_space_group.IT_coordinate_system_code '2'
_symmetry_cell_setting 'orthorhombic'
loop_
_space_group_symop_operation_xyz
x,y,z
1/2-x,1/2-y,z
1/2+x,-y,-z
-x,1/2+y,-z
-x,-y,-z
1/2+x,1/2+y,-z
1/2-x,y,z
x,1/2-y,z
loop_
_atom_site_type_symbol
_atom_site_label
_atom_site_fract_x
_atom_site_fract_y
_atom_site_fract_z
Si Si1 0.952704 0.795962 0.265758
Si Si2 0.952562 0.875756 0.883489
Si Si3 0.052732 0.447649 0.278923
Si Si4 0.454971 0.829797 0.499497
Si Si5 0.447681 0.926105 0.481191
Si Si6 0.455154 0.797330 0.737785
Si Si7 0.541685 0.877736 0.134286
Si Si8 0.945843 0.538411 0.257180
O O1 0.750000 0.795231 0.249973
O O2 0.019958 0.750000 0.233485
O O3 0.017747 0.836068 0.198131
O O4 0.987153 0.803945 0.394133
O O5 0.750000 0.881470 0.890031
O O6 0.018432 0.912922 0.804775
O O7 0.988081 0.831583 0.825595
O O8 0.015375 0.877353 0.008170
O O9 0.250000 0.438084 0.298398
O O10 0.965397 0.444526 0.397254
O O11 0.036186 0.494620 0.233943
O O12 0.250000 0.829759 0.501225
O O13 0.510952 0.878049 0.485746
O O14 0.513081 0.811474 0.616085
O O15 0.250000 0.925806 0.450389
O O16 0.541283 0.951602 0.386809
O O17 0.250000 0.797412 0.736265
O O18 0.512503 0.750000 0.761376
O O19 0.750000 0.877401 0.137573
O O20 0.487259 0.920291 0.195304
O O21 0.750000 0.533024 0.226423
#
# Coordination Sequence:
#
# PCOD9451055 Si02
#       8
#     8   8   8   8   8   8   8   8
#     4  10  20  35  58  86 115 148 187 231 278 333
#     4  10  22  40  61  83 111 150 195 240 280 328
#     4  11  23  38  58  86 118 148 187 236 285 336
#     4  10  20  35  58  84 116 151 183 226 283 341
#     4  11  21  36  60  87 115 149 189 229 282 341
#     4  10  21  38  59  85 118 152 186 230 285 340
#     4   9  20  39  59  82 112 149 192 236 283 330
#     4  11  22  38  61  85 115 151 187 231 285 341
#
# _framework density 20.914601000000001
#
# number of rings (size 3 to 8) (size 9 to 14) (size 15 to 20)
#    0.000    1.750    2.500    1.875    0.000    3.500 
#    0.000    3.125    0.000    0.000    0.000    0.000 
#    0.000    0.000    0.000    0.000    0.000    0.000 
#
# Total GULP energy -357671.017033 kJ/mol
# GULP energy per Si atom -5588.609641 kJ/mol
# Density = 2.086700 g / cm^3
# Si number density = 20.914601 Si / 1000 Ang^3
#
#
#
# Elastic Constant Matrix: (Units=GPa)
#
#
# Indices 1 2 3 4 5 6 
#
# 1 19.0937 -6.4159 -7.8554 0.0000 0.0000 0.0000
# 2 -6.4159 155.6766 52.5220 0.0000 0.0000 0.0000
# 3 -7.8554 52.5220 122.8188 0.0000 0.0000 0.0000
# 4 0.0000 0.0000 0.0000 0.3313 0.0000 0.0000
# 5 0.0000 0.0000 0.0000 0.0000 -13.4362 0.0000
# 6 0.0000 0.0000 0.0000 0.0000 0.0000 17.1382
#
#
#
# Elastic Compliance Matrix: (Units=1/GPa)
#
#
# Indices 1 2 3 4 5 6 
#
# 1 0.053992 0.001239 0.002924 0.000000 0.000000 0.000000
# 2 0.001239 0.007535 -0.003143 0.000000 0.000000 0.000000
# 3 0.002924 -0.003143 0.009673 0.000000 0.000000 0.000000
# 4 0.000000 0.000000 0.000000 3.018440 0.000000 0.000000
# 5 0.000000 0.000000 0.000000 0.000000 -0.074426 0.000000
# 6 0.000000 0.000000 0.000000 0.000000 0.000000 0.058349
#
#
# Mechanical properties :
#
#
# Convention : Reuss Voigt Hill
#
# Bulk Modulus (GPa) = 13.65387 41.56561 27.60974
# Shear Modulus (GPa) = 1.61502 18.09589 9.85546
#
# Velocity S-wave (km/s) = 0.87970 2.94467 2.17312
# Velocity P-wave (km/s) = 2.75216 5.61057 4.41888
#
# Compressibility (1/GPa) = 0.07323929
#
# Stress axis : x y z
#
# Youngs Moduli (GPa) = 18.52112 132.71370 103.37906
#
# Poissons Ratio (x) = -0.16441 -0.30223
# Poissons Ratio (y) = -0.02294 0.32492
# Poissons Ratio (z) = -0.05415 0.41712
#
# Static dielectric constant tensor:
#      x y z
#    x 1.749680 0.000000 0.000000 
#    y 0.000000 1.751120 0.000000 
#    z 0.000000 0.000000 1.711010 
# 
# From -- ./inp_files/14907.got.cif
#   From: 2010.05.17/outbox.cif.g08.bks.cpg/sg59_8_cif.got.tgz:14907.got - 2010.06.03 14:40:33.
