data_PCOD9451774
_publ_section_title
;
Structure prediction by ZEFSAII (Michael W. Deem and Ramdas Pophale) SiO2 
 PCOD9451774
Probable space group: P M M N
;
_chemical_formula_sum "Si O2"
_cell_formula_units_Z 64
_cell_length_a 19.113027
_cell_length_b 8.188008
_cell_length_c 22.031274
_cell_angle_alpha 90.000000
_cell_angle_beta 90.000000
_cell_angle_gamma 90.000000
_cell_volume 3447.841902
_symmetry_space_group_name_H-M "P M M N"
_symmetry_group_IT_number 59
_space_group.IT_coordinate_system_code '2'
_symmetry_cell_setting 'orthorhombic'
loop_
_space_group_symop_operation_xyz
x,y,z
1/2-x,1/2-y,z
1/2+x,-y,-z
-x,1/2+y,-z
-x,-y,-z
1/2+x,1/2+y,-z
1/2-x,y,z
x,1/2-y,z
loop_
_atom_site_type_symbol
_atom_site_label
_atom_site_fract_x
_atom_site_fract_y
_atom_site_fract_z
Si Si1 0.530802 0.946955 0.436124
Si Si2 0.829262 0.944499 0.757411
Si Si3 0.827969 0.949193 0.376277
Si Si4 0.963194 0.053474 0.688943
Si Si5 0.169540 0.946507 0.878442
Si Si6 0.604120 0.947280 0.248675
Si Si7 0.920029 0.447641 0.005715
Si Si8 0.329992 0.552935 0.108322
O O1 0.531432 0.750000 0.434995
O O2 0.610093 0.002470 0.421261
O O3 0.484664 0.002877 0.378426
O O4 0.500000 0.000000 0.500000
O O5 0.750000 0.008607 0.747241
O O6 0.826223 0.750000 0.755993
O O7 0.887137 0.001453 0.710216
O O8 0.851948 0.998325 0.824812
O O9 0.750000 0.006590 0.390811
O O10 0.827450 0.750000 0.377319
O O11 0.850034 0.995115 0.307640
O O12 0.965824 0.250000 0.688643
O O13 0.024841 0.999082 0.735187
O O14 0.250000 0.006901 0.882467
O O15 0.172503 0.750000 0.883147
O O16 0.135473 0.989230 0.813853
O O17 0.120580 0.005494 0.933833
O O18 0.604558 0.750000 0.245858
O O19 0.918014 0.250000 0.006434
O O20 0.878531 0.505220 0.946054
O O21 0.000000 0.500000 0.000000
O O22 0.250000 0.497483 0.098991
O O23 0.330119 0.750000 0.107454
#
# Coordination Sequence:
#
# PCOD9451774 Si02
#       8
#     8   8   8   8   8   8   8   8
#     4   9  18  33  53  77 105 138 174 209 248 296
#     4  10  21  35  53  79 106 131 168 221 271 309
#     4   8  14  28  51  76 101 131 168 207 246 291
#     4   9  19  35  54  77 106 140 174 208 250 309
#     4  10  21  36  52  73 104 137 166 203 257 313
#     4   9  18  32  53  79 103 130 169 211 249 298
#     4  10  22  37  52  72  99 133 172 213 255 306
#     4   9  18  35  57  74  93 131 176 213 256 313
#
# _framework density 18.562335999999998
#
# number of rings (size 3 to 8) (size 9 to 14) (size 15 to 20)
#    0.000    2.750    0.000    2.625    1.750    5.000 
#    0.000    2.500    0.000    5.625    0.000    0.000 
#    0.000    0.000    0.000    0.000    0.000    0.000 
#
# Total GULP energy -356916.446874 kJ/mol
# GULP energy per Si atom -5576.819482 kJ/mol
# Density = 1.852009 g / cm^3
# Si number density = 18.562336 Si / 1000 Ang^3
#
#
#
# Elastic Constant Matrix: (Units=GPa)
#
#
# Indices 1 2 3 4 5 6 
#
# 1 148.3393 12.3573 119.0911 0.0000 0.0000 0.0000
# 2 12.3573 6.3592 13.4890 0.0000 0.0000 0.0000
# 3 119.0911 13.4890 146.4464 0.0000 0.0000 0.0000
# 4 0.0000 0.0000 0.0000 27.2450 0.0000 0.0000
# 5 0.0000 0.0000 0.0000 0.0000 26.0666 0.0000
# 6 0.0000 0.0000 0.0000 0.0000 0.0000 23.2160
#
#
#
# Elastic Compliance Matrix: (Units=1/GPa)
#
#
# Indices 1 2 3 4 5 6 
#
# 1 0.019563 -0.005307 -0.015420 0.000000 0.000000 0.000000
# 2 -0.005307 0.196877 -0.013818 0.000000 0.000000 0.000000
# 3 -0.015420 -0.013818 0.020641 0.000000 0.000000 0.000000
# 4 0.000000 0.000000 0.000000 0.036704 0.000000 0.000000
# 5 0.000000 0.000000 0.000000 0.000000 0.038363 0.000000
# 6 0.000000 0.000000 0.000000 0.000000 0.000000 0.043074
#
#
# Mechanical properties :
#
#
# Convention : Reuss Voigt Hill
#
# Bulk Modulus (GPa) = 5.95273 65.66884 35.81079
# Shear Modulus (GPa) = 10.40998 25.71935 18.06466
#
# Velocity S-wave (km/s) = 2.37072 3.72636 3.12298
# Velocity P-wave (km/s) = 3.27224 7.34633 5.68666
#
# Compressibility (1/GPa) = 0.16799013
#
# Stress axis : x y z
#
# Youngs Moduli (GPa) = 51.11724 5.07932 48.44790
#
# Poissons Ratio (x) = 0.02696 0.74706
# Poissons Ratio (y) = 0.27128 0.66947
# Poissons Ratio (z) = 0.78822 0.07019
#
# Static dielectric constant tensor:
#      x y z
#    x 1.659070 0.000000 0.000000 
#    y 0.000000 1.660170 0.000000 
#    z 0.000000 0.000000 1.614410 
# 
# From -- ./inp_files/30822.got.cif
#   From: 2010.05.17/outbox.cif.g08.bks.cpg/sg59_16_cif.got.tgz:30822.got - 2010.06.03 14:40:33.
