data_PCOD9451065
_publ_section_title
;
Structure prediction by ZEFSAII (Michael W. Deem and Ramdas Pophale) SiO2 
 PCOD9451065
Probable space group: P M M N
;
_chemical_formula_sum "Si O2"
_cell_formula_units_Z 56
_cell_length_a 15.219369
_cell_length_b 9.119627
_cell_length_c 22.404375
_cell_angle_alpha 90.000000
_cell_angle_beta 90.000000
_cell_angle_gamma 90.000000
_cell_volume 3109.614521
_symmetry_space_group_name_H-M "P M M N"
_symmetry_group_IT_number 59
_space_group.IT_coordinate_system_code '2'
_symmetry_cell_setting 'orthorhombic'
loop_
_space_group_symop_operation_xyz
x,y,z
1/2-x,1/2-y,z
1/2+x,-y,-z
-x,1/2+y,-z
-x,-y,-z
1/2+x,1/2+y,-z
1/2-x,y,z
x,1/2-y,z
loop_
_atom_site_type_symbol
_atom_site_label
_atom_site_fract_x
_atom_site_fract_y
_atom_site_fract_z
Si Si1 0.750000 0.583644 0.813759
Si Si2 0.648382 0.574987 0.624249
Si Si3 0.068209 0.575310 0.183117
Si Si4 0.355603 0.076876 0.620590
Si Si5 0.643243 0.417075 0.500961
Si Si6 0.929586 0.424509 0.957949
Si Si7 0.250000 0.416055 0.042035
Si Si8 0.986065 0.074837 0.289345
O O1 0.750000 0.750000 0.788868
O O2 0.661695 0.496632 0.799123
O O3 0.750000 0.593735 0.885797
O O4 0.750000 0.534940 0.639580
O O5 0.647446 0.750000 0.613678
O O6 0.621617 0.493418 0.563412
O O7 0.576424 0.542764 0.674399
O O8 0.071044 0.750000 0.191781
O O9 0.054184 0.546471 0.112623
O O10 0.996437 0.500487 0.225170
O O11 0.250000 0.057912 0.626143
O O12 0.374458 0.250000 0.622274
O O13 0.383975 0.009003 0.556913
O O14 0.407261 0.992949 0.672336
O O15 0.750000 0.413139 0.499411
O O16 0.610791 0.250000 0.497818
O O17 0.928661 0.250000 0.965841
O O18 0.836237 0.494671 0.974246
O O19 0.000000 0.500000 0.000000
O O20 0.250000 0.250000 0.018574
O O21 0.977503 0.250000 0.284152
#
# Coordination Sequence:
#
# PCOD9451065 Si02
#       8
#     4   8   8   8   8   8   4   8
#     4   9  17  31  53  79 109 147 185 220 259 314
#     4   9  19  35  52  75 110 146 177 213 264 324
#     4  10  21  36  54  81 115 149 185 225 272 327
#     4  10  21  38  59  78 100 136 180 230 284 333
#     4   9  17  31  53  79 104 133 175 225 272 322
#     4  10  20  35  58  85 116 151 188 231 277 326
#     4   9  17  31  53  83 115 147 185 224 267 320
#     4  11  23  36  55  81 109 144 183 227 272 326
#
# _framework density 18.008664
#
# number of rings (size 3 to 8) (size 9 to 14) (size 15 to 20)
#    0.000    2.286    0.000    2.571    1.000    7.714 
#    0.000    0.000    1.571    0.000    0.000    0.000 
#    0.000    0.000    0.000    0.000    0.000    0.000 
#
# Total GULP energy -312654.804636 kJ/mol
# GULP energy per Si atom -5583.121511 kJ/mol
# Density = 1.796768 g / cm^3
# Si number density = 18.008664 Si / 1000 Ang^3
#
#
#
# Elastic Constant Matrix: (Units=GPa)
#
#
# Indices 1 2 3 4 5 6 
#
# 1 67.5586 55.4374 50.5604 0.0000 0.0000 0.0000
# 2 55.4374 112.2021 74.1972 0.0000 0.0000 0.0000
# 3 50.5604 74.1972 89.1374 0.0000 0.0000 0.0000
# 4 0.0000 0.0000 0.0000 29.4957 0.0000 0.0000
# 5 0.0000 0.0000 0.0000 0.0000 31.2111 0.0000
# 6 0.0000 0.0000 0.0000 0.0000 0.0000 29.4351
#
#
#
# Elastic Compliance Matrix: (Units=1/GPa)
#
#
# Indices 1 2 3 4 5 6 
#
# 1 0.028292 -0.007489 -0.009814 0.000000 0.000000 0.000000
# 2 -0.007489 0.021807 -0.013904 0.000000 0.000000 0.000000
# 3 -0.009814 -0.013904 0.028359 0.000000 0.000000 0.000000
# 4 0.000000 0.000000 0.000000 0.033903 0.000000 0.000000
# 5 0.000000 0.000000 0.000000 0.000000 0.032040 0.000000
# 6 0.000000 0.000000 0.000000 0.000000 0.000000 0.033973
#
#
# Mechanical properties :
#
#
# Convention : Reuss Voigt Hill
#
# Bulk Modulus (GPa) = 62.32894 69.92089 66.12492
# Shear Modulus (GPa) = 20.31385 23.94193 22.12789
#
# Velocity S-wave (km/s) = 3.36222 3.65014 3.50914
# Velocity P-wave (km/s) = 7.05396 7.52830 7.29499
#
# Compressibility (1/GPa) = 0.01604391
#
# Stress axis : x y z
#
# Youngs Moduli (GPa) = 35.34575 45.85619 35.26172
#
# Poissons Ratio (x) = 0.34340 0.34606
# Poissons Ratio (y) = 0.26469 0.49030
# Poissons Ratio (z) = 0.34689 0.63761
#
# Static dielectric constant tensor:
#      x y z
#    x 1.616940 0.000000 0.000000 
#    y 0.000000 1.600050 0.000000 
#    z 0.000000 0.000000 1.605300 
# 
# From -- ./inp_files/30486.got.cif
#   From: 2010.05.17/outbox.cif.g08.bks.cpg/sg59_16_cif.got.tgz:30486.got - 2010.06.03 14:40:33.
