data_PCOD9451493
_publ_section_title
;
Structure prediction by ZEFSAII (Michael W. Deem and Ramdas Pophale) SiO2 
 PCOD9451493
Probable space group: P M M N
;
_chemical_formula_sum "Si O2"
_cell_formula_units_Z 48
_cell_length_a 13.063471
_cell_length_b 20.013428
_cell_length_c 6.831479
_cell_angle_alpha 90.000000
_cell_angle_beta 90.000000
_cell_angle_gamma 90.000000
_cell_volume 1786.054909
_symmetry_space_group_name_H-M "P M M N"
_symmetry_group_IT_number 59
_space_group.IT_coordinate_system_code '2'
_symmetry_cell_setting 'orthorhombic'
loop_
_space_group_symop_operation_xyz
x,y,z
1/2-x,1/2-y,z
1/2+x,-y,-z
-x,1/2+y,-z
-x,-y,-z
1/2+x,1/2+y,-z
1/2-x,y,z
x,1/2-y,z
loop_
_atom_site_type_symbol
_atom_site_label
_atom_site_fract_x
_atom_site_fract_y
_atom_site_fract_z
Si Si1 0.633488 0.990778 0.490345
Si Si2 0.361034 0.852758 0.549966
Si Si3 0.587136 0.679181 0.702852
Si Si4 0.995148 0.561465 0.855842
Si Si5 0.578967 0.174164 0.887675
Si Si6 0.140088 0.356890 0.725914
O O1 0.750000 0.983485 0.570313
O O2 0.549513 0.974946 0.655265
O O3 0.626639 0.936667 0.314879
O O4 0.629933 0.067287 0.415684
O O5 0.250000 0.829585 0.623069
O O6 0.466305 0.823277 0.634955
O O7 0.363441 0.841595 0.315529
O O8 0.611774 0.750000 0.790292
O O9 0.596007 0.617380 0.847669
O O10 0.642348 0.668726 0.499162
O O11 0.000000 0.500000 0.000000
O O12 0.082264 0.612594 0.957780
O O13 0.605415 0.250000 0.954760
O O14 0.461206 0.173869 0.815317
O O15 0.250000 0.342317 0.815399
#
# Coordination Sequence:
#
# PCOD9451493 Si02
#       6
#     8   8   8   8   8   8
#     4   9  19  36  58  86 112 146 194 236 278 335
#     4  10  20  37  61  86 113 146 192 242 286 330
#     4  10  22  37  58  85 114 148 189 231 281 340
#     4  11  22  38  58  78 114 156 186 227 282 335
#     4  11  23  36  57  88 117 149 189 231 284 342
#     4   9  19  35  59  86 114 144 187 237 282 331
#
# _framework density 26.874872
#
# number of rings (size 3 to 8) (size 9 to 14) (size 15 to 20)
#    0.000    2.000    1.667    2.500    2.333    5.333 
#    0.000    1.667    0.000    5.000    0.000    0.000 
#    0.000    0.000    0.000    0.000    0.000    0.000 
#
# Total GULP energy -267509.047868 kJ/mol
# GULP energy per Si atom -5573.105164 kJ/mol
# Density = 2.681370 g / cm^3
# Si number density = 26.874872 Si / 1000 Ang^3
#
#
#
# Elastic Constant Matrix: (Units=GPa)
#
#
# Indices 1 2 3 4 5 6 
#
# 1 161.8177 -3.9715 -1.4803 0.0000 0.0000 0.0000
# 2 -3.9715 215.4180 19.4686 0.0000 0.0000 0.0000
# 3 -1.4803 19.4686 64.4781 0.0000 0.0000 0.0000
# 4 0.0000 0.0000 0.0000 8.5789 0.0000 0.0000
# 5 0.0000 0.0000 0.0000 0.0000 27.5672 0.0000
# 6 0.0000 0.0000 0.0000 0.0000 0.0000 -8.2551
#
#
#
# Elastic Compliance Matrix: (Units=1/GPa)
#
#
# Indices 1 2 3 4 5 6 
#
# 1 0.006183 0.000104 0.000111 0.000000 0.000000 0.000000
# 2 0.000104 0.004774 -0.001439 0.000000 0.000000 0.000000
# 3 0.000111 -0.001439 0.015946 0.000000 0.000000 0.000000
# 4 0.000000 0.000000 0.000000 0.116565 0.000000 0.000000
# 5 0.000000 0.000000 0.000000 0.000000 0.036275 0.000000
# 6 0.000000 0.000000 0.000000 0.000000 0.000000 -0.121137
#
#
# Mechanical properties :
#
#
# Convention : Reuss Voigt Hill
#
# Bulk Modulus (GPa) = 40.89214 52.19415 46.54314
# Shear Modulus (GPa) = 72.24654 34.09132 53.16893
#
# Velocity S-wave (km/s) = 5.19046 3.56549 4.45273
# Velocity P-wave (km/s) = 7.15332 6.03437 6.61754
#
# Compressibility (1/GPa) = 0.02445458
#
# Stress axis : x y z
#
# Youngs Moduli (GPa) = 161.72440 209.46279 62.71083
#
# Poissons Ratio (x) = -0.02179 -0.00693
# Poissons Ratio (y) = -0.01682 0.09025
# Poissons Ratio (z) = -0.01788 0.30144
#
# Static dielectric constant tensor:
#      x y z
#    x 0.699750 0.000000 0.000000 
#    y 0.000000 2.203220 0.000000 
#    z 0.000000 0.000000 3.682130 
# 
# From -- ./inp_files/9228.got.cif
#   From: 2010.05.17/outbox.cif.g08.bks.cpg/sg59_5_cif.got.tgz:9228.got - 2010.06.03 14:40:33.
