data_PCOD9451310
_publ_section_title
;
Structure prediction by ZEFSAII (Michael W. Deem and Ramdas Pophale) SiO2 
 PCOD9451310
Probable space group: P M M N
;
_chemical_formula_sum "Si O2"
_cell_formula_units_Z 56
_cell_length_a 23.700804
_cell_length_b 8.749114
_cell_length_c 15.260172
_cell_angle_alpha 90.000000
_cell_angle_beta 90.000000
_cell_angle_gamma 90.000000
_cell_volume 3164.365077
_symmetry_space_group_name_H-M "P M M N"
_symmetry_group_IT_number 59
_space_group.IT_coordinate_system_code '2'
_symmetry_cell_setting 'orthorhombic'
loop_
_space_group_symop_operation_xyz
x,y,z
1/2-x,1/2-y,z
1/2+x,-y,-z
-x,1/2+y,-z
-x,-y,-z
1/2+x,1/2+y,-z
1/2-x,y,z
x,1/2-y,z
loop_
_atom_site_type_symbol
_atom_site_label
_atom_site_fract_x
_atom_site_fract_y
_atom_site_fract_z
Si Si1 0.997047 0.433942 0.402818
Si Si2 0.183396 0.934711 0.837454
Si Si3 0.576317 0.932903 0.243877
Si Si4 0.811987 0.068259 0.818376
Si Si5 0.484776 0.073398 0.114837
Si Si6 0.098257 0.076559 0.283763
Si Si7 0.883668 0.065606 0.984541
O O1 0.989882 0.250000 0.402832
O O2 0.952219 0.503684 0.333325
O O3 0.000000 0.500000 0.500000
O O4 0.058163 0.469870 0.361981
O O5 0.250000 0.979417 0.835270
O O6 0.181862 0.750000 0.829507
O O7 0.140503 0.008160 0.767316
O O8 0.151922 0.974655 0.929065
O O9 0.574049 0.750000 0.243570
O O10 0.539221 0.993532 0.159952
O O11 0.750000 0.002101 0.812927
O O12 0.808500 0.250000 0.827499
O O13 0.844395 0.012179 0.904316
O O14 0.849399 0.029449 0.735200
O O15 0.498426 0.250000 0.094242
O O16 0.442064 0.072904 0.198246
O O17 0.446015 0.000229 0.037598
O O18 0.117546 0.250000 0.295557
O O19 0.888513 0.250000 0.982250
#
# Coordination Sequence:
#
# PCOD9451310 Si02
#       7
#     8   8   8   8   8   8   8
#     4  10  20  36  59  85 108 128 157 201 256 318
#     4  10  21  37  55  74 102 143 187 228 268 312
#     4  11  22  36  55  79 107 139 175 216 266 321
#     4   9  16  26  43  68  98 133 172 210 246 289
#     4   9  17  31  50  73 103 136 172 217 266 313
#     4   8  16  29  45  69 100 130 159 195 241 293
#     4   9  17  30  49  73 101 136 180 225 266 308
#
# _framework density 17.697074000000001
#
# number of rings (size 3 to 8) (size 9 to 14) (size 15 to 20)
#    0.000    2.571    0.000    3.429    0.000    7.429 
#    0.000    0.000    0.000    3.429    0.000    4.000 
#    0.000    0.000    0.000    0.000    0.000    0.000 
#
# Total GULP energy -311978.522508 kJ/mol
# GULP energy per Si atom -5571.045045 kJ/mol
# Density = 1.765679 g / cm^3
# Si number density = 17.697074 Si / 1000 Ang^3
#
#
#
# Elastic Constant Matrix: (Units=GPa)
#
#
# Indices 1 2 3 4 5 6 
#
# 1 159.6194 61.7982 58.8271 0.0000 0.0000 0.0000
# 2 61.7982 43.3764 37.4092 0.0000 0.0000 0.0000
# 3 58.8271 37.4092 97.1770 0.0000 0.0000 0.0000
# 4 0.0000 0.0000 0.0000 22.1612 0.0000 0.0000
# 5 0.0000 0.0000 0.0000 0.0000 10.8606 0.0000
# 6 0.0000 0.0000 0.0000 0.0000 0.0000 26.0371
#
#
#
# Elastic Compliance Matrix: (Units=1/GPa)
#
#
# Indices 1 2 3 4 5 6 
#
# 1 0.014064 -0.019003 -0.001198 0.000000 0.000000 0.000000
# 2 -0.019003 0.060190 -0.011667 0.000000 0.000000 0.000000
# 3 -0.001198 -0.011667 0.015507 0.000000 0.000000 0.000000
# 4 0.000000 0.000000 0.000000 0.045124 0.000000 0.000000
# 5 0.000000 0.000000 0.000000 0.000000 0.092076 0.000000
# 6 0.000000 0.000000 0.000000 0.000000 0.000000 0.038407
#
#
# Mechanical properties :
#
#
# Convention : Reuss Voigt Hill
#
# Bulk Modulus (GPa) = 38.42591 68.47131 53.44861
# Shear Modulus (GPa) = 14.80264 21.28768 18.04516
#
# Velocity S-wave (km/s) = 2.89527 3.47204 3.19669
# Velocity P-wave (km/s) = 5.73909 7.40595 6.62515
#
# Compressibility (1/GPa) = 0.02602410
#
# Stress axis : x y z
#
# Youngs Moduli (GPa) = 71.10469 16.61416 64.48676
#
# Poissons Ratio (x) = 0.31572 0.07727
# Poissons Ratio (y) = 1.35122 0.75235
# Poissons Ratio (z) = 0.08520 0.19383
#
# Static dielectric constant tensor:
#      x y z
#    x 1.621310 0.000000 0.000000 
#    y 0.000000 1.611740 0.000000 
#    z 0.000000 0.000000 1.615820 
# 
# From -- ./inp_files/24313.got.cif
#   From: 2010.05.17/outbox.cif.g08.bks.cpg/sg59_13_cif.got.tgz:24313.got - 2010.06.03 14:40:33.
