data_PCOD9451646
_publ_section_title
;
Structure prediction by ZEFSAII (Michael W. Deem and Ramdas Pophale) SiO2 
 PCOD9451646
Probable space group: P M M N
;
_chemical_formula_sum "Si O2"
_cell_formula_units_Z 22
_cell_length_a 13.084519
_cell_length_b 11.655952
_cell_length_c 6.021387
_cell_angle_alpha 90.000000
_cell_angle_beta 90.000000
_cell_angle_gamma 90.000000
_cell_volume 918.336938
_symmetry_space_group_name_H-M "P M M N"
_symmetry_group_IT_number 59
_space_group.IT_coordinate_system_code '2'
_symmetry_cell_setting 'orthorhombic'
loop_
_space_group_symop_operation_xyz
x,y,z
1/2-x,1/2-y,z
1/2+x,-y,-z
-x,1/2+y,-z
-x,-y,-z
1/2+x,1/2+y,-z
1/2-x,y,z
x,1/2-y,z
loop_
_atom_site_type_symbol
_atom_site_label
_atom_site_fract_x
_atom_site_fract_y
_atom_site_fract_z
Si Si1 0.480781 0.750000 0.544030
Si Si2 0.581545 0.556780 0.841012
Si Si3 0.250000 0.750000 0.729313
Si Si4 0.358044 0.250000 0.832820
Si Si5 0.250000 0.881882 0.165939
O O1 0.529004 0.636498 0.658491
O O2 0.360784 0.750000 0.609346
O O3 0.535017 0.750000 0.302391
O O4 0.500000 0.500000 0.000000
O O5 0.641593 0.641621 0.004574
O O6 0.653473 0.455037 0.755721
O O7 0.250000 0.860855 0.898023
O O8 0.250000 0.250000 0.699200
O O9 0.250000 0.750000 0.237964
#
# Coordination Sequence:
#
# PCOD9451646 Si02
#       5
#     4   8   2   4   4
#     4  11  25  42  73 102 139 188 235 287 348 416
#     4  11  22  44  71  97 135 185 233 284 355 410
#     4  10  20  44  62  96 144 178 230 290 332 400
#     4  11  26  43  68 106 140 179 234 295 344 410
#     4  10  20  39  68  97 134 178 222 292 340 415
#
# _framework density 23.956348999999999
#
# number of rings (size 3 to 8) (size 9 to 14) (size 15 to 20)
#    0.545    0.727    5.455    0.000    5.091    1.455 
#    0.000    5.455    0.000    2.182    0.000    0.000 
#    0.000    0.000    0.000    0.000    0.000    0.000 
#
# Total GULP energy -122916.725875 kJ/mol
# GULP energy per Si atom -5587.123903 kJ/mol
# Density = 2.390182 g / cm^3
# Si number density = 23.956349 Si / 1000 Ang^3
#
#
#
# Elastic Constant Matrix: (Units=GPa)
#
#
# Indices 1 2 3 4 5 6 
#
# 1 184.1982 71.8653 37.5578 0.0000 0.0000 0.0000
# 2 71.8653 185.0132 25.7413 0.0000 0.0000 0.0000
# 3 37.5578 25.7413 69.4677 0.0000 0.0000 0.0000
# 4 0.0000 0.0000 0.0000 5.9475 0.0000 0.0000
# 5 0.0000 0.0000 0.0000 0.0000 33.2821 0.0000
# 6 0.0000 0.0000 0.0000 0.0000 0.0000 15.3362
#
#
#
# Elastic Compliance Matrix: (Units=1/GPa)
#
#
# Indices 1 2 3 4 5 6 
#
# 1 0.006908 -0.002281 -0.002890 0.000000 0.000000 0.000000
# 2 -0.002281 0.006452 -0.001157 0.000000 0.000000 0.000000
# 3 -0.002890 -0.001157 0.016386 0.000000 0.000000 0.000000
# 4 0.000000 0.000000 0.000000 0.168138 0.000000 0.000000
# 5 0.000000 0.000000 0.000000 0.000000 0.030046 0.000000
# 6 0.000000 0.000000 0.000000 0.000000 0.000000 0.065205
#
#
# Mechanical properties :
#
#
# Convention : Reuss Voigt Hill
#
# Bulk Modulus (GPa) = 58.51382 78.77868 68.64625
# Shear Modulus (GPa) = 16.05193 31.14747 23.59970
#
# Velocity S-wave (km/s) = 2.59134 3.60971 3.14206
# Velocity P-wave (km/s) = 5.78201 7.09429 6.47150
#
# Compressibility (1/GPa) = 0.01708998
#
# Stress axis : x y z
#
# Youngs Moduli (GPa) = 144.75582 154.98570 61.02651
#
# Poissons Ratio (x) = 0.35357 0.17634
# Poissons Ratio (y) = 0.33024 0.07064
# Poissons Ratio (z) = 0.41828 0.17939
#
# Static dielectric constant tensor:
#      x y z
#    x 1.904880 0.000000 0.000000 
#    y 0.000000 1.785950 0.000000 
#    z 0.000000 0.000000 1.903750 
# 
# From -- ./inp_files/1590.got.cif
#   From: 2010.05.17/outbox.cif.g08.bks.cpg/sg59_1_cif.got.tgz:1590.got - 2010.06.03 14:40:33.
