data_PCOD9451668
_publ_section_title
;
Structure prediction by ZEFSAII (Michael W. Deem and Ramdas Pophale) SiO2 
 PCOD9451668
Probable space group: P M M N
;
_chemical_formula_sum "Si O2"
_cell_formula_units_Z 48
_cell_length_a 15.842592
_cell_length_b 8.782284
_cell_length_c 17.962574
_cell_angle_alpha 90.000000
_cell_angle_beta 90.000000
_cell_angle_gamma 90.000000
_cell_volume 2499.207326
_symmetry_space_group_name_H-M "P M M N"
_symmetry_group_IT_number 59
_space_group.IT_coordinate_system_code '2'
_symmetry_cell_setting 'orthorhombic'
loop_
_space_group_symop_operation_xyz
x,y,z
1/2-x,1/2-y,z
1/2+x,-y,-z
-x,1/2+y,-z
-x,-y,-z
1/2+x,1/2+y,-z
1/2-x,y,z
x,1/2-y,z
loop_
_atom_site_type_symbol
_atom_site_label
_atom_site_fract_x
_atom_site_fract_y
_atom_site_fract_z
Si Si1 0.350670 0.422691 0.336004
Si Si2 0.002013 0.066807 0.082566
Si Si3 0.347680 0.567316 0.812848
Si Si4 0.650534 0.068703 0.818726
Si Si5 0.149523 0.078119 0.658629
Si Si6 0.092702 0.434695 0.497823
O O1 0.250000 0.412129 0.332238
O O2 0.385658 0.250000 0.328886
O O3 0.376245 0.521627 0.265153
O O4 0.370349 0.483999 0.418275
O O5 0.002023 0.250000 0.080157
O O6 0.917663 0.016446 0.127676
O O7 0.085813 0.010576 0.125222
O O8 0.000000 0.000000 0.000000
O O9 0.250000 0.514299 0.825853
O O10 0.345214 0.750000 0.814558
O O11 0.377338 0.516149 0.730582
O O12 0.750000 0.024998 0.829354
O O13 0.645469 0.250000 0.827255
O O14 0.250000 0.088337 0.664519
O O15 0.113862 0.250000 0.663148
O O16 0.132513 0.014937 0.576218
O O17 0.097614 0.250000 0.497513
O O18 0.000000 0.500000 0.500000
#
# Coordination Sequence:
#
# PCOD9451668 Si02
#       6
#     8   8   8   8   8   8
#     4   9  18  35  57  78 106 148 194 238 286 340
#     4  11  24  41  63  91 121 154 191 235 291 355
#     4   9  20  39  61  85 115 151 189 232 285 343
#     4  10  22  40  62  88 119 155 196 244 296 347
#     4   9  18  34  55  78 106 144 189 234 279 329
#     4  10  21  33  48  76 111 148 188 233 282 332
#
# _framework density 19.206088999999999
#
# number of rings (size 3 to 8) (size 9 to 14) (size 15 to 20)
#    0.000    2.333    0.000    1.500    2.333    6.333 
#    0.000    1.667    0.000    5.000    0.000    0.000 
#    0.000    0.000    0.000    0.000    0.000    0.000 
#
# Total GULP energy -267561.456036 kJ/mol
# GULP energy per Si atom -5574.197001 kJ/mol
# Density = 1.916238 g / cm^3
# Si number density = 19.206089 Si / 1000 Ang^3
#
#
#
# Elastic Constant Matrix: (Units=GPa)
#
#
# Indices 1 2 3 4 5 6 
#
# 1 78.8876 32.2771 78.7371 0.0000 0.0000 0.0000
# 2 32.2771 24.9687 44.1832 0.0000 0.0000 0.0000
# 3 78.7371 44.1832 196.0956 0.0000 0.0000 0.0000
# 4 0.0000 0.0000 0.0000 32.0801 0.0000 0.0000
# 5 0.0000 0.0000 0.0000 0.0000 40.2651 0.0000
# 6 0.0000 0.0000 0.0000 0.0000 0.0000 25.2970
#
#
#
# Elastic Compliance Matrix: (Units=1/GPa)
#
#
# Indices 1 2 3 4 5 6 
#
# 1 0.030122 -0.029165 -0.005523 0.000000 0.000000 0.000000
# 2 -0.029165 0.094844 -0.009659 0.000000 0.000000 0.000000
# 3 -0.005523 -0.009659 0.009494 0.000000 0.000000 0.000000
# 4 0.000000 0.000000 0.000000 0.031172 0.000000 0.000000
# 5 0.000000 0.000000 0.000000 0.000000 0.024835 0.000000
# 6 0.000000 0.000000 0.000000 0.000000 0.000000 0.039530
#
#
# Mechanical properties :
#
#
# Convention : Reuss Voigt Hill
#
# Bulk Modulus (GPa) = 21.85087 67.81630 44.83359
# Shear Modulus (GPa) = 14.97237 29.17874 22.07556
#
# Velocity S-wave (km/s) = 2.79510 3.90198 3.39396
# Velocity P-wave (km/s) = 4.67103 7.46237 6.22517
#
# Compressibility (1/GPa) = 0.04576476
#
# Stress axis : x y z
#
# Youngs Moduli (GPa) = 33.19829 10.54358 105.33219
#
# Poissons Ratio (x) = 0.30750 0.58180
# Poissons Ratio (y) = 0.96822 1.01745
# Poissons Ratio (z) = 0.18337 0.10185
#
# Static dielectric constant tensor:
#      x y z
#    x 1.668020 0.000000 0.000000 
#    y 0.000000 1.729950 0.000000 
#    z 0.000000 0.000000 1.700800 
# 
# From -- ./inp_files/25493.got.cif
#   From: 2010.05.17/outbox.cif.g08.bks.cpg/sg59_13_cif.got.tgz:25493.got - 2010.06.03 14:40:33.
