data_PCOD9451150
_publ_section_title
;
Structure prediction by ZEFSAII (Michael W. Deem and Ramdas Pophale) SiO2 
 PCOD9451150
Probable space group: P M M N
;
_chemical_formula_sum "Si O2"
_cell_formula_units_Z 48
_cell_length_a 9.127650
_cell_length_b 19.499598
_cell_length_c 16.480198
_cell_angle_alpha 90.000000
_cell_angle_beta 90.000000
_cell_angle_gamma 90.000000
_cell_volume 2933.236375
_symmetry_space_group_name_H-M "P M M N"
_symmetry_group_IT_number 59
_space_group.IT_coordinate_system_code '2'
_symmetry_cell_setting 'orthorhombic'
loop_
_space_group_symop_operation_xyz
x,y,z
1/2-x,1/2-y,z
1/2+x,-y,-z
-x,1/2+y,-z
-x,-y,-z
1/2+x,1/2+y,-z
1/2-x,y,z
x,1/2-y,z
loop_
_atom_site_type_symbol
_atom_site_label
_atom_site_fract_x
_atom_site_fract_y
_atom_site_fract_z
Si Si1 0.073818 0.471275 0.377050
Si Si2 0.073109 0.750000 0.399534
Si Si3 0.423952 0.250000 0.775871
Si Si4 0.424781 0.472185 0.190679
Si Si5 0.425751 0.894558 0.478043
Si Si6 0.922950 0.371750 0.869567
Si Si7 0.424511 0.568053 0.963881
O O1 0.250000 0.465188 0.380703
O O2 0.029411 0.462179 0.283713
O O3 0.036422 0.547305 0.410956
O O4 0.001469 0.418077 0.438973
O O5 0.250000 0.750000 0.388698
O O6 0.033040 0.680762 0.447447
O O7 0.997640 0.750000 0.312400
O O8 0.250000 0.250000 0.769035
O O9 0.480619 0.183677 0.824372
O O10 0.250000 0.460780 0.183702
O O11 0.449473 0.552043 0.166535
O O12 0.507969 0.425256 0.125320
O O13 0.250000 0.896283 0.488413
O O14 0.750000 0.356698 0.857378
O O15 0.951536 0.375576 0.966389
O O16 0.250000 0.558084 0.959339
O O17 0.500000 0.500000 0.000000
#
# Coordination Sequence:
#
# PCOD9451150 Si02
#       7
#     8   4   4   8   8   8   8
#     4   9  17  30  48  72 100 126 155 197 246 287
#     4  10  20  36  54  69  94 131 164 195 236 293
#     4  12  24  32  46  73  98 123 158 197 234 277
#     4   9  17  30  50  73  96 125 159 194 235 284
#     4   9  18  32  50  70  93 126 165 199 235 283
#     4   9  18  33  49  66  95 131 160 188 231 285
#     4   9  17  29  47  70  94 122 154 190 231 273
#
# _framework density 16.364176
#
# number of rings (size 3 to 8) (size 9 to 14) (size 15 to 20)
#    0.000    2.667    0.000    3.250    0.000    7.333 
#    0.000    3.333    0.000    1.000    0.000    3.500 
#    0.000    0.000    0.000    0.000    0.000    0.000 
#
# Total GULP energy -267518.419399 kJ/mol
# GULP energy per Si atom -5573.300404 kJ/mol
# Density = 1.632693 g / cm^3
# Si number density = 16.364176 Si / 1000 Ang^3
#
#
#
# Elastic Constant Matrix: (Units=GPa)
#
#
# Indices 1 2 3 4 5 6 
#
# 1 40.0058 42.7783 57.7611 0.0000 0.0000 0.0000
# 2 42.7783 84.2846 64.7620 0.0000 0.0000 0.0000
# 3 57.7611 64.7620 176.9832 0.0000 0.0000 0.0000
# 4 0.0000 0.0000 0.0000 16.1620 0.0000 0.0000
# 5 0.0000 0.0000 0.0000 0.0000 33.8001 0.0000
# 6 0.0000 0.0000 0.0000 0.0000 0.0000 21.9439
#
#
#
# Elastic Compliance Matrix: (Units=1/GPa)
#
#
# Indices 1 2 3 4 5 6 
#
# 1 0.074495 -0.026610 -0.014575 0.000000 0.000000 0.000000
# 2 -0.026610 0.026011 -0.000833 0.000000 0.000000 0.000000
# 3 -0.014575 -0.000833 0.010712 0.000000 0.000000 0.000000
# 4 0.000000 0.000000 0.000000 0.061874 0.000000 0.000000
# 5 0.000000 0.000000 0.000000 0.000000 0.029586 0.000000
# 6 0.000000 0.000000 0.000000 0.000000 0.000000 0.045571
#
#
# Mechanical properties :
#
#
# Convention : Reuss Voigt Hill
#
# Bulk Modulus (GPa) = 36.79167 70.20847 53.50007
# Shear Modulus (GPa) = 14.64792 23.44600 19.04696
#
# Velocity S-wave (km/s) = 2.99510 3.78929 3.41536
# Velocity P-wave (km/s) = 5.87305 7.88301 6.95107
#
# Compressibility (1/GPa) = 0.02718006
#
# Stress axis : x y z
#
# Youngs Moduli (GPa) = 13.42375 38.44562 93.35353
#
# Poissons Ratio (x) = 1.02305 1.36064
# Poissons Ratio (y) = 0.35721 0.07778
# Poissons Ratio (z) = 0.19565 0.03203
#
# Static dielectric constant tensor:
#      x y z
#    x 1.543680 0.000000 0.000000 
#    y 0.000000 1.533530 0.000000 
#    z 0.000000 0.000000 1.563720 
# 
# From -- ./inp_files/20558.got.cif
#   From: 2010.05.17/outbox.cif.g08.bks.cpg/sg59_11_cif.got.tgz:20558.got - 2010.06.03 14:40:33.
