data_PCOD9451106
_publ_section_title
;
Structure prediction by ZEFSAII (Michael W. Deem and Ramdas Pophale) SiO2 
 PCOD9451106
Probable space group: P M M N
;
_chemical_formula_sum "Si O2"
_cell_formula_units_Z 48
_cell_length_a 9.250506
_cell_length_b 17.694649
_cell_length_c 14.659874
_cell_angle_alpha 90.000000
_cell_angle_beta 90.000000
_cell_angle_gamma 90.000000
_cell_volume 2399.593512
_symmetry_space_group_name_H-M "P M M N"
_symmetry_group_IT_number 59
_space_group.IT_coordinate_system_code '2'
_symmetry_cell_setting 'orthorhombic'
loop_
_space_group_symop_operation_xyz
x,y,z
1/2-x,1/2-y,z
1/2+x,-y,-z
-x,1/2+y,-z
-x,-y,-z
1/2+x,1/2+y,-z
1/2-x,y,z
x,1/2-y,z
loop_
_atom_site_type_symbol
_atom_site_label
_atom_site_fract_x
_atom_site_fract_y
_atom_site_fract_z
Si Si1 0.584764 0.411060 0.256459
Si Si2 0.580729 0.990842 0.595609
Si Si3 0.078431 0.250000 0.498649
Si Si4 0.909188 0.250000 0.313070
Si Si5 0.080759 0.370306 0.652194
Si Si6 0.425387 0.572293 0.948830
Si Si7 0.085390 0.250000 0.811666
Si Si8 0.577713 0.250000 0.997979
O O1 0.750000 0.435026 0.278042
O O2 0.483577 0.424921 0.342926
O O3 0.582348 0.321375 0.248442
O O4 0.543386 0.442648 0.158546
O O5 0.750000 0.984600 0.581643
O O6 0.530942 0.062337 0.655044
O O7 0.500000 0.000000 0.500000
O O8 0.250000 0.250000 0.490914
O O9 0.041553 0.321397 0.562590
O O10 0.013478 0.250000 0.399021
O O11 0.750000 0.250000 0.356959
O O12 0.250000 0.393273 0.642242
O O13 0.071321 0.320358 0.742681
O O14 0.250000 0.568555 0.961790
O O15 0.467780 0.662057 0.969901
O O16 0.500000 0.500000 0.000000
O O17 0.250000 0.250000 0.848585
O O18 0.972924 0.250000 0.892775
O O19 0.750000 0.250000 0.010835
#
# Coordination Sequence:
#
# PCOD9451106 Si02
#       8
#     8   8   4   4   8   8   4   4
#     4  10  22  41  63  87 118 159 203 253 310 372
#     4  12  25  39  58  87 123 163 206 253 306 370
#     4   9  18  33  55  82 114 154 194 242 300 356
#     4  10  20  35  59  85 110 146 198 244 296 366
#     4   9  19  37  57  81 118 159 203 251 304 365
#     4  10  23  43  67  94 129 170 214 266 325 386
#     4   9  20  37  61  90 120 161 205 255 317 378
#     4  10  22  41  65  95 132 169 211 267 327 388
#
# _framework density 20.003387
#
# number of rings (size 3 to 8) (size 9 to 14) (size 15 to 20)
#    0.000    2.000    0.000    4.000    2.333    8.000 
#    0.000    1.667    0.000    3.000    0.000    0.000 
#    0.000    0.000    0.000    0.000    0.000    0.000 
#
# Total GULP energy -267353.982347 kJ/mol
# GULP energy per Si atom -5569.874632 kJ/mol
# Density = 1.995786 g / cm^3
# Si number density = 20.003387 Si / 1000 Ang^3
#
#
#
# Elastic Constant Matrix: (Units=GPa)
#
#
# Indices 1 2 3 4 5 6 
#
# 1 59.7617 27.8338 36.5490 0.0000 0.0000 0.0000
# 2 27.8338 97.4569 26.3891 0.0000 0.0000 0.0000
# 3 36.5490 26.3891 95.8509 0.0000 0.0000 0.0000
# 4 0.0000 0.0000 0.0000 -1.9551 0.0000 0.0000
# 5 0.0000 0.0000 0.0000 0.0000 29.2919 0.0000
# 6 0.0000 0.0000 0.0000 0.0000 0.0000 27.1759
#
#
#
# Elastic Compliance Matrix: (Units=1/GPa)
#
#
# Indices 1 2 3 4 5 6 
#
# 1 0.023628 -0.004656 -0.007728 0.000000 0.000000 0.000000
# 2 -0.004656 0.012005 -0.001530 0.000000 0.000000 0.000000
# 3 -0.007728 -0.001530 0.013801 0.000000 0.000000 0.000000
# 4 0.000000 0.000000 0.000000 -0.511494 0.000000 0.000000
# 5 0.000000 0.000000 0.000000 0.000000 0.034139 0.000000
# 6 0.000000 0.000000 0.000000 0.000000 0.000000 0.036797
#
#
# Mechanical properties :
#
#
# Convention : Reuss Voigt Hill
#
# Bulk Modulus (GPa) = 46.28171 48.29037 47.28604
# Shear Modulus (GPa) = -14.04116 21.72238 3.84061
#
# Velocity S-wave (km/s) = -2.65229 3.29893 1.38714
# Velocity P-wave (km/s) = 3.71587 6.22126 5.12405
#
# Compressibility (1/GPa) = 0.02160681
#
# Stress axis : x y z
#
# Youngs Moduli (GPa) = 42.32350 83.29976 72.45991
#
# Poissons Ratio (x) = 0.38781 0.55995
# Poissons Ratio (y) = 0.19704 0.11086
# Poissons Ratio (z) = 0.32706 0.12744
#
# Static dielectric constant tensor:
#      x y z
#    x 1.695110 0.000000 0.000000 
#    y 0.000000 2.031020 0.000000 
#    z 0.000000 0.000000 1.690130 
# 
# From -- ./inp_files/20633.got.cif
#   From: 2010.05.17/outbox.cif.g08.bks.cpg/sg59_11_cif.got.tgz:20633.got - 2010.06.03 14:40:33.
