data_PCOD9451651
_publ_section_title
;
Structure prediction by ZEFSAII (Michael W. Deem and Ramdas Pophale) SiO2 
 PCOD9451651
Probable space group: P M M N
;
_chemical_formula_sum "Si O2"
_cell_formula_units_Z 48
_cell_length_a 8.597445
_cell_length_b 18.808114
_cell_length_c 15.016532
_cell_angle_alpha 90.000000
_cell_angle_beta 90.000000
_cell_angle_gamma 90.000000
_cell_volume 2428.199138
_symmetry_space_group_name_H-M "P M M N"
_symmetry_group_IT_number 59
_space_group.IT_coordinate_system_code '2'
_symmetry_cell_setting 'orthorhombic'
loop_
_space_group_symop_operation_xyz
x,y,z
1/2-x,1/2-y,z
1/2+x,-y,-z
-x,1/2+y,-z
-x,-y,-z
1/2+x,1/2+y,-z
1/2-x,y,z
x,1/2-y,z
loop_
_atom_site_type_symbol
_atom_site_label
_atom_site_fract_x
_atom_site_fract_y
_atom_site_fract_z
Si Si1 0.563569 0.326760 0.333350
Si Si2 0.569506 0.850578 0.858873
Si Si3 0.062506 0.519142 0.597140
Si Si4 0.427541 0.987567 0.094937
Si Si5 0.060934 0.750000 0.214551
Si Si6 0.936915 0.250000 0.993558
Si Si7 0.439590 0.595187 0.261296
O O1 0.750000 0.327402 0.342209
O O2 0.507100 0.250000 0.370219
O O3 0.520496 0.327478 0.229133
O O4 0.506885 0.401200 0.375115
O O5 0.750000 0.829548 0.853569
O O6 0.497989 0.816933 0.948478
O O7 0.565632 0.935545 0.859672
O O8 0.250000 0.519424 0.597615
O O9 0.000000 0.500000 0.500000
O O10 0.004090 0.458931 0.665712
O O11 0.250000 0.965637 0.080038
O O12 0.495914 0.931928 0.164265
O O13 0.500000 0.000000 0.000000
O O14 0.250000 0.750000 0.211480
O O15 0.014808 0.822197 0.264965
O O16 0.011822 0.750000 0.109926
O O17 0.750000 0.250000 0.994688
O O18 0.250000 0.590447 0.263780
#
# Coordination Sequence:
#
# PCOD9451651 Si02
#       7
#     8   8   8   8   4   4   8
#     4  10  21  39  63  90 118 153 197 243 296 362
#     4  11  21  33  52  83 119 157 199 249 307 353
#     4  11  24  43  68  95 123 157 199 252 313 375
#     4  10  21  34  53  81 117 158 203 252 302 362
#     4   9  20  37  61  86 115 164 217 257 298 354
#     4  11  21  35  55  82 121 168 213 253 294 358
#     4  10  20  40  63  86 119 161 209 259 307 360
#
# _framework density 19.767734999999998
#
# number of rings (size 3 to 8) (size 9 to 14) (size 15 to 20)
#    0.000    1.667    2.500    2.250    0.000    4.000 
#    1.500    2.083    0.000    0.000    0.000    0.000 
#    0.000    0.000    0.000    0.000    0.000    0.000 
#
# Total GULP energy -267829.564508 kJ/mol
# GULP energy per Si atom -5579.782594 kJ/mol
# Density = 1.972274 g / cm^3
# Si number density = 19.767735 Si / 1000 Ang^3
#
#
#
# Elastic Constant Matrix: (Units=GPa)
#
#
# Indices 1 2 3 4 5 6 
#
# 1 19.1186 27.7384 16.4948 0.0000 0.0000 0.0000
# 2 27.7384 176.8480 71.2619 0.0000 0.0000 0.0000
# 3 16.4948 71.2619 113.4826 0.0000 0.0000 0.0000
# 4 0.0000 0.0000 0.0000 -703.2499 0.0000 0.0000
# 5 0.0000 0.0000 0.0000 0.0000 29.0861 0.0000
# 6 0.0000 0.0000 0.0000 0.0000 0.0000 24.4055
#
#
#
# Elastic Compliance Matrix: (Units=1/GPa)
#
#
# Indices 1 2 3 4 5 6 
#
# 1 0.069279 -0.009115 -0.004346 0.000000 0.000000 0.000000
# 2 -0.009115 0.008769 -0.004182 0.000000 0.000000 0.000000
# 3 -0.004346 -0.004182 0.012070 0.000000 0.000000 0.000000
# 4 0.000000 0.000000 0.000000 -0.001422 0.000000 0.000000
# 5 0.000000 0.000000 0.000000 0.000000 0.034381 0.000000
# 6 0.000000 0.000000 0.000000 0.000000 0.000000 0.040974
#
#
# Mechanical properties :
#
#
# Convention : Reuss Voigt Hill
#
# Bulk Modulus (GPa) = 18.23740 60.04881 39.14311
# Shear Modulus (GPa) = 22.97639 -117.02140 -47.02250
#
# Velocity S-wave (km/s) = 3.41298 -7.70238 -4.88253
# Velocity P-wave (km/s) = 4.97766 6.97561 3.45558
#
# Compressibility (1/GPa) = 0.05483238
#
# Stress axis : x y z
#
# Youngs Moduli (GPa) = 14.43435 114.03300 82.85256
#
# Poissons Ratio (x) = 1.03943 0.36007
# Poissons Ratio (y) = 0.13157 0.34648
# Poissons Ratio (z) = 0.06273 0.47687
#
# Static dielectric constant tensor:
#      x y z
#    x 1.688100 0.000000 0.000000 
#    y 0.000000 1.756770 0.000000 
#    z 0.000000 0.000000 1.669400 
# 
# From -- ./inp_files/20612.got.cif
#   From: 2010.05.17/outbox.cif.g08.bks.cpg/sg59_11_cif.got.tgz:20612.got - 2010.06.03 14:40:33.
