data_PCOD9451879
_publ_section_title
;
Structure prediction by ZEFSAII (Michael W. Deem and Ramdas Pophale) SiO2 
 PCOD9451879
Probable space group: P M M N
;
_chemical_formula_sum "Si O2"
_cell_formula_units_Z 64
_cell_length_a 7.930170
_cell_length_b 31.001433
_cell_length_c 12.263390
_cell_angle_alpha 90.000000
_cell_angle_beta 90.000000
_cell_angle_gamma 90.000000
_cell_volume 3014.913152
_symmetry_space_group_name_H-M "P M M N"
_symmetry_group_IT_number 59
_space_group.IT_coordinate_system_code '2'
_symmetry_cell_setting 'orthorhombic'
loop_
_space_group_symop_operation_xyz
x,y,z
1/2-x,1/2-y,z
1/2+x,-y,-z
-x,1/2+y,-z
-x,-y,-z
1/2+x,1/2+y,-z
1/2-x,y,z
x,1/2-y,z
loop_
_atom_site_type_symbol
_atom_site_label
_atom_site_fract_x
_atom_site_fract_y
_atom_site_fract_z
Si Si1 0.945485 0.942692 0.953662
Si Si2 0.950481 0.474039 0.825962
Si Si3 0.044193 0.635395 0.481923
Si Si4 0.043754 0.799240 0.670895
Si Si5 0.046479 0.702014 0.300445
Si Si6 0.546086 0.040181 0.577402
Si Si7 0.553999 0.701319 0.052434
Si Si8 0.559471 0.144948 0.129036
O O1 0.750000 0.951981 0.972118
O O2 0.022671 0.940025 0.075379
O O3 0.962895 0.899417 0.884726
O O4 0.019331 0.982015 0.881862
O O5 0.750000 0.479338 0.812688
O O6 0.015153 0.464659 0.703746
O O7 0.250000 0.634518 0.485279
O O8 0.989451 0.665259 0.582496
O O9 0.993321 0.662887 0.376265
O O10 0.986722 0.585987 0.472798
O O11 0.250000 0.797268 0.667082
O O12 0.985023 0.750000 0.654547
O O13 0.993084 0.819586 0.786531
O O14 0.250000 0.700708 0.291363
O O15 0.003900 0.750000 0.344985
O O16 0.970023 0.698098 0.181206
O O17 0.750000 0.042090 0.581193
O O18 0.500000 0.000000 0.500000
O O19 0.750000 0.694339 0.025443
O O20 0.505606 0.750000 0.020737
O O21 0.444863 0.667454 0.987869
O O22 0.750000 0.134194 0.162417
#
# Coordination Sequence:
#
# PCOD9451879 Si02
#       8
#     8   8   8   8   8   8   8   8
#     4  10  21  37  58  84 113 148 189 236 288 343
#     4   9  20  39  59  82 115 152 191 235 286 344
#     4   9  18  33  55  83 112 145 185 231 282 336
#     4   9  18  33  54  82 114 146 186 238 286 332
#     4   9  17  31  55  85 113 144 183 228 281 339
#     4  10  22  38  58  84 116 152 190 233 285 338
#     4  10  21  36  53  77 113 150 183 225 278 333
#     4  11  22  34  55  83 112 146 189 235 282 339
#
# _framework density 21.227810000000002
#
# number of rings (size 3 to 8) (size 9 to 14) (size 15 to 20)
#    0.000    2.375    0.000    1.875    3.500    3.750 
#    0.000    0.625    0.000    1.500    0.000    1.750 
#    0.000    0.000    0.000    0.000    0.000    0.000 
#
# Total GULP energy -357017.342973 kJ/mol
# GULP energy per Si atom -5578.395984 kJ/mol
# Density = 2.117949 g / cm^3
# Si number density = 21.227810 Si / 1000 Ang^3
#
#
#
# Elastic Constant Matrix: (Units=GPa)
#
#
# Indices 1 2 3 4 5 6 
#
# 1 15.4146 15.0693 2.6560 0.0000 0.0000 0.0000
# 2 15.0693 158.7405 77.9439 0.0000 0.0000 0.0000
# 3 2.6560 77.9439 97.9999 0.0000 0.0000 0.0000
# 4 0.0000 0.0000 0.0000 22.8816 0.0000 0.0000
# 5 0.0000 0.0000 0.0000 0.0000 -1.2712 0.0000
# 6 0.0000 0.0000 0.0000 0.0000 0.0000 18.4073
#
#
#
# Elastic Compliance Matrix: (Units=1/GPa)
#
#
# Indices 1 2 3 4 5 6 
#
# 1 0.073490 -0.009842 0.005836 0.000000 0.000000 0.000000
# 2 -0.009842 0.011654 -0.009002 0.000000 0.000000 0.000000
# 3 0.005836 -0.009002 0.017206 0.000000 0.000000 0.000000
# 4 0.000000 0.000000 0.000000 0.043703 0.000000 0.000000
# 5 0.000000 0.000000 0.000000 0.000000 -0.786677 0.000000
# 6 0.000000 0.000000 0.000000 0.000000 0.000000 0.054326
#
#
# Mechanical properties :
#
#
# Convention : Reuss Voigt Hill
#
# Bulk Modulus (GPa) = 13.10045 51.49925 32.29985
# Shear Modulus (GPa) = -9.34865 19.76926 5.21031
#
# Velocity S-wave (km/s) = -2.10084 3.05502 1.56837
# Velocity P-wave (km/s) = 0.54778 6.06276 4.30448
#
# Compressibility (1/GPa) = 0.07633326
#
# Stress axis : x y z
#
# Youngs Moduli (GPa) = 13.60735 85.80587 58.11937
#
# Poissons Ratio (x) = 0.84450 -0.33919
# Poissons Ratio (y) = 0.13392 0.52321
# Poissons Ratio (z) = -0.07941 0.77246
#
# Static dielectric constant tensor:
#      x y z
#    x 1.787680 0.000000 0.000000 
#    y 0.000000 1.777190 0.000000 
#    z 0.000000 0.000000 1.772180 
# 
# From -- ./inp_files/14961.got.cif
#   From: 2010.05.17/outbox.cif.g08.bks.cpg/sg59_8_cif.got.tgz:14961.got - 2010.06.03 14:40:33.
