data_PCOD9451254
_publ_section_title
;
Structure prediction by ZEFSAII (Michael W. Deem and Ramdas Pophale) SiO2 
 PCOD9451254
Probable space group: P M M N
;
_chemical_formula_sum "Si O2"
_cell_formula_units_Z 56
_cell_length_a 20.518564
_cell_length_b 13.625239
_cell_length_c 9.664206
_cell_angle_alpha 90.000000
_cell_angle_beta 90.000000
_cell_angle_gamma 90.000000
_cell_volume 2701.825342
_symmetry_space_group_name_H-M "P M M N"
_symmetry_group_IT_number 59
_space_group.IT_coordinate_system_code '2'
_symmetry_cell_setting 'orthorhombic'
loop_
_space_group_symop_operation_xyz
x,y,z
1/2-x,1/2-y,z
1/2+x,-y,-z
-x,1/2+y,-z
-x,-y,-z
1/2+x,1/2+y,-z
1/2-x,y,z
x,1/2-y,z
loop_
_atom_site_type_symbol
_atom_site_label
_atom_site_fract_x
_atom_site_fract_y
_atom_site_fract_z
Si Si1 0.679573 0.133596 0.604631
Si Si2 0.910344 0.636358 0.574124
Si Si3 0.029628 0.865255 0.085884
Si Si4 0.604942 0.538004 0.057155
Si Si5 0.537330 0.368878 0.587039
Si Si6 0.672648 0.636188 0.301499
Si Si7 0.821178 0.541805 0.792875
O O1 0.750000 0.111240 0.535314
O O2 0.677491 0.250000 0.628997
O O3 0.610524 0.106173 0.535526
O O4 0.680156 0.072083 0.746452
O O5 0.920395 0.750000 0.607430
O O6 0.855746 0.628741 0.455269
O O7 0.880462 0.586126 0.707145
O O8 0.977784 0.598174 0.509240
O O9 0.044817 0.750000 0.076769
O O10 0.031891 0.895621 0.249625
O O11 0.075794 0.932880 0.990420
O O12 0.955916 0.888386 0.039462
O O13 0.663396 0.557773 0.951447
O O14 0.633986 0.559098 0.207332
O O15 0.532242 0.250000 0.587907
O O16 0.750000 0.621413 0.298134
O O17 0.658949 0.750000 0.255832
O O18 0.750000 0.583016 0.754806
#
# Coordination Sequence:
#
# PCOD9451254 Si02
#       7
#     8   8   8   8   8   8   8
#     4   9  18  34  55  81 113 148 186 231 285 343
#     4  10  21  37  57  81 113 152 192 236 285 341
#     4  10  20  36  58  83 113 149 191 238 290 345
#     4  11  21  35  58  86 114 149 188 239 291 343
#     4   9  16  33  58  79 102 142 191 233 269 327
#     4  10  20  36  58  81 110 154 202 239 278 341
#     4  11  23  36  54  87 122 149 185 237 293 345
#
# _framework density 20.726728000000001
#
# number of rings (size 3 to 8) (size 9 to 14) (size 15 to 20)
#    0.000    2.000    2.857    1.286    0.000    2.571 
#    0.000    0.000    0.000    3.857    0.000    0.000 
#    0.000    0.000    0.000    0.571    0.000    0.000 
#
# Total GULP energy -312305.056275 kJ/mol
# GULP energy per Si atom -5576.876005 kJ/mol
# Density = 2.067955 g / cm^3
# Si number density = 20.726728 Si / 1000 Ang^3
#
#
#
# Elastic Constant Matrix: (Units=GPa)
#
#
# Indices 1 2 3 4 5 6 
#
# 1 123.1283 14.3560 1.6951 0.0000 0.0000 0.0000
# 2 14.3560 61.9095 4.7627 0.0000 0.0000 0.0000
# 3 1.6951 4.7627 8.3072 0.0000 0.0000 0.0000
# 4 0.0000 0.0000 0.0000 16.0479 0.0000 0.0000
# 5 0.0000 0.0000 0.0000 0.0000 18.2370 0.0000
# 6 0.0000 0.0000 0.0000 0.0000 0.0000 26.9507
#
#
#
# Elastic Compliance Matrix: (Units=1/GPa)
#
#
# Indices 1 2 3 4 5 6 
#
# 1 0.008350 -0.001889 -0.000621 0.000000 0.000000 0.000000
# 2 -0.001889 0.017325 -0.009547 0.000000 0.000000 0.000000
# 3 -0.000621 -0.009547 0.125977 0.000000 0.000000 0.000000
# 4 0.000000 0.000000 0.000000 0.062314 0.000000 0.000000
# 5 0.000000 0.000000 0.000000 0.000000 0.054834 0.000000
# 6 0.000000 0.000000 0.000000 0.000000 0.000000 0.037105
#
#
# Mechanical properties :
#
#
# Convention : Reuss Voigt Hill
#
# Bulk Modulus (GPa) = 7.84076 26.10806 16.97441
# Shear Modulus (GPa) = 13.42168 23.74919 18.58544
#
# Velocity S-wave (km/s) = 2.54747 3.38868 2.99773
# Velocity P-wave (km/s) = 3.52760 5.28531 4.49324
#
# Compressibility (1/GPa) = 0.12753869
#
# Stress axis : x y z
#
# Youngs Moduli (GPa) = 119.75538 57.72004 7.93794
#
# Poissons Ratio (x) = 0.10901 0.00493
# Poissons Ratio (y) = 0.22617 0.07579
# Poissons Ratio (z) = 0.07438 0.55107
#
# Static dielectric constant tensor:
#      x y z
#    x 1.789370 0.000000 0.000000 
#    y 0.000000 1.782390 0.000000 
#    z 0.000000 0.000000 1.704390 
# 
# From -- ./inp_files/11431.got.cif
#   From: 2010.05.17/outbox.cif.g08.bks.cpg/sg59_6_cif.got.tgz:11431.got - 2010.06.03 14:40:33.
