data_PCOD9451504
_publ_section_title
;
Structure prediction by ZEFSAII (Michael W. Deem and Ramdas Pophale) SiO2 
 PCOD9451504
Probable space group: P M M N
;
_chemical_formula_sum "Si O2"
_cell_formula_units_Z 64
_cell_length_a 22.987940
_cell_length_b 14.746641
_cell_length_c 9.311296
_cell_angle_alpha 90.000000
_cell_angle_beta 90.000000
_cell_angle_gamma 90.000000
_cell_volume 3156.481843
_symmetry_space_group_name_H-M "P M M N"
_symmetry_group_IT_number 59
_space_group.IT_coordinate_system_code '2'
_symmetry_cell_setting 'orthorhombic'
loop_
_space_group_symop_operation_xyz
x,y,z
1/2-x,1/2-y,z
1/2+x,-y,-z
-x,1/2+y,-z
-x,-y,-z
1/2+x,1/2+y,-z
1/2-x,y,z
x,1/2-y,z
loop_
_atom_site_type_symbol
_atom_site_label
_atom_site_fract_x
_atom_site_fract_y
_atom_site_fract_z
Si Si1 0.145163 0.847736 0.543019
Si Si2 0.088303 0.348739 0.361769
Si Si3 0.984034 0.401319 0.557521
Si Si4 0.813172 0.992104 0.616369
Si Si5 0.971062 0.531610 0.148082
Si Si6 0.886186 0.644021 0.965172
Si Si7 0.183216 0.535569 0.061463
Si Si8 0.100580 0.853834 0.852947
O O1 0.164995 0.750000 0.488161
O O2 0.080113 0.866946 0.480363
O O3 0.184472 0.931074 0.501438
O O4 0.140307 0.844330 0.713647
O O5 0.116545 0.250000 0.370466
O O6 0.133973 0.424288 0.408657
O O7 0.079900 0.364824 0.189510
O O8 0.032507 0.347358 0.465375
O O9 0.000000 0.500000 0.500000
O O10 0.992210 0.418077 0.728556
O O11 0.750000 0.946359 0.622983
O O12 0.822009 0.043803 0.767224
O O13 0.943449 0.434829 0.195308
O O14 0.924714 0.606590 0.095641
O O15 0.000000 0.500000 0.000000
O O16 0.870949 0.750000 0.980852
O O17 0.834269 0.570469 0.960824
O O18 0.250000 0.552206 0.018377
O O19 0.137840 0.601180 0.981312
O O20 0.078168 0.750000 0.884142
#
# Coordination Sequence:
#
# PCOD9451504 Si02
#       8
#     8   8   8   8   8   8   8   8
#     4  11  24  40  60  87 116 155 200 242 294 349
#     4  10  20  37  61  88 118 157 197 239 293 354
#     4  12  21  38  61  85 120 156 193 242 293 350
#     4  10  21  39  60  85 118 152 194 249 297 346
#     4  11  23  37  57  84 117 154 189 232 290 345
#     4   9  20  36  57  86 119 151 191 239 289 348
#     4   9  20  38  60  84 113 152 195 240 292 345
#     4  10  22  39  57  81 112 148 193 238 282 344
#
# _framework density 20.275739000000002
#
# number of rings (size 3 to 8) (size 9 to 14) (size 15 to 20)
#    0.000    1.750    2.500    1.125    3.500    3.500 
#    0.000    5.000    0.000    0.000    0.000    3.500 
#    0.000    0.000    0.000    0.000    0.000    0.000 
#
# Total GULP energy -356489.633237 kJ/mol
# GULP energy per Si atom -5570.150519 kJ/mol
# Density = 2.022959 g / cm^3
# Si number density = 20.275739 Si / 1000 Ang^3
#
#
#
# Elastic Constant Matrix: (Units=GPa)
#
#
# Indices 1 2 3 4 5 6 
#
# 1 51.7281 0.9446 8.2139 0.0000 0.0000 0.0000
# 2 0.9446 120.2168 11.5151 0.0000 0.0000 0.0000
# 3 8.2139 11.5151 56.5378 0.0000 0.0000 0.0000
# 4 0.0000 0.0000 0.0000 20.7537 0.0000 0.0000
# 5 0.0000 0.0000 0.0000 0.0000 17.7192 0.0000
# 6 0.0000 0.0000 0.0000 0.0000 0.0000 3.0908
#
#
#
# Elastic Compliance Matrix: (Units=1/GPa)
#
#
# Indices 1 2 3 4 5 6 
#
# 1 0.019790 0.000122 -0.002900 0.000000 0.000000 0.000000
# 2 0.000122 0.008485 -0.001746 0.000000 0.000000 0.000000
# 3 -0.002900 -0.001746 0.018464 0.000000 0.000000 0.000000
# 4 0.000000 0.000000 0.000000 0.048184 0.000000 0.000000
# 5 0.000000 0.000000 0.000000 0.000000 0.056436 0.000000
# 6 0.000000 0.000000 0.000000 0.000000 0.000000 0.323545
#
#
# Mechanical properties :
#
#
# Convention : Reuss Voigt Hill
#
# Bulk Modulus (GPa) = 26.53105 29.98111 28.25608
# Shear Modulus (GPa) = 10.07020 22.16669 16.11844
#
# Velocity S-wave (km/s) = 2.23101 3.31004 2.82257
# Velocity P-wave (km/s) = 4.44411 5.42469 4.95870
#
# Compressibility (1/GPa) = 0.03769168
#
# Stress axis : x y z
#
# Youngs Moduli (GPa) = 50.53030 117.86101 54.15892
#
# Poissons Ratio (x) = -0.01441 0.15706
# Poissons Ratio (y) = -0.00618 0.09455
# Poissons Ratio (z) = 0.14654 0.20576
#
# Static dielectric constant tensor:
#      x y z
#    x 1.753730 0.000000 0.000000 
#    y 0.000000 1.794710 0.000000 
#    z 0.000000 0.000000 1.865330 
# 
# From -- ./inp_files/12221.got.cif
#   From: 2010.05.17/outbox.cif.g08.bks.cpg/sg59_7_cif.got.tgz:12221.got - 2010.06.03 14:40:33.
