data_PCOD9451219
_publ_section_title
;
Structure prediction by ZEFSAII (Michael W. Deem and Ramdas Pophale) SiO2 
 PCOD9451219
Probable space group: P M M N
;
_chemical_formula_sum "Si O2"
_cell_formula_units_Z 48
_cell_length_a 8.908838
_cell_length_b 31.258455
_cell_length_c 9.792162
_cell_angle_alpha 90.000000
_cell_angle_beta 90.000000
_cell_angle_gamma 90.000000
_cell_volume 2726.887116
_symmetry_space_group_name_H-M "P M M N"
_symmetry_group_IT_number 59
_space_group.IT_coordinate_system_code '2'
_symmetry_cell_setting 'orthorhombic'
loop_
_space_group_symop_operation_xyz
x,y,z
1/2-x,1/2-y,z
1/2+x,-y,-z
-x,1/2+y,-z
-x,-y,-z
1/2+x,1/2+y,-z
1/2-x,y,z
x,1/2-y,z
loop_
_atom_site_type_symbol
_atom_site_label
_atom_site_fract_x
_atom_site_fract_y
_atom_site_fract_z
Si Si1 0.929038 0.513433 0.645107
Si Si2 0.072700 0.139252 0.571968
Si Si3 0.427733 0.605467 0.691947
Si Si4 0.428653 0.871422 0.999640
Si Si5 0.430865 0.200329 0.815419
Si Si6 0.927813 0.935935 0.206942
O O1 0.750000 0.512060 0.635261
O O2 0.000000 0.500000 0.500000
O O3 0.984663 0.560799 0.680026
O O4 0.988542 0.479474 0.755812
O O5 0.250000 0.141831 0.540278
O O6 0.030994 0.178815 0.669575
O O7 0.050783 0.096995 0.666005
O O8 0.979953 0.134353 0.434511
O O9 0.250000 0.596991 0.682234
O O10 0.458919 0.626254 0.838763
O O11 0.250000 0.873848 0.021488
O O12 0.492542 0.828781 0.069870
O O13 0.506207 0.911265 0.076764
O O14 0.250000 0.196337 0.829610
O O15 0.471509 0.250000 0.822470
O O16 0.750000 0.943046 0.191471
#
# Coordination Sequence:
#
# PCOD9451219 Si02
#       6
#     8   8   8   8   8   8
#     4  12  23  35  55  81 111 149 193 238 281 326
#     4   9  18  33  56  82 109 140 180 228 277 328
#     4  11  23  37  54  79 114 152 189 230 279 332
#     4  10  22  38  56  82 115 151 187 229 283 336
#     4   9  19  38  63  87 110 140 181 228 279 341
#     4  10  20  36  57  81 109 147 192 235 276 326
#
# _framework density 17.602488999999998
#
# number of rings (size 3 to 8) (size 9 to 14) (size 15 to 20)
#    0.000    1.833    1.667    4.000    0.000    6.333 
#    0.000    0.833    0.000    3.000    0.000    0.000 
#    0.000    0.000    0.000    0.000    0.000    0.000 
#
# Total GULP energy -268114.418013 kJ/mol
# GULP energy per Si atom -5585.717042 kJ/mol
# Density = 1.756242 g / cm^3
# Si number density = 17.602489 Si / 1000 Ang^3
#
#
#
# Elastic Constant Matrix: (Units=GPa)
#
#
# Indices 1 2 3 4 5 6 
#
# 1 95.7710 55.6961 76.7713 0.0000 0.0000 0.0000
# 2 55.6961 109.1056 53.7960 0.0000 0.0000 0.0000
# 3 76.7713 53.7960 121.3555 0.0000 0.0000 0.0000
# 4 0.0000 0.0000 0.0000 14.4169 0.0000 0.0000
# 5 0.0000 0.0000 0.0000 0.0000 30.1534 0.0000
# 6 0.0000 0.0000 0.0000 0.0000 0.0000 26.5409
#
#
#
# Elastic Compliance Matrix: (Units=1/GPa)
#
#
# Indices 1 2 3 4 5 6 
#
# 1 0.023981 -0.006094 -0.012470 0.000000 0.000000 0.000000
# 2 -0.006094 0.013277 -0.002031 0.000000 0.000000 0.000000
# 3 -0.012470 -0.002031 0.017029 0.000000 0.000000 0.000000
# 4 0.000000 0.000000 0.000000 0.069363 0.000000 0.000000
# 5 0.000000 0.000000 0.000000 0.000000 0.033164 0.000000
# 6 0.000000 0.000000 0.000000 0.000000 0.000000 0.037678
#
#
# Mechanical properties :
#
#
# Convention : Reuss Voigt Hill
#
# Bulk Modulus (GPa) = 76.33922 77.63988 76.98955
# Shear Modulus (GPa) = 20.82927 23.55346 22.19136
#
# Velocity S-wave (km/s) = 3.44366 3.66194 3.55448
# Velocity P-wave (km/s) = 7.69898 7.87927 7.78965
#
# Compressibility (1/GPa) = 0.01309943
#
# Stress axis : x y z
#
# Youngs Moduli (GPa) = 41.69953 75.31575 58.72343
#
# Poissons Ratio (x) = 0.45894 0.73226
# Poissons Ratio (y) = 0.25410 0.11926
# Poissons Ratio (z) = 0.51998 0.15296
#
# Static dielectric constant tensor:
#      x y z
#    x 1.587090 0.000000 0.000000 
#    y 0.000000 1.579280 0.000000 
#    z 0.000000 0.000000 1.592530 
# 
# From -- ./inp_files/6260.got.cif
#   From: 2010.05.17/outbox.cif.g08.bks.cpg/sg59_4_cif.got.tgz:6260.got - 2010.06.03 14:40:33.
