data_PCOD9451865
_publ_section_title
;
Structure prediction by ZEFSAII (Michael W. Deem and Ramdas Pophale) SiO2 
 PCOD9451865
Probable space group: P M M N
;
_chemical_formula_sum "Si O2"
_cell_formula_units_Z 48
_cell_length_a 9.560691
_cell_length_b 7.830871
_cell_length_c 32.112711
_cell_angle_alpha 90.000000
_cell_angle_beta 90.000000
_cell_angle_gamma 90.000000
_cell_volume 2404.231720
_symmetry_space_group_name_H-M "P M M N"
_symmetry_group_IT_number 59
_space_group.IT_coordinate_system_code '2'
_symmetry_cell_setting 'orthorhombic'
loop_
_space_group_symop_operation_xyz
x,y,z
1/2-x,1/2-y,z
1/2+x,-y,-z
-x,1/2+y,-z
-x,-y,-z
1/2+x,1/2+y,-z
1/2-x,y,z
x,1/2-y,z
loop_
_atom_site_type_symbol
_atom_site_label
_atom_site_fract_x
_atom_site_fract_y
_atom_site_fract_z
Si Si1 0.910398 0.956051 0.459339
Si Si2 0.912803 0.041664 0.868606
Si Si3 0.910244 0.453041 0.302369
Si Si4 0.409841 0.043890 0.790327
Si Si5 0.591169 0.453550 0.618580
Si Si6 0.909319 0.455220 0.960191
O O1 0.750000 0.019207 0.461421
O O2 0.903287 0.750000 0.456570
O O3 0.993900 0.021232 0.418796
O O4 0.000000 0.000000 0.500000
O O5 0.750000 0.994590 0.864886
O O6 0.918606 0.250000 0.867926
O O7 0.962595 0.986205 0.914657
O O8 0.999970 0.979926 0.829134
O O9 0.750000 0.520803 0.306986
O O10 0.903731 0.250000 0.306310
O O11 0.960315 0.495724 0.255734
O O12 0.012772 0.518579 0.337904
O O13 0.250000 0.982562 0.793834
O O14 0.408477 0.250000 0.792215
O O15 0.750000 0.522298 0.618112
O O16 0.601324 0.250000 0.612295
O O17 0.750000 0.518006 0.965142
O O18 0.903868 0.250000 0.958088
O O19 0.000000 0.500000 0.000000
#
# Coordination Sequence:
#
# PCOD9451865 Si02
#       6
#     8   8   8   8   8   8
#     4  10  21  37  58  83 110 141 176 214 257 304
#     4   8  15  29  48  69  94 124 160 203 248 295
#     4  10  21  36  53  75 105 139 171 206 253 305
#     4   9  17  30  50  74  97 125 165 209 250 296
#     4  10  21  37  57  80 105 136 176 218 257 300
#     4   9  18  32  49  71  99 130 165 205 249 298
#
# _framework density 19.964796
#
# number of rings (size 3 to 8) (size 9 to 14) (size 15 to 20)
#    0.000    2.667    0.000    2.500    0.000    5.333 
#    0.000    4.167    0.000    3.000    0.000    0.000 
#    0.000    0.000    0.000    0.000    0.000    0.000 
#
# Total GULP energy -267780.618828 kJ/mol
# GULP energy per Si atom -5578.762892 kJ/mol
# Density = 1.991936 g / cm^3
# Si number density = 19.964796 Si / 1000 Ang^3
#
#
#
# Elastic Constant Matrix: (Units=GPa)
#
#
# Indices 1 2 3 4 5 6 
#
# 1 134.8815 7.6594 124.9079 0.0000 0.0000 0.0000
# 2 7.6594 21.0361 -0.5273 0.0000 0.0000 0.0000
# 3 124.9079 -0.5273 219.6052 0.0000 0.0000 0.0000
# 4 0.0000 0.0000 0.0000 24.4566 0.0000 0.0000
# 5 0.0000 0.0000 0.0000 0.0000 41.7481 0.0000
# 6 0.0000 0.0000 0.0000 0.0000 0.0000 16.4688
#
#
#
# Elastic Compliance Matrix: (Units=1/GPa)
#
#
# Indices 1 2 3 4 5 6 
#
# 1 0.016441 -0.006221 -0.009366 0.000000 0.000000 0.000000
# 2 -0.006221 0.049894 0.003658 0.000000 0.000000 0.000000
# 3 -0.009366 0.003658 0.009890 0.000000 0.000000 0.000000
# 4 0.000000 0.000000 0.000000 0.040889 0.000000 0.000000
# 5 0.000000 0.000000 0.000000 0.000000 0.023953 0.000000
# 6 0.000000 0.000000 0.000000 0.000000 0.000000 0.060721
#
#
# Mechanical properties :
#
#
# Convention : Reuss Voigt Hill
#
# Bulk Modulus (GPa) = 19.09609 71.06698 45.08154
# Shear Modulus (GPa) = 20.56756 32.76687 26.66722
#
# Velocity S-wave (km/s) = 3.21314 4.05561 3.65870
# Velocity P-wave (km/s) = 4.83232 7.58973 6.36221
#
# Compressibility (1/GPa) = 0.05236673
#
# Stress axis : x y z
#
# Youngs Moduli (GPa) = 60.82409 20.04242 101.11452
#
# Poissons Ratio (x) = 0.12468 0.94706
# Poissons Ratio (y) = 0.37839 -0.36990
# Poissons Ratio (z) = 0.56969 -0.07332
#
# Static dielectric constant tensor:
#      x y z
#    x 1.698740 0.000000 0.000000 
#    y 0.000000 1.742960 0.000000 
#    z 0.000000 0.000000 1.689460 
# 
# From -- ./inp_files/32842.got.cif
#   From: 2010.05.17/outbox.cif.g08.bks.cpg/sg59_17_cif.got.tgz:32842.got - 2010.06.03 14:40:33.
