data_PCOD9451196
_publ_section_title
;
Structure prediction by ZEFSAII (Michael W. Deem and Ramdas Pophale) SiO2 
 PCOD9451196
Probable space group: P M M N
;
_chemical_formula_sum "Si O2"
_cell_formula_units_Z 48
_cell_length_a 8.655595
_cell_length_b 15.673190
_cell_length_c 19.615198
_cell_angle_alpha 90.000000
_cell_angle_beta 90.000000
_cell_angle_gamma 90.000000
_cell_volume 2661.013159
_symmetry_space_group_name_H-M "P M M N"
_symmetry_group_IT_number 59
_space_group.IT_coordinate_system_code '2'
_symmetry_cell_setting 'orthorhombic'
loop_
_space_group_symop_operation_xyz
x,y,z
1/2-x,1/2-y,z
1/2+x,-y,-z
-x,1/2+y,-z
-x,-y,-z
1/2+x,1/2+y,-z
1/2-x,y,z
x,1/2-y,z
loop_
_atom_site_type_symbol
_atom_site_label
_atom_site_fract_x
_atom_site_fract_y
_atom_site_fract_z
Si Si1 0.574959 0.750000 0.785061
Si Si2 0.433521 0.491009 0.664817
Si Si3 0.573901 0.750000 0.950375
Si Si4 0.432578 0.848775 0.434392
Si Si5 0.434300 0.152194 0.414586
Si Si6 0.563347 0.936163 0.795162
Si Si7 0.065868 0.568015 0.947049
O O1 0.750000 0.750000 0.756985
O O2 0.582471 0.750000 0.867649
O O3 0.505452 0.842165 0.769650
O O4 0.250000 0.484036 0.667907
O O5 0.503238 0.413969 0.620920
O O6 0.482122 0.578625 0.627255
O O7 0.504510 0.496437 0.740452
O O8 0.750000 0.750000 0.975788
O O9 0.488237 0.837113 0.968688
O O10 0.250000 0.864089 0.445528
O O11 0.452249 0.750000 0.413233
O O12 0.520255 0.859284 0.506213
O O13 0.250000 0.143188 0.406129
O O14 0.476702 0.250000 0.395261
O O15 0.750000 0.933174 0.796901
O O16 0.501753 0.948806 0.871411
O O17 0.250000 0.564277 0.944449
O O18 0.000000 0.500000 0.000000
#
# Coordination Sequence:
#
# PCOD9451196 Si02
#       7
#     4   8   4   8   8   8   8
#     4   7  14  29  51  75 105 141 174 213 266 325
#     4  12  24  36  54  82 116 149 185 229 281 338
#     4   9  17  33  55  83 113 147 186 227 274 327
#     4  10  21  39  61  81 104 141 190 238 283 332
#     4  10  21  37  57  82 113 148 186 229 280 332
#     4  10  20  36  56  82 114 149 189 231 281 335
#     4  11  21  36  59  87 118 153 192 233 282 337
#
# _framework density 18.038242
#
# number of rings (size 3 to 8) (size 9 to 14) (size 15 to 20)
#    0.000    1.833    0.000    6.250    1.167    2.000 
#    0.000    0.833    1.833    0.000    0.000    0.000 
#    0.000    0.000    0.000    0.000    0.000    0.000 
#
# Total GULP energy -268072.571812 kJ/mol
# GULP energy per Si atom -5584.845246 kJ/mol
# Density = 1.799719 g / cm^3
# Si number density = 18.038242 Si / 1000 Ang^3
#
#
#
# Elastic Constant Matrix: (Units=GPa)
#
#
# Indices 1 2 3 4 5 6 
#
# 1 96.8360 35.6653 26.1727 0.0000 0.0000 0.0000
# 2 35.6653 85.6528 56.9645 0.0000 0.0000 0.0000
# 3 26.1727 56.9645 81.5368 0.0000 0.0000 0.0000
# 4 0.0000 0.0000 0.0000 32.9122 0.0000 0.0000
# 5 0.0000 0.0000 0.0000 0.0000 28.4909 0.0000
# 6 0.0000 0.0000 0.0000 0.0000 0.0000 25.5664
#
#
#
# Elastic Compliance Matrix: (Units=1/GPa)
#
#
# Indices 1 2 3 4 5 6 
#
# 1 0.012218 -0.004631 -0.000687 0.000000 0.000000 0.000000
# 2 -0.004631 0.023563 -0.014975 0.000000 0.000000 0.000000
# 3 -0.000687 -0.014975 0.022947 0.000000 0.000000 0.000000
# 4 0.000000 0.000000 0.000000 0.030384 0.000000 0.000000
# 5 0.000000 0.000000 0.000000 0.000000 0.035099 0.000000
# 6 0.000000 0.000000 0.000000 0.000000 0.000000 0.039114
#
#
# Mechanical properties :
#
#
# Convention : Reuss Voigt Hill
#
# Bulk Modulus (GPa) = 55.11992 55.73672 55.42832
# Shear Modulus (GPa) = 23.81435 27.07544 25.44489
#
# Velocity S-wave (km/s) = 3.63742 3.87848 3.75988
# Velocity P-wave (km/s) = 6.94728 7.14304 7.04584
#
# Compressibility (1/GPa) = 0.01814226
#
# Stress axis : x y z
#
# Youngs Moduli (GPa) = 81.84741 42.43973 43.57847
#
# Poissons Ratio (x) = 0.19653 0.02992
# Poissons Ratio (y) = 0.37902 0.65260
# Poissons Ratio (z) = 0.05620 0.63555
#
# Static dielectric constant tensor:
#      x y z
#    x 1.594660 0.000000 0.000000 
#    y 0.000000 1.624190 0.000000 
#    z 0.000000 0.000000 1.610250 
# 
# From -- ./inp_files/25514.got.cif
#   From: 2010.05.17/outbox.cif.g08.bks.cpg/sg59_13_cif.got.tgz:25514.got - 2010.06.03 14:40:33.
