data_PCOD9451681
_publ_section_title
;
Structure prediction by ZEFSAII (Michael W. Deem and Ramdas Pophale) SiO2 
 PCOD9451681
Probable space group: P M M N
;
_chemical_formula_sum "Si O2"
_cell_formula_units_Z 64
_cell_length_a 8.934934
_cell_length_b 18.989484
_cell_length_c 21.548134
_cell_angle_alpha 90.000000
_cell_angle_beta 90.000000
_cell_angle_gamma 90.000000
_cell_volume 3656.067290
_symmetry_space_group_name_H-M "P M M N"
_symmetry_group_IT_number 59
_space_group.IT_coordinate_system_code '2'
_symmetry_cell_setting 'orthorhombic'
loop_
_space_group_symop_operation_xyz
x,y,z
1/2-x,1/2-y,z
1/2+x,-y,-z
-x,1/2+y,-z
-x,-y,-z
1/2+x,1/2+y,-z
1/2-x,y,z
x,1/2-y,z
loop_
_atom_site_type_symbol
_atom_site_label
_atom_site_fract_x
_atom_site_fract_y
_atom_site_fract_z
Si Si1 0.427376 0.332346 0.618001
Si Si2 0.571774 0.963382 0.190636
Si Si3 0.930051 0.596930 0.749903
Si Si4 0.069116 0.422805 0.498074
Si Si5 0.929966 0.830755 0.880509
Si Si6 0.428545 0.831036 0.249455
Si Si7 0.067516 0.168807 0.379043
Si Si8 0.571401 0.036103 0.059760
O O1 0.250000 0.342563 0.630150
O O2 0.448480 0.250000 0.601801
O O3 0.471711 0.380386 0.560302
O O4 0.517119 0.347163 0.680639
O O5 0.750000 0.961468 0.197563
O O6 0.503083 0.887715 0.204815
O O7 0.504073 0.021537 0.237352
O O8 0.535630 0.990656 0.121490
O O9 0.750000 0.588400 0.748121
O O10 0.965543 0.645221 0.809875
O O11 0.978223 0.633482 0.686005
O O12 0.250000 0.427685 0.496221
O O13 0.020898 0.378294 0.437635
O O14 0.000000 0.500000 0.500000
O O15 0.750000 0.835550 0.887203
O O16 0.974940 0.750000 0.890512
O O17 0.006420 0.886509 0.926080
O O18 0.250000 0.836068 0.246006
O O19 0.472727 0.750000 0.236232
O O20 0.250000 0.170104 0.379179
O O21 0.017809 0.250000 0.383704
O O22 0.750000 0.039446 0.053404
O O23 0.500000 0.000000 0.000000
#
# Coordination Sequence:
#
# PCOD9451681 Si02
#       8
#     8   8   8   8   8   8   8   8
#     4   9  18  34  54  73  97 135 178 219 267 319
#     4  10  21  36  55  80 110 142 173 210 258 314
#     4   9  17  30  52  81 108 137 173 216 262 309
#     4  10  21  34  49  72 101 136 175 220 264 313
#     4   9  17  31  53  81 112 144 179 219 262 311
#     4  10  21  36  56  81 105 132 173 225 274 319
#     4   9  17  31  52  76 101 132 173 217 260 309
#     4  10  21  37  57  81 110 146 184 220 260 308
#
# _framework density 17.505148999999999
#
# number of rings (size 3 to 8) (size 9 to 14) (size 15 to 20)
#    0.000    2.500    0.000    1.875    1.750    6.000 
#    0.000    0.625    0.000    3.750    0.000    0.000 
#    0.000    0.000    0.000    0.000    0.000    0.000 
#
# Total GULP energy -357123.899642 kJ/mol
# GULP energy per Si atom -5580.060932 kJ/mol
# Density = 1.746531 g / cm^3
# Si number density = 17.505149 Si / 1000 Ang^3
#
#
#
# Elastic Constant Matrix: (Units=GPa)
#
#
# Indices 1 2 3 4 5 6 
#
# 1 23.5608 50.2442 37.4729 0.0000 0.0000 0.0000
# 2 50.2442 154.8429 91.8065 0.0000 0.0000 0.0000
# 3 37.4729 91.8065 89.5324 0.0000 0.0000 0.0000
# 4 0.0000 0.0000 0.0000 28.1589 0.0000 0.0000
# 5 0.0000 0.0000 0.0000 0.0000 19.3535 0.0000
# 6 0.0000 0.0000 0.0000 0.0000 0.0000 29.9430
#
#
#
# Elastic Compliance Matrix: (Units=1/GPa)
#
#
# Indices 1 2 3 4 5 6 
#
# 1 0.179355 -0.034922 -0.039259 0.000000 0.000000 0.000000
# 2 -0.034922 0.023273 -0.009248 0.000000 0.000000 0.000000
# 3 -0.039259 -0.009248 0.037083 0.000000 0.000000 0.000000
# 4 0.000000 0.000000 0.000000 0.035513 0.000000 0.000000
# 5 0.000000 0.000000 0.000000 0.000000 0.051670 0.000000
# 6 0.000000 0.000000 0.000000 0.000000 0.000000 0.033397
#
#
# Mechanical properties :
#
#
# Convention : Reuss Voigt Hill
#
# Bulk Modulus (GPa) = 13.72590 69.66481 41.69536
# Shear Modulus (GPa) = 9.06730 21.38526 15.22628
#
# Velocity S-wave (km/s) = 2.27838 3.49901 2.95247
# Velocity P-wave (km/s) = 3.84441 7.49715 5.95763
#
# Compressibility (1/GPa) = 0.07285495
#
# Stress axis : x y z
#
# Youngs Moduli (GPa) = 5.57552 42.96888 26.96644
#
# Poissons Ratio (x) = 1.50054 1.05867
# Poissons Ratio (y) = 0.19471 0.24938
# Poissons Ratio (z) = 0.21889 0.39736
#
# Static dielectric constant tensor:
#      x y z
#    x 1.588490 0.000000 0.000000 
#    y 0.000000 1.579840 0.000000 
#    z 0.000000 0.000000 1.576860 
# 
# From -- ./inp_files/29445.got.cif
#   From: 2010.05.17/outbox.cif.g08.bks.cpg/sg59_15_cif.got.tgz:29445.got - 2010.06.03 14:40:33.
