data_PCOD9451723
_publ_section_title
;
Structure prediction by ZEFSAII (Michael W. Deem and Ramdas Pophale) SiO2 
 PCOD9451723
Probable space group: P M M N
;
_chemical_formula_sum "Si O2"
_cell_formula_units_Z 64
_cell_length_a 30.762116
_cell_length_b 8.826490
_cell_length_c 14.868378
_cell_angle_alpha 90.000000
_cell_angle_beta 90.000000
_cell_angle_gamma 90.000000
_cell_volume 4037.084435
_symmetry_space_group_name_H-M "P M M N"
_symmetry_group_IT_number 59
_space_group.IT_coordinate_system_code '2'
_symmetry_cell_setting 'orthorhombic'
loop_
_space_group_symop_operation_xyz
x,y,z
1/2-x,1/2-y,z
1/2+x,-y,-z
-x,1/2+y,-z
-x,-y,-z
1/2+x,1/2+y,-z
1/2-x,y,z
x,1/2-y,z
loop_
_atom_site_type_symbol
_atom_site_label
_atom_site_fract_x
_atom_site_fract_y
_atom_site_fract_z
Si Si1 0.200002 0.932171 0.144505
Si Si2 0.116308 0.071557 0.068508
Si Si3 0.027461 0.425182 0.759313
Si Si4 0.959784 0.567725 0.443263
Si Si5 0.423265 0.923429 0.241906
Si Si6 0.384821 0.069393 0.420228
Si Si7 0.699708 0.068033 0.644885
Si Si8 0.457857 0.570145 0.949173
O O1 0.250000 0.974649 0.125745
O O2 0.196775 0.750000 0.138053
O O3 0.191102 0.971674 0.249770
O O4 0.164995 0.008553 0.080012
O O5 0.116294 0.250000 0.053135
O O6 0.094181 0.030095 0.163697
O O7 0.085897 0.990186 0.995818
O O8 0.042203 0.250000 0.769587
O O9 0.040614 0.483200 0.660501
O O10 0.041765 0.520410 0.845306
O O11 0.975142 0.423698 0.759747
O O12 0.965821 0.750000 0.441843
O O13 0.914524 0.534299 0.493479
O O14 0.000000 0.500000 0.500000
O O15 0.408070 0.750000 0.226619
O O16 0.407002 0.983134 0.337036
O O17 0.386312 0.250000 0.405894
O O18 0.335233 0.013230 0.417915
O O19 0.750000 0.029843 0.626056
O O20 0.695138 0.250000 0.637689
O O21 0.460605 0.750000 0.958533
O O22 0.500000 0.500000 0.000000
#
# Coordination Sequence:
#
# PCOD9451723 Si02
#       8
#     8   8   8   8   8   8   8   8
#     4   9  18  33  52  74 103 137 171 208 253 304
#     4  12  23  34  51  76 105 137 173 211 253 306
#     4  10  21  37  53  71 100 138 175 216 256 295
#     4  10  21  35  51  73 103 136 172 209 252 299
#     4  11  20  31  50  71 101 140 175 210 251 298
#     4  11  21  31  48  76 105 135 172 212 252 300
#     4   9  18  32  50  71  99 136 172 207 252 305
#     4  12  24  37  54  75 101 135 174 215 257 306
#
# _framework density 15.853024
#
# number of rings (size 3 to 8) (size 9 to 14) (size 15 to 20)
#    0.000    1.500    3.750    3.750    0.000    2.000 
#    0.000    1.250    0.000    0.000    0.000    0.875 
#    0.000    5.000    0.000    0.000    0.000    0.000 
#
# Total GULP energy -357273.965411 kJ/mol
# GULP energy per Si atom -5582.405710 kJ/mol
# Density = 1.581694 g / cm^3
# Si number density = 15.853024 Si / 1000 Ang^3
#
#
#
# Elastic Constant Matrix: (Units=GPa)
#
#
# Indices 1 2 3 4 5 6 
#
# 1 116.2569 46.3850 55.1029 0.0000 0.0000 0.0000
# 2 46.3850 74.0664 38.8881 0.0000 0.0000 0.0000
# 3 55.1029 38.8881 101.9827 0.0000 0.0000 0.0000
# 4 0.0000 0.0000 0.0000 21.0787 0.0000 0.0000
# 5 0.0000 0.0000 0.0000 0.0000 22.1557 0.0000
# 6 0.0000 0.0000 0.0000 0.0000 0.0000 22.6048
#
#
#
# Elastic Compliance Matrix: (Units=1/GPa)
#
#
# Indices 1 2 3 4 5 6 
#
# 1 0.013225 -0.005665 -0.004986 0.000000 0.000000 0.000000
# 2 -0.005665 0.019307 -0.004302 0.000000 0.000000 0.000000
# 3 -0.004986 -0.004302 0.014140 0.000000 0.000000 0.000000
# 4 0.000000 0.000000 0.000000 0.047441 0.000000 0.000000
# 5 0.000000 0.000000 0.000000 0.000000 0.045135 0.000000
# 6 0.000000 0.000000 0.000000 0.000000 0.000000 0.044238
#
#
# Mechanical properties :
#
#
# Convention : Reuss Voigt Hill
#
# Bulk Modulus (GPa) = 59.63616 63.67311 61.65463
# Shear Modulus (GPa) = 22.83317 23.29650 23.06484
#
# Velocity S-wave (km/s) = 3.79925 3.83760 3.81848
# Velocity P-wave (km/s) = 7.54623 7.73874 7.64309
#
# Compressibility (1/GPa) = 0.01676835
#
# Stress axis : x y z
#
# Youngs Moduli (GPa) = 75.61590 51.79345 70.72299
#
# Poissons Ratio (x) = 0.29339 0.35259
# Poissons Ratio (y) = 0.42833 0.30423
# Poissons Ratio (z) = 0.37699 0.22280
#
# Static dielectric constant tensor:
#      x y z
#    x 1.541630 0.000000 0.000000 
#    y 0.000000 1.538260 0.000000 
#    z 0.000000 0.000000 1.517040 
# 
# From -- ./inp_files/25108.got.cif
#   From: 2010.05.17/outbox.cif.g08.bks.cpg/sg59_13_cif.got.tgz:25108.got - 2010.06.03 14:40:33.
