data_PCOD9451746
_publ_section_title
;
Structure prediction by ZEFSAII (Michael W. Deem and Ramdas Pophale) SiO2 
 PCOD9451746
Probable space group: P M M N
;
_chemical_formula_sum "Si O2"
_cell_formula_units_Z 64
_cell_length_a 20.880115
_cell_length_b 7.840094
_cell_length_c 19.195710
_cell_angle_alpha 90.000000
_cell_angle_beta 90.000000
_cell_angle_gamma 90.000000
_cell_volume 3142.377353
_symmetry_space_group_name_H-M "P M M N"
_symmetry_group_IT_number 59
_space_group.IT_coordinate_system_code '2'
_symmetry_cell_setting 'orthorhombic'
loop_
_space_group_symop_operation_xyz
x,y,z
1/2-x,1/2-y,z
1/2+x,-y,-z
-x,1/2+y,-z
-x,-y,-z
1/2+x,1/2+y,-z
1/2-x,y,z
x,1/2-y,z
loop_
_atom_site_type_symbol
_atom_site_label
_atom_site_fract_x
_atom_site_fract_y
_atom_site_fract_z
Si Si1 0.321961 0.544331 0.946063
Si Si2 0.061769 0.450838 0.044647
Si Si3 0.822994 0.043512 0.213503
Si Si4 0.823260 0.958345 0.695094
Si Si5 0.431694 0.451444 0.200357
Si Si6 0.949625 0.950524 0.291697
Si Si7 0.177306 0.041758 0.464096
Si Si8 0.057317 0.044362 0.551743
O O1 0.250000 0.485802 0.963831
O O2 0.321303 0.750000 0.944845
O O3 0.336167 0.489345 0.866571
O O4 0.375020 0.489620 0.000480
O O5 0.056734 0.250000 0.053560
O O6 0.064562 0.526677 0.122597
O O7 0.000000 0.500000 0.000000
O O8 0.750000 0.991873 0.230923
O O9 0.825078 0.250000 0.215208
O O10 0.877942 0.975764 0.263385
O O11 0.750000 0.008703 0.711180
O O12 0.824504 0.750000 0.694993
O O13 0.875380 0.021969 0.750156
O O14 0.838067 0.010567 0.615474
O O15 0.417628 0.250000 0.193865
O O16 0.499121 0.468592 0.239631
O O17 0.964216 0.750000 0.293120
O O18 0.954583 0.020390 0.370191
O O19 0.250000 0.988115 0.480272
O O20 0.176921 0.250000 0.464672
O O21 0.123684 0.982012 0.517767
O O22 0.061672 0.250000 0.556236
O O23 0.000000 0.000000 0.500000
#
# Coordination Sequence:
#
# PCOD9451746 Si02
#       8
#     8   8   8   8   8   8   8   8
#     4   9  19  37  59  81 107 140 177 218 266 321
#     4  11  23  36  53  78 106 139 180 224 270 321
#     4   9  19  37  59  80 104 139 181 218 257 315
#     4   8  14  27  50  77  99 123 163 211 252 296
#     4  10  21  36  54  75 102 139 177 215 263 318
#     4  11  23  35  51  79 110 139 176 223 270 314
#     4   8  14  27  49  74  98 127 163 201 244 296
#     4  10  21  35  52  76 105 138 175 215 259 309
#
# _framework density 20.366745000000002
#
# number of rings (size 3 to 8) (size 9 to 14) (size 15 to 20)
#    0.000    2.500    0.000    3.750    0.000    8.000 
#    0.000    3.750    0.000    0.750    0.000    3.500 
#    0.000    0.000    0.000    0.000    0.000    0.000 
#
# Total GULP energy -357284.724356 kJ/mol
# GULP energy per Si atom -5582.573818 kJ/mol
# Density = 2.032039 g / cm^3
# Si number density = 20.366745 Si / 1000 Ang^3
#
#
#
# Elastic Constant Matrix: (Units=GPa)
#
#
# Indices 1 2 3 4 5 6 
#
# 1 83.2256 -13.3700 57.8727 0.0000 0.0000 0.0000
# 2 -13.3700 19.4730 -5.7097 0.0000 0.0000 0.0000
# 3 57.8727 -5.7097 114.1478 0.0000 0.0000 0.0000
# 4 0.0000 0.0000 0.0000 9.6027 0.0000 0.0000
# 5 0.0000 0.0000 0.0000 0.0000 35.5488 0.0000
# 6 0.0000 0.0000 0.0000 0.0000 0.0000 18.9126
#
#
#
# Elastic Compliance Matrix: (Units=1/GPa)
#
#
# Indices 1 2 3 4 5 6 
#
# 1 0.020762 0.011335 -0.009959 0.000000 0.000000 0.000000
# 2 0.011335 0.058306 -0.002830 0.000000 0.000000 0.000000
# 3 -0.009959 -0.002830 0.013668 0.000000 0.000000 0.000000
# 4 0.000000 0.000000 0.000000 0.104137 0.000000 0.000000
# 5 0.000000 0.000000 0.000000 0.000000 0.028130 0.000000
# 6 0.000000 0.000000 0.000000 0.000000 0.000000 0.052875
#
#
# Mechanical properties :
#
#
# Convention : Reuss Voigt Hill
#
# Bulk Modulus (GPa) = 11.13261 32.71471 21.92366
# Shear Modulus (GPa) = 16.09116 24.68305 20.38711
#
# Velocity S-wave (km/s) = 2.81387 3.48505 3.16729
# Velocity P-wave (km/s) = 4.00438 5.68259 4.91563
#
# Compressibility (1/GPa) = 0.08982622
#
# Stress axis : x y z
#
# Youngs Moduli (GPa) = 48.16539 17.15102 73.16192
#
# Poissons Ratio (x) = -0.19440 0.72864
# Poissons Ratio (y) = -0.54594 0.20706
# Poissons Ratio (z) = 0.47969 0.04854
#
# Static dielectric constant tensor:
#      x y z
#    x 1.682500 0.000000 0.000000 
#    y 0.000000 1.756710 0.000000 
#    z 0.000000 0.000000 1.729080 
# 
# From -- ./inp_files/28210.got.cif
#   From: 2010.05.17/outbox.cif.g08.bks.cpg/sg59_15_cif.got.tgz:28210.got - 2010.06.03 14:40:33.
