data_PCOD9451313
_publ_section_title
;
Structure prediction by ZEFSAII (Michael W. Deem and Ramdas Pophale) SiO2 
 PCOD9451313
Probable space group: P M M N
;
_chemical_formula_sum "Si O2"
_cell_formula_units_Z 48
_cell_length_a 31.286317
_cell_length_b 8.900780
_cell_length_c 9.511798
_cell_angle_alpha 90.000000
_cell_angle_beta 90.000000
_cell_angle_gamma 90.000000
_cell_volume 2648.775354
_symmetry_space_group_name_H-M "P M M N"
_symmetry_group_IT_number 59
_space_group.IT_coordinate_system_code '2'
_symmetry_cell_setting 'orthorhombic'
loop_
_space_group_symop_operation_xyz
x,y,z
1/2-x,1/2-y,z
1/2+x,-y,-z
-x,1/2+y,-z
-x,-y,-z
1/2+x,1/2+y,-z
1/2-x,y,z
x,1/2-y,z
loop_
_atom_site_type_symbol
_atom_site_label
_atom_site_fract_x
_atom_site_fract_y
_atom_site_fract_z
Si Si1 0.327224 0.929019 0.162453
Si Si2 0.250000 0.071025 0.335492
Si Si3 0.250000 0.568844 0.643860
Si Si4 0.922729 0.929034 0.167260
Si Si5 0.918440 0.929892 0.838453
Si Si6 0.001038 0.930148 0.654410
Si Si7 0.331479 0.929927 0.833133
O O1 0.324074 0.750000 0.180979
O O2 0.291519 0.009282 0.254477
O O3 0.374701 0.986012 0.198891
O O4 0.320823 0.963039 0.996427
O O5 0.250000 0.250000 0.335092
O O6 0.250000 0.008955 0.493609
O O7 0.250000 0.750000 0.625941
O O8 0.207893 0.529178 0.733512
O O9 0.925404 0.750000 0.185051
O O10 0.958481 0.008544 0.259917
O O11 0.875308 0.986646 0.203993
O O12 0.929076 0.964473 0.001513
O O13 0.911381 0.750000 0.829340
O O14 0.957928 0.970722 0.739415
O O15 0.003126 0.750000 0.646040
O O16 0.000000 0.000000 0.500000
O O17 0.338343 0.750000 0.823561
#
# Coordination Sequence:
#
# PCOD9451313 Si02
#       7
#     8   4   4   8   8   8   8
#     4  10  20  37  62  87 110 141 184 230 276 328
#     4  12  25  38  54  80 116 152 185 224 272 326
#     4  10  21  38  58  80 110 146 183 224 270 324
#     4  10  20  36  59  85 112 143 182 227 276 330
#     4   9  20  38  59  84 112 143 182 229 278 327
#     4  11  23  38  56  80 113 150 187 228 275 328
#     4   9  19  37  61  86 110 140 182 230 277 326
#
# _framework density 18.121582
#
# number of rings (size 3 to 8) (size 9 to 14) (size 15 to 20)
#    0.000    2.000    0.000    3.250    0.000    6.000 
#    0.000    0.833    0.000    0.000    0.000    0.000 
#    0.000    0.000    0.000    0.000    0.000    0.000 
#
# Total GULP energy -268192.812167 kJ/mol
# GULP energy per Si atom -5587.350253 kJ/mol
# Density = 1.808034 g / cm^3
# Si number density = 18.121582 Si / 1000 Ang^3
#
#
#
# Elastic Constant Matrix: (Units=GPa)
#
#
# Indices 1 2 3 4 5 6 
#
# 1 190.4430 90.4404 132.5851 0.0000 0.0000 0.0000
# 2 90.4404 70.9247 75.8538 0.0000 0.0000 0.0000
# 3 132.5851 75.8538 129.6091 0.0000 0.0000 0.0000
# 4 0.0000 0.0000 0.0000 27.9057 0.0000 0.0000
# 5 0.0000 0.0000 0.0000 0.0000 -15.5112 0.0000
# 6 0.0000 0.0000 0.0000 0.0000 0.0000 23.9729
#
#
#
# Elastic Compliance Matrix: (Units=1/GPa)
#
#
# Indices 1 2 3 4 5 6 
#
# 1 0.020578 -0.009963 -0.015220 0.000000 0.000000 0.000000
# 2 -0.009963 0.042515 -0.014690 0.000000 0.000000 0.000000
# 3 -0.015220 -0.014690 0.031883 0.000000 0.000000 0.000000
# 4 0.000000 0.000000 0.000000 0.035835 0.000000 0.000000
# 5 0.000000 0.000000 0.000000 0.000000 -0.064470 0.000000
# 6 0.000000 0.000000 0.000000 0.000000 0.000000 0.041714
#
#
# Mechanical properties :
#
#
# Convention : Reuss Voigt Hill
#
# Bulk Modulus (GPa) = 65.66252 109.85951 87.76102
# Shear Modulus (GPa) = 25.92320 13.41333 19.66826
#
# Velocity S-wave (km/s) = 3.78632 2.72359 3.29804
# Velocity P-wave (km/s) = 7.44500 8.40510 7.93958
#
# Compressibility (1/GPa) = 0.01522939
#
# Stress axis : x y z
#
# Youngs Moduli (GPa) = 48.59485 23.52120 31.36516
#
# Poissons Ratio (x) = 0.23434 0.47738
# Poissons Ratio (y) = 0.48414 0.46076
# Poissons Ratio (z) = 0.73962 0.34553
#
# Static dielectric constant tensor:
#      x y z
#    x 1.588610 0.000000 0.000000 
#    y 0.000000 1.602060 0.000000 
#    z 0.000000 0.000000 1.598320 
# 
# From -- ./inp_files/6380.got.cif
#   From: 2010.05.17/outbox.cif.g08.bks.cpg/sg59_4_cif.got.tgz:6380.got - 2010.06.03 14:40:33.
