data_PCOD9451411
_publ_section_title
;
Structure prediction by ZEFSAII (Michael W. Deem and Ramdas Pophale) SiO2 
 PCOD9451411
Probable space group: P M M N
;
_chemical_formula_sum "Si O2"
_cell_formula_units_Z 64
_cell_length_a 20.018207
_cell_length_b 14.367780
_cell_length_c 11.742286
_cell_angle_alpha 90.000000
_cell_angle_beta 90.000000
_cell_angle_gamma 90.000000
_cell_volume 3377.283352
_symmetry_space_group_name_H-M "P M M N"
_symmetry_group_IT_number 59
_space_group.IT_coordinate_system_code '2'
_symmetry_cell_setting 'orthorhombic'
loop_
_space_group_symop_operation_xyz
x,y,z
1/2-x,1/2-y,z
1/2+x,-y,-z
-x,1/2+y,-z
-x,-y,-z
1/2+x,1/2+y,-z
1/2-x,y,z
x,1/2-y,z
loop_
_atom_site_type_symbol
_atom_site_label
_atom_site_fract_x
_atom_site_fract_y
_atom_site_fract_z
Si Si1 0.074244 0.359879 0.437941
Si Si2 0.825131 0.358684 0.994846
Si Si3 0.431966 0.142810 0.947097
Si Si4 0.170828 0.995682 0.553775
Si Si5 0.989016 0.639615 0.803766
Si Si6 0.571180 0.140487 0.813323
Si Si7 0.566950 0.362006 0.555029
Si Si8 0.624969 0.021174 0.190705
O O1 0.085214 0.250000 0.458231
O O2 0.134608 0.419733 0.487703
O O3 0.059020 0.373139 0.304296
O O4 0.004780 0.386829 0.500985
O O5 0.750000 0.364880 0.951500
O O6 0.842357 0.250000 0.011428
O O7 0.875595 0.399946 0.901626
O O8 0.832125 0.408337 0.115147
O O9 0.408683 0.250000 0.943518
O O10 0.499794 0.136242 0.873210
O O11 0.383952 0.069936 0.887158
O O12 0.452461 0.120215 0.076702
O O13 0.250000 0.990236 0.532523
O O14 0.128844 0.906235 0.511255
O O15 0.156146 0.003310 0.688244
O O16 0.009041 0.750000 0.805208
O O17 0.053499 0.573512 0.793475
O O18 0.588473 0.250000 0.800653
O O19 0.569201 0.103434 0.685570
O O20 0.570747 0.250000 0.551134
#
# Coordination Sequence:
#
# PCOD9451411 Si02
#       8
#     8   8   8   8   8   8   8   8
#     4  10  22  42  66  88 115 158 207 256 303 347
#     4  10  21  36  54  80 118 158 194 238 295 365
#     4  10  21  36  58  93 123 145 186 245 303 352
#     4  12  27  41  58  87 124 164 206 251 299 365
#     4  10  20  36  62  94 120 148 194 253 308 355
#     4   9  18  33  55  83 116 150 189 233 289 354
#     4  10  21  38  62  90 121 159 201 252 308 357
#     4  12  22  36  61  86 119 158 197 241 300 362
#
# _framework density 18.950142
#
# number of rings (size 3 to 8) (size 9 to 14) (size 15 to 20)
#    0.000    1.625    2.500    2.250    1.750    3.000 
#    0.000    1.250    0.000    1.875    0.000    3.500 
#    0.000    0.000    0.000    0.000    0.000    0.000 
#
# Total GULP energy -357468.117245 kJ/mol
# GULP energy per Si atom -5585.439332 kJ/mol
# Density = 1.890701 g / cm^3
# Si number density = 18.950142 Si / 1000 Ang^3
#
#
#
# Elastic Constant Matrix: (Units=GPa)
#
#
# Indices 1 2 3 4 5 6 
#
# 1 71.8232 29.0614 34.9460 0.0000 0.0000 0.0000
# 2 29.0614 70.4483 19.5615 0.0000 0.0000 0.0000
# 3 34.9460 19.5615 112.2672 0.0000 0.0000 0.0000
# 4 0.0000 0.0000 0.0000 26.4097 0.0000 0.0000
# 5 0.0000 0.0000 0.0000 0.0000 10.8099 0.0000
# 6 0.0000 0.0000 0.0000 0.0000 0.0000 13.4100
#
#
#
# Elastic Compliance Matrix: (Units=1/GPa)
#
#
# Indices 1 2 3 4 5 6 
#
# 1 0.018842 -0.006456 -0.004740 0.000000 0.000000 0.000000
# 2 -0.006456 0.017129 -0.000975 0.000000 0.000000 0.000000
# 3 -0.004740 -0.000975 0.010553 0.000000 0.000000 0.000000
# 4 0.000000 0.000000 0.000000 0.037865 0.000000 0.000000
# 5 0.000000 0.000000 0.000000 0.000000 0.092508 0.000000
# 6 0.000000 0.000000 0.000000 0.000000 0.000000 0.074571
#
#
# Mechanical properties :
#
#
# Convention : Reuss Voigt Hill
#
# Bulk Modulus (GPa) = 45.08412 46.85293 45.96853
# Shear Modulus (GPa) = 17.65517 21.52393 19.58955
#
# Velocity S-wave (km/s) = 3.05563 3.37385 3.21867
# Velocity P-wave (km/s) = 6.02426 6.32101 6.17442
#
# Compressibility (1/GPa) = 0.02218076
#
# Stress axis : x y z
#
# Youngs Moduli (GPa) = 53.07358 58.38089 94.76329
#
# Poissons Ratio (x) = 0.37693 0.44918
# Poissons Ratio (y) = 0.34267 0.09238
# Poissons Ratio (z) = 0.25157 0.05691
#
# Static dielectric constant tensor:
#      x y z
#    x 1.626960 0.000000 0.000000 
#    y 0.000000 1.702000 0.000000 
#    z 0.000000 0.000000 1.659770 
# 
# From -- ./inp_files/17837.got.cif
#   From: 2010.05.17/outbox.cif.g08.bks.cpg/sg59_9_cif.got.tgz:17837.got - 2010.06.03 14:40:33.
