data_PCOD9451437
_publ_section_title
;
Structure prediction by ZEFSAII (Michael W. Deem and Ramdas Pophale) SiO2 
 PCOD9451437
Probable space group: P M M N
;
_chemical_formula_sum "Si O2"
_cell_formula_units_Z 64
_cell_length_a 18.340244
_cell_length_b 8.810563
_cell_length_c 22.146722
_cell_angle_alpha 90.000000
_cell_angle_beta 90.000000
_cell_angle_gamma 90.000000
_cell_volume 3578.641751
_symmetry_space_group_name_H-M "P M M N"
_symmetry_group_IT_number 59
_space_group.IT_coordinate_system_code '2'
_symmetry_cell_setting 'orthorhombic'
loop_
_space_group_symop_operation_xyz
x,y,z
1/2-x,1/2-y,z
1/2+x,-y,-z
-x,1/2+y,-z
-x,-y,-z
1/2+x,1/2+y,-z
1/2-x,y,z
x,1/2-y,z
loop_
_atom_site_type_symbol
_atom_site_label
_atom_site_fract_x
_atom_site_fract_y
_atom_site_fract_z
Si Si1 0.834978 0.931705 0.729103
Si Si2 0.335005 0.932466 0.507558
Si Si3 0.081213 0.567220 0.385453
Si Si4 0.668037 0.567409 0.131597
Si Si5 0.976507 0.568022 0.063315
Si Si6 0.952136 0.432125 0.811447
Si Si7 0.096470 0.930975 0.752573
Si Si8 0.910253 0.568541 0.375325
O O1 0.750000 0.974500 0.727542
O O2 0.840451 0.750000 0.731711
O O3 0.875782 0.991329 0.669464
O O4 0.877298 0.003371 0.785731
O O5 0.250000 0.969453 0.497987
O O6 0.340938 0.750000 0.514461
O O7 0.382091 0.976328 0.448929
O O8 0.365771 0.010769 0.567231
O O9 0.087067 0.750000 0.378999
O O10 0.995768 0.527725 0.383804
O O11 0.750000 0.532632 0.111571
O O12 0.661743 0.750000 0.139782
O O13 0.604581 0.521279 0.085078
O O14 0.650448 0.489687 0.195385
O O15 0.977019 0.750000 0.058420
O O16 0.029343 0.526856 0.119355
O O17 0.000000 0.500000 0.000000
O O18 0.954165 0.250000 0.805818
O O19 0.017771 0.500284 0.771261
O O20 0.092880 0.750000 0.752457
O O21 0.116068 0.992847 0.686714
O O22 0.905209 0.750000 0.370250
#
# Coordination Sequence:
#
# PCOD9451437 Si02
#       8
#     8   8   8   8   8   8   8   8
#     4  11  23  36  55  86 117 146 185 234 285 333
#     4  10  22  39  56  77 107 144 187 234 285 338
#     4  10  21  38  60  81 106 145 189 232 281 342
#     4   9  19  37  59  83 114 151 192 236 280 332
#     4   9  19  35  58  86 114 149 191 231 276 330
#     4  10  20  37  58  81 112 149 189 227 270 330
#     4  11  21  34  56  84 113 144 180 229 284 333
#     4  11  22  36  57  83 109 144 188 230 280 342
#
# _framework density 17.883879
#
# number of rings (size 3 to 8) (size 9 to 14) (size 15 to 20)
#    0.000    1.875    1.250    3.750    0.000    6.000 
#    0.000    0.625    0.000    2.250    0.000    0.000 
#    0.000    0.000    0.000    0.000    0.000    0.000 
#
# Total GULP energy -357469.875706 kJ/mol
# GULP energy per Si atom -5585.466808 kJ/mol
# Density = 1.784317 g / cm^3
# Si number density = 17.883879 Si / 1000 Ang^3
#
#
#
# Elastic Constant Matrix: (Units=GPa)
#
#
# Indices 1 2 3 4 5 6 
#
# 1 65.1008 21.9159 42.7022 0.0000 0.0000 0.0000
# 2 21.9159 32.2999 34.1247 0.0000 0.0000 0.0000
# 3 42.7022 34.1247 138.8566 0.0000 0.0000 0.0000
# 4 0.0000 0.0000 0.0000 34.2989 0.0000 0.0000
# 5 0.0000 0.0000 0.0000 0.0000 18.1851 0.0000
# 6 0.0000 0.0000 0.0000 0.0000 0.0000 24.3314
#
#
#
# Elastic Compliance Matrix: (Units=1/GPa)
#
#
# Indices 1 2 3 4 5 6 
#
# 1 0.021499 -0.010268 -0.004088 0.000000 0.000000 0.000000
# 2 -0.010268 0.046721 -0.008324 0.000000 0.000000 0.000000
# 3 -0.004088 -0.008324 0.010505 0.000000 0.000000 0.000000
# 4 0.000000 0.000000 0.000000 0.029155 0.000000 0.000000
# 5 0.000000 0.000000 0.000000 0.000000 0.054990 0.000000
# 6 0.000000 0.000000 0.000000 0.000000 0.000000 0.041099
#
#
# Mechanical properties :
#
#
# Convention : Reuss Voigt Hill
#
# Bulk Modulus (GPa) = 29.97254 48.19364 39.08309
# Shear Modulus (GPa) = 19.19736 24.53071 21.86404
#
# Velocity S-wave (km/s) = 3.27990 3.70762 3.50030
# Velocity P-wave (km/s) = 5.58028 6.73314 6.18364
#
# Compressibility (1/GPa) = 0.03336388
#
# Stress axis : x y z
#
# Youngs Moduli (GPa) = 46.51353 21.40343 95.19657
#
# Poissons Ratio (x) = 0.21978 0.38917
# Poissons Ratio (y) = 0.47762 0.79244
# Poissons Ratio (z) = 0.19015 0.17817
#
# Static dielectric constant tensor:
#      x y z
#    x 1.610390 0.000000 0.000000 
#    y 0.000000 1.597700 0.000000 
#    z 0.000000 0.000000 1.584250 
# 
# From -- ./inp_files/30785.got.cif
#   From: 2010.05.17/outbox.cif.g08.bks.cpg/sg59_16_cif.got.tgz:30785.got - 2010.06.03 14:40:33.
