data_PCOD9451186
_publ_section_title
;
Structure prediction by ZEFSAII (Michael W. Deem and Ramdas Pophale) SiO2 
 PCOD9451186
Probable space group: P M M N
;
_chemical_formula_sum "Si O2"
_cell_formula_units_Z 48
_cell_length_a 8.391568
_cell_length_b 16.487969
_cell_length_c 18.655627
_cell_angle_alpha 90.000000
_cell_angle_beta 90.000000
_cell_angle_gamma 90.000000
_cell_volume 2581.190930
_symmetry_space_group_name_H-M "P M M N"
_symmetry_group_IT_number 59
_space_group.IT_coordinate_system_code '2'
_symmetry_cell_setting 'orthorhombic'
loop_
_space_group_symop_operation_xyz
x,y,z
1/2-x,1/2-y,z
1/2+x,-y,-z
-x,1/2+y,-z
-x,-y,-z
1/2+x,1/2+y,-z
1/2-x,y,z
x,1/2-y,z
loop_
_atom_site_type_symbol
_atom_site_label
_atom_site_fract_x
_atom_site_fract_y
_atom_site_fract_z
Si Si1 0.558251 0.914590 0.533064
Si Si2 0.558038 0.338493 0.166968
Si Si3 0.559284 0.004838 0.080802
Si Si4 0.442359 0.584474 0.215359
Si Si5 0.444790 0.750000 0.289597
Si Si6 0.942252 0.924823 0.697624
Si Si7 0.441572 0.750000 0.455816
O O1 0.750000 0.914509 0.531218
O O2 0.504987 0.913265 0.616223
O O3 0.499239 0.833242 0.493274
O O4 0.500000 0.000000 0.500000
O O5 0.750000 0.339446 0.164585
O O6 0.501331 0.250000 0.144260
O O7 0.499718 0.411325 0.116905
O O8 0.505414 0.357787 0.247684
O O9 0.750000 0.004979 0.080765
O O10 0.501555 0.935458 0.135569
O O11 0.500000 0.000000 0.000000
O O12 0.250000 0.584503 0.214026
O O13 0.497088 0.669314 0.248230
O O14 0.493380 0.510950 0.267918
O O15 0.250000 0.750000 0.289798
O O16 0.494506 0.750000 0.372578
O O17 0.750000 0.923216 0.698329
O O18 0.250000 0.750000 0.457242
#
# Coordination Sequence:
#
# PCOD9451186 Si02
#       7
#     8   8   8   8   4   8   4
#     4  11  23  39  57  83 117 154 197 245 297 350
#     4   9  19  35  55  80 105 135 178 223 267 318
#     4  10  20  36  56  79 111 142 173 216 266 322
#     4   9  17  34  58  81 103 140 185 226 273 325
#     4   9  18  35  59  81 106 143 192 233 271 330
#     4   9  19  34  54  77 108 144 183 228 276 332
#     4  11  23  39  59  85 118 157 198 245 295 348
#
# _framework density 18.596067999999999
#
# number of rings (size 3 to 8) (size 9 to 14) (size 15 to 20)
#    0.000    2.333    0.000    2.250    1.167    5.000 
#    1.500    5.417    0.000    0.000    0.000    0.000 
#    0.000    0.000    0.000    0.000    0.000    0.000 
#
# Total GULP energy -267826.191292 kJ/mol
# GULP energy per Si atom -5579.712319 kJ/mol
# Density = 1.855374 g / cm^3
# Si number density = 18.596068 Si / 1000 Ang^3
#
#
#
# Elastic Constant Matrix: (Units=GPa)
#
#
# Indices 1 2 3 4 5 6 
#
# 1 22.5970 21.6198 23.2547 0.0000 0.0000 0.0000
# 2 21.6198 139.0179 84.7395 0.0000 0.0000 0.0000
# 3 23.2547 84.7395 183.0021 0.0000 0.0000 0.0000
# 4 0.0000 0.0000 0.0000 15.7860 0.0000 0.0000
# 5 0.0000 0.0000 0.0000 0.0000 30.5792 0.0000
# 6 0.0000 0.0000 0.0000 0.0000 0.0000 26.0074
#
#
#
# Elastic Compliance Matrix: (Units=1/GPa)
#
#
# Indices 1 2 3 4 5 6 
#
# 1 0.054166 -0.005891 -0.004155 0.000000 0.000000 0.000000
# 2 -0.005891 0.010663 -0.004189 0.000000 0.000000 0.000000
# 3 -0.004155 -0.004189 0.007932 0.000000 0.000000 0.000000
# 4 0.000000 0.000000 0.000000 0.063347 0.000000 0.000000
# 5 0.000000 0.000000 0.000000 0.000000 0.032702 0.000000
# 6 0.000000 0.000000 0.000000 0.000000 0.000000 0.038451
#
#
# Mechanical properties :
#
#
# Convention : Reuss Voigt Hill
#
# Bulk Modulus (GPa) = 22.57800 67.09390 44.83595
# Shear Modulus (GPa) = 19.96051 28.80805 24.38428
#
# Velocity S-wave (km/s) = 3.27979 3.94019 3.62506
# Velocity P-wave (km/s) = 5.14882 7.54043 6.45633
#
# Compressibility (1/GPa) = 0.04429090
#
# Stress axis : x y z
#
# Youngs Moduli (GPa) = 18.46173 93.78375 126.06995
#
# Poissons Ratio (x) = 0.55247 0.52385
# Poissons Ratio (y) = 0.10876 0.52809
# Poissons Ratio (z) = 0.07671 0.39285
#
# Static dielectric constant tensor:
#      x y z
#    x 1.638160 0.000000 0.000000 
#    y 0.000000 1.648550 0.000000 
#    z 0.000000 0.000000 1.618720 
# 
# From -- ./inp_files/25529.got.cif
#   From: 2010.05.17/outbox.cif.g08.bks.cpg/sg59_13_cif.got.tgz:25529.got - 2010.06.03 14:40:33.
