data_PCOD9451154
_publ_section_title
;
Structure prediction by ZEFSAII (Michael W. Deem and Ramdas Pophale) SiO2 
 PCOD9451154
Probable space group: P M M N
;
_chemical_formula_sum "Si O2"
_cell_formula_units_Z 48
_cell_length_a 15.603064
_cell_length_b 7.774193
_cell_length_c 19.480060
_cell_angle_alpha 90.000000
_cell_angle_beta 90.000000
_cell_angle_gamma 90.000000
_cell_volume 2362.955257
_symmetry_space_group_name_H-M "P M M N"
_symmetry_group_IT_number 59
_space_group.IT_coordinate_system_code '2'
_symmetry_cell_setting 'orthorhombic'
loop_
_space_group_symop_operation_xyz
x,y,z
1/2-x,1/2-y,z
1/2+x,-y,-z
-x,1/2+y,-z
-x,-y,-z
1/2+x,1/2+y,-z
1/2-x,y,z
x,1/2-y,z
loop_
_atom_site_type_symbol
_atom_site_label
_atom_site_fract_x
_atom_site_fract_y
_atom_site_fract_z
Si Si1 0.099955 0.044918 0.001914
Si Si2 0.000409 0.041277 0.757716
Si Si3 0.849462 0.453969 0.495850
Si Si4 0.155829 0.460206 0.852004
Si Si5 0.495020 0.046305 0.401486
Si Si6 0.842652 0.045990 0.847255
O O1 0.110709 0.250000 0.004024
O O2 0.138546 0.974635 0.072127
O O3 0.139443 0.982157 0.930211
O O4 0.000000 0.000000 0.000000
O O5 0.000654 0.250000 0.759588
O O6 0.083355 0.981311 0.799793
O O7 0.918611 0.976485 0.800437
O O8 0.998914 0.988069 0.679039
O O9 0.750000 0.520714 0.497198
O O10 0.841400 0.250000 0.483942
O O11 0.906840 0.477182 0.564720
O O12 0.917915 0.522780 0.438753
O O13 0.250000 0.512368 0.829512
O O14 0.152515 0.250000 0.853698
O O15 0.493542 0.250000 0.414021
O O16 0.750000 0.970415 0.831252
O O17 0.839883 0.250000 0.834018
#
# Coordination Sequence:
#
# PCOD9451154 Si02
#       6
#     8   8   8   8   8   8
#     4  11  20  34  56  79 106 140 184 234 285 332
#     4  10  20  36  54  76 110 150 185 218 267 331
#     4   9  19  38  62  84 110 147 183 214 262 326
#     4   9  18  33  53  76 103 138 182 228 272 323
#     4  10  21  36  56  86 117 142 177 227 270 312
#     4  10  21  37  55  77 106 143 188 233 277 328
#
# _framework density 20.313545000000001
#
# number of rings (size 3 to 8) (size 9 to 14) (size 15 to 20)
#    0.000    2.167    1.667    1.500    0.000    4.000 
#    0.000    1.667    0.000    2.000    0.000    0.000 
#    0.000    0.000    0.000    0.000    0.000    0.000 
#
# Total GULP energy -267804.260892 kJ/mol
# GULP energy per Si atom -5579.255435 kJ/mol
# Density = 2.026731 g / cm^3
# Si number density = 20.313545 Si / 1000 Ang^3
#
#
#
# Elastic Constant Matrix: (Units=GPa)
#
#
# Indices 1 2 3 4 5 6 
#
# 1 222.3095 6.4289 95.0210 0.0000 0.0000 0.0000
# 2 6.4289 28.0242 -8.0614 0.0000 0.0000 0.0000
# 3 95.0210 -8.0614 155.2814 0.0000 0.0000 0.0000
# 4 0.0000 0.0000 0.0000 14.9651 0.0000 0.0000
# 5 0.0000 0.0000 0.0000 0.0000 -85.9408 0.0000
# 6 0.0000 0.0000 0.0000 0.0000 0.0000 3.5419
#
#
#
# Elastic Compliance Matrix: (Units=1/GPa)
#
#
# Indices 1 2 3 4 5 6 
#
# 1 0.006270 -0.002581 -0.003971 0.000000 0.000000 0.000000
# 2 -0.002581 0.037287 0.003515 0.000000 0.000000 0.000000
# 3 -0.003971 0.003515 0.009052 0.000000 0.000000 0.000000
# 4 0.000000 0.000000 0.000000 0.066822 0.000000 0.000000
# 5 0.000000 0.000000 0.000000 0.000000 -0.011636 0.000000
# 6 0.000000 0.000000 0.000000 0.000000 0.000000 0.282336
#
#
# Mechanical properties :
#
#
# Convention : Reuss Voigt Hill
#
# Bulk Modulus (GPa) = 21.48886 65.82133 43.65509
# Shear Modulus (GPa) = 12.14428 7.32834 9.73631
#
# Velocity S-wave (km/s) = 2.44773 1.90143 2.19167
# Velocity P-wave (km/s) = 4.31162 6.10685 5.28600
#
# Compressibility (1/GPa) = 0.04653574
#
# Stress axis : x y z
#
# Youngs Moduli (GPa) = 159.48717 26.81934 110.46975
#
# Poissons Ratio (x) = 0.06921 0.43866
# Poissons Ratio (y) = 0.41158 -0.38829
# Poissons Ratio (z) = 0.63329 -0.09427
#
# Static dielectric constant tensor:
#      x y z
#    x 1.740340 0.000000 0.000000 
#    y 0.000000 1.754970 0.000000 
#    z 0.000000 0.000000 1.685480 
# 
# From -- ./inp_files/25453.got.cif
#   From: 2010.05.17/outbox.cif.g08.bks.cpg/sg59_13_cif.got.tgz:25453.got - 2010.06.03 14:40:33.
