data_PCOD9451525
_publ_section_title
;
Structure prediction by ZEFSAII (Michael W. Deem and Ramdas Pophale) SiO2 
 PCOD9451525
Probable space group: P M M N
;
_chemical_formula_sum "Si O2"
_cell_formula_units_Z 64
_cell_length_a 8.757812
_cell_length_b 29.071444
_cell_length_c 12.707715
_cell_angle_alpha 90.000000
_cell_angle_beta 90.000000
_cell_angle_gamma 90.000000
_cell_volume 3235.412719
_symmetry_space_group_name_H-M "P M M N"
_symmetry_group_IT_number 59
_space_group.IT_coordinate_system_code '2'
_symmetry_cell_setting 'orthorhombic'
loop_
_space_group_symop_operation_xyz
x,y,z
1/2-x,1/2-y,z
1/2+x,-y,-z
-x,1/2+y,-z
-x,-y,-z
1/2+x,1/2+y,-z
1/2-x,y,z
x,1/2-y,z
loop_
_atom_site_type_symbol
_atom_site_label
_atom_site_fract_x
_atom_site_fract_y
_atom_site_fract_z
Si Si1 0.923951 0.671774 0.499388
Si Si2 0.927265 0.936645 0.521883
Si Si3 0.931994 0.200252 0.293130
Si Si4 0.430596 0.004975 0.678631
Si Si5 0.435786 0.802742 0.050250
Si Si6 0.568073 0.977222 0.894554
Si Si7 0.564762 0.374884 0.131272
Si Si8 0.575863 0.305358 0.716821
O O1 0.750000 0.687229 0.514070
O O2 0.933976 0.617708 0.521920
O O3 0.028895 0.696513 0.584550
O O4 0.975891 0.679577 0.380711
O O5 0.750000 0.951206 0.538256
O O6 0.027606 0.958937 0.613418
O O7 0.973649 0.955927 0.406876
O O8 0.750000 0.200472 0.278004
O O9 0.989421 0.250000 0.252694
O O10 0.987901 0.154943 0.232349
O O11 0.250000 0.007415 0.698117
O O12 0.515735 0.004425 0.789530
O O13 0.250000 0.800796 0.052566
O O14 0.486605 0.750000 0.028352
O O15 0.484321 0.817592 0.167364
O O16 0.476119 0.840827 0.964968
O O17 0.750000 0.977103 0.901328
O O18 0.507495 0.924972 0.880275
O O19 0.500000 0.000000 0.000000
O O20 0.750000 0.380323 0.134253
O O21 0.750000 0.322604 0.704418
O O22 0.582378 0.250000 0.716581
#
# Coordination Sequence:
#
# PCOD9451525 Si02
#       8
#     8   8   8   8   8   8   8   8
#     4  11  22  34  50  76 111 147 183 225 273 322
#     4   9  20  37  57  83 114 147 182 227 281 333
#     4  10  21  36  56  84 118 155 192 230 273 328
#     4  10  20  38  62  85 110 142 184 230 278 336
#     4   8  15  31  57  86 113 143 183 231 280 336
#     4  12  26  43  61  83 115 152 191 239 295 352
#     4  10  20  37  62  89 114 144 186 234 286 344
#     4   9  18  33  52  74 103 139 177 218 264 315
#
# _framework density 19.781092999999998
#
# number of rings (size 3 to 8) (size 9 to 14) (size 15 to 20)
#    0.000    2.125    0.000    4.125    0.000    8.500 
#    0.000    3.125    0.000    1.875    0.000    0.000 
#    0.000    0.000    0.000    0.000    0.000    0.000 
#
# Total GULP energy -357243.000052 kJ/mol
# GULP energy per Si atom -5581.921876 kJ/mol
# Density = 1.973607 g / cm^3
# Si number density = 19.781093 Si / 1000 Ang^3
#
#
#
# Elastic Constant Matrix: (Units=GPa)
#
#
# Indices 1 2 3 4 5 6 
#
# 1 44.9130 20.6003 24.7618 0.0000 0.0000 0.0000
# 2 20.6003 60.7540 27.2463 0.0000 0.0000 0.0000
# 3 24.7618 27.2463 116.2070 0.0000 0.0000 0.0000
# 4 0.0000 0.0000 0.0000 0.8574 0.0000 0.0000
# 5 0.0000 0.0000 0.0000 0.0000 11.3281 0.0000
# 6 0.0000 0.0000 0.0000 0.0000 0.0000 10.0306
#
#
#
# Elastic Compliance Matrix: (Units=1/GPa)
#
#
# Indices 1 2 3 4 5 6 
#
# 1 0.028081 -0.007642 -0.004192 0.000000 0.000000 0.000000
# 2 -0.007642 0.020474 -0.003172 0.000000 0.000000 0.000000
# 3 -0.004192 -0.003172 0.010242 0.000000 0.000000 0.000000
# 4 0.000000 0.000000 0.000000 1.166249 0.000000 0.000000
# 5 0.000000 0.000000 0.000000 0.000000 0.088276 0.000000
# 6 0.000000 0.000000 0.000000 0.000000 0.000000 0.099695
#
#
# Mechanical properties :
#
#
# Convention : Reuss Voigt Hill
#
# Bulk Modulus (GPa) = 34.73935 40.78787 37.76361
# Shear Modulus (GPa) = 3.44205 14.39428 8.91816
#
# Velocity S-wave (km/s) = 1.32055 2.70048 2.12561
# Velocity P-wave (km/s) = 4.46376 5.51252 5.01562
#
# Compressibility (1/GPa) = 0.02878580
#
# Stress axis : x y z
#
# Youngs Moduli (GPa) = 35.61064 48.84360 97.63453
#
# Poissons Ratio (x) = 0.37325 0.40928
# Poissons Ratio (y) = 0.27213 0.30969
# Poissons Ratio (z) = 0.14928 0.15493
#
# Static dielectric constant tensor:
#      x y z
#    x 1.683660 0.000000 0.000000 
#    y 0.000000 1.696190 0.000000 
#    z 0.000000 0.000000 1.702940 
# 
# From -- ./inp_files/14993.got.cif
#   From: 2010.05.17/outbox.cif.g08.bks.cpg/sg59_8_cif.got.tgz:14993.got - 2010.06.03 14:40:33.
