data_PCOD9451871
_publ_section_title
;
Structure prediction by ZEFSAII (Michael W. Deem and Ramdas Pophale) SiO2 
 PCOD9451871
Probable space group: P M M N
;
_chemical_formula_sum "Si O2"
_cell_formula_units_Z 40
_cell_length_a 12.648319
_cell_length_b 20.441506
_cell_length_c 7.577006
_cell_angle_alpha 90.000000
_cell_angle_beta 90.000000
_cell_angle_gamma 90.000000
_cell_volume 1959.040120
_symmetry_space_group_name_H-M "P M M N"
_symmetry_group_IT_number 59
_space_group.IT_coordinate_system_code '2'
_symmetry_cell_setting 'orthorhombic'
loop_
_space_group_symop_operation_xyz
x,y,z
1/2-x,1/2-y,z
1/2+x,-y,-z
-x,1/2+y,-z
-x,-y,-z
1/2+x,1/2+y,-z
1/2-x,y,z
x,1/2-y,z
loop_
_atom_site_type_symbol
_atom_site_label
_atom_site_fract_x
_atom_site_fract_y
_atom_site_fract_z
Si Si1 0.052177 0.608745 0.011255
Si Si2 0.063871 0.489141 0.777127
Si Si3 0.516908 0.327051 0.350649
Si Si4 0.750000 0.326528 0.347311
Si Si5 0.869042 0.944368 0.589903
Si Si6 0.250000 0.674992 0.084408
O O1 0.141652 0.639824 0.133993
O O2 0.101882 0.546931 0.904412
O O3 0.016589 0.659973 0.861452
O O4 0.955719 0.577410 0.117151
O O5 0.947760 0.513962 0.712874
O O6 0.129220 0.477484 0.601980
O O7 0.505690 0.250000 0.386812
O O8 0.635162 0.351274 0.407351
O O9 0.426940 0.373988 0.426316
O O10 0.750000 0.250000 0.394533
O O11 0.750000 0.328169 0.132129
O O12 0.750000 0.939488 0.657062
O O13 0.250000 0.750000 0.138818
#
# Coordination Sequence:
#
# PCOD9451871 Si02
#       6
#     8   8   8   4   8   4
#     4   9  17  32  55  78 105 135 178 232 270 325
#     4   9  20  36  50  80 104 142 187 224 277 311
#     4   9  17  33  55  81 109 141 179 218 268 326
#     4   7  12  26  49  75 101 129 169 208 254 316
#     4  10  21  36  53  75 109 147 184 225 266 330
#     4   9  16  26  49  83 107 133 162 214 288 328
#
# _framework density 20.418163
#
# number of rings (size 3 to 8) (size 9 to 14) (size 15 to 20)
#    0.000    3.000    0.000    1.800    2.800    0.400 
#   10.800    3.000    0.000    1.200    0.000    1.400 
#    0.000    0.000    0.000    0.000    0.000    0.000 
#
# Total GULP energy -222968.289899 kJ/mol
# GULP energy per Si atom -5574.207247 kJ/mol
# Density = 2.037169 g / cm^3
# Si number density = 20.418163 Si / 1000 Ang^3
#
#
#
# Elastic Constant Matrix: (Units=GPa)
#
#
# Indices 1 2 3 4 5 6 
#
# 1 103.9983 29.5437 -3.6150 0.0000 0.0000 0.0000
# 2 29.5437 71.7845 4.5860 0.0000 0.0000 0.0000
# 3 -3.6150 4.5860 37.7803 0.0000 0.0000 0.0000
# 4 0.0000 0.0000 0.0000 12.6525 0.0000 0.0000
# 5 0.0000 0.0000 0.0000 0.0000 1.2240 0.0000
# 6 0.0000 0.0000 0.0000 0.0000 0.0000 30.0094
#
#
#
# Elastic Compliance Matrix: (Units=1/GPa)
#
#
# Indices 1 2 3 4 5 6 
#
# 1 0.010985 -0.004624 0.001612 0.000000 0.000000 0.000000
# 2 -0.004624 0.015986 -0.002383 0.000000 0.000000 0.000000
# 3 0.001612 -0.002383 0.026912 0.000000 0.000000 0.000000
# 4 0.000000 0.000000 0.000000 0.079036 0.000000 0.000000
# 5 0.000000 0.000000 0.000000 0.000000 0.816979 0.000000
# 6 0.000000 0.000000 0.000000 0.000000 0.000000 0.033323
#
#
# Mechanical properties :
#
#
# Convention : Reuss Voigt Hill
#
# Bulk Modulus (GPa) = 23.20496 30.51029 26.85763
# Shear Modulus (GPa) = 4.95847 20.98042 12.96945
#
# Velocity S-wave (km/s) = 1.56004 3.20900 2.52303
# Velocity P-wave (km/s) = 3.82551 5.35774 4.65510
#
# Compressibility (1/GPa) = 0.04309423
#
# Stress axis : x y z
#
# Youngs Moduli (GPa) = 91.03157 62.55503 37.15768
#
# Poissons Ratio (x) = 0.28926 -0.05991
# Poissons Ratio (y) = 0.42094 0.08854
# Poissons Ratio (z) = -0.14678 0.14906
#
# Static dielectric constant tensor:
#      x y z
#    x 1.746480 0.000000 0.000000 
#    y 0.000000 1.734770 0.000000 
#    z 0.000000 0.000000 1.773730 
# 
# From -- ./inp_files/7417.got.cif
#   From: 2010.05.17/outbox.cif.g08.bks.cpg/sg59_4_cif.got.tgz:7417.got - 2010.06.03 14:40:33.
