data_PCOD9451642
_publ_section_title
;
Structure prediction by ZEFSAII (Michael W. Deem and Ramdas Pophale) SiO2 
 PCOD9451642
Probable space group: P M M N
;
_chemical_formula_sum "Si O2"
_cell_formula_units_Z 32
_cell_length_a 13.947550
_cell_length_b 12.581844
_cell_length_c 9.809604
_cell_angle_alpha 90.000000
_cell_angle_beta 90.000000
_cell_angle_gamma 90.000000
_cell_volume 1721.447170
_symmetry_space_group_name_H-M "P M M N"
_symmetry_group_IT_number 59
_space_group.IT_coordinate_system_code '2'
_symmetry_cell_setting 'orthorhombic'
loop_
_space_group_symop_operation_xyz
x,y,z
1/2-x,1/2-y,z
1/2+x,-y,-z
-x,1/2+y,-z
-x,-y,-z
1/2+x,1/2+y,-z
1/2-x,y,z
x,1/2-y,z
loop_
_atom_site_type_symbol
_atom_site_label
_atom_site_fract_x
_atom_site_fract_y
_atom_site_fract_z
Si Si1 0.137558 0.250000 0.543118
Si Si2 0.640417 0.378499 0.349249
Si Si3 0.362951 0.250000 0.214314
Si Si4 0.017033 0.456880 0.150344
Si Si5 0.537454 0.129870 0.629883
O O1 0.250000 0.250000 0.574573
O O2 0.124389 0.250000 0.379353
O O3 0.076201 0.348928 0.602555
O O4 0.750000 0.414210 0.353695
O O5 0.638496 0.250000 0.341706
O O6 0.582111 0.422000 0.221587
O O7 0.585448 0.406182 0.489072
O O8 0.250000 0.250000 0.186031
O O9 0.413891 0.145082 0.156572
O O10 0.056205 0.549560 0.248982
O O11 0.000000 0.500000 0.000000
O O12 0.574190 0.250000 0.659696
#
# Coordination Sequence:
#
# PCOD9451642 Si02
#       5
#     4   8   4   8   8
#     4   9  18  37  67  95 124 158 207 268 309 359
#     4  10  20  39  64  89 119 157 208 262 311 365
#     4  11  24  43  63  95 126 162 211 256 319 371
#     4  12  24  40  65  88 131 171 201 253 312 377
#     4   9  20  39  60  95 123 156 209 255 308 363
#
# _framework density 18.589010999999999
#
# number of rings (size 3 to 8) (size 9 to 14) (size 15 to 20)
#    0.750    1.000    3.750    0.750    1.750    3.000 
#    0.000    1.250    0.000    3.000    0.000    0.000 
#    0.000    0.000    0.000    0.000    0.000    0.000 
#
# Total GULP energy -178583.151907 kJ/mol
# GULP energy per Si atom -5580.723497 kJ/mol
# Density = 1.854670 g / cm^3
# Si number density = 18.589011 Si / 1000 Ang^3
#
#
#
# Elastic Constant Matrix: (Units=GPa)
#
#
# Indices 1 2 3 4 5 6 
#
# 1 124.5560 53.1758 63.6652 0.0000 0.0000 0.0000
# 2 53.1758 124.3511 74.8742 0.0000 0.0000 0.0000
# 3 63.6652 74.8742 153.5532 0.0000 0.0000 0.0000
# 4 0.0000 0.0000 0.0000 17.7200 0.0000 0.0000
# 5 0.0000 0.0000 0.0000 0.0000 3.3649 0.0000
# 6 0.0000 0.0000 0.0000 0.0000 0.0000 8.6584
#
#
#
# Elastic Compliance Matrix: (Units=1/GPa)
#
#
# Indices 1 2 3 4 5 6 
#
# 1 0.010801 -0.002721 -0.003151 0.000000 0.000000 0.000000
# 2 -0.002721 0.012070 -0.004757 0.000000 0.000000 0.000000
# 3 -0.003151 -0.004757 0.010139 0.000000 0.000000 0.000000
# 4 0.000000 0.000000 0.000000 0.056433 0.000000 0.000000
# 5 0.000000 0.000000 0.000000 0.000000 0.297181 0.000000
# 6 0.000000 0.000000 0.000000 0.000000 0.000000 0.115495
#
#
# Mechanical properties :
#
#
# Convention : Reuss Voigt Hill
#
# Bulk Modulus (GPa) = 85.10639 87.32117 86.21378
# Shear Modulus (GPa) = 9.48235 19.99833 14.74034
#
# Velocity S-wave (km/s) = 2.26100 3.28352 2.81901
# Velocity P-wave (km/s) = 7.25939 7.83913 7.55482
#
# Compressibility (1/GPa) = 0.01175000
#
# Stress axis : x y z
#
# Youngs Moduli (GPa) = 92.58330 82.85154 98.63337
#
# Poissons Ratio (x) = 0.22547 0.31082
# Poissons Ratio (y) = 0.25195 0.46920
# Poissons Ratio (z) = 0.29176 0.39413
#
# Static dielectric constant tensor:
#      x y z
#    x 1.643190 0.000000 0.000000 
#    y 0.000000 1.689820 0.000000 
#    z 0.000000 0.000000 1.590900 
# 
# From -- ./inp_files/8429.got.cif
#   From: 2010.05.17/outbox.cif.g08.bks.cpg/sg59_5_cif.got.tgz:8429.got - 2010.06.03 14:40:33.
