data_PCOD9451100
_publ_section_title
;
Structure prediction by ZEFSAII (Michael W. Deem and Ramdas Pophale) SiO2 
 PCOD9451100
Probable space group: P M M N
;
_chemical_formula_sum "Si O2"
_cell_formula_units_Z 56
_cell_length_a 13.852531
_cell_length_b 9.036760
_cell_length_c 22.918119
_cell_angle_alpha 90.000000
_cell_angle_beta 90.000000
_cell_angle_gamma 90.000000
_cell_volume 2868.935928
_symmetry_space_group_name_H-M "P M M N"
_symmetry_group_IT_number 59
_space_group.IT_coordinate_system_code '2'
_symmetry_cell_setting 'orthorhombic'
loop_
_space_group_symop_operation_xyz
x,y,z
1/2-x,1/2-y,z
1/2+x,-y,-z
-x,1/2+y,-z
-x,-y,-z
1/2+x,1/2+y,-z
1/2-x,y,z
x,1/2-y,z
loop_
_atom_site_type_symbol
_atom_site_label
_atom_site_fract_x
_atom_site_fract_y
_atom_site_fract_z
Si Si1 0.362151 0.570101 0.665287
Si Si2 0.969858 0.423373 0.858260
Si Si3 0.750000 0.408871 0.557258
Si Si4 0.366011 0.079537 0.035255
Si Si5 0.445874 0.573351 0.278133
Si Si6 0.364519 0.577157 0.914626
Si Si7 0.250000 0.075211 0.328328
Si Si8 0.580053 0.084719 0.464908
O O1 0.250000 0.529089 0.680679
O O2 0.367119 0.750000 0.670728
O O3 0.452597 0.497807 0.699703
O O4 0.381128 0.528527 0.597214
O O5 0.962390 0.250000 0.871889
O O6 0.908752 0.514513 0.905453
O O7 0.939901 0.446295 0.791711
O O8 0.078328 0.480808 0.867986
O O9 0.750000 0.250000 0.590083
O O10 0.750000 0.540108 0.602865
O O11 0.837294 0.410214 0.512799
O O12 0.250000 0.075958 0.039189
O O13 0.395727 0.250000 0.026345
O O14 0.392534 0.982338 0.978787
O O15 0.446473 0.750000 0.290955
O O16 0.349565 0.498186 0.304683
O O17 0.250000 0.559953 0.908589
O O18 0.388211 0.750000 0.908856
O O19 0.250000 0.250000 0.316078
O O20 0.544085 0.250000 0.452102
O O21 0.500000 0.000000 0.500000
#
# Coordination Sequence:
#
# PCOD9451100 Si02
#       8
#     8   8   4   8   8   8   4   8
#     4  10  21  41  66  93 129 168 210 261 315 372
#     4  11  24  40  60  85 118 159 204 253 306 366
#     4  10  20  38  62  88 122 160 195 240 303 366
#     4  10  21  37  60  90 122 156 197 250 309 366
#     4  11  26  45  64  90 124 170 217 263 321 380
#     4  10  21  38  61  89 122 159 200 248 304 366
#     4  12  26  44  66  92 126 164 213 268 319 378
#     4  10  20  35  58  89 123 158 196 243 300 362
#
# _framework density 19.519431999999998
#
# number of rings (size 3 to 8) (size 9 to 14) (size 15 to 20)
#    0.000    1.571    0.714    3.643    1.000    8.286 
#    0.000    2.857    0.000    0.000    0.000    0.000 
#    0.000    0.000    0.000    0.000    0.000    0.000 
#
# Total GULP energy -312556.462303 kJ/mol
# GULP energy per Si atom -5581.365398 kJ/mol
# Density = 1.947500 g / cm^3
# Si number density = 19.519432 Si / 1000 Ang^3
#
#
#
# Elastic Constant Matrix: (Units=GPa)
#
#
# Indices 1 2 3 4 5 6 
#
# 1 93.2765 26.7043 5.9556 0.0000 0.0000 0.0000
# 2 26.7043 68.2335 27.7231 0.0000 0.0000 0.0000
# 3 5.9556 27.7231 58.2428 0.0000 0.0000 0.0000
# 4 0.0000 0.0000 0.0000 30.9845 0.0000 0.0000
# 5 0.0000 0.0000 0.0000 0.0000 56.5168 0.0000
# 6 0.0000 0.0000 0.0000 0.0000 0.0000 26.0089
#
#
#
# Elastic Compliance Matrix: (Units=1/GPa)
#
#
# Indices 1 2 3 4 5 6 
#
# 1 0.012148 -0.005269 0.001266 0.000000 0.000000 0.000000
# 2 -0.005269 0.020454 -0.009197 0.000000 0.000000 0.000000
# 3 0.001266 -0.009197 0.021418 0.000000 0.000000 0.000000
# 4 0.000000 0.000000 0.000000 0.032274 0.000000 0.000000
# 5 0.000000 0.000000 0.000000 0.000000 0.017694 0.000000
# 6 0.000000 0.000000 0.000000 0.000000 0.000000 0.038448
#
#
# Mechanical properties :
#
#
# Convention : Reuss Voigt Hill
#
# Bulk Modulus (GPa) = 36.20583 37.83544 37.02063
# Shear Modulus (GPa) = 28.08283 33.32669 30.70476
#
# Velocity S-wave (km/s) = 3.79715 4.13650 3.97045
# Velocity P-wave (km/s) = 6.14926 6.49921 6.32665
#
# Compressibility (1/GPa) = 0.02761986
#
# Stress axis : x y z
#
# Youngs Moduli (GPa) = 82.31553 48.88924 46.68974
#
# Poissons Ratio (x) = 0.25758 -0.05909
# Poissons Ratio (y) = 0.43369 0.42942
# Poissons Ratio (z) = -0.10418 0.44965
#
# Static dielectric constant tensor:
#      x y z
#    x 1.693960 0.000000 0.000000 
#    y 0.000000 1.807960 0.000000 
#    z 0.000000 0.000000 1.658430 
# 
# From -- ./inp_files/30494.got.cif
#   From: 2010.05.17/outbox.cif.g08.bks.cpg/sg59_16_cif.got.tgz:30494.got - 2010.06.03 14:40:33.
