data_PCOD9451440
_publ_section_title
;
Structure prediction by ZEFSAII (Michael W. Deem and Ramdas Pophale) SiO2 
 PCOD9451440
Probable space group: P M M N
;
_chemical_formula_sum "Si O2"
_cell_formula_units_Z 48
_cell_length_a 9.380365
_cell_length_b 15.983719
_cell_length_c 16.837843
_cell_angle_alpha 90.000000
_cell_angle_beta 90.000000
_cell_angle_gamma 90.000000
_cell_volume 2524.550306
_symmetry_space_group_name_H-M "P M M N"
_symmetry_group_IT_number 59
_space_group.IT_coordinate_system_code '2'
_symmetry_cell_setting 'orthorhombic'
loop_
_space_group_symop_operation_xyz
x,y,z
1/2-x,1/2-y,z
1/2+x,-y,-z
-x,1/2+y,-z
-x,-y,-z
1/2+x,1/2+y,-z
1/2-x,y,z
x,1/2-y,z
loop_
_atom_site_type_symbol
_atom_site_label
_atom_site_fract_x
_atom_site_fract_y
_atom_site_fract_z
Si Si1 0.915770 0.571891 0.214360
Si Si2 0.581801 0.150150 0.469568
Si Si3 0.920120 0.426697 0.950836
Si Si4 0.418905 0.250000 0.204205
Si Si5 0.914012 0.108765 0.294685
Si Si6 0.912269 0.850231 0.376145
Si Si7 0.416485 0.750000 0.959788
O O1 0.750000 0.594733 0.196041
O O2 0.916027 0.478295 0.248911
O O3 0.968570 0.626137 0.289254
O O4 0.011444 0.577205 0.136557
O O5 0.750000 0.142050 0.484226
O O6 0.552536 0.250000 0.456813
O O7 0.546731 0.103575 0.387583
O O8 0.498401 0.120292 0.547202
O O9 0.750000 0.443592 0.948398
O O10 0.939840 0.335563 0.991314
O O11 0.000000 0.500000 0.000000
O O12 0.250000 0.250000 0.202468
O O13 0.480765 0.329206 0.250759
O O14 0.483573 0.250000 0.116400
O O15 0.750000 0.141080 0.292487
O O16 0.750000 0.883135 0.379768
O O17 0.908582 0.750000 0.381123
O O18 0.250000 0.750000 0.934215
#
# Coordination Sequence:
#
# PCOD9451440 Si02
#       7
#     8   8   8   4   8   8   4
#     4  10  22  38  59  86 116 155 195 236 290 349
#     4   9  17  32  54  79 108 151 199 236 277 338
#     4  11  24  43  65  90 121 155 197 248 300 357
#     4  12  24  36  58  91 116 141 188 243 292 343
#     4  10  20  37  58  81 116 158 194 231 286 351
#     4   9  19  35  54  80 117 155 190 237 292 337
#     4  10  24  44  64  85 116 161 196 231 298 371
#
# _framework density 19.013287999999999
#
# number of rings (size 3 to 8) (size 9 to 14) (size 15 to 20)
#    0.000    2.000    0.833    2.250    1.167    8.000 
#    0.000    0.000    0.000    0.000    0.000    0.000 
#    0.000    0.000    0.000    0.000    0.000    0.000 
#
# Total GULP energy -268005.010648 kJ/mol
# GULP energy per Si atom -5583.437722 kJ/mol
# Density = 1.897001 g / cm^3
# Si number density = 19.013288 Si / 1000 Ang^3
#
#
#
# Elastic Constant Matrix: (Units=GPa)
#
#
# Indices 1 2 3 4 5 6 
#
# 1 104.4073 47.7535 104.3168 0.0000 0.0000 0.0000
# 2 47.7535 55.9672 40.1660 0.0000 0.0000 0.0000
# 3 104.3168 40.1660 185.8266 0.0000 0.0000 0.0000
# 4 0.0000 0.0000 0.0000 28.9152 0.0000 0.0000
# 5 0.0000 0.0000 0.0000 0.0000 39.4950 0.0000
# 6 0.0000 0.0000 0.0000 0.0000 0.0000 4.1479
#
#
#
# Elastic Compliance Matrix: (Units=1/GPa)
#
#
# Indices 1 2 3 4 5 6 
#
# 1 0.030853 -0.016446 -0.013765 0.000000 0.000000 0.000000
# 2 -0.016446 0.029915 0.002766 0.000000 0.000000 0.000000
# 3 -0.013765 0.002766 0.012511 0.000000 0.000000 0.000000
# 4 0.000000 0.000000 0.000000 0.034584 0.000000 0.000000
# 5 0.000000 0.000000 0.000000 0.000000 0.025320 0.000000
# 6 0.000000 0.000000 0.000000 0.000000 0.000000 0.241087
#
#
# Mechanical properties :
#
#
# Convention : Reuss Voigt Hill
#
# Bulk Modulus (GPa) = 54.38131 81.18596 67.78364
# Shear Modulus (GPa) = 11.48661 24.77593 18.13127
#
# Velocity S-wave (km/s) = 2.46058 3.61374 3.09141
# Velocity P-wave (km/s) = 6.06106 7.75915 6.96207
#
# Compressibility (1/GPa) = 0.01838867
#
# Stress axis : x y z
#
# Youngs Moduli (GPa) = 32.41149 33.42802 79.93173
#
# Poissons Ratio (x) = 0.54977 1.10027
# Poissons Ratio (y) = 0.53305 -0.22112
# Poissons Ratio (z) = 0.44615 -0.09248
#
# Static dielectric constant tensor:
#      x y z
#    x 1.645680 0.000000 0.000000 
#    y 0.000000 1.517830 0.000000 
#    z 0.000000 0.000000 1.642460 
# 
# From -- ./inp_files/20533.got.cif
#   From: 2010.05.17/outbox.cif.g08.bks.cpg/sg59_11_cif.got.tgz:20533.got - 2010.06.03 14:40:33.
