data_PCOD9451621
_publ_section_title
;
Structure prediction by ZEFSAII (Michael W. Deem and Ramdas Pophale) SiO2 
 PCOD9451621
Probable space group: P M M N
;
_chemical_formula_sum "Si O2"
_cell_formula_units_Z 48
_cell_length_a 8.799257
_cell_length_b 18.686640
_cell_length_c 14.820704
_cell_angle_alpha 90.000000
_cell_angle_beta 90.000000
_cell_angle_gamma 90.000000
_cell_volume 2436.946836
_symmetry_space_group_name_H-M "P M M N"
_symmetry_group_IT_number 59
_space_group.IT_coordinate_system_code '2'
_symmetry_cell_setting 'orthorhombic'
loop_
_space_group_symop_operation_xyz
x,y,z
1/2-x,1/2-y,z
1/2+x,-y,-z
-x,1/2+y,-z
-x,-y,-z
1/2+x,1/2+y,-z
1/2-x,y,z
x,1/2-y,z
loop_
_atom_site_type_symbol
_atom_site_label
_atom_site_fract_x
_atom_site_fract_y
_atom_site_fract_z
Si Si1 0.068476 0.100163 0.754548
Si Si2 0.067510 0.750000 0.493717
Si Si3 0.432920 0.826870 0.830792
Si Si4 0.565835 0.480965 0.097002
Si Si5 0.075071 0.515136 0.404372
Si Si6 0.573692 0.851588 0.638542
Si Si7 0.067975 0.750000 0.281537
O O1 0.250000 0.105954 0.756698
O O2 0.015068 0.069741 0.657972
O O3 0.995265 0.178146 0.764153
O O4 0.021035 0.041385 0.829511
O O5 0.250000 0.750000 0.498583
O O6 0.022794 0.750000 0.388379
O O7 0.002684 0.682186 0.549540
O O8 0.250000 0.828734 0.832493
O O9 0.481806 0.750000 0.871606
O O10 0.486452 0.900988 0.875131
O O11 0.487087 0.827081 0.727550
O O12 0.750000 0.480630 0.094219
O O13 0.500000 0.500000 0.000000
O O14 0.250000 0.538772 0.413923
O O15 0.070281 0.437131 0.359381
O O16 0.000000 0.500000 0.500000
O O17 0.750000 0.830163 0.640175
O O18 0.250000 0.750000 0.278256
#
# Coordination Sequence:
#
# PCOD9451621 Si02
#       7
#     8   4   8   8   8   8   4
#     4  11  23  42  66  91 126 168 213 269 326 382
#     4  11  23  37  55  82 123 170 213 259 310 372
#     4  10  20  38  64  92 124 161 201 248 310 376
#     4  10  23  43  68  97 128 165 209 261 325 389
#     4  11  23  37  57  87 122 164 214 264 316 380
#     4  11  22  34  54  86 121 158 205 255 307 364
#     4  11  25  43  63  90 123 170 223 267 320 382
#
# _framework density 19.696777999999998
#
# number of rings (size 3 to 8) (size 9 to 14) (size 15 to 20)
#    0.000    1.333    2.500    3.000    0.000    8.000 
#    1.500    0.000    0.000    0.000    0.000    0.000 
#    0.000    0.000    0.000    0.000    0.000    0.000 
#
# Total GULP energy -268156.210340 kJ/mol
# GULP energy per Si atom -5586.587715 kJ/mol
# Density = 1.965195 g / cm^3
# Si number density = 19.696778 Si / 1000 Ang^3
#
#
#
# Elastic Constant Matrix: (Units=GPa)
#
#
# Indices 1 2 3 4 5 6 
#
# 1 34.9610 41.3004 22.4522 0.0000 0.0000 0.0000
# 2 41.3004 178.9322 60.5271 0.0000 0.0000 0.0000
# 3 22.4522 60.5271 101.5253 0.0000 0.0000 0.0000
# 4 0.0000 0.0000 0.0000 -36.3577 0.0000 0.0000
# 5 0.0000 0.0000 0.0000 0.0000 31.0931 0.0000
# 6 0.0000 0.0000 0.0000 0.0000 0.0000 26.7074
#
#
#
# Elastic Compliance Matrix: (Units=1/GPa)
#
#
# Indices 1 2 3 4 5 6 
#
# 1 0.040749 -0.007963 -0.004264 0.000000 0.000000 0.000000
# 2 -0.007963 0.008557 -0.003340 0.000000 0.000000 0.000000
# 3 -0.004264 -0.003340 0.012784 0.000000 0.000000 0.000000
# 4 0.000000 0.000000 0.000000 -0.027504 0.000000 0.000000
# 5 0.000000 0.000000 0.000000 0.000000 0.032162 0.000000
# 6 0.000000 0.000000 0.000000 0.000000 0.000000 0.037443
#
#
# Mechanical properties :
#
#
# Convention : Reuss Voigt Hill
#
# Bulk Modulus (GPa) = 32.30538 62.66422 47.48480
# Shear Modulus (GPa) = 34.33069 17.03114 25.68092
#
# Velocity S-wave (km/s) = 4.17941 2.94371 3.61475
# Velocity P-wave (km/s) = 6.30293 6.59071 6.44842
#
# Compressibility (1/GPa) = 0.03095460
#
# Stress axis : x y z
#
# Youngs Moduli (GPa) = 24.54067 116.86899 78.22188
#
# Poissons Ratio (x) = 0.93063 0.33355
# Poissons Ratio (y) = 0.19542 0.26128
# Poissons Ratio (z) = 0.10465 0.39037
#
# Static dielectric constant tensor:
#      x y z
#    x 1.667680 0.000000 0.000000 
#    y 0.000000 1.752660 0.000000 
#    z 0.000000 0.000000 1.655320 
# 
# From -- ./inp_files/20609.got.cif
#   From: 2010.05.17/outbox.cif.g08.bks.cpg/sg59_11_cif.got.tgz:20609.got - 2010.06.03 14:40:33.
