data_PCOD9451530
_publ_section_title
;
Structure prediction by ZEFSAII (Michael W. Deem and Ramdas Pophale) SiO2 
 PCOD9451530
Probable space group: P M M N
;
_chemical_formula_sum "Si O2"
_cell_formula_units_Z 64
_cell_length_a 16.388922
_cell_length_b 8.824156
_cell_length_c 22.233124
_cell_angle_alpha 90.000000
_cell_angle_beta 90.000000
_cell_angle_gamma 90.000000
_cell_volume 3215.318918
_symmetry_space_group_name_H-M "P M M N"
_symmetry_group_IT_number 59
_space_group.IT_coordinate_system_code '2'
_symmetry_cell_setting 'orthorhombic'
loop_
_space_group_symop_operation_xyz
x,y,z
1/2-x,1/2-y,z
1/2+x,-y,-z
-x,1/2+y,-z
-x,-y,-z
1/2+x,1/2+y,-z
1/2-x,y,z
x,1/2-y,z
loop_
_atom_site_type_symbol
_atom_site_label
_atom_site_fract_x
_atom_site_fract_y
_atom_site_fract_z
Si Si1 0.654638 0.072505 0.880073
Si Si2 0.576059 0.069308 0.754955
Si Si3 0.341813 0.930963 0.367919
Si Si4 0.589611 0.930874 0.000766
Si Si5 0.499990 0.931441 0.566672
Si Si6 0.652993 0.924882 0.131145
Si Si7 0.658586 0.930886 0.367924
Si Si8 0.903716 0.427559 0.251529
O O1 0.750000 0.059758 0.865842
O O2 0.635538 0.250000 0.890062
O O3 0.604815 0.022788 0.821346
O O4 0.635059 0.986235 0.941181
O O5 0.556896 0.250000 0.756151
O O6 0.643817 0.048162 0.703624
O O7 0.496603 0.976488 0.736639
O O8 0.250000 0.980894 0.384718
O O9 0.347690 0.750000 0.379626
O O10 0.417333 0.011100 0.400786
O O11 0.586074 0.750000 0.999907
O O12 0.631087 0.975827 0.063801
O O13 0.500000 0.000000 0.000000
O O14 0.499414 0.750000 0.565526
O O15 0.500000 0.000000 0.500000
O O16 0.417442 0.989917 0.599168
O O17 0.750000 0.926172 0.137715
O O18 0.624114 0.750000 0.138479
O O19 0.615149 0.025843 0.183276
O O20 0.750000 0.972799 0.389692
O O21 0.649598 0.750000 0.373541
O O22 0.650851 0.978623 0.298178
O O23 0.891537 0.250000 0.261127
#
# Coordination Sequence:
#
# PCOD9451530 Si02
#       8
#     8   8   8   8   8   8   8   8
#     4  10  21  37  58  86 118 155 201 253 311 375
#     4  10  20  37  62  89 124 167 210 254 307 376
#     4  10  21  40  68  99 132 174 222 268 317 377
#     4  11  23  39  58  81 111 152 202 254 312 377
#     4  12  26  45  70 100 137 177 218 266 318 376
#     4  10  22  40  59  79 109 154 205 254 309 376
#     4  11  24  44  70  98 131 173 219 268 323 383
#     4  12  24  37  59  93 128 161 203 259 320 379
#
# _framework density 19.904713999999998
#
# number of rings (size 3 to 8) (size 9 to 14) (size 15 to 20)
#    0.000    1.250    1.250    4.875    0.000   10.250 
#    0.000    0.000    0.000    2.250    0.000    0.000 
#    0.000    0.000    0.000    0.000    0.000    0.000 
#
# Total GULP energy -357770.033030 kJ/mol
# GULP energy per Si atom -5590.156766 kJ/mol
# Density = 1.985941 g / cm^3
# Si number density = 19.904714 Si / 1000 Ang^3
#
#
#
# Elastic Constant Matrix: (Units=GPa)
#
#
# Indices 1 2 3 4 5 6 
#
# 1 126.3661 53.6974 47.5654 0.0000 0.0000 0.0000
# 2 53.6974 68.1605 36.2638 0.0000 0.0000 0.0000
# 3 47.5654 36.2638 105.7892 0.0000 0.0000 0.0000
# 4 0.0000 0.0000 0.0000 31.8150 0.0000 0.0000
# 5 0.0000 0.0000 0.0000 0.0000 18.4499 0.0000
# 6 0.0000 0.0000 0.0000 0.0000 0.0000 14.6116
#
#
#
# Elastic Compliance Matrix: (Units=1/GPa)
#
#
# Indices 1 2 3 4 5 6 
#
# 1 0.012517 -0.008398 -0.002749 0.000000 0.000000 0.000000
# 2 -0.008398 0.023579 -0.004307 0.000000 0.000000 0.000000
# 3 -0.002749 -0.004307 0.012165 0.000000 0.000000 0.000000
# 4 0.000000 0.000000 0.000000 0.031432 0.000000 0.000000
# 5 0.000000 0.000000 0.000000 0.000000 0.054201 0.000000
# 6 0.000000 0.000000 0.000000 0.000000 0.000000 0.068439
#
#
# Mechanical properties :
#
#
# Convention : Reuss Voigt Hill
#
# Bulk Modulus (GPa) = 57.62720 63.92989 60.77855
# Shear Modulus (GPa) = 20.91837 23.82793 22.37315
#
# Velocity S-wave (km/s) = 3.24531 3.46367 3.35627
# Velocity P-wave (km/s) = 6.56179 6.94145 6.75429
#
# Compressibility (1/GPa) = 0.01735292
#
# Stress axis : x y z
#
# Youngs Moduli (GPa) = 79.89087 42.41094 82.20277
#
# Poissons Ratio (x) = 0.35619 0.22598
# Poissons Ratio (y) = 0.67096 0.35401
# Poissons Ratio (z) = 0.21962 0.18264
#
# Static dielectric constant tensor:
#      x y z
#    x 1.705600 0.000000 0.000000 
#    y 0.000000 1.673150 0.000000 
#    z 0.000000 0.000000 1.722130 
# 
# From -- ./inp_files/32135.got.cif
#   From: 2010.05.17/outbox.cif.g08.bks.cpg/sg59_17_cif.got.tgz:32135.got - 2010.06.03 14:40:33.
