data_PCOD9451407
_publ_section_title
;
Structure prediction by ZEFSAII (Michael W. Deem and Ramdas Pophale) SiO2 
 PCOD9451407
Probable space group: P M M N
;
_chemical_formula_sum "Si O2"
_cell_formula_units_Z 64
_cell_length_a 14.119665
_cell_length_b 22.482260
_cell_length_c 8.919433
_cell_angle_alpha 90.000000
_cell_angle_beta 90.000000
_cell_angle_gamma 90.000000
_cell_volume 2831.402469
_symmetry_space_group_name_H-M "P M M N"
_symmetry_group_IT_number 59
_space_group.IT_coordinate_system_code '2'
_symmetry_cell_setting 'orthorhombic'
loop_
_space_group_symop_operation_xyz
x,y,z
1/2-x,1/2-y,z
1/2+x,-y,-z
-x,1/2+y,-z
-x,-y,-z
1/2+x,1/2+y,-z
1/2-x,y,z
x,1/2-y,z
loop_
_atom_site_type_symbol
_atom_site_label
_atom_site_fract_x
_atom_site_fract_y
_atom_site_fract_z
Si Si1 0.363944 0.989268 0.898232
Si Si2 0.850315 0.317950 0.042267
Si Si3 0.066733 0.183134 0.080091
Si Si4 0.488198 0.092341 0.277363
Si Si5 0.361045 0.508424 0.257057
Si Si6 0.362463 0.377671 0.786683
Si Si7 0.145754 0.857598 0.286112
Si Si8 0.977432 0.682292 0.462536
O O1 0.250000 0.979600 0.881989
O O2 0.425750 0.937888 0.817222
O O3 0.388083 0.053715 0.824775
O O4 0.384484 0.991862 0.077328
O O5 0.750000 0.329470 0.124782
O O6 0.844712 0.250000 0.986915
O O7 0.852577 0.357154 0.894211
O O8 0.953560 0.319358 0.112904
O O9 0.100677 0.250000 0.111176
O O10 0.089437 0.164880 0.911162
O O11 0.093897 0.126923 0.180014
O O12 0.430359 0.036319 0.339635
O O13 0.512253 0.140121 0.403722
O O14 0.250000 0.493519 0.269987
O O15 0.373686 0.574069 0.323494
O O16 0.250000 0.373037 0.803276
O O17 0.395566 0.352475 0.627165
O O18 0.250000 0.839921 0.338769
O O19 0.064836 0.816466 0.347978
O O20 0.952428 0.750000 0.507003
#
# Coordination Sequence:
#
# PCOD9451407 Si02
#       8
#     8   8   8   8   8   8   8   8
#     4  10  22  41  68 102 134 163 207 269 331 388
#     4   9  17  31  55  88 121 153 199 259 313 365
#     4  11  22  38  63  93 123 164 220 267 311 376
#     4  12  25  40  64  92 133 173 208 256 329 385
#     4  10  21  39  65  97 128 159 208 273 330 380
#     4  11  24  44  69  94 124 166 220 275 321 370
#     4  10  20  36  62  91 123 165 208 251 313 385
#     4  12  27  45  61  90 134 177 218 262 315 379
#
# _framework density 22.603639999999999
#
# number of rings (size 3 to 8) (size 9 to 14) (size 15 to 20)
#    0.000    1.375    2.500    3.000    0.000    6.250 
#    0.000    2.500    0.000    4.500    0.000    0.000 
#    0.000    0.000    0.000    0.000    0.000    0.000 
#
# Total GULP energy -357172.132093 kJ/mol
# GULP energy per Si atom -5580.814564 kJ/mol
# Density = 2.255219 g / cm^3
# Si number density = 22.603640 Si / 1000 Ang^3
#
#
#
# Elastic Constant Matrix: (Units=GPa)
#
#
# Indices 1 2 3 4 5 6 
#
# 1 67.3845 32.0880 21.0362 0.0000 0.0000 0.0000
# 2 32.0880 130.8011 13.8160 0.0000 0.0000 0.0000
# 3 21.0362 13.8160 50.9368 0.0000 0.0000 0.0000
# 4 0.0000 0.0000 0.0000 21.0338 0.0000 0.0000
# 5 0.0000 0.0000 0.0000 0.0000 9.7145 0.0000
# 6 0.0000 0.0000 0.0000 0.0000 0.0000 18.4946
#
#
#
# Elastic Compliance Matrix: (Units=1/GPa)
#
#
# Indices 1 2 3 4 5 6 
#
# 1 0.018790 -0.003902 -0.006702 0.000000 0.000000 0.000000
# 2 -0.003902 0.008681 -0.000743 0.000000 0.000000 0.000000
# 3 -0.006702 -0.000743 0.022602 0.000000 0.000000 0.000000
# 4 0.000000 0.000000 0.000000 0.047543 0.000000 0.000000
# 5 0.000000 0.000000 0.000000 0.000000 0.102939 0.000000
# 6 0.000000 0.000000 0.000000 0.000000 0.000000 0.054070
#
#
# Mechanical properties :
#
#
# Convention : Reuss Voigt Hill
#
# Bulk Modulus (GPa) = 36.52415 42.55587 39.54001
# Shear Modulus (GPa) = 17.45539 21.99404 19.72471
#
# Velocity S-wave (km/s) = 2.78193 3.12273 2.95724
# Velocity P-wave (km/s) = 5.14903 5.64533 5.40288
#
# Compressibility (1/GPa) = 0.02737915
#
# Stress axis : x y z
#
# Youngs Moduli (GPa) = 53.21876 115.19582 44.24477
#
# Poissons Ratio (x) = 0.44946 0.29652
# Poissons Ratio (y) = 0.20765 0.03288
# Poissons Ratio (z) = 0.35666 0.08562
#
# Static dielectric constant tensor:
#      x y z
#    x 1.883820 0.000000 0.000000 
#    y 0.000000 1.940610 0.000000 
#    z 0.000000 0.000000 1.883210 
# 
# From -- ./inp_files/9553.got.cif
#   From: 2010.05.17/outbox.cif.g08.bks.cpg/sg59_5_cif.got.tgz:9553.got - 2010.06.03 14:40:33.
