data_PCOD9451226
_publ_section_title
;
Structure prediction by ZEFSAII (Michael W. Deem and Ramdas Pophale) SiO2 
 PCOD9451226
Probable space group: P M M N
;
_chemical_formula_sum "Si O2"
_cell_formula_units_Z 48
_cell_length_a 8.461707
_cell_length_b 31.281744
_cell_length_c 9.765621
_cell_angle_alpha 90.000000
_cell_angle_beta 90.000000
_cell_angle_gamma 90.000000
_cell_volume 2584.930115
_symmetry_space_group_name_H-M "P M M N"
_symmetry_group_IT_number 59
_space_group.IT_coordinate_system_code '2'
_symmetry_cell_setting 'orthorhombic'
loop_
_space_group_symop_operation_xyz
x,y,z
1/2-x,1/2-y,z
1/2+x,-y,-z
-x,1/2+y,-z
-x,-y,-z
1/2+x,1/2+y,-z
1/2-x,y,z
x,1/2-y,z
loop_
_atom_site_type_symbol
_atom_site_label
_atom_site_fract_x
_atom_site_fract_y
_atom_site_fract_z
Si Si1 0.439029 0.999380 0.845762
Si Si2 0.940963 0.750000 0.154218
Si Si3 0.941339 0.673226 0.349780
Si Si4 0.439628 0.671939 0.654579
Si Si5 0.940793 0.250000 0.154902
Si Si6 0.939318 0.576721 0.660347
Si Si7 0.557770 0.924167 0.347577
O O1 0.250000 0.001175 0.848162
O O2 0.491391 0.956938 0.766142
O O3 0.498414 0.040328 0.758696
O O4 0.500000 0.000000 0.000000
O O5 0.750000 0.750000 0.151925
O O6 0.992444 0.708092 0.239046
O O7 0.000874 0.750000 0.999964
O O8 0.750000 0.673834 0.356829
O O9 0.990485 0.624563 0.315344
O O10 0.004953 0.683368 0.501076
O O11 0.250000 0.669811 0.656119
O O12 0.492833 0.707998 0.761418
O O13 0.507672 0.625224 0.688000
O O14 0.750000 0.250000 0.154677
O O15 0.750000 0.574762 0.664681
O O16 0.991305 0.566269 0.504076
O O17 0.750000 0.924760 0.346273
#
# Coordination Sequence:
#
# PCOD9451226 Si02
#       7
#     8   4   8   8   4   8   8
#     4  11  22  36  53  78 111 147 182 221 269 324
#     4  10  21  34  54  82 112 146 185 222 264 316
#     4   9  18  35  56  81 107 136 178 226 267 312
#     4  10  20  36  57  82 108 140 179 221 268 323
#     4  10  23  38  52  76 114 148 177 214 264 322
#     4  10  20  37  59  82 105 136 178 227 275 321
#     4   8  17  34  56  78 105 138 176 221 268 313
#
# _framework density 18.569167
#
# number of rings (size 3 to 8) (size 9 to 14) (size 15 to 20)
#    0.000    2.333    0.000    3.500    0.000    3.333 
#    0.000    9.167    0.000    0.000    0.000    0.000 
#    0.000    0.000    0.000    0.000    0.000    0.000 
#
# Total GULP energy -267974.227414 kJ/mol
# GULP energy per Si atom -5582.796404 kJ/mol
# Density = 1.852690 g / cm^3
# Si number density = 18.569167 Si / 1000 Ang^3
#
#
#
# Elastic Constant Matrix: (Units=GPa)
#
#
# Indices 1 2 3 4 5 6 
#
# 1 31.6941 29.3391 31.7078 0.0000 0.0000 0.0000
# 2 29.3391 151.2220 143.7057 0.0000 0.0000 0.0000
# 3 31.7078 143.7057 183.4292 0.0000 0.0000 0.0000
# 4 0.0000 0.0000 0.0000 -5.3737 0.0000 0.0000
# 5 0.0000 0.0000 0.0000 0.0000 31.2417 0.0000
# 6 0.0000 0.0000 0.0000 0.0000 0.0000 18.4575
#
#
#
# Elastic Compliance Matrix: (Units=1/GPa)
#
#
# Indices 1 2 3 4 5 6 
#
# 1 0.038927 -0.004532 -0.003179 0.000000 0.000000 0.000000
# 2 -0.004532 0.026409 -0.019907 0.000000 0.000000 0.000000
# 3 -0.003179 -0.019907 0.021597 0.000000 0.000000 0.000000
# 4 0.000000 0.000000 0.000000 -0.186093 0.000000 0.000000
# 5 0.000000 0.000000 0.000000 0.000000 0.032008 0.000000
# 6 0.000000 0.000000 0.000000 0.000000 0.000000 0.054179
#
#
# Mechanical properties :
#
#
# Convention : Reuss Voigt Hill
#
# Bulk Modulus (GPa) = 31.54703 86.20562 58.87632
# Shear Modulus (GPa) = 94.64854 19.63796 57.14325
#
# Velocity S-wave (km/s) = 7.14713 3.25554 5.55338
# Velocity P-wave (km/s) = 9.22683 7.78821 8.53788
#
# Compressibility (1/GPa) = 0.03169870
#
# Stress axis : x y z
#
# Youngs Moduli (GPa) = 25.68943 37.86544 46.30297
#
# Poissons Ratio (x) = 0.17159 0.14718
# Poissons Ratio (y) = 0.11642 0.92174
# Poissons Ratio (z) = 0.08166 0.75378
#
# Static dielectric constant tensor:
#      x y z
#    x 1.635200 0.000000 0.000000 
#    y 0.000000 1.639080 0.000000 
#    z 0.000000 0.000000 1.606420 
# 
# From -- ./inp_files/6425.got.cif
#   From: 2010.05.17/outbox.cif.g08.bks.cpg/sg59_4_cif.got.tgz:6425.got - 2010.06.03 14:40:33.
