data_PCOD9451258
_publ_section_title
;
Structure prediction by ZEFSAII (Michael W. Deem and Ramdas Pophale) SiO2 
 PCOD9451258
Probable space group: P M M N
;
_chemical_formula_sum "Si O2"
_cell_formula_units_Z 56
_cell_length_a 22.418183
_cell_length_b 8.161412
_cell_length_c 15.006163
_cell_angle_alpha 90.000000
_cell_angle_beta 90.000000
_cell_angle_gamma 90.000000
_cell_volume 2745.588024
_symmetry_space_group_name_H-M "P M M N"
_symmetry_group_IT_number 59
_space_group.IT_coordinate_system_code '2'
_symmetry_cell_setting 'orthorhombic'
loop_
_space_group_symop_operation_xyz
x,y,z
1/2-x,1/2-y,z
1/2+x,-y,-z
-x,1/2+y,-z
-x,-y,-z
1/2+x,1/2+y,-z
1/2-x,y,z
x,1/2-y,z
loop_
_atom_site_type_symbol
_atom_site_label
_atom_site_fract_x
_atom_site_fract_y
_atom_site_fract_z
Si Si1 0.130298 0.944596 0.624485
Si Si2 0.682297 0.551782 0.756342
Si Si3 0.182697 0.053034 0.448378
Si Si4 0.750000 0.050921 0.069649
Si Si5 0.750000 0.049830 0.277481
Si Si6 0.050900 0.054830 0.778824
Si Si7 0.569279 0.445976 0.867668
Si Si8 0.380852 0.948462 0.952227
O O1 0.132942 0.750000 0.627312
O O2 0.190205 0.009376 0.673784
O O3 0.135978 0.997774 0.522315
O O4 0.074096 0.997259 0.683148
O O5 0.750000 0.500967 0.780084
O O6 0.680414 0.750000 0.759867
O O7 0.671107 0.501711 0.653322
O O8 0.631048 0.482010 0.818218
O O9 0.250000 0.993884 0.472280
O O10 0.184242 0.250000 0.448611
O O11 0.750000 0.250000 0.065237
O O12 0.750000 0.004558 0.173932
O O13 0.812922 0.995270 0.029894
O O14 0.750000 0.250000 0.280198
O O15 0.048181 0.250000 0.776059
O O16 0.986990 0.988323 0.812376
O O17 0.097457 0.003093 0.855506
O O18 0.561892 0.250000 0.873334
O O19 0.576190 0.508827 0.968838
O O20 0.380928 0.750000 0.952312
#
# Coordination Sequence:
#
# PCOD9451258 Si02
#       8
#     8   8   8   4   4   8   8   8
#     4  11  20  33  55  83 113 148 187 226 273 331
#     4   9  20  39  61  85 115 146 180 227 282 337
#     4   9  18  34  56  84 116 147 177 220 282 339
#     4   9  16  30  52  79 110 137 173 228 274 320
#     4   9  16  28  48  77 110 139 175 224 268 320
#     4  11  23  38  53  79 116 152 189 232 275 328
#     4  10  23  39  58  82 110 147 194 237 275 323
#     4  10  20  36  58  82 109 147 189 230 279 330
#
# _framework density 20.396357999999999
#
# number of rings (size 3 to 8) (size 9 to 14) (size 15 to 20)
#    0.000    2.143    2.143    2.143    1.000    2.571 
#    0.000    3.214    0.000    0.000    0.000    0.000 
#    0.000    0.000    0.000    0.000    0.000    0.000 
#
# Total GULP energy -312618.821321 kJ/mol
# GULP energy per Si atom -5582.478952 kJ/mol
# Density = 2.034994 g / cm^3
# Si number density = 20.396358 Si / 1000 Ang^3
#
#
#
# Elastic Constant Matrix: (Units=GPa)
#
#
# Indices 1 2 3 4 5 6 
#
# 1 57.8780 -8.9582 1.2984 0.0000 0.0000 0.0000
# 2 -8.9582 9.8162 -6.5175 0.0000 0.0000 0.0000
# 3 1.2984 -6.5175 45.1570 0.0000 0.0000 0.0000
# 4 0.0000 0.0000 0.0000 24.7997 0.0000 0.0000
# 5 0.0000 0.0000 0.0000 0.0000 19.6053 0.0000
# 6 0.0000 0.0000 0.0000 0.0000 0.0000 20.0631
#
#
#
# Elastic Compliance Matrix: (Units=1/GPa)
#
#
# Indices 1 2 3 4 5 6 
#
# 1 0.020336 0.020096 0.002316 0.000000 0.000000 0.000000
# 2 0.020096 0.132529 0.018550 0.000000 0.000000 0.000000
# 3 0.002316 0.018550 0.024756 0.000000 0.000000 0.000000
# 4 0.000000 0.000000 0.000000 0.040323 0.000000 0.000000
# 5 0.000000 0.000000 0.000000 0.000000 0.051006 0.000000
# 6 0.000000 0.000000 0.000000 0.000000 0.000000 0.049843
#
#
# Mechanical properties :
#
#
# Convention : Reuss Voigt Hill
#
# Bulk Modulus (GPa) = 3.85289 9.38850 6.62069
# Shear Modulus (GPa) = 15.46151 21.36222 18.41186
#
# Velocity S-wave (km/s) = 2.75626 3.23980 3.00776
# Velocity P-wave (km/s) = 3.46734 4.31371 3.91347
#
# Compressibility (1/GPa) = 0.25954567
#
# Stress axis : x y z
#
# Youngs Moduli (GPa) = 49.17327 7.54551 40.39474
#
# Poissons Ratio (x) = -0.15164 -0.09355
# Poissons Ratio (y) = -0.98821 -0.74933
# Poissons Ratio (z) = -0.11388 -0.13997
#
# Static dielectric constant tensor:
#      x y z
#    x 1.747110 0.000000 0.000000 
#    y 0.000000 1.709710 0.000000 
#    z 0.000000 0.000000 1.729740 
# 
# From -- ./inp_files/24362.got.cif
#   From: 2010.05.17/outbox.cif.g08.bks.cpg/sg59_13_cif.got.tgz:24362.got - 2010.06.03 14:40:33.
