data_PCOD9451070
_publ_section_title
;
Structure prediction by ZEFSAII (Michael W. Deem and Ramdas Pophale) SiO2 
 PCOD9451070
Probable space group: P M M N
;
_chemical_formula_sum "Si O2"
_cell_formula_units_Z 64
_cell_length_a 8.902568
_cell_length_b 18.891934
_cell_length_c 21.373424
_cell_angle_alpha 90.000000
_cell_angle_beta 90.000000
_cell_angle_gamma 90.000000
_cell_volume 3594.726229
_symmetry_space_group_name_H-M "P M M N"
_symmetry_group_IT_number 59
_space_group.IT_coordinate_system_code '2'
_symmetry_cell_setting 'orthorhombic'
loop_
_space_group_symop_operation_xyz
x,y,z
1/2-x,1/2-y,z
1/2+x,-y,-z
-x,1/2+y,-z
-x,-y,-z
1/2+x,1/2+y,-z
1/2-x,y,z
x,1/2-y,z
loop_
_atom_site_type_symbol
_atom_site_label
_atom_site_fract_x
_atom_site_fract_y
_atom_site_fract_z
Si Si1 0.069804 0.577667 0.506114
Si Si2 0.571540 0.831803 0.250225
Si Si3 0.430226 0.669167 0.879585
Si Si4 0.928943 0.033386 0.805968
Si Si5 0.571157 0.964489 0.939395
Si Si6 0.430405 0.333426 0.379934
Si Si7 0.429751 0.601165 0.745177
Si Si8 0.926022 0.332710 0.617305
O O1 0.250000 0.573514 0.513507
O O2 0.037212 0.619653 0.441989
O O3 0.000000 0.500000 0.500000
O O4 0.000401 0.621228 0.563696
O O5 0.750000 0.838395 0.242930
O O6 0.528542 0.750000 0.237777
O O7 0.487749 0.888508 0.207781
O O8 0.524697 0.847348 0.321812
O O9 0.250000 0.664056 0.886729
O O10 0.476228 0.750000 0.889970
O O11 0.507613 0.613502 0.925422
O O12 0.464392 0.646006 0.808108
O O13 0.750000 0.029123 0.797363
O O14 0.965187 0.009011 0.876561
O O15 0.008004 0.977198 0.759684
O O16 0.750000 0.961947 0.945834
O O17 0.500000 0.000000 0.000000
O O18 0.250000 0.339938 0.380825
O O19 0.468764 0.250000 0.385954
O O20 0.494055 0.363885 0.314878
O O21 0.250000 0.599293 0.737132
O O22 0.750000 0.343639 0.633601
O O23 0.944562 0.250000 0.600586
#
# Coordination Sequence:
#
# PCOD9451070 Si02
#       8
#     8   8   8   8   8   8   8   8
#     4  11  24  40  58  80 109 146 188 236 285 337
#     4  10  21  36  57  85 113 143 184 233 283 334
#     4   9  18  34  57  85 116 149 187 231 278 331
#     4  10  21  37  58  84 115 149 186 229 278 332
#     4  10  21  37  58  84 114 152 192 231 276 326
#     4  11  24  40  58  82 114 150 187 231 283 337
#     4  10  20  35  58  86 115 149 187 230 280 333
#     4   9  19  37  59  79 102 139 184 230 282 338
#
# _framework density 17.803858999999999
#
# number of rings (size 3 to 8) (size 9 to 14) (size 15 to 20)
#    0.000    2.000    0.000    3.000    1.750    6.000 
#    0.000    1.875    0.000    0.750    0.000    0.000 
#    0.000    0.000    0.000    0.000    0.000    0.000 
#
# Total GULP energy -357481.546204 kJ/mol
# GULP energy per Si atom -5585.649159 kJ/mol
# Density = 1.776334 g / cm^3
# Si number density = 17.803859 Si / 1000 Ang^3
#
#
#
# Elastic Constant Matrix: (Units=GPa)
#
#
# Indices 1 2 3 4 5 6 
#
# 1 56.2568 64.3227 49.4925 0.0000 0.0000 0.0000
# 2 64.3227 145.7613 87.0763 0.0000 0.0000 0.0000
# 3 49.4925 87.0763 86.6261 0.0000 0.0000 0.0000
# 4 0.0000 0.0000 0.0000 27.9025 0.0000 0.0000
# 5 0.0000 0.0000 0.0000 0.0000 30.1916 0.0000
# 6 0.0000 0.0000 0.0000 0.0000 0.0000 33.5695
#
#
#
# Elastic Compliance Matrix: (Units=1/GPa)
#
#
# Indices 1 2 3 4 5 6 
#
# 1 0.041096 -0.010285 -0.013142 0.000000 0.000000 0.000000
# 2 -0.010285 0.019746 -0.013973 0.000000 0.000000 0.000000
# 3 -0.013142 -0.013973 0.033098 0.000000 0.000000 0.000000
# 4 0.000000 0.000000 0.000000 0.035839 0.000000 0.000000
# 5 0.000000 0.000000 0.000000 0.000000 0.033122 0.000000
# 6 0.000000 0.000000 0.000000 0.000000 0.000000 0.029789
#
#
# Mechanical properties :
#
#
# Convention : Reuss Voigt Hill
#
# Bulk Modulus (GPa) = 52.24156 76.71415 64.47785
# Shear Modulus (GPa) = 18.25683 24.18289 21.21986
#
# Velocity S-wave (km/s) = 3.20573 3.68950 3.45609
# Velocity P-wave (km/s) = 6.56573 7.83147 7.22637
#
# Compressibility (1/GPa) = 0.01914185
#
# Stress axis : x y z
#
# Youngs Moduli (GPa) = 24.33298 50.64233 30.21338
#
# Poissons Ratio (x) = 0.52083 0.39706
# Poissons Ratio (y) = 0.25025 0.42217
# Poissons Ratio (z) = 0.31978 0.70763
#
# Static dielectric constant tensor:
#      x y z
#    x 1.596770 0.000000 0.000000 
#    y 0.000000 1.584780 0.000000 
#    z 0.000000 0.000000 1.576670 
# 
# From -- ./inp_files/29596.got.cif
#   From: 2010.05.17/outbox.cif.g08.bks.cpg/sg59_15_cif.got.tgz:29596.got - 2010.06.03 14:40:33.
