data_PCOD9451376
_publ_section_title
;
Structure prediction by ZEFSAII (Michael W. Deem and Ramdas Pophale) SiO2 
 PCOD9451376
Probable space group: P M M N
;
_chemical_formula_sum "Si O2"
_cell_formula_units_Z 40
_cell_length_a 15.578573
_cell_length_b 8.828179
_cell_length_c 15.769774
_cell_angle_alpha 90.000000
_cell_angle_beta 90.000000
_cell_angle_gamma 90.000000
_cell_volume 2168.823815
_symmetry_space_group_name_H-M "P M M N"
_symmetry_group_IT_number 59
_space_group.IT_coordinate_system_code '2'
_symmetry_cell_setting 'orthorhombic'
loop_
_space_group_symop_operation_xyz
x,y,z
1/2-x,1/2-y,z
1/2+x,-y,-z
-x,1/2+y,-z
-x,-y,-z
1/2+x,1/2+y,-z
1/2-x,y,z
x,1/2-y,z
loop_
_atom_site_type_symbol
_atom_site_label
_atom_site_fract_x
_atom_site_fract_y
_atom_site_fract_z
Si Si1 0.998876 0.576540 0.091164
Si Si2 0.750000 0.931759 0.657145
Si Si3 0.408374 0.575084 0.648143
Si Si4 0.750000 0.065249 0.468928
Si Si5 0.848266 0.083009 0.161285
Si Si6 0.574605 0.432816 0.729948
O O1 0.023008 0.750000 0.080969
O O2 0.052119 0.516895 0.173036
O O3 0.902021 0.551762 0.122565
O O4 0.000000 0.500000 0.000000
O O5 0.750000 0.750000 0.658673
O O6 0.750000 0.994308 0.561412
O O7 0.836006 0.995732 0.701111
O O8 0.430994 0.750000 0.627671
O O9 0.338040 0.520292 0.580067
O O10 0.358045 0.576039 0.737614
O O11 0.496083 0.485481 0.668626
O O12 0.750000 0.250000 0.471865
O O13 0.750000 0.076200 0.136749
O O14 0.883190 0.250000 0.135387
O O15 0.578786 0.250000 0.728391
#
# Coordination Sequence:
#
# PCOD9451376 Si02
#       6
#     8   4   8   4   8   8
#     4  10  21  37  58  84 112 145 185 230 281 337
#     4  12  26  42  60  83 112 155 202 243 288 343
#     4   9  17  33  59  89 117 150 190 233 283 337
#     4  10  20  36  60  89 122 155 192 239 286 341
#     4   9  16  30  54  83 114 146 179 221 277 333
#     4  10  22  41  62  84 115 154 193 239 293 343
#
# _framework density 18.443176000000001
#
# number of rings (size 3 to 8) (size 9 to 14) (size 15 to 20)
#    0.000    2.200    1.000    2.100    0.000    4.400 
#    1.800    0.000    0.000    0.000    0.000    0.000 
#    0.000    0.000    0.000    0.000    0.000    0.000 
#
# Total GULP energy -222867.902631 kJ/mol
# GULP energy per Si atom -5571.697566 kJ/mol
# Density = 1.840120 g / cm^3
# Si number density = 18.443176 Si / 1000 Ang^3
#
#
#
# Elastic Constant Matrix: (Units=GPa)
#
#
# Indices 1 2 3 4 5 6 
#
# 1 135.4239 46.0218 74.1692 0.0000 0.0000 0.0000
# 2 46.0218 51.0402 44.9357 0.0000 0.0000 0.0000
# 3 74.1692 44.9357 122.4182 0.0000 0.0000 0.0000
# 4 0.0000 0.0000 0.0000 29.1080 0.0000 0.0000
# 5 0.0000 0.0000 0.0000 0.0000 8.9192 0.0000
# 6 0.0000 0.0000 0.0000 0.0000 0.0000 19.5108
#
#
#
# Elastic Compliance Matrix: (Units=1/GPa)
#
#
# Indices 1 2 3 4 5 6 
#
# 1 0.012460 -0.006779 -0.005060 0.000000 0.000000 0.000000
# 2 -0.006779 0.032636 -0.007872 0.000000 0.000000 0.000000
# 3 -0.005060 -0.007872 0.014124 0.000000 0.000000 0.000000
# 4 0.000000 0.000000 0.000000 0.034355 0.000000 0.000000
# 5 0.000000 0.000000 0.000000 0.000000 0.112117 0.000000
# 6 0.000000 0.000000 0.000000 0.000000 0.000000 0.051254
#
#
# Mechanical properties :
#
#
# Convention : Reuss Voigt Hill
#
# Bulk Modulus (GPa) = 50.51558 71.01509 60.76534
# Shear Modulus (GPa) = 16.50341 21.09132 18.79736
#
# Velocity S-wave (km/s) = 2.99461 3.38536 3.19596
# Velocity P-wave (km/s) = 6.27744 7.33957 6.82918
#
# Compressibility (1/GPa) = 0.01979587
#
# Stress axis : x y z
#
# Youngs Moduli (GPa) = 80.25969 30.64114 70.80027
#
# Poissons Ratio (x) = 0.20773 0.35827
# Poissons Ratio (y) = 0.54411 0.55735
# Poissons Ratio (z) = 0.40614 0.24121
#
# Static dielectric constant tensor:
#      x y z
#    x 1.630090 0.000000 0.000000 
#    y 0.000000 1.669180 0.000000 
#    z 0.000000 0.000000 1.648060 
# 
# From -- ./inp_files/22988.got.cif
#   From: 2010.05.17/outbox.cif.g08.bks.cpg/sg59_12_cif.got.tgz:22988.got - 2010.06.03 14:40:33.
