data_PCOD9451063
_publ_section_title
;
Structure prediction by ZEFSAII (Michael W. Deem and Ramdas Pophale) SiO2 
 PCOD9451063
Probable space group: P M M N
;
_chemical_formula_sum "Si O2"
_cell_formula_units_Z 56
_cell_length_a 16.157928
_cell_length_b 9.165315
_cell_length_c 19.941267
_cell_angle_alpha 90.000000
_cell_angle_beta 90.000000
_cell_angle_gamma 90.000000
_cell_volume 2953.152081
_symmetry_space_group_name_H-M "P M M N"
_symmetry_group_IT_number 59
_space_group.IT_coordinate_system_code '2'
_symmetry_cell_setting 'orthorhombic'
loop_
_space_group_symop_operation_xyz
x,y,z
1/2-x,1/2-y,z
1/2+x,-y,-z
-x,1/2+y,-z
-x,-y,-z
1/2+x,1/2+y,-z
1/2-x,y,z
x,1/2-y,z
loop_
_atom_site_type_symbol
_atom_site_label
_atom_site_fract_x
_atom_site_fract_y
_atom_site_fract_z
Si Si1 0.654096 0.422231 0.152196
Si Si2 0.750000 0.574508 0.946547
Si Si3 0.750000 0.425438 0.801992
Si Si4 0.848907 0.422771 0.431833
Si Si5 0.399981 0.924273 0.296549
Si Si6 0.417617 0.075253 0.971716
Si Si7 0.350260 0.082693 0.432945
Si Si8 0.929971 0.423383 0.290720
O O1 0.750000 0.455216 0.139416
O O2 0.640006 0.250000 0.138219
O O3 0.598610 0.518388 0.103343
O O4 0.633679 0.446190 0.230124
O O5 0.750000 0.750000 0.939989
O O6 0.750000 0.501765 0.873682
O O7 0.665654 0.534714 0.986346
O O8 0.750000 0.250000 0.810919
O O9 0.670233 0.465245 0.757271
O O10 0.750000 0.444198 0.423758
O O11 0.862173 0.250000 0.443031
O O12 0.877256 0.511336 0.496957
O O13 0.893514 0.465520 0.363028
O O14 0.401060 0.750000 0.301898
O O15 0.379385 0.992853 0.368783
O O16 0.487855 0.987601 0.275400
O O17 0.426121 0.250000 0.973626
O O18 0.500000 0.000000 0.000000
O O19 0.250000 0.080795 0.432742
O O20 0.378428 0.250000 0.427993
O O21 0.948314 0.250000 0.293226
#
# Coordination Sequence:
#
# PCOD9451063 Si02
#       8
#     8   4   4   8   8   8   8   8
#     4  10  21  40  66  93 123 162 203 246 297 358
#     4  10  24  44  66  92 125 162 203 250 305 362
#     4  10  24  42  62  86 115 152 197 242 293 356
#     4   9  18  35  59  84 114 154 194 239 291 346
#     4  11  23  40  59  84 116 153 196 243 296 354
#     4  11  24  43  65  95 129 165 207 253 304 365
#     4  10  20  35  58  85 113 150 196 244 294 351
#     4  10  22  38  58  88 121 153 196 244 294 350
#
# _framework density 18.962789999999998
#
# number of rings (size 3 to 8) (size 9 to 14) (size 15 to 20)
#    0.000    1.857    1.429    1.714    2.000    6.286 
#    0.000    0.000    0.000    2.571    0.000    0.000 
#    0.000    0.000    0.000    0.000    0.000    0.000 
#
# Total GULP energy -312861.185395 kJ/mol
# GULP energy per Si atom -5586.806882 kJ/mol
# Density = 1.891963 g / cm^3
# Si number density = 18.962790 Si / 1000 Ang^3
#
#
#
# Elastic Constant Matrix: (Units=GPa)
#
#
# Indices 1 2 3 4 5 6 
#
# 1 73.2178 32.8129 27.5033 0.0000 0.0000 0.0000
# 2 32.8129 38.9669 35.5238 0.0000 0.0000 0.0000
# 3 27.5033 35.5238 103.3065 0.0000 0.0000 0.0000
# 4 0.0000 0.0000 0.0000 35.9566 0.0000 0.0000
# 5 0.0000 0.0000 0.0000 0.0000 99.1558 0.0000
# 6 0.0000 0.0000 0.0000 0.0000 0.0000 28.0097
#
#
#
# Elastic Compliance Matrix: (Units=1/GPa)
#
#
# Indices 1 2 3 4 5 6 
#
# 1 0.021976 -0.019186 0.000747 0.000000 0.000000 0.000000
# 2 -0.019186 0.054132 -0.013506 0.000000 0.000000 0.000000
# 3 0.000747 -0.013506 0.014125 0.000000 0.000000 0.000000
# 4 0.000000 0.000000 0.000000 0.027811 0.000000 0.000000
# 5 0.000000 0.000000 0.000000 0.000000 0.010085 0.000000
# 6 0.000000 0.000000 0.000000 0.000000 0.000000 0.035702
#
#
# Mechanical properties :
#
#
# Convention : Reuss Voigt Hill
#
# Bulk Modulus (GPa) = 37.96213 45.24125 41.60169
# Shear Modulus (GPa) = 21.14146 40.60117 30.87132
#
# Velocity S-wave (km/s) = 3.34262 4.63222 4.03922
# Velocity P-wave (km/s) = 5.91272 7.24704 6.61362
#
# Compressibility (1/GPa) = 0.02634204
#
# Stress axis : x y z
#
# Youngs Moduli (GPa) = 45.50502 18.47352 70.79419
#
# Poissons Ratio (x) = 0.35443 -0.05287
# Poissons Ratio (y) = 0.87305 0.95616
# Poissons Ratio (z) = -0.03399 0.24951
#
# Static dielectric constant tensor:
#      x y z
#    x 1.659240 0.000000 0.000000 
#    y 0.000000 1.634780 0.000000 
#    z 0.000000 0.000000 1.627330 
# 
# From -- ./inp_files/30515.got.cif
#   From: 2010.05.17/outbox.cif.g08.bks.cpg/sg59_16_cif.got.tgz:30515.got - 2010.06.03 14:40:33.
