data_PCOD9451427
_publ_section_title
;
Structure prediction by ZEFSAII (Michael W. Deem and Ramdas Pophale) SiO2 
 PCOD9451427
Probable space group: P M M N
;
_chemical_formula_sum "Si O2"
_cell_formula_units_Z 56
_cell_length_a 19.798009
_cell_length_b 7.635371
_cell_length_c 16.933581
_cell_angle_alpha 90.000000
_cell_angle_beta 90.000000
_cell_angle_gamma 90.000000
_cell_volume 2559.767207
_symmetry_space_group_name_H-M "P M M N"
_symmetry_group_IT_number 59
_space_group.IT_coordinate_system_code '2'
_symmetry_cell_setting 'orthorhombic'
loop_
_space_group_symop_operation_xyz
x,y,z
1/2-x,1/2-y,z
1/2+x,-y,-z
-x,1/2+y,-z
-x,-y,-z
1/2+x,1/2+y,-z
1/2-x,y,z
x,1/2-y,z
loop_
_atom_site_type_symbol
_atom_site_label
_atom_site_fract_x
_atom_site_fract_y
_atom_site_fract_z
Si Si1 0.671916 0.463041 0.814913
Si Si2 0.826671 0.956579 0.347040
Si Si3 0.919674 0.041441 0.496513
Si Si4 0.051208 0.043089 0.746525
Si Si5 0.582766 0.034998 0.669113
Si Si6 0.173110 0.963992 0.009518
Si Si7 0.545081 0.042004 0.076485
O O1 0.750000 0.512820 0.806470
O O2 0.669171 0.250000 0.814780
O O3 0.628649 0.524958 0.741557
O O4 0.649708 0.518558 0.902560
O O5 0.750000 0.029358 0.353678
O O6 0.818514 0.750000 0.332774
O O7 0.875225 0.029594 0.277037
O O8 0.873344 0.972916 0.425449
O O9 0.914158 0.250000 0.492113
O O10 0.893953 0.980204 0.582599
O O11 0.000000 0.000000 0.500000
O O12 0.054328 0.250000 0.731727
O O13 0.993031 0.973655 0.688750
O O14 0.027174 0.023579 0.836686
O O15 0.582747 0.250000 0.669488
O O16 0.250000 0.020793 0.997434
O O17 0.173320 0.750000 0.009170
O O18 0.119915 0.024840 0.945389
O O19 0.546649 0.250000 0.082889
O O20 0.500000 0.000000 0.000000
#
# Coordination Sequence:
#
# PCOD9451427 Si02
#       7
#     8   8   8   8   8   8   8
#     4   8  13  23  42  69  99 130 167 213 266 323
#     4  10  22  41  62  85 117 158 201 246 301 358
#     4  11  21  36  59  85 115 152 195 240 293 355
#     4  10  20  37  57  78 108 148 190 236 289 346
#     4   9  17  30  51  77 106 141 178 221 278 341
#     4   8  15  29  49  72 100 136 176 220 270 323
#     4  11  22  35  54  82 113 146 188 237 286 340
#
# _framework density 21.876989999999999
#
# number of rings (size 3 to 8) (size 9 to 14) (size 15 to 20)
#    0.000    2.429    1.429    2.571    0.000    4.286 
#    0.000    1.429    0.000    1.286    0.000    0.000 
#    0.000    0.000    0.000    0.000    0.000    0.000 
#
# Total GULP energy -312389.443038 kJ/mol
# GULP energy per Si atom -5578.382911 kJ/mol
# Density = 2.182720 g / cm^3
# Si number density = 21.876990 Si / 1000 Ang^3
#
#
#
# Elastic Constant Matrix: (Units=GPa)
#
#
# Indices 1 2 3 4 5 6 
#
# 1 71.4384 -2.4673 24.8218 0.0000 0.0000 0.0000
# 2 -2.4673 44.3672 -9.0005 0.0000 0.0000 0.0000
# 3 24.8218 -9.0005 86.8203 0.0000 0.0000 0.0000
# 4 0.0000 0.0000 0.0000 18.0716 0.0000 0.0000
# 5 0.0000 0.0000 0.0000 0.0000 35.0418 0.0000
# 6 0.0000 0.0000 0.0000 0.0000 0.0000 5.7480
#
#
#
# Elastic Compliance Matrix: (Units=1/GPa)
#
#
# Indices 1 2 3 4 5 6 
#
# 1 0.015542 -0.000038 -0.004447 0.000000 0.000000 0.000000
# 2 -0.000038 0.023023 0.002398 0.000000 0.000000 0.000000
# 3 -0.004447 0.002398 0.013038 0.000000 0.000000 0.000000
# 4 0.000000 0.000000 0.000000 0.055336 0.000000 0.000000
# 5 0.000000 0.000000 0.000000 0.000000 0.028537 0.000000
# 6 0.000000 0.000000 0.000000 0.000000 0.000000 0.173972
#
#
# Mechanical properties :
#
#
# Convention : Reuss Voigt Hill
#
# Bulk Modulus (GPa) = 21.08445 25.48155 23.28300
# Shear Modulus (GPa) = 15.17757 24.39040 19.78398
#
# Velocity S-wave (km/s) = 2.63681 3.34262 3.01047
# Velocity P-wave (km/s) = 4.35074 5.15465 4.76966
#
# Compressibility (1/GPa) = 0.04742831
#
# Stress axis : x y z
#
# Youngs Moduli (GPa) = 64.34165 43.43393 76.69830
#
# Poissons Ratio (x) = 0.00165 0.34111
# Poissons Ratio (y) = 0.00244 -0.18389
# Poissons Ratio (z) = 0.28615 -0.10414
#
# Static dielectric constant tensor:
#      x y z
#    x 1.840010 0.000000 0.000000 
#    y 0.000000 1.807590 0.000000 
#    z 0.000000 0.000000 1.590710 
# 
# From -- ./inp_files/20939.got.cif
#   From: 2010.05.17/outbox.cif.g08.bks.cpg/sg59_11_cif.got.tgz:20939.got - 2010.06.03 14:40:33.
