data_PCOD9451821
_publ_section_title
;
Structure prediction by ZEFSAII (Michael W. Deem and Ramdas Pophale) SiO2 
 PCOD9451821
Probable space group: P M M N
;
_chemical_formula_sum "Si O2"
_cell_formula_units_Z 64
_cell_length_a 14.438544
_cell_length_b 25.145402
_cell_length_c 9.248147
_cell_angle_alpha 90.000000
_cell_angle_beta 90.000000
_cell_angle_gamma 90.000000
_cell_volume 3357.659931
_symmetry_space_group_name_H-M "P M M N"
_symmetry_group_IT_number 59
_space_group.IT_coordinate_system_code '2'
_symmetry_cell_setting 'orthorhombic'
loop_
_space_group_symop_operation_xyz
x,y,z
1/2-x,1/2-y,z
1/2+x,-y,-z
-x,1/2+y,-z
-x,-y,-z
1/2+x,1/2+y,-z
1/2-x,y,z
x,1/2-y,z
loop_
_atom_site_type_symbol
_atom_site_label
_atom_site_fract_x
_atom_site_fract_y
_atom_site_fract_z
Si Si1 0.361945 0.006263 0.589740
Si Si2 0.082299 0.395470 0.788284
Si Si3 0.928842 0.046412 0.946692
Si Si4 0.858976 0.686762 0.452515
Si Si5 0.508884 0.689269 0.728193
Si Si6 0.855206 0.635746 0.906161
Si Si7 0.640364 0.097848 0.241446
Si Si8 0.642506 0.534421 0.725715
O O1 0.250000 0.006656 0.585420
O O2 0.391177 0.050594 0.704933
O O3 0.398431 0.021159 0.430594
O O4 0.387918 0.947873 0.644210
O O5 0.097004 0.348105 0.675264
O O6 0.983024 0.407841 0.859315
O O7 0.143601 0.383118 0.928950
O O8 0.866011 0.015234 0.832597
O O9 0.878846 0.071518 0.084506
O O10 0.000000 0.000000 0.000000
O O11 0.750000 0.671666 0.471592
O O12 0.861414 0.750000 0.421570
O O13 0.919869 0.677553 0.596079
O O14 0.478101 0.750000 0.713639
O O15 0.572376 0.681627 0.870770
O O16 0.423296 0.649125 0.735102
O O17 0.750000 0.649798 0.865830
O O18 0.892769 0.586199 0.810048
O O19 0.750000 0.108815 0.255720
O O20 0.750000 0.546293 0.702086
#
# Coordination Sequence:
#
# PCOD9451821 Si02
#       8
#     8   8   8   8   8   8   8   8
#     4  10  21  35  57  87 119 156 198 243 295 361
#     4  12  22  35  61  89 128 163 202 239 299 364
#     4  12  21  37  56  88 127 166 202 245 301 359
#     4  10  23  43  64  89 124 162 200 248 310 376
#     4  11  24  43  64  88 115 155 209 260 311 365
#     4  11  21  36  59  89 126 161 199 245 301 366
#     4  11  23  42  63  89 123 162 209 260 313 363
#     4  10  21  36  55  85 123 163 201 240 294 361
#
# _framework density 19.060894999999999
#
# number of rings (size 3 to 8) (size 9 to 14) (size 15 to 20)
#    0.000    1.125    3.750    2.625    1.750    5.000 
#    0.000    0.000    0.000    0.000    0.000    0.000 
#    0.000    0.000    0.000    0.000    0.000    0.000 
#
# Total GULP energy -357509.847509 kJ/mol
# GULP energy per Si atom -5586.091367 kJ/mol
# Density = 1.901751 g / cm^3
# Si number density = 19.060895 Si / 1000 Ang^3
#
#
#
# Elastic Constant Matrix: (Units=GPa)
#
#
# Indices 1 2 3 4 5 6 
#
# 1 70.7485 41.9961 19.7600 0.0000 0.0000 0.0000
# 2 41.9961 88.9248 51.4385 0.0000 0.0000 0.0000
# 3 19.7600 51.4385 108.6417 0.0000 0.0000 0.0000
# 4 0.0000 0.0000 0.0000 32.1408 0.0000 0.0000
# 5 0.0000 0.0000 0.0000 0.0000 31.0281 0.0000
# 6 0.0000 0.0000 0.0000 0.0000 0.0000 24.7542
#
#
#
# Elastic Compliance Matrix: (Units=1/GPa)
#
#
# Indices 1 2 3 4 5 6 
#
# 1 0.019741 -0.009979 0.001134 0.000000 0.000000 0.000000
# 2 -0.009979 0.020532 -0.007906 0.000000 0.000000 0.000000
# 3 0.001134 -0.007906 0.012742 0.000000 0.000000 0.000000
# 4 0.000000 0.000000 0.000000 0.031113 0.000000 0.000000
# 5 0.000000 0.000000 0.000000 0.000000 0.032229 0.000000
# 6 0.000000 0.000000 0.000000 0.000000 0.000000 0.040397
#
#
# Mechanical properties :
#
#
# Convention : Reuss Voigt Hill
#
# Bulk Modulus (GPa) = 51.24934 54.96713 53.10823
# Shear Modulus (GPa) = 25.41167 27.92598 26.66883
#
# Velocity S-wave (km/s) = 3.65524 3.83181 3.74456
# Velocity P-wave (km/s) = 6.69028 6.96256 6.82778
#
# Compressibility (1/GPa) = 0.01951245
#
# Stress axis : x y z
#
# Youngs Moduli (GPa) = 50.65481 48.70545 78.48356
#
# Poissons Ratio (x) = 0.48605 -0.08902
# Poissons Ratio (y) = 0.50550 0.62049
# Poissons Ratio (z) = -0.05746 0.38507
#
# Static dielectric constant tensor:
#      x y z
#    x 1.712690 0.000000 0.000000 
#    y 0.000000 1.668750 0.000000 
#    z 0.000000 0.000000 1.688210 
# 
# From -- ./inp_files/9613.got.cif
#   From: 2010.05.17/outbox.cif.g08.bks.cpg/sg59_5_cif.got.tgz:9613.got - 2010.06.03 14:40:33.
