data_PCOD9451997
_publ_section_title
;
Structure prediction by ZEFSAII (Michael W. Deem and Ramdas Pophale) SiO2 
 PCOD9451997
Probable space group: P M M N
;
_chemical_formula_sum "Si O2"
_cell_formula_units_Z 56
_cell_length_a 9.032975
_cell_length_b 19.162403
_cell_length_c 16.805923
_cell_angle_alpha 90.000000
_cell_angle_beta 90.000000
_cell_angle_gamma 90.000000
_cell_volume 2908.996154
_symmetry_space_group_name_H-M "P M M N"
_symmetry_group_IT_number 59
_space_group.IT_coordinate_system_code '2'
_symmetry_cell_setting 'orthorhombic'
loop_
_space_group_symop_operation_xyz
x,y,z
1/2-x,1/2-y,z
1/2+x,-y,-z
-x,1/2+y,-z
-x,-y,-z
1/2+x,1/2+y,-z
1/2-x,y,z
x,1/2-y,z
loop_
_atom_site_type_symbol
_atom_site_label
_atom_site_fract_x
_atom_site_fract_y
_atom_site_fract_z
Si Si1 0.923749 0.408280 0.168001
Si Si2 0.580233 0.834163 0.687344
Si Si3 0.069632 0.330345 0.853516
Si Si4 0.574768 0.549285 0.260165
Si Si5 0.572489 0.576600 0.994254
Si Si6 0.423740 0.830540 0.525377
Si Si7 0.923876 0.039344 0.573470
O O1 0.750000 0.396835 0.153281
O O2 0.943693 0.488998 0.194161
O O3 0.980032 0.364171 0.242818
O O4 0.017994 0.392956 0.089721
O O5 0.750000 0.856945 0.697275
O O6 0.575347 0.750000 0.689642
O O7 0.518735 0.855052 0.600877
O O8 0.250000 0.329533 0.852385
O O9 0.019242 0.250000 0.852194
O O10 0.023025 0.377917 0.778518
O O11 0.027438 0.372532 0.933364
O O12 0.750000 0.553931 0.277455
O O13 0.493284 0.527363 0.340521
O O14 0.750000 0.569429 0.996294
O O15 0.500000 0.500000 0.000000
O O16 0.250000 0.835119 0.548076
O O17 0.459081 0.750000 0.509001
O O18 0.445321 0.879408 0.449853
O O19 0.750000 0.023303 0.574212
O O20 0.000000 0.000000 0.500000
#
# Coordination Sequence:
#
# PCOD9451997 Si02
#       7
#     8   8   8   8   8   8   8
#     4  11  22  37  58  85 115 151 194 236 288 349
#     4  10  21  36  55  83 115 147 189 239 289 344
#     4   9  19  38  62  87 117 154 195 239 289 345
#     4  10  21  38  58  83 114 150 191 238 289 347
#     4  11  21  37  61  88 117 154 196 241 291 347
#     4   9  19  37  57  76 106 149 189 230 286 345
#     4  11  23  37  56  84 115 149 190 239 290 344
#
# _framework density 19.250627000000001
#
# number of rings (size 3 to 8) (size 9 to 14) (size 15 to 20)
#    0.000    1.857    1.429    2.571    0.000    7.714 
#    0.000    1.429    0.000    3.000    0.000    0.000 
#    0.000    0.000    0.000    0.000    0.000    0.000 
#
# Total GULP energy -312756.493367 kJ/mol
# GULP energy per Si atom -5584.937382 kJ/mol
# Density = 1.920681 g / cm^3
# Si number density = 19.250627 Si / 1000 Ang^3
#
#
#
# Elastic Constant Matrix: (Units=GPa)
#
#
# Indices 1 2 3 4 5 6 
#
# 1 53.5958 28.1788 36.3603 0.0000 0.0000 0.0000
# 2 28.1788 64.5307 20.8327 0.0000 0.0000 0.0000
# 3 36.3603 20.8327 91.5932 0.0000 0.0000 0.0000
# 4 0.0000 0.0000 0.0000 30.9389 0.0000 0.0000
# 5 0.0000 0.0000 0.0000 0.0000 33.0134 0.0000
# 6 0.0000 0.0000 0.0000 0.0000 0.0000 24.5263
#
#
#
# Elastic Compliance Matrix: (Units=1/GPa)
#
#
# Indices 1 2 3 4 5 6 
#
# 1 0.030738 -0.010235 -0.009874 0.000000 0.000000 0.000000
# 2 -0.010235 0.020132 -0.000516 0.000000 0.000000 0.000000
# 3 -0.009874 -0.000516 0.014955 0.000000 0.000000 0.000000
# 4 0.000000 0.000000 0.000000 0.032322 0.000000 0.000000
# 5 0.000000 0.000000 0.000000 0.000000 0.030291 0.000000
# 6 0.000000 0.000000 0.000000 0.000000 0.000000 0.040773
#
#
# Mechanical properties :
#
#
# Convention : Reuss Voigt Hill
#
# Bulk Modulus (GPa) = 40.69160 42.27370 41.48265
# Shear Modulus (GPa) = 22.86726 25.98558 24.42642
#
# Velocity S-wave (km/s) = 3.45029 3.67802 3.56598
# Velocity P-wave (km/s) = 6.08739 6.32807 6.20890
#
# Compressibility (1/GPa) = 0.02457510
#
# Stress axis : x y z
#
# Youngs Moduli (GPa) = 32.53276 49.67128 66.86647
#
# Poissons Ratio (x) = 0.50837 0.66027
# Poissons Ratio (y) = 0.33296 0.03451
# Poissons Ratio (z) = 0.32124 0.02564
#
# Static dielectric constant tensor:
#      x y z
#    x 1.315270 0.000000 0.000000 
#    y 0.000000 1.705510 0.000000 
#    z 0.000000 0.000000 1.641870 
# 
# From -- ./inp_files/20934.got.cif
#   From: 2010.05.17/outbox.cif.g08.bks.cpg/sg59_11_cif.got.tgz:20934.got - 2010.06.03 14:40:33.
