data_PCOD9451244
_publ_section_title
;
Structure prediction by ZEFSAII (Michael W. Deem and Ramdas Pophale) SiO2 
 PCOD9451244
Probable space group: P M M N
;
_chemical_formula_sum "Si O2"
_cell_formula_units_Z 64
_cell_length_a 14.071061
_cell_length_b 23.454960
_cell_length_c 10.018855
_cell_angle_alpha 90.000000
_cell_angle_beta 90.000000
_cell_angle_gamma 90.000000
_cell_volume 3306.584561
_symmetry_space_group_name_H-M "P M M N"
_symmetry_group_IT_number 59
_space_group.IT_coordinate_system_code '2'
_symmetry_cell_setting 'orthorhombic'
loop_
_space_group_symop_operation_xyz
x,y,z
1/2-x,1/2-y,z
1/2+x,-y,-z
-x,1/2+y,-z
-x,-y,-z
1/2+x,1/2+y,-z
1/2-x,y,z
x,1/2-y,z
loop_
_atom_site_type_symbol
_atom_site_label
_atom_site_fract_x
_atom_site_fract_y
_atom_site_fract_z
Si Si1 0.635030 0.508345 0.546376
Si Si2 0.984551 0.127519 0.847245
Si Si3 0.357825 0.817786 0.681611
Si Si4 0.135753 0.037826 0.752968
Si Si5 0.863926 0.376694 0.596742
Si Si6 0.523019 0.814900 0.889097
Si Si7 0.137311 0.970000 0.009943
Si Si8 0.636231 0.576530 0.797902
O O1 0.750000 0.511831 0.545653
O O2 0.605247 0.520885 0.395832
O O3 0.614294 0.444133 0.591303
O O4 0.600186 0.553443 0.655396
O O5 0.924310 0.147288 0.719444
O O6 0.077783 0.093191 0.799285
O O7 0.921418 0.081388 0.928712
O O8 0.007968 0.175935 0.953770
O O9 0.250000 0.836382 0.713033
O O10 0.356806 0.750000 0.653989
O O11 0.387776 0.849602 0.546426
O O12 0.426631 0.826547 0.806092
O O13 0.250000 0.047736 0.756717
O O14 0.116935 0.986551 0.857084
O O15 0.750000 0.369558 0.617101
O O16 0.552569 0.750000 0.860402
O O17 0.594329 0.863488 0.840320
O O18 0.250000 0.958773 0.024762
O O19 0.114989 0.027133 0.094451
O O20 0.750000 0.580869 0.791920
#
# Coordination Sequence:
#
# PCOD9451244 Si02
#       8
#     8   8   8   8   8   8   8   8
#     4   9  19  35  56  88 122 147 184 236 293 358
#     4  12  23  35  59  86 122 156 196 244 296 345
#     4   9  21  42  62  80 111 156 202 248 295 348
#     4  10  22  36  53  84 123 160 193 231 290 360
#     4  10  21  37  59  90 120 152 192 238 298 362
#     4  11  26  42  59  86 116 155 210 251 288 344
#     4  10  20  36  57  88 124 154 186 232 296 363
#     4  10  20  39  64  87 121 154 187 242 301 356
#
# _framework density 19.355319999999999
#
# number of rings (size 3 to 8) (size 9 to 14) (size 15 to 20)
#    0.000    1.875    2.500    0.750    3.500    2.250 
#    0.000    0.000    0.000    0.000    0.000    0.000 
#    0.000    0.000    0.000    0.000    0.000    0.000 
#
# Total GULP energy -357756.597899 kJ/mol
# GULP energy per Si atom -5589.946842 kJ/mol
# Density = 1.931127 g / cm^3
# Si number density = 19.355320 Si / 1000 Ang^3
#
#
#
# Elastic Constant Matrix: (Units=GPa)
#
#
# Indices 1 2 3 4 5 6 
#
# 1 40.4945 3.7223 9.5671 0.0000 0.0000 0.0000
# 2 3.7223 53.0515 16.0766 0.0000 0.0000 0.0000
# 3 9.5671 16.0766 111.9388 0.0000 0.0000 0.0000
# 4 0.0000 0.0000 0.0000 26.1622 0.0000 0.0000
# 5 0.0000 0.0000 0.0000 0.0000 25.0779 0.0000
# 6 0.0000 0.0000 0.0000 0.0000 0.0000 20.5025
#
#
#
# Elastic Compliance Matrix: (Units=1/GPa)
#
#
# Indices 1 2 3 4 5 6 
#
# 1 0.025273 -0.001170 -0.001992 0.000000 0.000000 0.000000
# 2 -0.001170 0.019761 -0.002738 0.000000 0.000000 0.000000
# 3 -0.001992 -0.002738 0.009497 0.000000 0.000000 0.000000
# 4 0.000000 0.000000 0.000000 0.038223 0.000000 0.000000
# 5 0.000000 0.000000 0.000000 0.000000 0.039876 0.000000
# 6 0.000000 0.000000 0.000000 0.000000 0.000000 0.048775
#
#
# Mechanical properties :
#
#
# Convention : Reuss Voigt Hill
#
# Bulk Modulus (GPa) = 23.40182 29.35741 26.37962
# Shear Modulus (GPa) = 24.10242 26.08978 25.09610
#
# Velocity S-wave (km/s) = 3.53265 3.67541 3.60474
# Velocity P-wave (km/s) = 5.36250 5.76299 5.56635
#
# Compressibility (1/GPa) = 0.04273171
#
# Stress axis : x y z
#
# Youngs Moduli (GPa) = 39.56811 50.60365 105.29687
#
# Poissons Ratio (x) = 0.05919 0.20975
# Poissons Ratio (y) = 0.04628 0.28832
# Poissons Ratio (z) = 0.07882 0.13856
#
# Static dielectric constant tensor:
#      x y z
#    x 1.706920 0.000000 0.000000 
#    y 0.000000 1.639220 0.000000 
#    z 0.000000 0.000000 1.690250 
# 
# From -- ./inp_files/9627.got.cif
#   From: 2010.05.17/outbox.cif.g08.bks.cpg/sg59_5_cif.got.tgz:9627.got - 2010.06.03 14:40:33.
