data_PCOD9451450
_publ_section_title
;
Structure prediction by ZEFSAII (Michael W. Deem and Ramdas Pophale) SiO2 
 PCOD9451450
Probable space group: P M M N
;
_chemical_formula_sum "Si O2"
_cell_formula_units_Z 64
_cell_length_a 8.774066
_cell_length_b 25.596291
_cell_length_c 14.786026
_cell_angle_alpha 90.000000
_cell_angle_beta 90.000000
_cell_angle_gamma 90.000000
_cell_volume 3320.698159
_symmetry_space_group_name_H-M "P M M N"
_symmetry_group_IT_number 59
_space_group.IT_coordinate_system_code '2'
_symmetry_cell_setting 'orthorhombic'
loop_
_space_group_symop_operation_xyz
x,y,z
1/2-x,1/2-y,z
1/2+x,-y,-z
-x,1/2+y,-z
-x,-y,-z
1/2+x,1/2+y,-z
1/2-x,y,z
x,1/2-y,z
loop_
_atom_site_type_symbol
_atom_site_label
_atom_site_fract_x
_atom_site_fract_y
_atom_site_fract_z
Si Si1 0.932967 0.091451 0.722910
Si Si2 0.431422 0.689330 0.787610
Si Si3 0.426372 0.107570 0.353964
Si Si4 0.433735 0.193085 0.818043
Si Si5 0.432227 0.557057 0.477316
Si Si6 0.431170 0.162301 0.016771
Si Si7 0.573603 0.521235 0.792345
Si Si8 0.072436 0.553363 0.965294
O O1 0.750000 0.096447 0.722294
O O2 0.983536 0.078001 0.620851
O O3 0.966652 0.039318 0.781117
O O4 0.001700 0.143667 0.764746
O O5 0.250000 0.680746 0.786711
O O6 0.462252 0.750000 0.764721
O O7 0.508806 0.650556 0.715470
O O8 0.490916 0.679714 0.889862
O O9 0.250000 0.119548 0.373520
O O10 0.518391 0.097920 0.445449
O O11 0.430097 0.051871 0.301736
O O12 0.250000 0.189980 0.815556
O O13 0.480704 0.250000 0.781541
O O14 0.477551 0.190559 0.924229
O O15 0.500000 0.500000 0.500000
O O16 0.250000 0.551892 0.475249
O O17 0.250000 0.167538 0.028623
O O18 0.478601 0.102499 0.000180
O O19 0.750000 0.525612 0.825951
O O20 0.457891 0.550187 0.858259
O O21 0.250000 0.557992 0.987131
O O22 0.000000 0.500000 0.000000
#
# Coordination Sequence:
#
# PCOD9451450 Si02
#       8
#     8   8   8   8   8   8   8   8
#     4  10  22  40  62  90 122 156 198 246 300 361
#     4  11  24  41  62  91 125 163 208 255 304 363
#     4  11  22  39  63  91 124 160 200 249 306 364
#     4  10  23  42  62  87 119 156 203 254 300 351
#     4  11  22  39  63  93 127 161 201 249 306 368
#     4  11  22  39  62  88 119 159 207 254 305 362
#     4  10  20  37  58  85 122 157 193 244 302 363
#     4  12  24  36  53  82 121 163 205 249 304 363
#
# _framework density 19.273056
#
# number of rings (size 3 to 8) (size 9 to 14) (size 15 to 20)
#    0.000    1.250    2.500    3.750    0.000    6.750 
#    0.000    0.625    0.000    0.750    0.000    0.000 
#    0.000    0.000    0.000    0.000    0.000    0.000 
#
# Total GULP energy -357613.652772 kJ/mol
# GULP energy per Si atom -5587.713325 kJ/mol
# Density = 1.922919 g / cm^3
# Si number density = 19.273056 Si / 1000 Ang^3
#
#
#
# Elastic Constant Matrix: (Units=GPa)
#
#
# Indices 1 2 3 4 5 6 
#
# 1 42.0667 29.1645 25.5260 0.0000 0.0000 0.0000
# 2 29.1645 136.7666 40.3575 0.0000 0.0000 0.0000
# 3 25.5260 40.3575 83.3348 0.0000 0.0000 0.0000
# 4 0.0000 0.0000 0.0000 16.2756 0.0000 0.0000
# 5 0.0000 0.0000 0.0000 0.0000 32.0506 0.0000
# 6 0.0000 0.0000 0.0000 0.0000 0.0000 26.6621
#
#
#
# Elastic Compliance Matrix: (Units=1/GPa)
#
#
# Indices 1 2 3 4 5 6 
#
# 1 0.031408 -0.004502 -0.007440 0.000000 0.000000 0.000000
# 2 -0.004502 0.009176 -0.003065 0.000000 0.000000 0.000000
# 3 -0.007440 -0.003065 0.015763 0.000000 0.000000 0.000000
# 4 0.000000 0.000000 0.000000 0.061442 0.000000 0.000000
# 5 0.000000 0.000000 0.000000 0.000000 0.031201 0.000000
# 6 0.000000 0.000000 0.000000 0.000000 0.000000 0.037506
#
#
# Mechanical properties :
#
#
# Convention : Reuss Voigt Hill
#
# Bulk Modulus (GPa) = 37.97539 50.25154 44.11347
# Shear Modulus (GPa) = 22.19393 26.13901 24.16647
#
# Velocity S-wave (km/s) = 3.39713 3.68672 3.54489
# Velocity P-wave (km/s) = 5.92740 6.65226 6.30026
#
# Compressibility (1/GPa) = 0.02633284
#
# Stress axis : x y z
#
# Youngs Moduli (GPa) = 31.83940 108.97847 63.43978
#
# Poissons Ratio (x) = 0.49062 0.47200
# Poissons Ratio (y) = 0.14334 0.19443
# Poissons Ratio (z) = 0.23689 0.33400
#
# Static dielectric constant tensor:
#      x y z
#    x 1.650310 0.000000 0.000000 
#    y 0.000000 1.705190 0.000000 
#    z 0.000000 0.000000 1.708310 
# 
# From -- ./inp_files/21428.got.cif
#   From: 2010.05.17/outbox.cif.g08.bks.cpg/sg59_11_cif.got.tgz:21428.got - 2010.06.03 14:40:33.
