data_PCOD9451700
_publ_section_title
;
Structure prediction by ZEFSAII (Michael W. Deem and Ramdas Pophale) SiO2 
 PCOD9451700
Probable space group: P M M N
;
_chemical_formula_sum "Si O2"
_cell_formula_units_Z 48
_cell_length_a 30.725058
_cell_length_b 8.471563
_cell_length_c 10.447808
_cell_angle_alpha 90.000000
_cell_angle_beta 90.000000
_cell_angle_gamma 90.000000
_cell_volume 2719.452260
_symmetry_space_group_name_H-M "P M M N"
_symmetry_group_IT_number 59
_space_group.IT_coordinate_system_code '2'
_symmetry_cell_setting 'orthorhombic'
loop_
_space_group_symop_operation_xyz
x,y,z
1/2-x,1/2-y,z
1/2+x,-y,-z
-x,1/2+y,-z
-x,-y,-z
1/2+x,1/2+y,-z
1/2-x,y,z
x,1/2-y,z
loop_
_atom_site_type_symbol
_atom_site_label
_atom_site_fract_x
_atom_site_fract_y
_atom_site_fract_z
Si Si1 0.633693 0.559345 0.896282
Si Si2 0.200066 0.561296 0.892210
Si Si3 0.200049 0.059222 0.611116
Si Si4 0.866850 0.942481 0.604721
Si Si5 0.966164 0.940338 0.895841
Si Si6 0.966384 0.559589 0.604660
O O1 0.634803 0.750000 0.899714
O O2 0.667497 0.495701 0.998730
O O3 0.644074 0.509841 0.750227
O O4 0.583731 0.510282 0.923380
O O5 0.250000 0.507588 0.916457
O O6 0.199938 0.750000 0.888126
O O7 0.187209 0.497443 0.752384
O O8 0.250000 0.007950 0.587914
O O9 0.199560 0.250000 0.610602
O O10 0.167291 0.002733 0.501257
O O11 0.866400 0.750000 0.603609
O O12 0.916597 0.990857 0.577010
O O13 0.966644 0.750000 0.896596
O O14 0.976978 0.991626 0.750309
O O15 0.000000 0.000000 0.000000
O O16 0.966836 0.750000 0.603734
O O17 0.000000 0.500000 0.500000
#
# Coordination Sequence:
#
# PCOD9451700 Si02
#       6
#     8   8   8   8   8   8
#     4   9  18  34  54  74  97 128 166 205 244 287
#     4  10  21  35  49  70 102 134 162 197 243 292
#     4   9  17  31  52  75  96 122 159 198 237 287
#     4   8  16  32  52  73  97 123 156 202 246 282
#     4   9  19  34  51  73 101 131 164 202 243 289
#     4   9  18  33  50  70  98 128 159 197 240 286
#
# _framework density 17.650613
#
# number of rings (size 3 to 8) (size 9 to 14) (size 15 to 20)
#    0.000    3.000    0.000    2.500    0.000    4.333 
#    0.000   10.833    0.000    2.000    0.000    0.000 
#    0.000    0.000    0.000    0.000    0.000    0.000 
#
# Total GULP energy -267561.415586 kJ/mol
# GULP energy per Si atom -5574.196158 kJ/mol
# Density = 1.761044 g / cm^3
# Si number density = 17.650613 Si / 1000 Ang^3
#
#
#
# Elastic Constant Matrix: (Units=GPa)
#
#
# Indices 1 2 3 4 5 6 
#
# 1 131.8184 21.5592 141.4426 0.0000 0.0000 0.0000
# 2 21.5592 7.3503 24.2122 0.0000 0.0000 0.0000
# 3 141.4426 24.2122 185.1444 0.0000 0.0000 0.0000
# 4 0.0000 0.0000 0.0000 18.1871 0.0000 0.0000
# 5 0.0000 0.0000 0.0000 0.0000 44.2029 0.0000
# 6 0.0000 0.0000 0.0000 0.0000 0.0000 25.3505
#
#
#
# Elastic Compliance Matrix: (Units=1/GPa)
#
#
# Indices 1 2 3 4 5 6 
#
# 1 0.046466 -0.034008 -0.031051 0.000000 0.000000 0.000000
# 2 -0.034008 0.263898 -0.008531 0.000000 0.000000 0.000000
# 3 -0.031051 -0.008531 0.030238 0.000000 0.000000 0.000000
# 4 0.000000 0.000000 0.000000 0.054984 0.000000 0.000000
# 5 0.000000 0.000000 0.000000 0.000000 0.022623 0.000000
# 6 0.000000 0.000000 0.000000 0.000000 0.000000 0.039447
#
#
# Mechanical properties :
#
#
# Convention : Reuss Voigt Hill
#
# Bulk Modulus (GPa) = 5.16999 77.63790 41.40395
# Shear Modulus (GPa) = 7.47039 26.68802 17.07921
#
# Velocity S-wave (km/s) = 2.05950 3.89268 3.11404
# Velocity P-wave (km/s) = 2.93101 8.01782 6.03640
#
# Compressibility (1/GPa) = 0.19342382
#
# Stress axis : x y z
#
# Youngs Moduli (GPa) = 21.52106 3.78935 33.07057
#
# Poissons Ratio (x) = 0.12887 1.02687
# Poissons Ratio (y) = 0.73188 0.28212
# Poissons Ratio (z) = 0.66825 0.03233
#
# Static dielectric constant tensor:
#      x y z
#    x 1.594160 0.000000 0.000000 
#    y 0.000000 1.613390 0.000000 
#    z 0.000000 0.000000 1.580430 
# 
# From -- ./inp_files/12973.got.cif
#   From: 2010.05.17/outbox.cif.g08.bks.cpg/sg59_7_cif.got.tgz:12973.got - 2010.06.03 14:40:33.
