data_PCOD9451570
_publ_section_title
;
Structure prediction by ZEFSAII (Michael W. Deem and Ramdas Pophale) SiO2 
 PCOD9451570
Probable space group: P M M N
;
_chemical_formula_sum "Si O2"
_cell_formula_units_Z 64
_cell_length_a 7.841233
_cell_length_b 29.161244
_cell_length_c 12.751046
_cell_angle_alpha 90.000000
_cell_angle_beta 90.000000
_cell_angle_gamma 90.000000
_cell_volume 2915.655565
_symmetry_space_group_name_H-M "P M M N"
_symmetry_group_IT_number 59
_space_group.IT_coordinate_system_code '2'
_symmetry_cell_setting 'orthorhombic'
loop_
_space_group_symop_operation_xyz
x,y,z
1/2-x,1/2-y,z
1/2+x,-y,-z
-x,1/2+y,-z
-x,-y,-z
1/2+x,1/2+y,-z
1/2-x,y,z
x,1/2-y,z
loop_
_atom_site_type_symbol
_atom_site_label
_atom_site_fract_x
_atom_site_fract_y
_atom_site_fract_z
Si Si1 0.446819 0.301336 0.439262
Si Si2 0.955752 0.697656 0.019971
Si Si3 0.945681 0.447804 0.022075
Si Si4 0.040793 0.399314 0.467797
Si Si5 0.457788 0.451789 0.672926
Si Si6 0.450118 0.053517 0.257161
Si Si7 0.444848 0.117770 0.846589
Si Si8 0.057837 0.694714 0.790313
O O1 0.250000 0.298019 0.472057
O O2 0.523447 0.250000 0.452786
O O3 0.519831 0.347400 0.490920
O O4 0.451114 0.312979 0.314604
O O5 0.750000 0.698409 0.026125
O O6 0.017134 0.750000 0.029036
O O7 0.024036 0.664751 0.111015
O O8 0.997996 0.678415 0.904013
O O9 0.750000 0.441681 0.990310
O O10 0.964372 0.438614 0.145320
O O11 0.000000 0.500000 0.000000
O O12 0.054541 0.414894 0.948473
O O13 0.250000 0.398263 0.466471
O O14 0.992648 0.435626 0.556884
O O15 0.983262 0.416373 0.353857
O O16 0.250000 0.454546 0.678943
O O17 0.527205 0.500676 0.708531
O O18 0.518811 0.412331 0.752972
O O19 0.250000 0.063146 0.243386
O O20 0.250000 0.128067 0.814777
O O21 0.250000 0.678957 0.770669
O O22 0.058183 0.750000 0.800683
#
# Coordination Sequence:
#
# PCOD9451570 Si02
#       8
#     8   8   8   8   8   8   8   8
#     4   9  17  32  53  76 105 143 183 223 275 337
#     4   9  18  33  52  76 108 148 190 227 272 332
#     4  12  24  39  59  85 116 148 185 228 281 343
#     4   9  20  36  56  83 111 144 187 235 281 328
#     4  10  20  38  59  79 109 148 189 234 284 331
#     4  11  22  37  58  83 114 147 185 233 283 336
#     4  10  21  36  57  82 113 151 188 232 281 331
#     4   9  17  29  46  71 103 137 175 224 278 325
#
# _framework density 21.950467
#
# number of rings (size 3 to 8) (size 9 to 14) (size 15 to 20)
#    0.000    2.125    1.250    2.250    1.750    2.000 
#    0.000    2.500    0.000    3.750    0.000    0.000 
#    0.000    5.000    0.000    0.000    0.000    0.000 
#
# Total GULP energy -357284.623125 kJ/mol
# GULP energy per Si atom -5582.572236 kJ/mol
# Density = 2.190051 g / cm^3
# Si number density = 21.950467 Si / 1000 Ang^3
#
#
#
# Elastic Constant Matrix: (Units=GPa)
#
#
# Indices 1 2 3 4 5 6 
#
# 1 43.9668 -10.0522 -7.7806 0.0000 0.0000 0.0000
# 2 -10.0522 69.1900 3.0218 0.0000 0.0000 0.0000
# 3 -7.7806 3.0218 58.5087 0.0000 0.0000 0.0000
# 4 0.0000 0.0000 0.0000 25.3284 0.0000 0.0000
# 5 0.0000 0.0000 0.0000 0.0000 7.7879 0.0000
# 6 0.0000 0.0000 0.0000 0.0000 0.0000 11.5082
#
#
#
# Elastic Compliance Matrix: (Units=1/GPa)
#
#
# Indices 1 2 3 4 5 6 
#
# 1 0.024048 0.003362 0.003024 0.000000 0.000000 0.000000
# 2 0.003362 0.014956 -0.000325 0.000000 0.000000 0.000000
# 3 0.003024 -0.000325 0.017510 0.000000 0.000000 0.000000
# 4 0.000000 0.000000 0.000000 0.039481 0.000000 0.000000
# 5 0.000000 0.000000 0.000000 0.000000 0.128404 0.000000
# 6 0.000000 0.000000 0.000000 0.000000 0.000000 0.086895
#
#
# Mechanical properties :
#
#
# Convention : Reuss Voigt Hill
#
# Bulk Modulus (GPa) = 14.56964 15.78259 15.17611
# Shear Modulus (GPa) = 15.52547 21.35667 18.44107
#
# Velocity S-wave (km/s) = 2.66239 3.12260 2.90163
# Velocity P-wave (km/s) = 4.01285 4.49516 4.26084
#
# Compressibility (1/GPa) = 0.06863588
#
# Stress axis : x y z
#
# Youngs Moduli (GPa) = 41.58302 66.86472 57.10868
#
# Poissons Ratio (x) = -0.22478 -0.17272
# Poissons Ratio (y) = -0.13979 0.01858
# Poissons Ratio (z) = -0.12576 0.02175
#
# Static dielectric constant tensor:
#      x y z
#    x 1.833700 0.000000 0.000000 
#    y 0.000000 1.849880 0.000000 
#    z 0.000000 0.000000 1.794040 
# 
# From -- ./inp_files/15025.got.cif
#   From: 2010.05.17/outbox.cif.g08.bks.cpg/sg59_8_cif.got.tgz:15025.got - 2010.06.03 14:40:33.
