data_PCOD9451216
_publ_section_title
;
Structure prediction by ZEFSAII (Michael W. Deem and Ramdas Pophale) SiO2 
 PCOD9451216
Probable space group: P M M N
;
_chemical_formula_sum "Si O2"
_cell_formula_units_Z 56
_cell_length_a 23.148188
_cell_length_b 8.912697
_cell_length_c 15.007742
_cell_angle_alpha 90.000000
_cell_angle_beta 90.000000
_cell_angle_gamma 90.000000
_cell_volume 3096.289060
_symmetry_space_group_name_H-M "P M M N"
_symmetry_group_IT_number 59
_space_group.IT_coordinate_system_code '2'
_symmetry_cell_setting 'orthorhombic'
loop_
_space_group_symop_operation_xyz
x,y,z
1/2-x,1/2-y,z
1/2+x,-y,-z
-x,1/2+y,-z
-x,-y,-z
1/2+x,1/2+y,-z
1/2-x,y,z
x,1/2-y,z
loop_
_atom_site_type_symbol
_atom_site_label
_atom_site_fract_x
_atom_site_fract_y
_atom_site_fract_z
Si Si1 0.370099 0.429786 0.878432
Si Si2 0.991132 0.428566 0.097338
Si Si3 0.075689 0.570355 0.589722
Si Si4 0.681931 0.571660 0.929242
Si Si5 0.596160 0.428502 0.796245
Si Si6 0.315360 0.069661 0.691188
Si Si7 0.546337 0.070717 0.612421
O O1 0.380703 0.250000 0.879505
O O2 0.429982 0.515425 0.865750
O O3 0.328060 0.461052 0.795706
O O4 0.344665 0.471933 0.974890
O O5 0.992985 0.250000 0.091018
O O6 0.042365 0.489790 0.157806
O O7 0.000000 0.500000 0.000000
O O8 0.076855 0.750000 0.597908
O O9 0.132639 0.502733 0.635118
O O10 0.070696 0.529190 0.484706
O O11 0.015328 0.508082 0.629102
O O12 0.750000 0.546238 0.931317
O O13 0.671356 0.750000 0.918610
O O14 0.651829 0.485801 0.848626
O O15 0.590493 0.250000 0.807795
O O16 0.590932 0.462660 0.691519
O O17 0.250000 0.020437 0.668096
O O18 0.318091 0.250000 0.679863
O O19 0.535846 0.250000 0.611799
#
# Coordination Sequence:
#
# PCOD9451216 Si02
#       7
#     8   8   8   8   8   8   8
#     4  10  20  36  57  80 110 147 186 227 274 330
#     4  12  23  35  53  81 114 146 181 226 276 326
#     4  10  20  36  59  86 112 141 181 232 282 329
#     4  10  21  37  56  77 105 144 187 228 269 319
#     4  11  22  37  57  81 110 145 183 226 273 326
#     4  10  21  37  57  82 114 153 191 226 274 337
#     4   9  20  38  59  83 112 145 181 223 282 343
#
# _framework density 18.086167
#
# number of rings (size 3 to 8) (size 9 to 14) (size 15 to 20)
#    0.000    1.714    1.429    3.429    0.000    8.000 
#    0.000    0.714    0.000    6.857    0.000    0.000 
#    0.000    0.000    0.000    0.000    0.000    0.000 
#
# Total GULP energy -312762.827545 kJ/mol
# GULP energy per Si atom -5585.050492 kJ/mol
# Density = 1.804500 g / cm^3
# Si number density = 18.086167 Si / 1000 Ang^3
#
#
#
# Elastic Constant Matrix: (Units=GPa)
#
#
# Indices 1 2 3 4 5 6 
#
# 1 59.7132 24.3993 12.0966 0.0000 0.0000 0.0000
# 2 24.3993 31.2217 17.4134 0.0000 0.0000 0.0000
# 3 12.0966 17.4134 60.7600 0.0000 0.0000 0.0000
# 4 0.0000 0.0000 0.0000 25.0603 0.0000 0.0000
# 5 0.0000 0.0000 0.0000 0.0000 25.5800 0.0000
# 6 0.0000 0.0000 0.0000 0.0000 0.0000 29.7986
#
#
#
# Elastic Compliance Matrix: (Units=1/GPa)
#
#
# Indices 1 2 3 4 5 6 
#
# 1 0.024630 -0.019655 0.000729 0.000000 0.000000 0.000000
# 2 -0.019655 0.053807 -0.011508 0.000000 0.000000 0.000000
# 3 0.000729 -0.011508 0.019611 0.000000 0.000000 0.000000
# 4 0.000000 0.000000 0.000000 0.039904 0.000000 0.000000
# 5 0.000000 0.000000 0.000000 0.000000 0.039093 0.000000
# 6 0.000000 0.000000 0.000000 0.000000 0.000000 0.033559
#
#
# Mechanical properties :
#
#
# Convention : Reuss Voigt Hill
#
# Bulk Modulus (GPa) = 26.89480 28.83485 27.86482
# Shear Modulus (GPa) = 17.61404 22.60680 20.11042
#
# Velocity S-wave (km/s) = 3.12412 3.53930 3.33817
# Velocity P-wave (km/s) = 5.28357 5.71663 5.50436
#
# Compressibility (1/GPa) = 0.03718191
#
# Stress axis : x y z
#
# Youngs Moduli (GPa) = 40.60070 18.58485 50.99172
#
# Poissons Ratio (x) = 0.36528 -0.03719
# Poissons Ratio (y) = 0.79800 0.58680
# Poissons Ratio (z) = -0.02961 0.21387
#
# Static dielectric constant tensor:
#      x y z
#    x 1.601990 0.000000 0.000000 
#    y 0.000000 1.609190 0.000000 
#    z 0.000000 0.000000 1.643260 
# 
# From -- ./inp_files/20896.got.cif
#   From: 2010.05.17/outbox.cif.g08.bks.cpg/sg59_11_cif.got.tgz:20896.got - 2010.06.03 14:40:33.
