data_PCOD9451740
_publ_section_title
;
Structure prediction by ZEFSAII (Michael W. Deem and Ramdas Pophale) SiO2 
 PCOD9451740
Probable space group: P M M N
;
_chemical_formula_sum "Si O2"
_cell_formula_units_Z 64
_cell_length_a 9.302072
_cell_length_b 14.159118
_cell_length_c 23.897530
_cell_angle_alpha 90.000000
_cell_angle_beta 90.000000
_cell_angle_gamma 90.000000
_cell_volume 3147.523007
_symmetry_space_group_name_H-M "P M M N"
_symmetry_group_IT_number 59
_space_group.IT_coordinate_system_code '2'
_symmetry_cell_setting 'orthorhombic'
loop_
_space_group_symop_operation_xyz
x,y,z
1/2-x,1/2-y,z
1/2+x,-y,-z
-x,1/2+y,-z
-x,-y,-z
1/2+x,1/2+y,-z
1/2-x,y,z
x,1/2-y,z
loop_
_atom_site_type_symbol
_atom_site_label
_atom_site_fract_x
_atom_site_fract_y
_atom_site_fract_z
Si Si1 0.586485 0.135051 0.912198
Si Si2 0.081617 0.405954 0.480513
Si Si3 0.416893 0.134396 0.021556
Si Si4 0.075824 0.565116 0.626013
Si Si5 0.421537 0.950619 0.749171
Si Si6 0.080824 0.349816 0.604966
Si Si7 0.578123 0.857356 0.201704
Si Si8 0.080921 0.363156 0.145872
O O1 0.750000 0.101582 0.907911
O O2 0.588990 0.250000 0.914658
O O3 0.497913 0.113496 0.856228
O O4 0.512325 0.102650 0.969498
O O5 0.250000 0.422095 0.469064
O O6 0.073203 0.346601 0.537331
O O7 0.000000 0.500000 0.500000
O O8 0.001600 0.377892 0.423437
O O9 0.250000 0.107600 0.013749
O O10 0.419259 0.250000 0.021641
O O11 0.466077 0.104757 0.083655
O O12 0.250000 0.568606 0.618605
O O13 0.038527 0.592883 0.689298
O O14 0.028540 0.454312 0.621133
O O15 0.250000 0.940701 0.754467
O O16 0.496212 0.905150 0.802390
O O17 0.453585 0.063011 0.752506
O O18 0.250000 0.350674 0.620789
O O19 0.018709 0.250000 0.626685
O O20 0.750000 0.856847 0.192764
O O21 0.534772 0.750000 0.216079
O O22 0.250000 0.385052 0.150893
O O23 0.066095 0.250000 0.147246
#
# Coordination Sequence:
#
# PCOD9451740 Si02
#       8
#     8   8   8   8   8   8   8   8
#     4   9  16  26  44  72 101 128 162 205 255 311
#     4   9  16  28  48  71  95 124 156 191 233 280
#     4   8  14  27  48  71  94 122 158 203 257 314
#     4   9  18  32  49  70  98 130 164 202 243 290
#     4  10  21  35  52  76 103 134 175 218 257 299
#     4   8  14  26  47  74  99 123 155 196 237 277
#     4   9  18  33  51  71 100 138 175 211 254 305
#     4   9  19  36  56  76  98 128 168 213 262 315
#
# _framework density 20.333449000000002
#
# number of rings (size 3 to 8) (size 9 to 14) (size 15 to 20)
#    0.000    3.125    0.000    2.250    0.000    3.750 
#    0.000    5.000    0.000   11.625    0.000    3.500 
#    0.000    0.000    0.000    0.000    0.000    0.000 
#
# Total GULP energy -356694.995743 kJ/mol
# GULP energy per Si atom -5573.359308 kJ/mol
# Density = 2.028717 g / cm^3
# Si number density = 20.333449 Si / 1000 Ang^3
#
#
#
# Elastic Constant Matrix: (Units=GPa)
#
#
# Indices 1 2 3 4 5 6 
#
# 1 34.1659 7.4042 35.6723 0.0000 0.0000 0.0000
# 2 7.4042 24.5174 0.4760 0.0000 0.0000 0.0000
# 3 35.6723 0.4760 111.7609 0.0000 0.0000 0.0000
# 4 0.0000 0.0000 0.0000 101.6903 0.0000 0.0000
# 5 0.0000 0.0000 0.0000 0.0000 28.1700 0.0000
# 6 0.0000 0.0000 0.0000 0.0000 0.0000 11.4604
#
#
#
# Elastic Compliance Matrix: (Units=1/GPa)
#
#
# Indices 1 2 3 4 5 6 
#
# 1 0.048463 -0.014337 -0.015407 0.000000 0.000000 0.000000
# 2 -0.014337 0.045032 0.004384 0.000000 0.000000 0.000000
# 3 -0.015407 0.004384 0.013847 0.000000 0.000000 0.000000
# 4 0.000000 0.000000 0.000000 0.009834 0.000000 0.000000
# 5 0.000000 0.000000 0.000000 0.000000 0.035499 0.000000
# 6 0.000000 0.000000 0.000000 0.000000 0.000000 0.087257
#
#
# Mechanical properties :
#
#
# Convention : Reuss Voigt Hill
#
# Bulk Modulus (GPa) = 17.66105 28.61659 23.13882
# Shear Modulus (GPa) = 16.15379 36.72356 26.43868
#
# Velocity S-wave (km/s) = 2.82165 4.25439 3.60982
# Velocity P-wave (km/s) = 4.39547 6.18364 5.36458
#
# Compressibility (1/GPa) = 0.05662178
#
# Stress axis : x y z
#
# Youngs Moduli (GPa) = 20.63444 22.20646 72.21873
#
# Poissons Ratio (x) = 0.31836 1.11271
# Poissons Ratio (y) = 0.29583 -0.31662
# Poissons Ratio (z) = 0.31792 -0.09736
#
# Static dielectric constant tensor:
#      x y z
#    x 1.676640 0.000000 0.000000 
#    y 0.000000 1.798360 0.000000 
#    z 0.000000 0.000000 1.730550 
# 
# From -- ./inp_files/31762.got.cif
#   From: 2010.05.17/outbox.cif.g08.bks.cpg/sg59_16_cif.got.tgz:31762.got - 2010.06.03 14:40:33.
