data_PCOD9451505
_publ_section_title
;
Structure prediction by ZEFSAII (Michael W. Deem and Ramdas Pophale) SiO2 
 PCOD9451505
Probable space group: P M M N
;
_chemical_formula_sum "Si O2"
_cell_formula_units_Z 56
_cell_length_a 15.312265
_cell_length_b 8.680260
_cell_length_c 22.377703
_cell_angle_alpha 90.000000
_cell_angle_beta 90.000000
_cell_angle_gamma 90.000000
_cell_volume 2974.319894
_symmetry_space_group_name_H-M "P M M N"
_symmetry_group_IT_number 59
_space_group.IT_coordinate_system_code '2'
_symmetry_cell_setting 'orthorhombic'
loop_
_space_group_symop_operation_xyz
x,y,z
1/2-x,1/2-y,z
1/2+x,-y,-z
-x,1/2+y,-z
-x,-y,-z
1/2+x,1/2+y,-z
1/2-x,y,z
x,1/2-y,z
loop_
_atom_site_type_symbol
_atom_site_label
_atom_site_fract_x
_atom_site_fract_y
_atom_site_fract_z
Si Si1 0.932087 0.565799 0.664565
Si Si2 0.151587 0.065317 0.866930
Si Si3 0.055987 0.936492 0.555510
Si Si4 0.514053 0.066692 0.791615
Si Si5 0.750000 0.062873 0.477179
Si Si6 0.348478 0.430644 0.117186
Si Si7 0.597447 0.433760 0.005910
Si Si8 0.250000 0.934769 0.382996
O O1 0.924797 0.750000 0.662654
O O2 0.961476 0.513489 0.729932
O O3 0.838180 0.496086 0.647328
O O4 0.004629 0.517650 0.615536
O O5 0.250000 0.033498 0.846910
O O6 0.142435 0.250000 0.876192
O O7 0.079225 0.018134 0.818861
O O8 0.134507 0.985215 0.930334
O O9 0.055818 0.750000 0.552121
O O10 0.157469 0.987869 0.551202
O O11 0.000000 0.000000 0.500000
O O12 0.513517 0.250000 0.782777
O O13 0.584685 0.022441 0.841794
O O14 0.750000 0.250000 0.474794
O O15 0.750000 0.018160 0.547099
O O16 0.250000 0.445645 0.140584
O O17 0.372233 0.250000 0.116757
O O18 0.351977 0.494067 0.049982
O O19 0.596952 0.250000 0.001333
O O20 0.500000 0.500000 0.000000
O O21 0.250000 0.750000 0.380522
#
# Coordination Sequence:
#
# PCOD9451505 Si02
#       8
#     8   8   8   8   4   8   8   4
#     4  11  24  40  60  89 127 162 199 252 307 359
#     4  10  22  42  66  90 118 156 202 255 311 363
#     4  10  20  37  61  88 120 157 197 246 299 352
#     4  11  24  42  64  87 119 163 207 248 296 361
#     4   9  18  35  61  91 121 155 198 245 298 355
#     4  11  24  41  62  89 123 158 195 247 307 361
#     4  12  23  37  61  91 123 158 199 250 306 365
#     4  11  21  37  65  93 121 161 204 243 292 367
#
# _framework density 18.827833999999999
#
# number of rings (size 3 to 8) (size 9 to 14) (size 15 to 20)
#    0.000    1.286    2.857    3.214    1.000    4.286 
#    1.286    0.357    0.000    0.000    0.000    0.000 
#    0.000    0.000    0.000    0.000    0.000    0.000 
#
# Total GULP energy -312985.626995 kJ/mol
# GULP energy per Si atom -5589.029053 kJ/mol
# Density = 1.878498 g / cm^3
# Si number density = 18.827834 Si / 1000 Ang^3
#
#
#
# Elastic Constant Matrix: (Units=GPa)
#
#
# Indices 1 2 3 4 5 6 
#
# 1 152.9575 28.4294 68.0475 0.0000 0.0000 0.0000
# 2 28.4294 34.8662 22.7210 0.0000 0.0000 0.0000
# 3 68.0475 22.7210 120.4677 0.0000 0.0000 0.0000
# 4 0.0000 0.0000 0.0000 27.5033 0.0000 0.0000
# 5 0.0000 0.0000 0.0000 0.0000 -5.8491 0.0000
# 6 0.0000 0.0000 0.0000 0.0000 0.0000 17.6061
#
#
#
# Elastic Compliance Matrix: (Units=1/GPa)
#
#
# Indices 1 2 3 4 5 6 
#
# 1 0.009384 -0.004785 -0.004398 0.000000 0.000000 0.000000
# 2 -0.004785 0.035141 -0.003925 0.000000 0.000000 0.000000
# 3 -0.004398 -0.003925 0.011525 0.000000 0.000000 0.000000
# 4 0.000000 0.000000 0.000000 0.036359 0.000000 0.000000
# 5 0.000000 0.000000 0.000000 0.000000 -0.170966 0.000000
# 6 0.000000 0.000000 0.000000 0.000000 0.000000 0.056799
#
#
# Mechanical properties :
#
#
# Convention : Reuss Voigt Hill
#
# Bulk Modulus (GPa) = 33.51910 60.74303 47.13106
# Shear Modulus (GPa) = 347.15696 20.45828 183.80762
#
# Velocity S-wave (km/s) = 13.59357 3.29993 9.89128
# Velocity P-wave (km/s) = 16.25490 6.84484 12.47144
#
# Compressibility (1/GPa) = 0.02983373
#
# Stress axis : x y z
#
# Youngs Moduli (GPa) = 106.56700 28.45713 86.76465
#
# Poissons Ratio (x) = 0.13618 0.38159
# Poissons Ratio (y) = 0.50997 0.34052
# Poissons Ratio (z) = 0.46868 0.11168
#
# Static dielectric constant tensor:
#      x y z
#    x 1.657080 0.000000 0.000000 
#    y 0.000000 1.632530 0.000000 
#    z 0.000000 0.000000 1.618050 
# 
# From -- ./inp_files/30426.got.cif
#   From: 2010.05.17/outbox.cif.g08.bks.cpg/sg59_16_cif.got.tgz:30426.got - 2010.06.03 14:40:33.
