data_PCOD9451251
_publ_section_title
;
Structure prediction by ZEFSAII (Michael W. Deem and Ramdas Pophale) SiO2 
 PCOD9451251
Probable space group: P M M N
;
_chemical_formula_sum "Si O2"
_cell_formula_units_Z 48
_cell_length_a 18.930866
_cell_length_b 8.706593
_cell_length_c 16.665296
_cell_angle_alpha 90.000000
_cell_angle_beta 90.000000
_cell_angle_gamma 90.000000
_cell_volume 2746.829839
_symmetry_space_group_name_H-M "P M M N"
_symmetry_group_IT_number 59
_space_group.IT_coordinate_system_code '2'
_symmetry_cell_setting 'orthorhombic'
loop_
_space_group_symop_operation_xyz
x,y,z
1/2-x,1/2-y,z
1/2+x,-y,-z
-x,1/2+y,-z
-x,-y,-z
1/2+x,1/2+y,-z
1/2-x,y,z
x,1/2-y,z
loop_
_atom_site_type_symbol
_atom_site_label
_atom_site_fract_x
_atom_site_fract_y
_atom_site_fract_z
Si Si1 0.971809 0.434348 0.083111
Si Si2 0.090508 0.935560 0.672032
Si Si3 0.167437 0.432826 0.336294
Si Si4 0.670783 0.063598 0.165865
Si Si5 0.541845 0.067956 0.759317
Si Si6 0.332913 0.934178 0.509147
O O1 0.972278 0.250000 0.080580
O O2 0.891724 0.485618 0.105835
O O3 0.019962 0.489996 0.157008
O O4 0.000000 0.500000 0.000000
O O5 0.082315 0.750000 0.673355
O O6 0.144689 0.975461 0.744170
O O7 0.121302 0.980632 0.585996
O O8 0.016688 0.011805 0.695174
O O9 0.250000 0.473204 0.325703
O O10 0.159857 0.250000 0.329245
O O11 0.117373 0.514776 0.272808
O O12 0.147168 0.484863 0.426262
O O13 0.750000 0.006861 0.149800
O O14 0.672789 0.250000 0.162521
O O15 0.538739 0.250000 0.767946
O O16 0.250000 0.966371 0.525134
O O17 0.339724 0.750000 0.498993
#
# Coordination Sequence:
#
# PCOD9451251 Si02
#       6
#     8   8   8   8   8   8
#     4  10  20  36  58  81 107 137 169 210 260 315
#     4   9  17  30  50  76 106 138 171 211 257 306
#     4  10  21  37  55  74 100 135 175 221 268 309
#     4   8  14  27  50  78 104 132 168 208 250 298
#     4  11  22  36  55  77 102 134 172 213 258 312
#     4   9  17  30  50  76 105 139 179 219 259 305
#
# _framework density 17.474691
#
# number of rings (size 3 to 8) (size 9 to 14) (size 15 to 20)
#    0.000    2.500    0.000    4.000    0.000    4.333 
#    0.000    0.833    0.000   19.500    0.000    0.000 
#    0.000    0.000    0.000    0.000    0.000    0.000 
#
# Total GULP energy -267781.804946 kJ/mol
# GULP energy per Si atom -5578.787603 kJ/mol
# Density = 1.743492 g / cm^3
# Si number density = 17.474691 Si / 1000 Ang^3
#
#
#
# Elastic Constant Matrix: (Units=GPa)
#
#
# Indices 1 2 3 4 5 6 
#
# 1 103.3861 39.3820 73.2037 0.0000 0.0000 0.0000
# 2 39.3820 47.7532 38.0651 0.0000 0.0000 0.0000
# 3 73.2037 38.0651 94.0913 0.0000 0.0000 0.0000
# 4 0.0000 0.0000 0.0000 31.0871 0.0000 0.0000
# 5 0.0000 0.0000 0.0000 0.0000 21.9481 0.0000
# 6 0.0000 0.0000 0.0000 0.0000 0.0000 17.5185
#
#
#
# Elastic Compliance Matrix: (Units=1/GPa)
#
#
# Indices 1 2 3 4 5 6 
#
# 1 0.022997 -0.006942 -0.015083 0.000000 0.000000 0.000000
# 2 -0.006942 0.033004 -0.007951 0.000000 0.000000 0.000000
# 3 -0.015083 -0.007951 0.025579 0.000000 0.000000 0.000000
# 4 0.000000 0.000000 0.000000 0.032168 0.000000 0.000000
# 5 0.000000 0.000000 0.000000 0.000000 0.045562 0.000000
# 6 0.000000 0.000000 0.000000 0.000000 0.000000 0.057083
#
#
# Mechanical properties :
#
#
# Convention : Reuss Voigt Hill
#
# Bulk Modulus (GPa) = 46.23706 60.72580 53.48143
# Shear Modulus (GPa) = 17.63336 20.41606 19.02471
#
# Velocity S-wave (km/s) = 3.18005 3.42178 3.30313
# Velocity P-wave (km/s) = 6.32459 7.10194 6.72451
#
# Compressibility (1/GPa) = 0.02162767
#
# Stress axis : x y z
#
# Youngs Moduli (GPa) = 43.48465 30.29934 39.09428
#
# Poissons Ratio (x) = 0.21035 0.58966
# Poissons Ratio (y) = 0.30188 0.31083
# Poissons Ratio (z) = 0.65588 0.24090
#
# Static dielectric constant tensor:
#      x y z
#    x 1.601930 0.000000 0.000000 
#    y 0.000000 0.704000 0.000000 
#    z 0.000000 0.000000 1.565730 
# 
# From -- ./inp_files/22556.got.cif
#   From: 2010.05.17/outbox.cif.g08.bks.cpg/sg59_12_cif.got.tgz:22556.got - 2010.06.03 14:40:33.
