data_PCOD9451720
_publ_section_title
;
Structure prediction by ZEFSAII (Michael W. Deem and Ramdas Pophale) SiO2 
 PCOD9451720
Probable space group: P M M N
;
_chemical_formula_sum "Si O2"
_cell_formula_units_Z 56
_cell_length_a 22.231072
_cell_length_b 13.490369
_cell_length_c 10.928795
_cell_angle_alpha 90.000000
_cell_angle_beta 90.000000
_cell_angle_gamma 90.000000
_cell_volume 3277.604249
_symmetry_space_group_name_H-M "P M M N"
_symmetry_group_IT_number 59
_space_group.IT_coordinate_system_code '2'
_symmetry_cell_setting 'orthorhombic'
loop_
_space_group_symop_operation_xyz
x,y,z
1/2-x,1/2-y,z
1/2+x,-y,-z
-x,1/2+y,-z
-x,-y,-z
1/2+x,1/2+y,-z
1/2-x,y,z
x,1/2-y,z
loop_
_atom_site_type_symbol
_atom_site_label
_atom_site_fract_x
_atom_site_fract_y
_atom_site_fract_z
Si Si1 0.500663 0.364849 0.778674
Si Si2 0.680837 0.945962 0.343023
Si Si3 0.900810 0.490238 0.678109
Si Si4 0.820407 0.135352 0.499260
Si Si5 0.069060 0.361867 0.521206
Si Si6 0.376237 0.367854 0.896131
Si Si7 0.821360 0.633709 0.836663
O O1 0.517755 0.250000 0.798893
O O2 0.556603 0.438194 0.777011
O O3 0.472782 0.371533 0.640971
O O4 0.446351 0.390431 0.870662
O O5 0.750000 0.918765 0.362575
O O6 0.636128 0.881532 0.426645
O O7 0.661923 0.927109 0.204005
O O8 0.672509 0.059641 0.385967
O O9 0.864912 0.406643 0.602356
O O10 0.939559 0.556622 0.583242
O O11 0.852939 0.563767 0.738721
O O12 0.750000 0.128144 0.537567
O O13 0.833072 0.250000 0.471027
O O14 0.062928 0.250000 0.474271
O O15 0.369200 0.250000 0.868638
O O16 0.352357 0.384361 0.031864
O O17 0.750000 0.615680 0.844605
O O18 0.830095 0.750000 0.806291
#
# Coordination Sequence:
#
# PCOD9451720 Si02
#       7
#     8   8   8   8   8   8   8
#     4   9  18  32  50  70  92 124 165 203 238 280
#     4   9  16  27  48  73  93 122 164 205 247 294
#     4  11  19  30  49  71  97 130 164 196 237 289
#     4   9  18  31  46  67  95 125 159 201 247 293
#     4   9  18  30  44  69 102 128 155 197 248 296
#     4   9  18  33  51  72  99 128 160 200 246 292
#     4  10  21  35  51  73 101 131 161 197 243 292
#
# _framework density 17.085650000000001
#
# number of rings (size 3 to 8) (size 9 to 14) (size 15 to 20)
#    0.000    2.571    0.000    3.429    0.000    2.857 
#    0.000    0.000    0.000    5.143    0.000    2.000 
#    0.000    0.000    0.000    0.000    0.000    0.000 
#
# Total GULP energy -312217.265033 kJ/mol
# GULP energy per Si atom -5575.308304 kJ/mol
# Density = 1.704676 g / cm^3
# Si number density = 17.085650 Si / 1000 Ang^3
#
#
#
# Elastic Constant Matrix: (Units=GPa)
#
#
# Indices 1 2 3 4 5 6 
#
# 1 36.9240 26.4223 2.4657 0.0000 0.0000 0.0000
# 2 26.4223 56.1383 7.4403 0.0000 0.0000 0.0000
# 3 2.4657 7.4403 24.6272 0.0000 0.0000 0.0000
# 4 0.0000 0.0000 0.0000 19.4948 0.0000 0.0000
# 5 0.0000 0.0000 0.0000 0.0000 17.6786 0.0000
# 6 0.0000 0.0000 0.0000 0.0000 0.0000 27.0623
#
#
#
# Elastic Compliance Matrix: (Units=1/GPa)
#
#
# Indices 1 2 3 4 5 6 
#
# 1 0.040912 -0.019494 0.001793 0.000000 0.000000 0.000000
# 2 -0.019494 0.027844 -0.006460 0.000000 0.000000 0.000000
# 3 0.001793 -0.006460 0.042378 0.000000 0.000000 0.000000
# 4 0.000000 0.000000 0.000000 0.051296 0.000000 0.000000
# 5 0.000000 0.000000 0.000000 0.000000 0.056566 0.000000
# 6 0.000000 0.000000 0.000000 0.000000 0.000000 0.036952
#
#
# Mechanical properties :
#
#
# Convention : Reuss Voigt Hill
#
# Bulk Modulus (GPa) = 15.92043 21.14959 18.53501
# Shear Modulus (GPa) = 15.37482 18.27121 16.82302
#
# Velocity S-wave (km/s) = 3.00303 3.27370 3.14128
# Velocity P-wave (km/s) = 4.62196 5.16671 4.90191
#
# Compressibility (1/GPa) = 0.06281237
#
# Stress axis : x y z
#
# Youngs Moduli (GPa) = 24.44252 35.91393 23.59729
#
# Poissons Ratio (x) = 0.70009 -0.04231
# Poissons Ratio (y) = 0.47647 0.15245
# Poissons Ratio (z) = -0.04383 0.23202
#
# Static dielectric constant tensor:
#      x y z
#    x 1.588160 0.000000 0.000000 
#    y 0.000000 1.571710 0.000000 
#    z 0.000000 0.000000 1.564460 
# 
# From -- ./inp_files/15994.got.cif
#   From: 2010.05.17/outbox.cif.g08.bks.cpg/sg59_8_cif.got.tgz:15994.got - 2010.06.03 14:40:33.
