data_PCOD9451118
_publ_section_title
;
Structure prediction by ZEFSAII (Michael W. Deem and Ramdas Pophale) SiO2 
 PCOD9451118
Probable space group: P M M N
;
_chemical_formula_sum "Si O2"
_cell_formula_units_Z 56
_cell_length_a 15.270547
_cell_length_b 19.014499
_cell_length_c 9.556534
_cell_angle_alpha 90.000000
_cell_angle_beta 90.000000
_cell_angle_gamma 90.000000
_cell_volume 2774.852420
_symmetry_space_group_name_H-M "P M M N"
_symmetry_group_IT_number 59
_space_group.IT_coordinate_system_code '2'
_symmetry_cell_setting 'orthorhombic'
loop_
_space_group_symop_operation_xyz
x,y,z
1/2-x,1/2-y,z
1/2+x,-y,-z
-x,1/2+y,-z
-x,-y,-z
1/2+x,1/2+y,-z
1/2-x,y,z
x,1/2-y,z
loop_
_atom_site_type_symbol
_atom_site_label
_atom_site_fract_x
_atom_site_fract_y
_atom_site_fract_z
Si Si1 0.653003 0.833251 0.977391
Si Si2 0.347490 0.909951 0.365006
Si Si3 0.647488 0.946799 0.470053
Si Si4 0.400489 0.047286 0.844319
Si Si5 0.997061 0.333540 0.477765
Si Si6 0.026151 0.833076 0.838408
Si Si7 0.400599 0.563045 0.064439
O O1 0.750000 0.851986 0.927404
O O2 0.650327 0.750000 0.000876
O O3 0.630516 0.874241 0.119255
O O4 0.575747 0.850765 0.869940
O O5 0.250000 0.890869 0.416701
O O6 0.422901 0.856833 0.413009
O O7 0.346409 0.914693 0.197844
O O8 0.369419 0.986977 0.428390
O O9 0.750000 0.927581 0.482582
O O10 0.628126 0.971378 0.310735
O O11 0.582217 0.882180 0.500094
O O12 0.504943 0.042114 0.867548
O O13 0.363348 0.999768 0.970140
O O14 0.016295 0.250000 0.484900
O O15 0.958294 0.349285 0.323269
O O16 0.038183 0.750000 0.859881
O O17 0.080599 0.876189 0.951453
#
# Coordination Sequence:
#
# PCOD9451118 Si02
#       7
#     8   8   8   8   8   8   8
#     4   9  18  32  53  84 122 158 196 243 294 357
#     4  11  25  43  66  92 123 165 212 263 316 374
#     4  11  24  40  62  95 134 171 207 252 313 383
#     4  10  20  35  59  87 123 164 201 251 306 361
#     4  11  24  43  66  91 128 170 209 259 316 377
#     4   9  20  38  61  87 117 158 201 246 308 367
#     4  10  21  37  62  92 117 157 209 260 308 363
#
# _framework density 20.181253000000002
#
# number of rings (size 3 to 8) (size 9 to 14) (size 15 to 20)
#    0.000    1.857    1.429    1.714    6.000    3.429 
#    0.000    2.143    0.000    0.857    0.000    0.000 
#    0.000    0.000    0.000    0.000    0.000    0.000 
#
# Total GULP energy -312694.955517 kJ/mol
# GULP energy per Si atom -5583.838491 kJ/mol
# Density = 2.013532 g / cm^3
# Si number density = 20.181253 Si / 1000 Ang^3
#
#
#
# Elastic Constant Matrix: (Units=GPa)
#
#
# Indices 1 2 3 4 5 6 
#
# 1 60.2426 28.7384 18.1806 0.0000 0.0000 0.0000
# 2 28.7384 60.2854 36.4264 0.0000 0.0000 0.0000
# 3 18.1806 36.4264 122.5365 0.0000 0.0000 0.0000
# 4 0.0000 0.0000 0.0000 28.9265 0.0000 0.0000
# 5 0.0000 0.0000 0.0000 0.0000 5.0336 0.0000
# 6 0.0000 0.0000 0.0000 0.0000 0.0000 10.9723
#
#
#
# Elastic Compliance Matrix: (Units=1/GPa)
#
#
# Indices 1 2 3 4 5 6 
#
# 1 0.021489 -0.010138 -0.000174 0.000000 0.000000 0.000000
# 2 -0.010138 0.025003 -0.005928 0.000000 0.000000 0.000000
# 3 -0.000174 -0.005928 0.009949 0.000000 0.000000 0.000000
# 4 0.000000 0.000000 0.000000 0.034570 0.000000 0.000000
# 5 0.000000 0.000000 0.000000 0.000000 0.198664 0.000000
# 6 0.000000 0.000000 0.000000 0.000000 0.000000 0.091139
#
#
# Mechanical properties :
#
#
# Convention : Reuss Voigt Hill
#
# Bulk Modulus (GPa) = 41.73929 45.52837 43.63383
# Shear Modulus (GPa) = 11.86854 19.63443 15.75149
#
# Velocity S-wave (km/s) = 2.42770 3.12253 2.79678
# Velocity P-wave (km/s) = 5.34653 5.96732 5.66544
#
# Compressibility (1/GPa) = 0.02395824
#
# Stress axis : x y z
#
# Youngs Moduli (GPa) = 46.53623 39.99538 100.51222
#
# Poissons Ratio (x) = 0.40549 0.01753
# Poissons Ratio (y) = 0.47180 0.59587
# Poissons Ratio (z) = 0.00812 0.23711
#
# Static dielectric constant tensor:
#      x y z
#    x 1.731020 0.000000 0.000000 
#    y 0.000000 1.727630 0.000000 
#    z 0.000000 0.000000 1.721240 
# 
# From -- ./inp_files/9365.got.cif
#   From: 2010.05.17/outbox.cif.g08.bks.cpg/sg59_5_cif.got.tgz:9365.got - 2010.06.03 14:40:33.
