data_PCOD9451739
_publ_section_title
;
Structure prediction by ZEFSAII (Michael W. Deem and Ramdas Pophale) SiO2 
 PCOD9451739
Probable space group: P M M N
;
_chemical_formula_sum "Si O2"
_cell_formula_units_Z 64
_cell_length_a 32.075124
_cell_length_b 8.971127
_cell_length_c 12.023459
_cell_angle_alpha 90.000000
_cell_angle_beta 90.000000
_cell_angle_gamma 90.000000
_cell_volume 3459.750459
_symmetry_space_group_name_H-M "P M M N"
_symmetry_group_IT_number 59
_space_group.IT_coordinate_system_code '2'
_symmetry_cell_setting 'orthorhombic'
loop_
_space_group_symop_operation_xyz
x,y,z
1/2-x,1/2-y,z
1/2+x,-y,-z
-x,1/2+y,-z
-x,-y,-z
1/2+x,1/2+y,-z
1/2-x,y,z
x,1/2-y,z
loop_
_atom_site_type_symbol
_atom_site_label
_atom_site_fract_x
_atom_site_fract_y
_atom_site_fract_z
Si Si1 0.201962 0.567905 0.103291
Si Si2 0.300703 0.579469 0.351064
Si Si3 0.377774 0.570496 0.962905
Si Si4 0.472903 0.928751 0.335829
Si Si5 0.035396 0.569621 0.079107
Si Si6 0.439700 0.428416 0.545375
Si Si7 0.628958 0.570492 0.275024
Si Si8 0.797534 0.929022 0.423208
O O1 0.250000 0.520839 0.080195
O O2 0.202673 0.750000 0.105680
O O3 0.188952 0.520446 0.228327
O O4 0.165966 0.520868 0.018421
O O5 0.250000 0.581164 0.351897
O O6 0.315272 0.750000 0.360503
O O7 0.314167 0.489038 0.459004
O O8 0.376660 0.750000 0.957032
O O9 0.382040 0.503974 0.840591
O O10 0.418532 0.529868 0.034663
O O11 0.468738 0.750000 0.337316
O O12 0.469286 0.977643 0.208012
O O13 0.518195 0.967551 0.386673
O O14 0.440887 0.997389 0.424481
O O15 0.031334 0.750000 0.075338
O O16 0.000000 0.500000 0.000000
O O17 0.439078 0.250000 0.531217
O O18 0.402071 0.471721 0.625394
O O19 0.626966 0.750000 0.262553
O O20 0.674387 0.525849 0.319520
O O21 0.750000 0.980106 0.409988
O O22 0.797987 0.750000 0.428728
#
# Coordination Sequence:
#
# PCOD9451739 Si02
#       8
#     8   8   8   8   8   8   8   8
#     4   8  15  30  51  74 103 136 166 205 258 304
#     4   8  14  27  49  74  97 124 160 200 245 298
#     4  10  21  35  52  76 101 129 173 217 248 292
#     4   9  18  33  53  76 100 126 158 198 243 288
#     4  10  21  36  54  77 105 136 169 207 251 298
#     4   9  18  33  52  73  98 128 161 196 239 293
#     4  10  21  36  51  69  99 136 168 203 251 300
#     4   9  18  32  49  70  98 131 165 203 247 293
#
# _framework density 18.498443999999999
#
# number of rings (size 3 to 8) (size 9 to 14) (size 15 to 20)
#    0.000    2.875    0.000    1.500    0.000    4.500 
#    0.000    4.375    0.000    0.750    0.000    0.000 
#    0.000    0.000    0.000    0.000    0.000    0.000 
#
# Total GULP energy -356694.958863 kJ/mol
# GULP energy per Si atom -5573.358732 kJ/mol
# Density = 1.845634 g / cm^3
# Si number density = 18.498444 Si / 1000 Ang^3
#
#
#
# Elastic Constant Matrix: (Units=GPa)
#
#
# Indices 1 2 3 4 5 6 
#
# 1 84.6937 21.9770 65.3855 0.0000 0.0000 0.0000
# 2 21.9770 0.2952 27.7465 0.0000 0.0000 0.0000
# 3 65.3855 27.7465 162.5441 0.0000 0.0000 0.0000
# 4 0.0000 0.0000 0.0000 26.0610 0.0000 0.0000
# 5 0.0000 0.0000 0.0000 0.0000 29.9771 0.0000
# 6 0.0000 0.0000 0.0000 0.0000 0.0000 16.8474
#
#
#
# Elastic Compliance Matrix: (Units=1/GPa)
#
#
# Indices 1 2 3 4 5 6 
#
# 1 0.011802 0.028742 -0.009654 0.000000 0.000000 0.000000
# 2 0.028742 -0.155171 0.014926 0.000000 0.000000 0.000000
# 3 -0.009654 0.014926 0.007488 0.000000 0.000000 0.000000
# 4 0.000000 0.000000 0.000000 0.038372 0.000000 0.000000
# 5 0.000000 0.000000 0.000000 0.000000 0.033359 0.000000
# 6 0.000000 0.000000 0.000000 0.000000 0.000000 0.059356
#
#
# Mechanical properties :
#
#
# Convention : Reuss Voigt Hill
#
# Bulk Modulus (GPa) = -14.73767 53.08344 19.17288
# Shear Modulus (GPa) = -52.38842 23.40536 -14.49153
#
# Velocity S-wave (km/s) = -5.32747 3.56091 -2.80195
# Velocity P-wave (km/s) = 6.76955 6.75761 0.28427
#
# Compressibility (1/GPa) = -0.06785332
#
# Stress axis : x y z
#
# Youngs Moduli (GPa) = 84.73105 -6.44449 133.55385
#
# Poissons Ratio (x) = 0.18523 1.28930
# Poissons Ratio (y) = -2.43532 -1.99345
# Poissons Ratio (z) = 0.81797 0.09619
#
# Static dielectric constant tensor:
#      x y z
#    x 1.664650 0.000000 0.000000 
#    y 0.000000 1.622480 0.000000 
#    z 0.000000 0.000000 1.622650 
# 
# From -- ./inp_files/19328.got.cif
#   From: 2010.05.17/outbox.cif.g08.bks.cpg/sg59_10_cif.got.tgz:19328.got - 2010.06.03 14:40:33.
