data_PCOD9451008
_publ_section_title
;
Structure prediction by ZEFSAII (Michael W. Deem and Ramdas Pophale) SiO2 
 PCOD9451008
Probable space group: P M M N
;
_chemical_formula_sum "Si O2"
_cell_formula_units_Z 48
_cell_length_a 15.674558
_cell_length_b 9.698165
_cell_length_c 15.151856
_cell_angle_alpha 90.000000
_cell_angle_beta 90.000000
_cell_angle_gamma 90.000000
_cell_volume 2303.301053
_symmetry_space_group_name_H-M "P M M N"
_symmetry_group_IT_number 59
_space_group.IT_coordinate_system_code '2'
_symmetry_cell_setting 'orthorhombic'
loop_
_space_group_symop_operation_xyz
x,y,z
1/2-x,1/2-y,z
1/2+x,-y,-z
-x,1/2+y,-z
-x,-y,-z
1/2+x,1/2+y,-z
1/2-x,y,z
x,1/2-y,z
loop_
_atom_site_type_symbol
_atom_site_label
_atom_site_fract_x
_atom_site_fract_y
_atom_site_fract_z
Si Si1 0.148187 0.902372 0.738685
Si Si2 0.150680 0.397736 0.882545
Si Si3 0.898488 0.406193 0.587150
Si Si4 0.148581 0.587641 0.210114
Si Si5 0.104562 0.407159 0.574439
Si Si6 0.433544 0.410820 0.057975
O O1 0.250000 0.887415 0.748063
O O2 0.111237 0.750000 0.724966
O O3 0.113483 0.976484 0.826690
O O4 0.132877 0.002624 0.657237
O O5 0.250000 0.391435 0.858942
O O6 0.110128 0.250000 0.857246
O O7 0.143666 0.410220 0.987051
O O8 0.867827 0.250000 0.567311
O O9 0.872877 0.439399 0.687238
O O10 0.867939 0.515515 0.514896
O O11 0.001315 0.404230 0.579190
O O12 0.250000 0.568057 0.196584
O O13 0.129145 0.750000 0.193134
O O14 0.095487 0.489811 0.145321
O O15 0.135234 0.250000 0.578900
O O16 0.458278 0.250000 0.072086
O O17 0.500000 0.500000 0.000000
#
# Coordination Sequence:
#
# PCOD9451008 Si02
#       6
#     8   8   8   8   8   8
#     4  10  21  35  54  82 114 148 188 235 286 343
#     4   9  19  37  58  79 109 149 189 233 287 343
#     4   9  20  38  58  83 116 156 198 240 293 351
#     4  10  22  41  64  89 120 159 202 250 305 364
#     4  10  20  35  57  84 117 155 197 244 290 346
#     4  11  24  40  60  88 120 155 198 246 297 354
#
# _framework density 20.839656999999999
#
# number of rings (size 3 to 8) (size 9 to 14) (size 15 to 20)
#    0.000    2.167    0.000    2.000    2.333    5.333 
#    0.000    3.333    0.000    0.000    0.000    0.000 
#    0.000    0.000    0.000    0.000    0.000    0.000 
#
# Total GULP energy -267894.775269 kJ/mol
# GULP energy per Si atom -5581.141151 kJ/mol
# Density = 2.079223 g / cm^3
# Si number density = 20.839657 Si / 1000 Ang^3
#
#
#
# Elastic Constant Matrix: (Units=GPa)
#
#
# Indices 1 2 3 4 5 6 
#
# 1 37.3005 18.8689 6.9723 0.0000 0.0000 0.0000
# 2 18.8689 149.8354 75.5479 0.0000 0.0000 0.0000
# 3 6.9723 75.5479 105.2228 0.0000 0.0000 0.0000
# 4 0.0000 0.0000 0.0000 32.4927 0.0000 0.0000
# 5 0.0000 0.0000 0.0000 0.0000 14.3403 0.0000
# 6 0.0000 0.0000 0.0000 0.0000 0.0000 20.0361
#
#
#
# Elastic Compliance Matrix: (Units=1/GPa)
#
#
# Indices 1 2 3 4 5 6 
#
# 1 0.028712 -0.004164 0.001087 0.000000 0.000000 0.000000
# 2 -0.004164 0.011065 -0.007668 0.000000 0.000000 0.000000
# 3 0.001087 -0.007668 0.014937 0.000000 0.000000 0.000000
# 4 0.000000 0.000000 0.000000 0.030776 0.000000 0.000000
# 5 0.000000 0.000000 0.000000 0.000000 0.069734 0.000000
# 6 0.000000 0.000000 0.000000 0.000000 0.000000 0.049910
#
#
# Mechanical properties :
#
#
# Convention : Reuss Voigt Hill
#
# Bulk Modulus (GPa) = 30.09858 55.01522 42.55690
# Shear Modulus (GPa) = 21.03496 26.10512 23.57004
#
# Velocity S-wave (km/s) = 3.18051 3.54314 3.36671
# Velocity P-wave (km/s) = 5.28789 6.57230 5.96477
#
# Compressibility (1/GPa) = 0.03322416
#
# Stress axis : x y z
#
# Youngs Moduli (GPa) = 34.82806 90.37665 66.94614
#
# Poissons Ratio (x) = 0.37632 -0.07277
# Poissons Ratio (y) = 0.14502 0.51337
# Poissons Ratio (z) = -0.03786 0.69304
#
# Static dielectric constant tensor:
#      x y z
#    x 1.800070 0.000000 0.000000 
#    y 0.000000 1.762910 0.000000 
#    z 0.000000 0.000000 1.710550 
# 
# From -- ./inp_files/23677.got.cif
#   From: 2010.05.17/outbox.cif.g08.bks.cpg/sg59_12_cif.got.tgz:23677.got - 2010.06.03 14:40:33.
