data_PCOD9451094
_publ_section_title
;
Structure prediction by ZEFSAII (Michael W. Deem and Ramdas Pophale) SiO2 
 PCOD9451094
Probable space group: P M M N
;
_chemical_formula_sum "Si O2"
_cell_formula_units_Z 64
_cell_length_a 8.581546
_cell_length_b 14.662674
_cell_length_c 24.786252
_cell_angle_alpha 90.000000
_cell_angle_beta 90.000000
_cell_angle_gamma 90.000000
_cell_volume 3118.814714
_symmetry_space_group_name_H-M "P M M N"
_symmetry_group_IT_number 59
_space_group.IT_coordinate_system_code '2'
_symmetry_cell_setting 'orthorhombic'
loop_
_space_group_symop_operation_xyz
x,y,z
1/2-x,1/2-y,z
1/2+x,-y,-z
-x,1/2+y,-z
-x,-y,-z
1/2+x,1/2+y,-z
1/2-x,y,z
x,1/2-y,z
loop_
_atom_site_type_symbol
_atom_site_label
_atom_site_fract_x
_atom_site_fract_y
_atom_site_fract_z
Si Si1 0.432020 0.453607 0.738222
Si Si2 0.066652 0.855573 0.590543
Si Si3 0.062779 0.509605 0.060368
Si Si4 0.930025 0.350679 0.132646
Si Si5 0.929104 0.857702 0.475026
Si Si6 0.067935 0.960787 0.373738
Si Si7 0.561914 0.355613 0.845229
Si Si8 0.932465 0.851540 0.751228
O O1 0.250000 0.434799 0.735207
O O2 0.515330 0.420165 0.683683
O O3 0.497432 0.411745 0.793854
O O4 0.464208 0.562091 0.736314
O O5 0.250000 0.864501 0.602394
O O6 0.019287 0.750000 0.599726
O O7 0.035333 0.875046 0.527200
O O8 0.971235 0.931371 0.622654
O O9 0.250000 0.505524 0.059328
O O10 0.018804 0.596851 0.097783
O O11 0.990361 0.425519 0.092503
O O12 0.000000 0.500000 0.000000
O O13 0.750000 0.368574 0.149611
O O14 0.932734 0.250000 0.107728
O O15 0.041119 0.349045 0.184397
O O16 0.750000 0.878115 0.490026
O O17 0.940412 0.750000 0.462697
O O18 0.977636 0.914290 0.423038
O O19 0.250000 0.946976 0.381123
O O20 0.750000 0.358551 0.841584
O O21 0.512051 0.250000 0.842901
O O22 0.750000 0.867451 0.738854
O O23 0.977461 0.750000 0.730999
#
# Coordination Sequence:
#
# PCOD9451094 Si02
#       8
#     8   8   8   8   8   8   8   8
#     4  12  25  41  63  90 123 161 206 258 311 368
#     4  10  21  39  63  91 125 164 206 254 311 374
#     4  11  23  39  63  93 128 165 204 254 309 363
#     4  10  20  35  58  88 121 156 194 240 296 355
#     4  10  21  39  63  90 122 160 206 259 313 371
#     4  12  25  40  61  88 123 164 208 258 311 369
#     4  10  23  45  69  91 121 165 212 256 307 367
#     4  10  20  36  60  88 118 154 195 239 294 361
#
# _framework density 20.520617999999999
#
# number of rings (size 3 to 8) (size 9 to 14) (size 15 to 20)
#    0.000    1.375    1.250    4.500    0.000    5.250 
#    0.000    1.250    0.000    0.000    0.000    0.000 
#    0.000    0.000    0.000    0.000    0.000    0.000 
#
# Total GULP energy -357632.579196 kJ/mol
# GULP energy per Si atom -5588.009050 kJ/mol
# Density = 2.047391 g / cm^3
# Si number density = 20.520618 Si / 1000 Ang^3
#
#
#
# Elastic Constant Matrix: (Units=GPa)
#
#
# Indices 1 2 3 4 5 6 
#
# 1 50.0880 11.8670 -3.9173 0.0000 0.0000 0.0000
# 2 11.8670 65.7351 28.4120 0.0000 0.0000 0.0000
# 3 -3.9173 28.4120 91.0490 0.0000 0.0000 0.0000
# 4 0.0000 0.0000 0.0000 1.7184 0.0000 0.0000
# 5 0.0000 0.0000 0.0000 0.0000 33.5339 0.0000
# 6 0.0000 0.0000 0.0000 0.0000 0.0000 25.0507
#
#
#
# Elastic Compliance Matrix: (Units=1/GPa)
#
#
# Indices 1 2 3 4 5 6 
#
# 1 0.021319 -0.004907 0.002448 0.000000 0.000000 0.000000
# 2 -0.004907 0.018714 -0.006051 0.000000 0.000000 0.000000
# 3 0.002448 -0.006051 0.012977 0.000000 0.000000 0.000000
# 4 0.000000 0.000000 0.000000 0.581948 0.000000 0.000000
# 5 0.000000 0.000000 0.000000 0.000000 0.029821 0.000000
# 6 0.000000 0.000000 0.000000 0.000000 0.000000 0.039919
#
#
# Mechanical properties :
#
#
# Convention : Reuss Voigt Hill
#
# Bulk Modulus (GPa) = 27.78495 31.06616 29.42556
# Shear Modulus (GPa) = 6.81466 23.42797 15.12131
#
# Velocity S-wave (km/s) = 1.82431 3.38254 2.71751
# Velocity P-wave (km/s) = 4.24345 5.51609 4.92109
#
# Compressibility (1/GPa) = 0.03599070
#
# Stress axis : x y z
#
# Youngs Moduli (GPa) = 46.90678 53.43700 77.06195
#
# Poissons Ratio (x) = 0.26221 -0.18868
# Poissons Ratio (y) = 0.23017 0.46628
# Poissons Ratio (z) = -0.11485 0.32333
#
# Static dielectric constant tensor:
#      x y z
#    x 1.685680 0.000000 0.000000 
#    y 0.000000 1.750420 0.000000 
#    z 0.000000 0.000000 1.678240 
# 
# From -- ./inp_files/31675.got.cif
#   From: 2010.05.17/outbox.cif.g08.bks.cpg/sg59_16_cif.got.tgz:31675.got - 2010.06.03 14:40:33.
