data_PCOD9451964
_publ_section_title
;
Structure prediction by ZEFSAII (Michael W. Deem and Ramdas Pophale) SiO2 
 PCOD9451964
Probable space group: P M M N
;
_chemical_formula_sum "Si O2"
_cell_formula_units_Z 48
_cell_length_a 9.400606
_cell_length_b 9.152433
_cell_length_c 31.517926
_cell_angle_alpha 90.000000
_cell_angle_beta 90.000000
_cell_angle_gamma 90.000000
_cell_volume 2711.752447
_symmetry_space_group_name_H-M "P M M N"
_symmetry_group_IT_number 59
_space_group.IT_coordinate_system_code '2'
_symmetry_cell_setting 'orthorhombic'
loop_
_space_group_symop_operation_xyz
x,y,z
1/2-x,1/2-y,z
1/2+x,-y,-z
-x,1/2+y,-z
-x,-y,-z
1/2+x,1/2+y,-z
1/2-x,y,z
x,1/2-y,z
loop_
_atom_site_type_symbol
_atom_site_label
_atom_site_fract_x
_atom_site_fract_y
_atom_site_fract_z
Si Si1 0.418805 0.923660 0.712358
Si Si2 0.582570 0.075362 0.037899
Si Si3 0.416266 0.925954 0.461615
Si Si4 0.581518 0.075851 0.789283
Si Si5 0.419633 0.574957 0.866142
Si Si6 0.417445 0.076206 0.623557
O O1 0.250000 0.950190 0.719774
O O2 0.442027 0.750000 0.713280
O O3 0.509010 0.001974 0.748550
O O4 0.453353 0.988857 0.666136
O O5 0.750000 0.042875 0.034180
O O6 0.565428 0.250000 0.035061
O O7 0.538412 0.032505 0.085751
O O8 0.500000 0.000000 0.000000
O O9 0.250000 0.965593 0.462371
O O10 0.427155 0.750000 0.465531
O O11 0.488578 0.966256 0.416842
O O12 0.500000 0.000000 0.500000
O O13 0.750000 0.046238 0.789841
O O14 0.560269 0.250000 0.787792
O O15 0.507318 0.009494 0.830870
O O16 0.250000 0.548488 0.861334
O O17 0.440211 0.750000 0.861610
O O18 0.250000 0.051926 0.614013
O O19 0.436221 0.250000 0.631219
#
# Coordination Sequence:
#
# PCOD9451964 Si02
#       6
#     8   8   8   8   8   8
#     4  10  21  37  58  83 109 139 176 217 262 315
#     4   9  19  35  54  78 108 140 175 217 263 312
#     4  10  21  36  55  80 110 144 181 222 267 314
#     4  11  24  38  53  78 110 141 175 218 266 314
#     4   9  19  37  58  78 103 138 179 220 263 313
#     4   9  18  34  55  78 107 143 180 218 262 313
#
# _framework density 17.700731999999999
#
# number of rings (size 3 to 8) (size 9 to 14) (size 15 to 20)
#    0.000    2.333    0.000    3.000    0.000    8.667 
#    0.000    8.333    0.000    0.000    0.000    0.000 
#    0.000    0.000    0.000    0.000    0.000    0.000 
#
# Total GULP energy -267979.514009 kJ/mol
# GULP energy per Si atom -5582.906542 kJ/mol
# Density = 1.766044 g / cm^3
# Si number density = 17.700732 Si / 1000 Ang^3
#
#
#
# Elastic Constant Matrix: (Units=GPa)
#
#
# Indices 1 2 3 4 5 6 
#
# 1 107.5840 72.2553 125.6633 0.0000 0.0000 0.0000
# 2 72.2553 60.2419 90.0354 0.0000 0.0000 0.0000
# 3 125.6633 90.0354 209.4933 0.0000 0.0000 0.0000
# 4 0.0000 0.0000 0.0000 40.9375 0.0000 0.0000
# 5 0.0000 0.0000 0.0000 0.0000 38.1942 0.0000
# 6 0.0000 0.0000 0.0000 0.0000 0.0000 30.1916
#
#
#
# Elastic Compliance Matrix: (Units=1/GPa)
#
#
# Indices 1 2 3 4 5 6 
#
# 1 0.059697 -0.050558 -0.014080 0.000000 0.000000 0.000000
# 2 -0.050558 0.089229 -0.008021 0.000000 0.000000 0.000000
# 3 -0.014080 -0.008021 0.016667 0.000000 0.000000 0.000000
# 4 0.000000 0.000000 0.000000 0.024427 0.000000 0.000000
# 5 0.000000 0.000000 0.000000 0.000000 0.026182 0.000000
# 6 0.000000 0.000000 0.000000 0.000000 0.000000 0.033122
#
#
# Mechanical properties :
#
#
# Convention : Reuss Voigt Hill
#
# Bulk Modulus (GPa) = 49.32654 105.91412 77.62033
# Shear Modulus (GPa) = 12.45632 27.82235 20.13933
#
# Velocity S-wave (km/s) = 2.65565 3.96892 3.37674
# Velocity P-wave (km/s) = 6.10989 8.99828 7.69089
#
# Compressibility (1/GPa) = 0.02027306
#
# Stress axis : x y z
#
# Youngs Moduli (GPa) = 16.75112 11.20711 59.99930
#
# Poissons Ratio (x) = 0.56661 0.84481
# Poissons Ratio (y) = 0.84691 0.48128
# Poissons Ratio (z) = 0.23586 0.08990
#
# Static dielectric constant tensor:
#      x y z
#    x 1.586840 0.000000 0.000000 
#    y 0.000000 1.587810 0.000000 
#    z 0.000000 0.000000 1.578310 
# 
# From -- ./inp_files/32786.got.cif
#   From: 2010.05.17/outbox.cif.g08.bks.cpg/sg59_17_cif.got.tgz:32786.got - 2010.06.03 14:40:33.
