data_PCOD9451726
_publ_section_title
;
Structure prediction by ZEFSAII (Michael W. Deem and Ramdas Pophale) SiO2 
 PCOD9451726
Probable space group: P M M N
;
_chemical_formula_sum "Si O2"
_cell_formula_units_Z 64
_cell_length_a 7.822041
_cell_length_b 23.428869
_cell_length_c 17.033796
_cell_angle_alpha 90.000000
_cell_angle_beta 90.000000
_cell_angle_gamma 90.000000
_cell_volume 3121.640264
_symmetry_space_group_name_H-M "P M M N"
_symmetry_group_IT_number 59
_space_group.IT_coordinate_system_code '2'
_symmetry_cell_setting 'orthorhombic'
loop_
_space_group_symop_operation_xyz
x,y,z
1/2-x,1/2-y,z
1/2+x,-y,-z
-x,1/2+y,-z
-x,-y,-z
1/2+x,1/2+y,-z
1/2-x,y,z
x,1/2-y,z
loop_
_atom_site_type_symbol
_atom_site_label
_atom_site_fract_x
_atom_site_fract_y
_atom_site_fract_z
Si Si1 0.957993 0.032357 0.889894
Si Si2 0.045917 0.578370 0.275300
Si Si3 0.956385 0.814679 0.358187
Si Si4 0.040289 0.816753 0.828629
Si Si5 0.053004 0.500430 0.409268
Si Si6 0.546712 0.090589 0.048114
Si Si7 0.055343 0.885449 0.674712
Si Si8 0.551874 0.681542 0.529410
O O1 0.750000 0.032534 0.892064
O O2 0.020800 0.054892 0.806603
O O3 0.019178 0.072618 0.961761
O O4 0.014635 0.967244 0.902729
O O5 0.250000 0.568468 0.272972
O O6 0.968681 0.546343 0.351031
O O7 0.014338 0.644531 0.289545
O O8 0.750000 0.813808 0.362176
O O9 0.016060 0.750000 0.348222
O O10 0.015173 0.836794 0.443995
O O11 0.250000 0.816097 0.827143
O O12 0.986537 0.750000 0.827728
O O13 0.983425 0.853994 0.904304
O O14 0.984823 0.852786 0.751344
O O15 0.250000 0.515324 0.414054
O O16 0.000000 0.500000 0.500000
O O17 0.033585 0.440951 0.362149
O O18 0.750000 0.098731 0.040482
O O19 0.250000 0.902190 0.693094
O O20 0.050404 0.841164 0.602851
O O21 0.750000 0.662569 0.538066
O O22 0.552060 0.750000 0.528197
#
# Coordination Sequence:
#
# PCOD9451726 Si02
#       8
#     8   8   8   8   8   8   8   8
#     4   9  18  33  53  78 105 129 161 209 258 302
#     4  10  21  35  51  74 102 130 162 204 253 299
#     4   9  19  35  53  72  95 126 163 202 243 289
#     4   9  18  32  50  75 107 139 173 214 255 303
#     4  11  23  37  52  73 104 139 174 215 262 309
#     4   9  17  32  55  78  99 130 170 205 247 305
#     4  11  21  32  49  74 103 135 172 212 256 305
#     4   9  18  33  51  70  95 130 172 214 253 294
#
# _framework density 20.502043
#
# number of rings (size 3 to 8) (size 9 to 14) (size 15 to 20)
#    0.000    2.375    0.000    3.375    0.000    5.000 
#    0.000    2.500    0.000    4.125    0.000    0.000 
#    0.000    0.000    0.000    0.000    0.000    0.000 
#
# Total GULP energy -356961.044004 kJ/mol
# GULP energy per Si atom -5577.516313 kJ/mol
# Density = 2.045538 g / cm^3
# Si number density = 20.502043 Si / 1000 Ang^3
#
#
#
# Elastic Constant Matrix: (Units=GPa)
#
#
# Indices 1 2 3 4 5 6 
#
# 1 17.8764 -9.8694 7.6341 0.0000 0.0000 0.0000
# 2 -9.8694 99.0487 77.5806 0.0000 0.0000 0.0000
# 3 7.6341 77.5806 131.7109 0.0000 0.0000 0.0000
# 4 0.0000 0.0000 0.0000 32.4191 0.0000 0.0000
# 5 0.0000 0.0000 0.0000 0.0000 11.8389 0.0000
# 6 0.0000 0.0000 0.0000 0.0000 0.0000 20.2227
#
#
#
# Elastic Compliance Matrix: (Units=1/GPa)
#
#
# Indices 1 2 3 4 5 6 
#
# 1 0.073716 0.019850 -0.015964 0.000000 0.000000 0.000000
# 2 0.019850 0.024088 -0.015339 0.000000 0.000000 0.000000
# 3 -0.015964 -0.015339 0.017553 0.000000 0.000000 0.000000
# 4 0.000000 0.000000 0.000000 0.030846 0.000000 0.000000
# 5 0.000000 0.000000 0.000000 0.000000 0.084467 0.000000
# 6 0.000000 0.000000 0.000000 0.000000 0.000000 0.049449
#
#
# Mechanical properties :
#
#
# Convention : Reuss Voigt Hill
#
# Bulk Modulus (GPa) = 10.81675 44.36961 27.59318
# Shear Modulus (GPa) = 14.97705 24.44887 19.71296
#
# Velocity S-wave (km/s) = 2.70574 3.45702 3.10419
# Velocity P-wave (km/s) = 3.87927 6.13377 5.13186
#
# Compressibility (1/GPa) = 0.09244925
#
# Stress axis : x y z
#
# Youngs Moduli (GPa) = 13.56554 41.51396 56.97123
#
# Poissons Ratio (x) = -0.82403 0.90952
# Poissons Ratio (y) = -0.26927 0.87388
# Poissons Ratio (z) = 0.21657 0.63678
#
# Static dielectric constant tensor:
#      x y z
#    x 1.933370 0.000000 0.000000 
#    y 0.000000 1.769780 0.000000 
#    z 0.000000 0.000000 1.754110 
# 
# From -- ./inp_files/21581.got.cif
#   From: 2010.05.17/outbox.cif.g08.bks.cpg/sg59_11_cif.got.tgz:21581.got - 2010.06.03 14:40:33.
