data_PCOD9451873
_publ_section_title
;
Structure prediction by ZEFSAII (Michael W. Deem and Ramdas Pophale) SiO2 
 PCOD9451873
Probable space group: P M M N
;
_chemical_formula_sum "Si O2"
_cell_formula_units_Z 48
_cell_length_a 14.198102
_cell_length_b 15.163192
_cell_length_c 10.970990
_cell_angle_alpha 90.000000
_cell_angle_beta 90.000000
_cell_angle_gamma 90.000000
_cell_volume 2361.928493
_symmetry_space_group_name_H-M "P M M N"
_symmetry_group_IT_number 59
_space_group.IT_coordinate_system_code '2'
_symmetry_cell_setting 'orthorhombic'
loop_
_space_group_symop_operation_xyz
x,y,z
1/2-x,1/2-y,z
1/2+x,-y,-z
-x,1/2+y,-z
-x,-y,-z
1/2+x,1/2+y,-z
1/2-x,y,z
x,1/2-y,z
loop_
_atom_site_type_symbol
_atom_site_label
_atom_site_fract_x
_atom_site_fract_y
_atom_site_fract_z
Si Si1 0.638884 0.852842 0.581313
Si Si2 0.642898 0.347121 0.853263
Si Si3 0.012152 0.653136 0.911010
Si Si4 0.141515 0.035475 0.655083
Si Si5 0.549973 0.990796 0.765331
Si Si6 0.140089 0.656139 0.667426
O O1 0.750000 0.860520 0.613254
O O2 0.612421 0.750000 0.594396
O O3 0.629316 0.888407 0.443797
O O4 0.578604 0.919280 0.663334
O O5 0.750000 0.351906 0.897682
O O6 0.629577 0.250000 0.796733
O O7 0.621283 0.428530 0.766740
O O8 0.572790 0.354051 0.967458
O O9 0.964994 0.750000 0.910105
O O10 0.081869 0.651666 0.793351
O O11 0.947780 0.568391 0.887801
O O12 0.250000 0.040881 0.702124
O O13 0.053829 0.033648 0.747287
O O14 0.130472 0.936473 0.597239
O O15 0.250000 0.659383 0.700042
O O16 0.116311 0.750000 0.606019
#
# Coordination Sequence:
#
# PCOD9451873 Si02
#       6
#     8   8   8   8   8   8
#     4  10  21  37  55  74 100 137 178 219 265 315
#     4  10  21  36  53  76 108 143 176 212 259 312
#     4   9  17  30  50  75 102 132 167 207 254 307
#     4   9  19  34  52  77 106 135 171 214 261 312
#     4  11  20  34  55  81 105 135 175 221 259 304
#     4   8  13  24  45  72 100 129 162 202 247 296
#
# _framework density 20.322378
#
# number of rings (size 3 to 8) (size 9 to 14) (size 15 to 20)
#    0.000    2.500    0.000    2.500    0.000    4.000 
#    0.000    0.833    0.000    3.000    0.000    4.667 
#    0.000    0.000    0.000    0.000    0.000    0.000 
#
# Total GULP energy -267230.351739 kJ/mol
# GULP energy per Si atom -5567.298995 kJ/mol
# Density = 2.027612 g / cm^3
# Si number density = 20.322378 Si / 1000 Ang^3
#
#
#
# Elastic Constant Matrix: (Units=GPa)
#
#
# Indices 1 2 3 4 5 6 
#
# 1 48.3483 16.3202 3.1241 0.0000 0.0000 0.0000
# 2 16.3202 124.2758 21.0702 0.0000 0.0000 0.0000
# 3 3.1241 21.0702 18.4652 0.0000 0.0000 0.0000
# 4 0.0000 0.0000 0.0000 27.4175 0.0000 0.0000
# 5 0.0000 0.0000 0.0000 0.0000 18.4158 0.0000
# 6 0.0000 0.0000 0.0000 0.0000 0.0000 22.4624
#
#
#
# Elastic Compliance Matrix: (Units=1/GPa)
#
#
# Indices 1 2 3 4 5 6 
#
# 1 0.021647 -0.002755 -0.000519 0.000000 0.000000 0.000000
# 2 -0.002755 0.010327 -0.011318 0.000000 0.000000 0.000000
# 3 -0.000519 -0.011318 0.067159 0.000000 0.000000 0.000000
# 4 0.000000 0.000000 0.000000 0.036473 0.000000 0.000000
# 5 0.000000 0.000000 0.000000 0.000000 0.054301 0.000000
# 6 0.000000 0.000000 0.000000 0.000000 0.000000 0.044519
#
#
# Mechanical properties :
#
#
# Convention : Reuss Voigt Hill
#
# Bulk Modulus (GPa) = 14.29621 30.23539 22.26580
# Shear Modulus (GPa) = 17.42613 23.69747 20.56180
#
# Velocity S-wave (km/s) = 2.93146 3.41849 3.18430
# Velocity P-wave (km/s) = 4.30209 5.52192 4.94973
#
# Compressibility (1/GPa) = 0.06994859
#
# Stress axis : x y z
#
# Youngs Moduli (GPa) = 46.19648 96.83070 14.89014
#
# Poissons Ratio (x) = 0.26674 0.00773
# Poissons Ratio (y) = 0.12726 0.16853
# Poissons Ratio (z) = 0.02398 1.09595
#
# Static dielectric constant tensor:
#      x y z
#    x 1.756570 0.000000 0.000000 
#    y 0.000000 1.806960 0.000000 
#    z 0.000000 0.000000 1.702230 
# 
# From -- ./inp_files/16847.got.cif
#   From: 2010.05.17/outbox.cif.g08.bks.cpg/sg59_9_cif.got.tgz:16847.got - 2010.06.03 14:40:33.
