data_PCOD9451819
_publ_section_title
;
Structure prediction by ZEFSAII (Michael W. Deem and Ramdas Pophale) SiO2 
 PCOD9451819
Probable space group: P M M N
;
_chemical_formula_sum "Si O2"
_cell_formula_units_Z 26
_cell_length_a 15.354850
_cell_length_b 7.677006
_cell_length_c 11.515699
_cell_angle_alpha 90.000000
_cell_angle_beta 90.000000
_cell_angle_gamma 90.000000
_cell_volume 1357.462256
_symmetry_space_group_name_H-M "P M M N"
_symmetry_group_IT_number 59
_space_group.IT_coordinate_system_code '2'
_symmetry_cell_setting 'orthorhombic'
loop_
_space_group_symop_operation_xyz
x,y,z
1/2-x,1/2-y,z
1/2+x,-y,-z
-x,1/2+y,-z
-x,-y,-z
1/2+x,1/2+y,-z
1/2-x,y,z
x,1/2-y,z
loop_
_atom_site_type_symbol
_atom_site_label
_atom_site_fract_x
_atom_site_fract_y
_atom_site_fract_z
Si Si1 0.406324 0.042182 0.551169
Si Si2 0.750000 0.250000 0.810360
Si Si3 0.250000 0.461457 0.382117
Si Si4 0.644099 0.549775 0.194629
Si Si5 0.351356 0.750000 0.967767
O O1 0.396560 0.250000 0.560981
O O2 0.333074 0.987438 0.459893
O O3 0.389686 0.977840 0.681831
O O4 0.500000 0.000000 0.500000
O O5 0.750000 0.423251 0.733197
O O6 0.835170 0.250000 0.894706
O O7 0.250000 0.250000 0.362609
O O8 0.750000 0.555097 0.201420
O O9 0.615472 0.750000 0.177476
O O10 0.613032 0.424607 0.090812
O O11 0.250000 0.750000 0.926793
#
# Coordination Sequence:
#
# PCOD9451819 Si02
#       5
#     8   2   4   8   4
#     4  10  21  35  56  90 117 150 185 231 299 357
#     4  10  22  34  58  86 108 154 200 232 278 340
#     4  10  22  39  55  81 125 152 183 232 292 352
#     4   9  16  31  54  79 111 137 181 235 278 328
#     4   8  18  31  50  87  98 140 198 231 266 325
#
# _framework density 19.153386999999999
#
# number of rings (size 3 to 8) (size 9 to 14) (size 15 to 20)
#    0.462    2.154    1.538    0.000    4.308    1.231 
#    0.000    0.000    0.000    1.846    0.000    0.000 
#    0.000    0.000    0.000    0.000    0.000    0.000 
#
# Total GULP energy -144786.824971 kJ/mol
# GULP energy per Si atom -5568.724037 kJ/mol
# Density = 1.910979 g / cm^3
# Si number density = 19.153387 Si / 1000 Ang^3
#
#
#
# Elastic Constant Matrix: (Units=GPa)
#
#
# Indices 1 2 3 4 5 6 
#
# 1 70.8519 13.2979 33.6792 0.0000 0.0000 0.0000
# 2 13.2979 83.4063 58.8243 0.0000 0.0000 0.0000
# 3 33.6792 58.8243 130.1129 0.0000 0.0000 0.0000
# 4 0.0000 0.0000 0.0000 38.8910 0.0000 0.0000
# 5 0.0000 0.0000 0.0000 0.0000 -33.3630 0.0000
# 6 0.0000 0.0000 0.0000 0.0000 0.0000 16.8126
#
#
#
# Elastic Compliance Matrix: (Units=1/GPa)
#
#
# Indices 1 2 3 4 5 6 
#
# 1 0.016111 0.000547 -0.004418 0.000000 0.000000 0.000000
# 2 0.000547 0.017621 -0.008108 0.000000 0.000000 0.000000
# 3 -0.004418 -0.008108 0.012495 0.000000 0.000000 0.000000
# 4 0.000000 0.000000 0.000000 0.025713 0.000000 0.000000
# 5 0.000000 0.000000 0.000000 0.000000 -0.029973 0.000000
# 6 0.000000 0.000000 0.000000 0.000000 0.000000 0.059479
#
#
# Mechanical properties :
#
#
# Convention : Reuss Voigt Hill
#
# Bulk Modulus (GPa) = 44.90470 55.10821 50.00646
# Shear Modulus (GPa) = 37.64342 16.37276 27.00809
#
# Velocity S-wave (km/s) = 4.43805 2.92691 3.75920
# Velocity P-wave (km/s) = 7.05390 6.34483 6.70874
#
# Compressibility (1/GPa) = 0.02226938
#
# Stress axis : x y z
#
# Youngs Moduli (GPa) = 62.06865 56.75189 80.03407
#
# Poissons Ratio (x) = -0.03104 0.35356
# Poissons Ratio (y) = -0.03395 0.64890
# Poissons Ratio (z) = 0.27419 0.46014
#
# Static dielectric constant tensor:
#      x y z
#    x 1.548850 0.000000 0.000000 
#    y 0.000000 1.708250 0.000000 
#    z 0.000000 0.000000 1.637320 
# 
# From -- ./inp_files/5147.got.cif
#   From: 2010.05.17/outbox.cif.g08.bks.cpg/sg59_3_cif.got.tgz:5147.got - 2010.06.03 14:40:33.
