data_PCOD9451694
_publ_section_title
;
Structure prediction by ZEFSAII (Michael W. Deem and Ramdas Pophale) SiO2 
 PCOD9451694
Probable space group: P M M N
;
_chemical_formula_sum "Si O2"
_cell_formula_units_Z 32
_cell_length_a 7.782485
_cell_length_b 24.621726
_cell_length_c 8.949361
_cell_angle_alpha 90.000000
_cell_angle_beta 90.000000
_cell_angle_gamma 90.000000
_cell_volume 1714.860565
_symmetry_space_group_name_H-M "P M M N"
_symmetry_group_IT_number 59
_space_group.IT_coordinate_system_code '2'
_symmetry_cell_setting 'orthorhombic'
loop_
_space_group_symop_operation_xyz
x,y,z
1/2-x,1/2-y,z
1/2+x,-y,-z
-x,1/2+y,-z
-x,-y,-z
1/2+x,1/2+y,-z
1/2-x,y,z
x,1/2-y,z
loop_
_atom_site_type_symbol
_atom_site_label
_atom_site_fract_x
_atom_site_fract_y
_atom_site_fract_z
Si Si1 0.750000 0.685811 0.825258
Si Si2 0.750000 0.685820 0.180409
Si Si3 0.947018 0.897619 0.360248
Si Si4 0.955737 0.500091 0.174113
Si Si5 0.552811 0.384377 0.309406
O O1 0.750000 0.750000 0.798929
O O2 0.581371 0.658856 0.753745
O O3 0.750000 0.676116 0.003501
O O4 0.750000 0.750000 0.209906
O O5 0.588205 0.654700 0.255650
O O6 0.750000 0.912649 0.408156
O O7 0.021284 0.947382 0.264303
O O8 0.045487 0.885271 0.511210
O O9 0.750000 0.503616 0.182842
O O10 0.005923 0.443539 0.250191
O O11 0.000000 0.500000 0.000000
O O12 0.750000 0.375152 0.260433
#
# Coordination Sequence:
#
# PCOD9451694 Si02
#       5
#     4   4   8   8   8
#     4  11  23  43  67  87 121 165 202 263 314 363
#     4   9  19  37  65  89 113 161 214 251 306 365
#     4   9  19  36  57  84 122 159 205 245 304 366
#     4  10  21  34  55  87 123 166 206 251 304 368
#     4  11  23  38  61  92 124 159 208 251 309 373
#
# _framework density 18.660411
#
# number of rings (size 3 to 8) (size 9 to 14) (size 15 to 20)
#    0.750    1.250    1.250    2.250    1.750    3.500 
#    0.000    1.250    0.000    1.500    0.000    0.000 
#    0.000    0.000    0.000    0.000    0.000    0.000 
#
# Total GULP energy -178446.204049 kJ/mol
# GULP energy per Si atom -5576.443877 kJ/mol
# Density = 1.861794 g / cm^3
# Si number density = 18.660411 Si / 1000 Ang^3
#
#
#
# Elastic Constant Matrix: (Units=GPa)
#
#
# Indices 1 2 3 4 5 6 
#
# 1 62.3004 47.1535 30.8650 0.0000 0.0000 0.0000
# 2 47.1535 151.3766 98.7001 0.0000 0.0000 0.0000
# 3 30.8650 98.7001 137.1291 0.0000 0.0000 0.0000
# 4 0.0000 0.0000 0.0000 -195.5653 0.0000 0.0000
# 5 0.0000 0.0000 0.0000 0.0000 25.9058 0.0000
# 6 0.0000 0.0000 0.0000 0.0000 0.0000 24.2705
#
#
#
# Elastic Compliance Matrix: (Units=1/GPa)
#
#
# Indices 1 2 3 4 5 6 
#
# 1 0.021003 -0.006520 -0.000035 0.000000 0.000000 0.000000
# 2 -0.006520 0.014472 -0.008949 0.000000 0.000000 0.000000
# 3 -0.000035 -0.008949 0.013741 0.000000 0.000000 0.000000
# 4 0.000000 0.000000 0.000000 -0.005113 0.000000 0.000000
# 5 0.000000 0.000000 0.000000 0.000000 0.038601 0.000000
# 6 0.000000 0.000000 0.000000 0.000000 0.000000 0.041202
#
#
# Mechanical properties :
#
#
# Convention : Reuss Voigt Hill
#
# Bulk Modulus (GPa) = 54.91616 78.24925 66.58271
# Shear Modulus (GPa) = 31.05937 -17.47196 6.79370
#
# Velocity S-wave (km/s) = 4.08420 -3.06324 1.91013
# Velocity P-wave (km/s) = 7.19264 5.43259 6.37366
#
# Compressibility (1/GPa) = 0.01820958
#
# Stress axis : x y z
#
# Youngs Moduli (GPa) = 47.61199 69.10100 72.77471
#
# Poissons Ratio (x) = 0.45052 0.00252
# Poissons Ratio (y) = 0.31042 0.65123
# Poissons Ratio (z) = 0.00165 0.61836
#
# Static dielectric constant tensor:
#      x y z
#    x 1.692170 0.000000 0.000000 
#    y 0.000000 1.640220 0.000000 
#    z 0.000000 0.000000 1.632840 
# 
# From -- ./inp_files/5579.got.cif
#   From: 2010.05.17/outbox.cif.g08.bks.cpg/sg59_3_cif.got.tgz:5579.got - 2010.06.03 14:40:33.
