data_PCOD9451384
_publ_section_title
;
Structure prediction by ZEFSAII (Michael W. Deem and Ramdas Pophale) SiO2 
 PCOD9451384
Probable space group: P M M N
;
_chemical_formula_sum "Si O2"
_cell_formula_units_Z 56
_cell_length_a 24.227356
_cell_length_b 7.437765
_cell_length_c 12.626965
_cell_angle_alpha 90.000000
_cell_angle_beta 90.000000
_cell_angle_gamma 90.000000
_cell_volume 2275.346017
_symmetry_space_group_name_H-M "P M M N"
_symmetry_group_IT_number 59
_space_group.IT_coordinate_system_code '2'
_symmetry_cell_setting 'orthorhombic'
loop_
_space_group_symop_operation_xyz
x,y,z
1/2-x,1/2-y,z
1/2+x,-y,-z
-x,1/2+y,-z
-x,-y,-z
1/2+x,1/2+y,-z
1/2-x,y,z
x,1/2-y,z
loop_
_atom_site_type_symbol
_atom_site_label
_atom_site_fract_x
_atom_site_fract_y
_atom_site_fract_z
Si Si1 0.159479 0.967235 0.348013
Si Si2 0.538493 0.046448 0.676153
Si Si3 0.691410 0.538282 0.417446
Si Si4 0.919860 0.971408 0.310474
Si Si5 0.373150 0.038391 0.908475
Si Si6 0.250000 0.530364 0.182375
Si Si7 0.450620 0.463549 0.082456
Si Si8 0.250000 0.536471 0.940683
O O1 0.156693 0.750000 0.340754
O O2 0.096957 0.038522 0.353277
O O3 0.195993 0.027605 0.248373
O O4 0.188971 0.016419 0.456651
O O5 0.538958 0.250000 0.634193
O O6 0.479107 0.965677 0.647771
O O7 0.539607 0.051722 0.804488
O O8 0.750000 0.462557 0.378054
O O9 0.691518 0.750000 0.391317
O O10 0.633962 0.466272 0.373251
O O11 0.921665 0.750000 0.311951
O O12 0.908497 0.031448 0.189971
O O13 0.384369 0.250000 0.911957
O O14 0.308151 0.016831 0.889860
O O15 0.395639 0.969289 0.020924
O O16 0.250000 0.750000 0.181208
O O17 0.250000 0.467057 0.061816
O O18 0.447196 0.250000 0.102440
O O19 0.500000 0.500000 0.000000
O O20 0.250000 0.750000 0.944360
#
# Coordination Sequence:
#
# PCOD9451384 Si02
#       8
#     8   8   8   8   8   4   8   4
#     4  10  20  36  61  83 109 146 183 230 292 352
#     4  10  20  37  59  85 114 152 192 230 285 346
#     4  10  21  37  59  83 106 143 191 238 282 334
#     4   9  19  37  58  80 112 151 192 230 275 341
#     4  10  21  38  58  81 113 156 194 227 278 341
#     4   9  18  35  54  77 108 146 181 219 282 349
#     4  11  21  35  58  86 118 156 195 234 279 334
#     4  11  23  37  56  85 116 146 189 241 284 329
#
# _framework density 24.611642
#
# number of rings (size 3 to 8) (size 9 to 14) (size 15 to 20)
#    0.000    2.000    2.143    1.500    1.000    3.429 
#    0.000    2.857    0.000    0.000    0.000    0.000 
#    0.000    0.000    0.000    0.000    0.000    0.000 
#
# Total GULP energy -313099.378403 kJ/mol
# GULP energy per Si atom -5591.060329 kJ/mol
# Density = 2.455562 g / cm^3
# Si number density = 24.611642 Si / 1000 Ang^3
#
#
#
# Elastic Constant Matrix: (Units=GPa)
#
#
# Indices 1 2 3 4 5 6 
#
# 1 218.2965 1.0699 14.3184 0.0000 0.0000 0.0000
# 2 1.0699 89.6968 -6.7959 0.0000 0.0000 0.0000
# 3 14.3184 -6.7959 25.2660 0.0000 0.0000 0.0000
# 4 0.0000 0.0000 0.0000 14.3644 0.0000 0.0000
# 5 0.0000 0.0000 0.0000 0.0000 45.9528 0.0000
# 6 0.0000 0.0000 0.0000 0.0000 0.0000 0.8443
#
#
#
# Elastic Compliance Matrix: (Units=1/GPa)
#
#
# Indices 1 2 3 4 5 6 
#
# 1 0.004764 -0.000267 -0.002772 0.000000 0.000000 0.000000
# 2 -0.000267 0.011396 0.003216 0.000000 0.000000 0.000000
# 3 -0.002772 0.003216 0.042015 0.000000 0.000000 0.000000
# 4 0.000000 0.000000 0.000000 0.069616 0.000000 0.000000
# 5 0.000000 0.000000 0.000000 0.000000 0.021761 0.000000
# 6 0.000000 0.000000 0.000000 0.000000 0.000000 1.184418
#
#
# Mechanical properties :
#
#
# Convention : Reuss Voigt Hill
#
# Bulk Modulus (GPa) = 17.08520 38.93823 28.01171
# Shear Modulus (GPa) = 3.69515 33.87677 18.78596
#
# Velocity S-wave (km/s) = 1.22664 3.71408 2.76578
# Velocity P-wave (km/s) = 2.99386 5.85218 4.64818
#
# Compressibility (1/GPa) = 0.05853018
#
# Stress axis : x y z
#
# Youngs Moduli (GPa) = 209.90649 87.75364 23.80117
#
# Poissons Ratio (x) = 0.02341 0.06597
# Poissons Ratio (y) = 0.05601 -0.07655
# Poissons Ratio (z) = 0.58177 -0.28224
#
# Static dielectric constant tensor:
#      x y z
#    x 2.044310 0.000000 0.000000 
#    y 0.000000 1.924920 0.000000 
#    z 0.000000 0.000000 1.913950 
# 
# From -- ./inp_files/24391.got.cif
#   From: 2010.05.17/outbox.cif.g08.bks.cpg/sg59_13_cif.got.tgz:24391.got - 2010.06.03 14:40:33.
