data_PCOD9451090
_publ_section_title
;
Structure prediction by ZEFSAII (Michael W. Deem and Ramdas Pophale) SiO2 
 PCOD9451090
Probable space group: P M M N
;
_chemical_formula_sum "Si O2"
_cell_formula_units_Z 64
_cell_length_a 8.547829
_cell_length_b 14.645141
_cell_length_c 24.721606
_cell_angle_alpha 90.000000
_cell_angle_beta 90.000000
_cell_angle_gamma 90.000000
_cell_volume 3094.753504
_symmetry_space_group_name_H-M "P M M N"
_symmetry_group_IT_number 59
_space_group.IT_coordinate_system_code '2'
_symmetry_cell_setting 'orthorhombic'
loop_
_space_group_symop_operation_xyz
x,y,z
1/2-x,1/2-y,z
1/2+x,-y,-z
-x,1/2+y,-z
-x,-y,-z
1/2+x,1/2+y,-z
1/2-x,y,z
x,1/2-y,z
loop_
_atom_site_type_symbol
_atom_site_label
_atom_site_fract_x
_atom_site_fract_y
_atom_site_fract_z
Si Si1 0.930709 0.850274 0.367439
Si Si2 0.933644 0.644358 0.090868
Si Si3 0.061391 0.857244 0.649542
Si Si4 0.433437 0.546945 0.761900
Si Si5 0.070725 0.857714 0.975422
Si Si6 0.431824 0.039636 0.125895
Si Si7 0.067089 0.851359 0.251064
Si Si8 0.936690 0.989283 0.560570
O O1 0.750000 0.866618 0.349835
O O2 0.935271 0.750000 0.393273
O O3 0.042281 0.848214 0.315665
O O4 0.986891 0.927688 0.406771
O O5 0.750000 0.635892 0.103480
O O6 0.982234 0.750000 0.099499
O O7 0.029929 0.568513 0.122903
O O8 0.962644 0.624254 0.027271
O O9 0.250000 0.867240 0.645732
O O10 0.025018 0.750000 0.654693
O O11 0.011670 0.911089 0.704468
O O12 0.987885 0.901102 0.595716
O O13 0.250000 0.566650 0.766545
O O14 0.518956 0.580005 0.816087
O O15 0.463595 0.438357 0.763175
O O16 0.250000 0.877159 0.991491
O O17 0.058184 0.750000 0.962952
O O18 0.025986 0.914463 0.922918
O O19 0.250000 0.054223 0.116750
O O20 0.250000 0.866671 0.238092
O O21 0.020213 0.750000 0.230634
O O22 0.750000 0.994884 0.560220
O O23 0.000000 0.000000 0.500000
#
# Coordination Sequence:
#
# PCOD9451090 Si02
#       8
#     8   8   8   8   8   8   8   8
#     4  10  20  36  60  89 121 156 195 241 295 355
#     4  10  21  39  63  90 122 161 206 256 313 377
#     4  10  23  45  70  94 124 164 209 257 311 369
#     4  11  23  40  63  89 122 164 209 257 310 367
#     4  10  21  39  63  89 120 159 205 257 314 375
#     4  12  25  39  59  88 125 164 207 260 313 367
#     4  10  20  35  58  88 120 155 194 239 297 361
#     4  12  25  41  65  94 128 164 204 254 307 364
#
# _framework density 20.680160999999998
#
# number of rings (size 3 to 8) (size 9 to 14) (size 15 to 20)
#    0.000    1.375    1.250    4.500    0.000    5.250 
#    0.000    1.250    0.000    0.000    0.000    0.000 
#    0.000    0.000    0.000    0.000    0.000    0.000 
#
# Total GULP energy -357655.060952 kJ/mol
# GULP energy per Si atom -5588.360327 kJ/mol
# Density = 2.063309 g / cm^3
# Si number density = 20.680161 Si / 1000 Ang^3
#
#
#
# Elastic Constant Matrix: (Units=GPa)
#
#
# Indices 1 2 3 4 5 6 
#
# 1 54.7722 12.1040 -4.1104 0.0000 0.0000 0.0000
# 2 12.1040 65.3291 26.7410 0.0000 0.0000 0.0000
# 3 -4.1104 26.7410 93.3036 0.0000 0.0000 0.0000
# 4 0.0000 0.0000 0.0000 0.7264 0.0000 0.0000
# 5 0.0000 0.0000 0.0000 0.0000 33.4513 0.0000
# 6 0.0000 0.0000 0.0000 0.0000 0.0000 24.0163
#
#
#
# Elastic Compliance Matrix: (Units=1/GPa)
#
#
# Indices 1 2 3 4 5 6 
#
# 1 0.019405 -0.004470 0.002136 0.000000 0.000000 0.000000
# 2 -0.004470 0.018371 -0.005462 0.000000 0.000000 0.000000
# 3 0.002136 -0.005462 0.012377 0.000000 0.000000 0.000000
# 4 0.000000 0.000000 0.000000 1.376677 0.000000 0.000000
# 5 0.000000 0.000000 0.000000 0.000000 0.029894 0.000000
# 6 0.000000 0.000000 0.000000 0.000000 0.000000 0.041638
#
#
# Mechanical properties :
#
#
# Convention : Reuss Voigt Hill
#
# Bulk Modulus (GPa) = 28.93350 31.43048 30.18199
# Shear Modulus (GPa) = 3.27767 23.55015 13.41391
#
# Velocity S-wave (km/s) = 1.26031 3.37824 2.54960
# Velocity P-wave (km/s) = 4.01736 5.51798 4.82634
#
# Compressibility (1/GPa) = 0.03456201
#
# Stress axis : x y z
#
# Youngs Moduli (GPa) = 51.53182 54.43353 80.79346
#
# Poissons Ratio (x) = 0.24330 -0.17257
# Poissons Ratio (y) = 0.23033 0.44130
# Poissons Ratio (z) = -0.11007 0.29732
#
# Static dielectric constant tensor:
#      x y z
#    x 1.705930 0.000000 0.000000 
#    y 0.000000 1.761870 0.000000 
#    z 0.000000 0.000000 1.727780 
# 
# From -- ./inp_files/31606.got.cif
#   From: 2010.05.17/outbox.cif.g08.bks.cpg/sg59_16_cif.got.tgz:31606.got - 2010.06.03 14:40:33.
