data_PCOD9451087
_publ_section_title
;
Structure prediction by ZEFSAII (Michael W. Deem and Ramdas Pophale) SiO2 
 PCOD9451087
Probable space group: P M M N
;
_chemical_formula_sum "Si O2"
_cell_formula_units_Z 48
_cell_length_a 18.431497
_cell_length_b 8.707482
_cell_length_c 15.022567
_cell_angle_alpha 90.000000
_cell_angle_beta 90.000000
_cell_angle_gamma 90.000000
_cell_volume 2411.000747
_symmetry_space_group_name_H-M "P M M N"
_symmetry_group_IT_number 59
_space_group.IT_coordinate_system_code '2'
_symmetry_cell_setting 'orthorhombic'
loop_
_space_group_symop_operation_xyz
x,y,z
1/2-x,1/2-y,z
1/2+x,-y,-z
-x,1/2+y,-z
-x,-y,-z
1/2+x,1/2+y,-z
1/2-x,y,z
x,1/2-y,z
loop_
_atom_site_type_symbol
_atom_site_label
_atom_site_fract_x
_atom_site_fract_y
_atom_site_fract_z
Si Si1 0.064705 0.070110 0.623925
Si Si2 0.666171 0.071656 0.231550
Si Si3 0.436533 0.931894 0.121014
Si Si4 0.395520 0.069078 0.937326
Si Si5 0.085653 0.431976 0.315753
Si Si6 0.166852 0.566866 0.473414
O O1 0.047813 0.250000 0.617818
O O2 0.115282 0.034849 0.708893
O O3 0.110726 0.014370 0.539649
O O4 0.990703 0.977777 0.638413
O O5 0.750000 0.054811 0.257559
O O6 0.645219 0.250000 0.244836
O O7 0.655265 0.024288 0.129391
O O8 0.422957 0.750000 0.124716
O O9 0.522290 0.953153 0.099861
O O10 0.417860 0.008216 0.214796
O O11 0.395338 0.007099 0.037673
O O12 0.379176 0.250000 0.934875
O O13 0.095188 0.250000 0.317713
O O14 0.147040 0.514345 0.374108
O O15 0.250000 0.526496 0.495470
O O16 0.158845 0.750000 0.482183
#
# Coordination Sequence:
#
# PCOD9451087 Si02
#       6
#     8   8   8   8   8   8
#     4  12  24  40  63  92 124 160 205 255 306 364
#     4  11  23  38  58  87 125 166 206 253 311 369
#     4  10  20  36  60  89 121 156 198 249 301 355
#     4  10  20  35  58  87 120 159 200 247 300 359
#     4  12  24  40  65  94 125 160 204 256 304 361
#     4  11  25  45  66  89 122 162 203 251 309 369
#
# _framework density 19.908746000000001
#
# number of rings (size 3 to 8) (size 9 to 14) (size 15 to 20)
#    0.000    1.000    1.667    6.000    0.000    6.000 
#    0.000    0.833    0.000    5.000    0.000    0.000 
#    0.000    0.000    0.000    0.000    0.000    0.000 
#
# Total GULP energy -268596.392377 kJ/mol
# GULP energy per Si atom -5595.758175 kJ/mol
# Density = 1.986343 g / cm^3
# Si number density = 19.908746 Si / 1000 Ang^3
#
#
#
# Elastic Constant Matrix: (Units=GPa)
#
#
# Indices 1 2 3 4 5 6 
#
# 1 21.1244 -1.1952 8.2497 0.0000 0.0000 0.0000
# 2 -1.1952 39.7947 -0.6300 0.0000 0.0000 0.0000
# 3 8.2497 -0.6300 103.0330 0.0000 0.0000 0.0000
# 4 0.0000 0.0000 0.0000 41.4865 0.0000 0.0000
# 5 0.0000 0.0000 0.0000 0.0000 -7.7761 0.0000
# 6 0.0000 0.0000 0.0000 0.0000 0.0000 23.3705
#
#
#
# Elastic Compliance Matrix: (Units=1/GPa)
#
#
# Indices 1 2 3 4 5 6 
#
# 1 0.048945 0.001408 -0.003910 0.000000 0.000000 0.000000
# 2 0.001408 0.025172 0.000041 0.000000 0.000000 0.000000
# 3 -0.003910 0.000041 0.010019 0.000000 0.000000 0.000000
# 4 0.000000 0.000000 0.000000 0.024104 0.000000 0.000000
# 5 0.000000 0.000000 0.000000 0.000000 -0.128599 0.000000
# 6 0.000000 0.000000 0.000000 0.000000 0.000000 0.042789
#
#
# Mechanical properties :
#
#
# Convention : Reuss Voigt Hill
#
# Bulk Modulus (GPa) = 12.62400 19.64457 16.13429
# Shear Modulus (GPa) = 93.00990 21.91801 57.46396
#
# Velocity S-wave (km/s) = 6.84248 3.32162 5.37832
# Velocity P-wave (km/s) = 8.29342 4.95980 6.83302
#
# Compressibility (1/GPa) = 0.07921419
#
# Stress axis : x y z
#
# Youngs Moduli (GPa) = 20.43093 39.72683 99.81057
#
# Poissons Ratio (x) = -0.05594 0.39030
# Poissons Ratio (y) = -0.02877 -0.00411
# Poissons Ratio (z) = 0.07989 -0.00163
#
# Static dielectric constant tensor:
#      x y z
#    x 1.688790 0.000000 0.000000 
#    y 0.000000 1.658050 0.000000 
#    z 0.000000 0.000000 1.710540 
# 
# From -- ./inp_files/23659.got.cif
#   From: 2010.05.17/outbox.cif.g08.bks.cpg/sg59_12_cif.got.tgz:23659.got - 2010.06.03 14:40:33.
