data_PCOD9451890
_publ_section_title
;
Structure prediction by ZEFSAII (Michael W. Deem and Ramdas Pophale) SiO2 
 PCOD9451890
Probable space group: P M M N
;
_chemical_formula_sum "Si O2"
_cell_formula_units_Z 40
_cell_length_a 9.762404
_cell_length_b 7.601270
_cell_length_c 26.703251
_cell_angle_alpha 90.000000
_cell_angle_beta 90.000000
_cell_angle_gamma 90.000000
_cell_volume 1981.559299
_symmetry_space_group_name_H-M "P M M N"
_symmetry_group_IT_number 59
_space_group.IT_coordinate_system_code '2'
_symmetry_cell_setting 'orthorhombic'
loop_
_space_group_symop_operation_xyz
x,y,z
1/2-x,1/2-y,z
1/2+x,-y,-z
-x,1/2+y,-z
-x,-y,-z
1/2+x,1/2+y,-z
1/2-x,y,z
x,1/2-y,z
loop_
_atom_site_type_symbol
_atom_site_label
_atom_site_fract_x
_atom_site_fract_y
_atom_site_fract_z
Si Si1 0.906692 0.960428 0.361560
Si Si2 0.906458 0.461519 0.548041
Si Si3 0.094870 0.460776 0.046857
Si Si4 0.594058 0.038188 0.248643
Si Si5 0.591057 0.964705 0.842468
O O1 0.750000 0.028880 0.367341
O O2 0.899103 0.750000 0.367832
O O3 0.011793 0.028457 0.403124
O O4 0.953204 0.995049 0.304778
O O5 0.750000 0.527852 0.543549
O O6 0.897604 0.250000 0.552277
O O7 0.000000 0.500000 0.500000
O O8 0.250000 0.527174 0.039162
O O9 0.102665 0.250000 0.050290
O O10 0.045411 0.521893 0.101807
O O11 0.000000 0.500000 0.000000
O O12 0.750000 0.972757 0.243819
O O13 0.597607 0.250000 0.245134
O O14 0.499947 0.971990 0.203614
O O15 0.750000 0.014571 0.836691
O O16 0.586610 0.750000 0.841587
#
# Coordination Sequence:
#
# PCOD9451890 Si02
#       5
#     8   8   8   8   8
#     4   9  18  33  50  68  96 131 159 189 237 289
#     4  10  21  36  54  76 101 130 165 203 242 286
#     4   9  18  32  49  70  96 126 161 201 244 290
#     4   9  17  29  47  71  94 118 155 198 234 275
#     4   8  15  29  47  66  91 122 154 191 236 283
#
# _framework density 20.186125000000001
#
# number of rings (size 3 to 8) (size 9 to 14) (size 15 to 20)
#    0.000    3.000    0.000    1.800    0.000    4.000 
#    0.000    5.000    0.000    3.600    0.000    0.000 
#    0.000    0.000    0.000    0.000    0.000    0.000 
#
# Total GULP energy -223077.337958 kJ/mol
# GULP energy per Si atom -5576.933449 kJ/mol
# Density = 2.014018 g / cm^3
# Si number density = 20.186125 Si / 1000 Ang^3
#
#
#
# Elastic Constant Matrix: (Units=GPa)
#
#
# Indices 1 2 3 4 5 6 
#
# 1 126.6271 5.2705 139.0599 0.0000 0.0000 0.0000
# 2 5.2705 40.9738 0.5844 0.0000 0.0000 0.0000
# 3 139.0599 0.5844 239.0341 0.0000 0.0000 0.0000
# 4 0.0000 0.0000 0.0000 24.9952 0.0000 0.0000
# 5 0.0000 0.0000 0.0000 0.0000 43.4788 0.0000
# 6 0.0000 0.0000 0.0000 0.0000 0.0000 13.3268
#
#
#
# Elastic Compliance Matrix: (Units=1/GPa)
#
#
# Indices 1 2 3 4 5 6 
#
# 1 0.022156 -0.002666 -0.012883 0.000000 0.000000 0.000000
# 2 -0.002666 0.024728 0.001491 0.000000 0.000000 0.000000
# 3 -0.012883 0.001491 0.011675 0.000000 0.000000 0.000000
# 4 0.000000 0.000000 0.000000 0.040008 0.000000 0.000000
# 5 0.000000 0.000000 0.000000 0.000000 0.023000 0.000000
# 6 0.000000 0.000000 0.000000 0.000000 0.000000 0.075037
#
#
# Mechanical properties :
#
#
# Convention : Reuss Voigt Hill
#
# Bulk Modulus (GPa) = 32.85025 77.38495 55.11760
# Shear Modulus (GPa) = 21.28871 33.80818 27.54845
#
# Velocity S-wave (km/s) = 3.25102 4.09690 3.69822
# Velocity P-wave (km/s) = 5.51372 7.79733 6.75276
#
# Compressibility (1/GPa) = 0.03044117
#
# Stress axis : x y z
#
# Youngs Moduli (GPa) = 45.13462 40.44076 85.65631
#
# Poissons Ratio (x) = 0.10782 1.10350
# Poissons Ratio (y) = 0.12034 -0.12768
# Poissons Ratio (z) = 0.58146 -0.06028
#
# Static dielectric constant tensor:
#      x y z
#    x 1.708090 0.000000 0.000000 
#    y 0.000000 1.770040 0.000000 
#    z 0.000000 0.000000 1.701640 
# 
# From -- ./inp_files/25259.got.cif
#   From: 2010.05.17/outbox.cif.g08.bks.cpg/sg59_13_cif.got.tgz:25259.got - 2010.06.03 14:40:33.
