data_PCOD9451771
_publ_section_title
;
Structure prediction by ZEFSAII (Michael W. Deem and Ramdas Pophale) SiO2 
 PCOD9451771
Probable space group: P M M N
;
_chemical_formula_sum "Si O2"
_cell_formula_units_Z 64
_cell_length_a 8.135196
_cell_length_b 24.269604
_cell_length_c 15.955603
_cell_angle_alpha 90.000000
_cell_angle_beta 90.000000
_cell_angle_gamma 90.000000
_cell_volume 3150.242112
_symmetry_space_group_name_H-M "P M M N"
_symmetry_group_IT_number 59
_space_group.IT_coordinate_system_code '2'
_symmetry_cell_setting 'orthorhombic'
loop_
_space_group_symop_operation_xyz
x,y,z
1/2-x,1/2-y,z
1/2+x,-y,-z
-x,1/2+y,-z
-x,-y,-z
1/2+x,1/2+y,-z
1/2-x,y,z
x,1/2-y,z
loop_
_atom_site_type_symbol
_atom_site_label
_atom_site_fract_x
_atom_site_fract_y
_atom_site_fract_z
Si Si1 0.947301 0.811980 0.973532
Si Si2 0.053143 0.879802 0.637213
Si Si3 0.053352 0.386928 0.681627
Si Si4 0.447853 0.186323 0.527105
Si Si5 0.948149 0.880838 0.133865
Si Si6 0.553619 0.511485 0.720906
Si Si7 0.947359 0.186679 0.202026
Si Si8 0.435809 0.500091 0.095953
O O1 0.750000 0.810114 0.971701
O O2 0.013911 0.750000 0.973441
O O3 0.004165 0.838974 0.887135
O O4 0.994349 0.841170 0.058678
O O5 0.250000 0.876717 0.634567
O O6 0.990570 0.846688 0.718712
O O7 0.988020 0.849108 0.555282
O O8 0.004393 0.942777 0.654970
O O9 0.250000 0.390583 0.671586
O O10 0.988616 0.349078 0.606551
O O11 0.021120 0.359933 0.772531
O O12 0.993391 0.450098 0.690055
O O13 0.250000 0.189551 0.534435
O O14 0.508402 0.250000 0.522962
O O15 0.750000 0.892995 0.127791
O O16 0.050715 0.935882 0.120212
O O17 0.750000 0.513557 0.727327
O O18 0.487382 0.524073 0.816580
O O19 0.750000 0.188290 0.205983
O O20 0.008778 0.250000 0.205172
O O21 0.250000 0.478897 0.090185
O O22 0.500000 0.500000 0.000000
#
# Coordination Sequence:
#
# PCOD9451771 Si02
#       8
#     8   8   8   8   8   8   8   8
#     4   9  18  31  49  76 108 143 183 225 273 328
#     4  11  23  38  59  85 114 150 192 240 291 349
#     4   9  19  38  61  84 115 151 189 235 286 343
#     4  10  22  40  63  91 118 148 189 237 291 347
#     4   9  18  33  53  78 109 144 183 228 275 327
#     4  10  22  39  58  84 116 152 194 239 289 344
#     4   9  19  35  52  73 105 144 185 230 281 338
#     4  10  21  35  53  78 110 147 188 232 277 328
#
# _framework density 20.315898000000001
#
# number of rings (size 3 to 8) (size 9 to 14) (size 15 to 20)
#    0.000    2.375    0.000    1.500    1.750    5.250 
#    0.000    3.750    0.000    0.000    0.000    5.250 
#    0.000    0.000    0.000    0.000    0.000    0.000 
#
# Total GULP energy -356713.797235 kJ/mol
# GULP energy per Si atom -5573.653082 kJ/mol
# Density = 2.026966 g / cm^3
# Si number density = 20.315898 Si / 1000 Ang^3
#
#
#
# Elastic Constant Matrix: (Units=GPa)
#
#
# Indices 1 2 3 4 5 6 
#
# 1 14.4004 6.2857 16.2747 0.0000 0.0000 0.0000
# 2 6.2857 82.0083 80.2801 0.0000 0.0000 0.0000
# 3 16.2747 80.2801 184.8547 0.0000 0.0000 0.0000
# 4 0.0000 0.0000 0.0000 36.8393 0.0000 0.0000
# 5 0.0000 0.0000 0.0000 0.0000 52.4178 0.0000
# 6 0.0000 0.0000 0.0000 0.0000 0.0000 17.3911
#
#
#
# Elastic Compliance Matrix: (Units=1/GPa)
#
#
# Indices 1 2 3 4 5 6 
#
# 1 0.077193 0.001281 -0.007352 0.000000 0.000000 0.000000
# 2 0.001281 0.021233 -0.009334 0.000000 0.000000 0.000000
# 3 -0.007352 -0.009334 0.010111 0.000000 0.000000 0.000000
# 4 0.000000 0.000000 0.000000 0.027145 0.000000 0.000000
# 5 0.000000 0.000000 0.000000 0.000000 0.019077 0.000000
# 6 0.000000 0.000000 0.000000 0.000000 0.000000 0.057501
#
#
# Mechanical properties :
#
#
# Convention : Reuss Voigt Hill
#
# Bulk Modulus (GPa) = 12.86586 54.10494 33.48540
# Shear Modulus (GPa) = 18.58884 33.22451 25.90667
#
# Velocity S-wave (km/s) = 3.02816 4.04839 3.57486
# Velocity P-wave (km/s) = 4.30964 6.96723 5.79289
#
# Compressibility (1/GPa) = 0.07772510
#
# Stress axis : x y z
#
# Youngs Moduli (GPa) = 12.95462 47.09647 98.90624
#
# Poissons Ratio (x) = -0.06032 0.72718
# Poissons Ratio (y) = -0.01659 0.92319
# Poissons Ratio (z) = 0.09525 0.43960
#
# Static dielectric constant tensor:
#      x y z
#    x 1.714590 0.000000 0.000000 
#    y 0.000000 1.721590 0.000000 
#    z 0.000000 0.000000 1.759480 
# 
# From -- ./inp_files/21459.got.cif
#   From: 2010.05.17/outbox.cif.g08.bks.cpg/sg59_11_cif.got.tgz:21459.got - 2010.06.03 14:40:33.
