data_PCOD9451674
_publ_section_title
;
Structure prediction by ZEFSAII (Michael W. Deem and Ramdas Pophale) SiO2 
 PCOD9451674
Probable space group: P M M N
;
_chemical_formula_sum "Si O2"
_cell_formula_units_Z 64
_cell_length_a 9.217761
_cell_length_b 19.292992
_cell_length_c 21.831137
_cell_angle_alpha 90.000000
_cell_angle_beta 90.000000
_cell_angle_gamma 90.000000
_cell_volume 3882.409873
_symmetry_space_group_name_H-M "P M M N"
_symmetry_group_IT_number 59
_space_group.IT_coordinate_system_code '2'
_symmetry_cell_setting 'orthorhombic'
loop_
_space_group_symop_operation_xyz
x,y,z
1/2-x,1/2-y,z
1/2+x,-y,-z
-x,1/2+y,-z
-x,-y,-z
1/2+x,1/2+y,-z
1/2-x,y,z
x,1/2-y,z
loop_
_atom_site_type_symbol
_atom_site_label
_atom_site_fract_x
_atom_site_fract_y
_atom_site_fract_z
Si Si1 0.084852 0.392716 0.984540
Si Si2 0.081971 0.169896 0.629430
Si Si3 0.584822 0.460053 0.088020
Si Si4 0.422374 0.538664 0.556757
Si Si5 0.420037 0.537225 0.333493
Si Si6 0.924979 0.671477 0.141390
Si Si7 0.417007 0.330630 0.481804
Si Si8 0.578779 0.036073 0.807881
O O1 0.250000 0.376529 0.002863
O O2 0.984704 0.403010 0.043374
O O3 0.087028 0.467651 0.950443
O O4 0.038674 0.340643 0.930602
O O5 0.250000 0.153856 0.645432
O O6 0.054711 0.250000 0.645340
O O7 0.069643 0.163192 0.555632
O O8 0.973285 0.116350 0.659542
O O9 0.750000 0.443383 0.104181
O O10 0.490810 0.479375 0.147129
O O11 0.500000 0.500000 0.500000
O O12 0.250000 0.529909 0.552968
O O13 0.484855 0.506297 0.618920
O O14 0.471648 0.618099 0.549991
O O15 0.250000 0.531290 0.349122
O O16 0.441071 0.516914 0.262981
O O17 0.750000 0.662705 0.146558
O O18 0.961493 0.750000 0.160127
O O19 0.002704 0.610044 0.178094
O O20 0.250000 0.349689 0.466573
O O21 0.438477 0.250000 0.466577
O O22 0.750000 0.042625 0.820536
#
# Coordination Sequence:
#
# PCOD9451674 Si02
#       8
#     8   8   8   8   8   8   8   8
#     4   8  14  25  43  67  93 120 152 193 237 276
#     4   9  18  32  50  71  96 129 166 204 249 301
#     4   9  16  27  45  67  90 118 154 195 240 284
#     4  12  23  35  54  78 104 132 166 212 265 314
#     4  11  23  36  50  71  99 134 175 215 259 310
#     4   9  18  32  49  70  98 134 172 204 237 284
#     4   9  18  34  55  78 103 129 159 198 249 308
#     4  10  21  34  47  66  95 130 168 207 246 292
#
# _framework density 16.484607
#
# number of rings (size 3 to 8) (size 9 to 14) (size 15 to 20)
#    0.000    2.375    1.250    3.750    0.000    6.250 
#    0.000    3.750    0.000    0.000    0.000    0.875 
#    0.000    3.000    0.000    0.000    0.000    0.000 
#
# Total GULP energy -356898.855476 kJ/mol
# GULP energy per Si atom -5576.544617 kJ/mol
# Density = 1.644709 g / cm^3
# Si number density = 16.484607 Si / 1000 Ang^3
#
#
#
# Elastic Constant Matrix: (Units=GPa)
#
#
# Indices 1 2 3 4 5 6 
#
# 1 106.9177 29.7061 62.0648 0.0000 0.0000 0.0000
# 2 29.7061 26.8098 20.2710 0.0000 0.0000 0.0000
# 3 62.0648 20.2710 70.2293 0.0000 0.0000 0.0000
# 4 0.0000 0.0000 0.0000 14.5144 0.0000 0.0000
# 5 0.0000 0.0000 0.0000 0.0000 25.0143 0.0000
# 6 0.0000 0.0000 0.0000 0.0000 0.0000 24.2801
#
#
#
# Elastic Compliance Matrix: (Units=1/GPa)
#
#
# Indices 1 2 3 4 5 6 
#
# 1 0.022010 -0.012383 -0.015877 0.000000 0.000000 0.000000
# 2 -0.012383 0.054679 -0.004839 0.000000 0.000000 0.000000
# 3 -0.015877 -0.004839 0.029667 0.000000 0.000000 0.000000
# 4 0.000000 0.000000 0.000000 0.068897 0.000000 0.000000
# 5 0.000000 0.000000 0.000000 0.000000 0.039977 0.000000
# 6 0.000000 0.000000 0.000000 0.000000 0.000000 0.041186
#
#
# Mechanical properties :
#
#
# Convention : Reuss Voigt Hill
#
# Bulk Modulus (GPa) = 24.90166 47.56007 36.23087
# Shear Modulus (GPa) = 14.88092 18.88943 16.88517
#
# Velocity S-wave (km/s) = 3.00778 3.38876 3.20394
# Velocity P-wave (km/s) = 5.21547 6.65022 5.97606
#
# Compressibility (1/GPa) = 0.04015796
#
# Stress axis : x y z
#
# Youngs Moduli (GPa) = 45.43425 18.28841 33.70753
#
# Poissons Ratio (x) = 0.22646 0.53517
# Poissons Ratio (y) = 0.56261 0.16312
# Poissons Ratio (z) = 0.72135 0.08850
#
# Static dielectric constant tensor:
#      x y z
#    x 1.558900 0.000000 0.000000 
#    y 0.000000 1.556670 0.000000 
#    z 0.000000 0.000000 1.557190 
# 
# From -- ./inp_files/29703.got.cif
#   From: 2010.05.17/outbox.cif.g08.bks.cpg/sg59_15_cif.got.tgz:29703.got - 2010.06.03 14:40:33.
