data_PCOD9451098
_publ_section_title
;
Structure prediction by ZEFSAII (Michael W. Deem and Ramdas Pophale) SiO2 
 PCOD9451098
Probable space group: P M M N
;
_chemical_formula_sum "Si O2"
_cell_formula_units_Z 48
_cell_length_a 28.324969
_cell_length_b 9.047015
_cell_length_c 10.065716
_cell_angle_alpha 90.000000
_cell_angle_beta 90.000000
_cell_angle_gamma 90.000000
_cell_volume 2579.404341
_symmetry_space_group_name_H-M "P M M N"
_symmetry_group_IT_number 59
_space_group.IT_coordinate_system_code '2'
_symmetry_cell_setting 'orthorhombic'
loop_
_space_group_symop_operation_xyz
x,y,z
1/2-x,1/2-y,z
1/2+x,-y,-z
-x,1/2+y,-z
-x,-y,-z
1/2+x,1/2+y,-z
1/2-x,y,z
x,1/2-y,z
loop_
_atom_site_type_symbol
_atom_site_label
_atom_site_fract_x
_atom_site_fract_y
_atom_site_fract_z
Si Si1 0.695781 0.074825 0.660130
Si Si2 0.894194 0.422666 0.275314
Si Si3 0.451364 0.424493 0.955897
Si Si4 0.803939 0.574174 0.369914
Si Si5 0.548044 0.423133 0.546415
Si Si6 0.106928 0.424470 0.222572
O O1 0.750000 0.054223 0.704931
O O2 0.686927 0.250000 0.645524
O O3 0.691559 0.998320 0.515920
O O4 0.656988 0.003078 0.754947
O O5 0.889530 0.250000 0.242326
O O6 0.843645 0.502161 0.278126
O O7 0.915778 0.433759 0.423259
O O8 0.929864 0.500216 0.174190
O O9 0.458847 0.250000 0.934239
O O10 0.414237 0.442986 0.076169
O O11 0.500000 0.500000 0.000000
O O12 0.750000 0.547752 0.324943
O O13 0.811307 0.750000 0.380072
O O14 0.500000 0.500000 0.500000
O O15 0.540113 0.250000 0.575249
O O16 0.570703 0.503756 0.672435
O O17 0.111305 0.250000 0.250368
#
# Coordination Sequence:
#
# PCOD9451098 Si02
#       6
#     8   8   8   8   8   8
#     4  10  20  35  58  89 122 155 194 241 295 354
#     4  11  23  39  60  88 119 156 201 245 296 355
#     4  11  25  43  62  86 118 160 204 247 300 360
#     4  10  20  35  59  90 122 157 196 241 296 353
#     4  11  23  37  57  86 117 150 194 247 299 353
#     4  11  23  39  60  87 118 154 199 245 296 356
#
# _framework density 18.608947000000001
#
# number of rings (size 3 to 8) (size 9 to 14) (size 15 to 20)
#    0.000    1.333    1.667    4.000    0.000   10.667 
#    0.000    0.833    0.000    1.000    0.000    0.000 
#    0.000    0.000    0.000    0.000    0.000    0.000 
#
# Total GULP energy -268374.993382 kJ/mol
# GULP energy per Si atom -5591.145695 kJ/mol
# Density = 1.856659 g / cm^3
# Si number density = 18.608947 Si / 1000 Ang^3
#
#
#
# Elastic Constant Matrix: (Units=GPa)
#
#
# Indices 1 2 3 4 5 6 
#
# 1 83.0326 32.9946 -19.9886 0.0000 0.0000 0.0000
# 2 32.9946 96.1644 7.4506 0.0000 0.0000 0.0000
# 3 -19.9886 7.4506 12.7809 0.0000 0.0000 0.0000
# 4 0.0000 0.0000 0.0000 28.6227 0.0000 0.0000
# 5 0.0000 0.0000 0.0000 0.0000 30.8270 0.0000
# 6 0.0000 0.0000 0.0000 0.0000 0.0000 39.8329
#
#
#
# Elastic Compliance Matrix: (Units=1/GPa)
#
#
# Indices 1 2 3 4 5 6 
#
# 1 0.033264 -0.016174 0.061452 0.000000 0.000000 0.000000
# 2 -0.016174 0.018755 -0.036229 0.000000 0.000000 0.000000
# 3 0.061452 -0.036229 0.195469 0.000000 0.000000 0.000000
# 4 0.000000 0.000000 0.000000 0.034937 0.000000 0.000000
# 5 0.000000 0.000000 0.000000 0.000000 0.032439 0.000000
# 6 0.000000 0.000000 0.000000 0.000000 0.000000 0.025105
#
#
# Mechanical properties :
#
#
# Convention : Reuss Voigt Hill
#
# Bulk Modulus (GPa) = 3.76527 25.87682 14.82105
# Shear Modulus (GPa) = 12.18321 31.29126 21.73723
#
# Velocity S-wave (km/s) = 2.56148 4.10508 3.42147
# Velocity P-wave (km/s) = 3.28268 6.03363 4.85699
#
# Compressibility (1/GPa) = 0.26558519
#
# Stress axis : x y z
#
# Youngs Moduli (GPa) = 30.06252 53.31823 5.11590
#
# Poissons Ratio (x) = 0.86238 -0.31438
# Poissons Ratio (y) = 0.48624 0.18534
# Poissons Ratio (z) = -1.84740 1.93167
#
# Static dielectric constant tensor:
#      x y z
#    x 1.637250 0.000000 0.000000 
#    y 0.000000 1.619220 0.000000 
#    z 0.000000 0.000000 1.609280 
# 
# From -- ./inp_files/12934.got.cif
#   From: 2010.05.17/outbox.cif.g08.bks.cpg/sg59_7_cif.got.tgz:12934.got - 2010.06.03 14:40:33.
