data_PCOD9451374
_publ_section_title
;
Structure prediction by ZEFSAII (Michael W. Deem and Ramdas Pophale) SiO2 
 PCOD9451374
Probable space group: P M M N
;
_chemical_formula_sum "Si O2"
_cell_formula_units_Z 56
_cell_length_a 9.114582
_cell_length_b 22.769024
_cell_length_c 14.972899
_cell_angle_alpha 90.000000
_cell_angle_beta 90.000000
_cell_angle_gamma 90.000000
_cell_volume 3107.327770
_symmetry_space_group_name_H-M "P M M N"
_symmetry_group_IT_number 59
_space_group.IT_coordinate_system_code '2'
_symmetry_cell_setting 'orthorhombic'
loop_
_space_group_symop_operation_xyz
x,y,z
1/2-x,1/2-y,z
1/2+x,-y,-z
-x,1/2+y,-z
-x,-y,-z
1/2+x,1/2+y,-z
1/2-x,y,z
x,1/2-y,z
loop_
_atom_site_type_symbol
_atom_site_label
_atom_site_fract_x
_atom_site_fract_y
_atom_site_fract_z
Si Si1 0.921749 0.106046 0.205545
Si Si2 0.079417 0.179997 0.058982
Si Si3 0.574310 0.316339 0.691209
Si Si4 0.426455 0.555813 0.606335
Si Si5 0.574568 0.578681 0.417751
Si Si6 0.075701 0.867914 0.118227
Si Si7 0.421748 0.013453 0.906336
O O1 0.750000 0.123323 0.203931
O O2 0.966510 0.094040 0.307358
O O3 0.015423 0.151464 0.148591
O O4 0.933177 0.043635 0.155173
O O5 0.250000 0.163810 0.048662
O O6 0.067095 0.250000 0.062368
O O7 0.990845 0.156494 0.973480
O O8 0.750000 0.321222 0.677442
O O9 0.528977 0.250000 0.666279
O O10 0.495580 0.368016 0.637124
O O11 0.547665 0.326657 0.796737
O O12 0.250000 0.559963 0.593404
O O13 0.508837 0.576337 0.517566
O O14 0.459069 0.486467 0.621600
O O15 0.750000 0.584923 0.419720
O O16 0.250000 0.875246 0.107768
O O17 0.000440 0.930460 0.135819
O O18 0.250000 0.025971 0.920813
O O19 0.500000 0.000000 0.000000
#
# Coordination Sequence:
#
# PCOD9451374 Si02
#       7
#     8   8   8   8   8   8   8
#     4  10  21  37  58  82 111 148 188 228 274 332
#     4  11  24  39  55  77 108 147 190 237 283 329
#     4  10  22  39  58  82 114 153 195 236 281 340
#     4   9  19  37  60  86 115 147 183 227 282 342
#     4  10  20  36  60  89 116 144 181 232 287 340
#     4  11  22  37  58  83 112 151 193 233 280 336
#     4  11  21  34  54  84 117 149 185 230 282 332
#
# _framework density 18.021916999999998
#
# number of rings (size 3 to 8) (size 9 to 14) (size 15 to 20)
#    0.000    1.714    1.429    3.000    0.000    6.000 
#    0.000    0.714    0.000    0.857    0.000    0.000 
#    0.000    0.000    0.000    0.000    0.000    0.000 
#
# Total GULP energy -312816.431581 kJ/mol
# GULP energy per Si atom -5586.007707 kJ/mol
# Density = 1.798090 g / cm^3
# Si number density = 18.021917 Si / 1000 Ang^3
#
#
#
# Elastic Constant Matrix: (Units=GPa)
#
#
# Indices 1 2 3 4 5 6 
#
# 1 68.2807 34.3478 33.9430 0.0000 0.0000 0.0000
# 2 34.3478 57.9194 13.6517 0.0000 0.0000 0.0000
# 3 33.9430 13.6517 68.8504 0.0000 0.0000 0.0000
# 4 0.0000 0.0000 0.0000 23.9082 0.0000 0.0000
# 5 0.0000 0.0000 0.0000 0.0000 24.8259 0.0000
# 6 0.0000 0.0000 0.0000 0.0000 0.0000 30.9746
#
#
#
# Elastic Compliance Matrix: (Units=1/GPa)
#
#
# Indices 1 2 3 4 5 6 
#
# 1 0.026502 -0.013257 -0.010437 0.000000 0.000000 0.000000
# 2 -0.013257 0.024743 0.001629 0.000000 0.000000 0.000000
# 3 -0.010437 0.001629 0.019347 0.000000 0.000000 0.000000
# 4 0.000000 0.000000 0.000000 0.041827 0.000000 0.000000
# 5 0.000000 0.000000 0.000000 0.000000 0.040280 0.000000
# 6 0.000000 0.000000 0.000000 0.000000 0.000000 0.032285
#
#
# Mechanical properties :
#
#
# Convention : Reuss Voigt Hill
#
# Bulk Modulus (GPa) = 37.78812 39.88174 38.83493
# Shear Modulus (GPa) = 21.01434 23.48229 22.24831
#
# Velocity S-wave (km/s) = 3.41844 3.61360 3.51738
# Velocity P-wave (km/s) = 6.04933 6.29194 6.17183
#
# Compressibility (1/GPa) = 0.02646334
#
# Stress axis : x y z
#
# Youngs Moduli (GPa) = 37.73252 40.41575 51.68874
#
# Poissons Ratio (x) = 0.53577 0.53948
# Poissons Ratio (y) = 0.50020 -0.08422
# Poissons Ratio (z) = 0.39382 -0.06585
#
# Static dielectric constant tensor:
#      x y z
#    x 1.602370 0.000000 0.000000 
#    y 0.000000 1.609630 0.000000 
#    z 0.000000 0.000000 1.603670 
# 
# From -- ./inp_files/21004.got.cif
#   From: 2010.05.17/outbox.cif.g08.bks.cpg/sg59_11_cif.got.tgz:21004.got - 2010.06.03 14:40:33.
