data_PCOD9451855
_publ_section_title
;
Structure prediction by ZEFSAII (Michael W. Deem and Ramdas Pophale) SiO2 
 PCOD9451855
Probable space group: P M M N
;
_chemical_formula_sum "Si O2"
_cell_formula_units_Z 64
_cell_length_a 9.336366
_cell_length_b 15.268744
_cell_length_c 24.212294
_cell_angle_alpha 90.000000
_cell_angle_beta 90.000000
_cell_angle_gamma 90.000000
_cell_volume 3451.573459
_symmetry_space_group_name_H-M "P M M N"
_symmetry_group_IT_number 59
_space_group.IT_coordinate_system_code '2'
_symmetry_cell_setting 'orthorhombic'
loop_
_space_group_symop_operation_xyz
x,y,z
1/2-x,1/2-y,z
1/2+x,-y,-z
-x,1/2+y,-z
-x,-y,-z
1/2+x,1/2+y,-z
1/2-x,y,z
x,1/2-y,z
loop_
_atom_site_type_symbol
_atom_site_label
_atom_site_fract_x
_atom_site_fract_y
_atom_site_fract_z
Si Si1 0.577136 0.484109 0.697192
Si Si2 0.085771 0.885094 0.876581
Si Si3 0.078845 0.354971 0.483886
Si Si4 0.420172 0.153830 0.234597
Si Si5 0.579190 0.992728 0.417612
Si Si6 0.084580 0.851699 0.999907
Si Si7 0.587239 0.909545 0.102980
Si Si8 0.084491 0.849591 0.206859
O O1 0.750000 0.480406 0.688666
O O2 0.538039 0.577715 0.723591
O O3 0.494574 0.471435 0.640443
O O4 0.538443 0.413607 0.744199
O O5 0.250000 0.853882 0.871693
O O6 0.996185 0.855251 0.824314
O O7 0.087064 0.989926 0.878127
O O8 0.031179 0.857030 0.936954
O O9 0.250000 0.358984 0.471673
O O10 0.041134 0.250000 0.485657
O O11 0.056103 0.409914 0.540881
O O12 0.992545 0.417475 0.441235
O O13 0.250000 0.145312 0.225508
O O14 0.450110 0.250000 0.257726
O O15 0.750000 0.004982 0.412732
O O16 0.250000 0.883413 0.999569
O O17 0.084763 0.750000 0.016704
O O18 0.992255 0.902173 0.044641
O O19 0.750000 0.878706 0.097190
O O20 0.505345 0.859106 0.151224
O O21 0.250000 0.871618 0.193321
O O22 0.078442 0.750000 0.226467
#
# Coordination Sequence:
#
# PCOD9451855 Si02
#       8
#     8   8   8   8   8   8   8   8
#     4  10  21  38  57  81 116 154 192 233 277 332
#     4  10  21  37  56  78 105 139 179 224 281 343
#     4   9  19  38  62  87 120 162 199 233 282 338
#     4  10  21  37  58  82 107 142 187 232 281 335
#     4  10  21  36  58  90 123 154 195 243 285 329
#     4  10  21  36  53  74 102 138 178 221 277 346
#     4  11  22  35  54  80 107 137 178 229 285 339
#     4  10  21  38  59  80 106 147 193 232 277 335
#
# _framework density 18.542268
#
# number of rings (size 3 to 8) (size 9 to 14) (size 15 to 20)
#    0.000    2.000    1.250    1.875    0.000    6.500 
#    0.000    1.250    0.000    0.000    0.000    0.000 
#    0.000    0.000    0.000    0.000    0.000    0.000 
#
# Total GULP energy -357108.686128 kJ/mol
# GULP energy per Si atom -5579.823221 kJ/mol
# Density = 1.850006 g / cm^3
# Si number density = 18.542268 Si / 1000 Ang^3
#
#
#
# Elastic Constant Matrix: (Units=GPa)
#
#
# Indices 1 2 3 4 5 6 
#
# 1 40.8864 14.9382 30.4586 0.0000 0.0000 0.0000
# 2 14.9382 74.6782 2.2029 0.0000 0.0000 0.0000
# 3 30.4586 2.2029 69.0975 0.0000 0.0000 0.0000
# 4 0.0000 0.0000 0.0000 30.4049 0.0000 0.0000
# 5 0.0000 0.0000 0.0000 0.0000 36.5543 0.0000
# 6 0.0000 0.0000 0.0000 0.0000 0.0000 135.0646
#
#
#
# Elastic Compliance Matrix: (Units=1/GPa)
#
#
# Indices 1 2 3 4 5 6 
#
# 1 0.040249 -0.007535 -0.017502 0.000000 0.000000 0.000000
# 2 -0.007535 0.014814 0.002849 0.000000 0.000000 0.000000
# 3 -0.017502 0.002849 0.022096 0.000000 0.000000 0.000000
# 4 0.000000 0.000000 0.000000 0.032889 0.000000 0.000000
# 5 0.000000 0.000000 0.000000 0.000000 0.027357 0.000000
# 6 0.000000 0.000000 0.000000 0.000000 0.000000 0.007404
#
#
# Mechanical properties :
#
#
# Convention : Reuss Voigt Hill
#
# Bulk Modulus (GPa) = 30.50244 31.09573 30.79908
# Shear Modulus (GPa) = 24.98600 49.54228 37.26414
#
# Velocity S-wave (km/s) = 3.67483 5.17461 4.48782
# Velocity P-wave (km/s) = 5.87297 7.24629 6.59547
#
# Compressibility (1/GPa) = 0.03278426
#
# Stress axis : x y z
#
# Youngs Moduli (GPa) = 24.84538 67.50384 45.25642
#
# Poissons Ratio (x) = 0.50863 0.79207
# Poissons Ratio (y) = 0.18721 -0.12894
# Poissons Ratio (z) = 0.43484 -0.19233
#
# Static dielectric constant tensor:
#      x y z
#    x 1.636770 0.000000 0.000000 
#    y 0.000000 1.666790 0.000000 
#    z 0.000000 0.000000 1.604340 
# 
# From -- ./inp_files/31471.got.cif
#   From: 2010.05.17/outbox.cif.g08.bks.cpg/sg59_16_cif.got.tgz:31471.got - 2010.06.03 14:40:33.
