data_PCOD9451152
_publ_section_title
;
Structure prediction by ZEFSAII (Michael W. Deem and Ramdas Pophale) SiO2 
 PCOD9451152
Probable space group: P M M N
;
_chemical_formula_sum "Si O2"
_cell_formula_units_Z 40
_cell_length_a 7.412730
_cell_length_b 15.505144
_cell_length_c 14.997003
_cell_angle_alpha 90.000000
_cell_angle_beta 90.000000
_cell_angle_gamma 90.000000
_cell_volume 1723.687230
_symmetry_space_group_name_H-M "P M M N"
_symmetry_group_IT_number 59
_space_group.IT_coordinate_system_code '2'
_symmetry_cell_setting 'orthorhombic'
loop_
_space_group_symop_operation_xyz
x,y,z
1/2-x,1/2-y,z
1/2+x,-y,-z
-x,1/2+y,-z
-x,-y,-z
1/2+x,1/2+y,-z
1/2-x,y,z
x,1/2-y,z
loop_
_atom_site_type_symbol
_atom_site_label
_atom_site_fract_x
_atom_site_fract_y
_atom_site_fract_z
Si Si1 0.029775 0.388824 0.156882
Si Si2 0.543411 0.064293 0.776512
Si Si3 0.530609 0.750000 0.698687
Si Si4 0.954858 0.250000 0.807781
Si Si5 0.970399 0.750000 0.493624
Si Si6 0.468773 0.250000 0.012852
Si Si7 0.036071 0.065966 0.579872
O O1 0.250000 0.390765 0.157770
O O2 0.964178 0.486471 0.165913
O O3 0.975040 0.332969 0.243405
O O4 0.977410 0.333800 0.070505
O O5 0.750000 0.075421 0.807674
O O6 0.458947 0.159296 0.779843
O O7 0.544468 0.036151 0.673529
O O8 0.750000 0.750000 0.697456
O O9 0.470839 0.750000 0.596863
O O10 0.750000 0.250000 0.770784
O O11 0.954682 0.250000 0.914601
O O12 0.750000 0.750000 0.493547
O O13 0.028925 0.661838 0.446300
O O14 0.250000 0.250000 0.006833
O O15 0.250000 0.070344 0.592652
O O16 0.000000 0.000000 0.500000
#
# Coordination Sequence:
#
# PCOD9451152 Si02
#       7
#     8   8   4   4   4   4   8
#     4   8  15  29  52  76  97 126 168 215 259 306
#     4  10  20  36  54  73 103 142 178 214 262 318
#     4   8  12  23  45  71  93 120 165 212 250 290
#     4  10  22  36  52  77 110 143 172 211 268 321
#     4   9  18  31  50  74 103 142 182 217 257 317
#     4   9  18  34  56  80 100 127 173 220 259 314
#     4  11  22  36  55  81 110 142 183 226 268 316
#
# _framework density 23.206064999999999
#
# number of rings (size 3 to 8) (size 9 to 14) (size 15 to 20)
#    0.000    2.600    0.000    3.600    0.000    4.800 
#    0.000    2.500    0.000    0.000    0.000    0.000 
#    0.000    0.000    0.000    0.000    0.000    0.000 
#
# Total GULP energy -223519.345161 kJ/mol
# GULP energy per Si atom -5587.983629 kJ/mol
# Density = 2.315325 g / cm^3
# Si number density = 23.206065 Si / 1000 Ang^3
#
#
#
# Elastic Constant Matrix: (Units=GPa)
#
#
# Indices 1 2 3 4 5 6 
#
# 1 85.0980 3.9277 -9.4403 0.0000 0.0000 0.0000
# 2 3.9277 166.0058 15.8271 0.0000 0.0000 0.0000
# 3 -9.4403 15.8271 77.9781 0.0000 0.0000 0.0000
# 4 0.0000 0.0000 0.0000 5.5330 0.0000 0.0000
# 5 0.0000 0.0000 0.0000 0.0000 18.0869 0.0000
# 6 0.0000 0.0000 0.0000 0.0000 0.0000 -6.8220
#
#
#
# Elastic Compliance Matrix: (Units=1/GPa)
#
#
# Indices 1 2 3 4 5 6 
#
# 1 0.011941 -0.000429 0.001533 0.000000 0.000000 0.000000
# 2 -0.000429 0.006158 -0.001302 0.000000 0.000000 0.000000
# 3 0.001533 -0.001302 0.013274 0.000000 0.000000 0.000000
# 4 0.000000 0.000000 0.000000 0.180735 0.000000 0.000000
# 5 0.000000 0.000000 0.000000 0.000000 0.055289 0.000000
# 6 0.000000 0.000000 0.000000 0.000000 0.000000 -0.146584
#
#
# Mechanical properties :
#
#
# Convention : Reuss Voigt Hill
#
# Bulk Modulus (GPa) = 32.28167 38.85677 35.56922
# Shear Modulus (GPa) = 38.01306 24.61074 31.31190
#
# Velocity S-wave (km/s) = 4.05169 3.26011 3.67726
# Velocity P-wave (km/s) = 5.98576 5.56342 5.77845
#
# Compressibility (1/GPa) = 0.03097733
#
# Stress axis : x y z
#
# Youngs Moduli (GPa) = 83.74538 162.38664 75.33590
#
# Poissons Ratio (x) = 0.06961 -0.11546
# Poissons Ratio (y) = 0.03590 0.09807
# Poissons Ratio (z) = -0.12835 0.21140
#
# Static dielectric constant tensor:
#      x y z
#    x 1.870570 0.000000 0.000000 
#    y 0.000000 1.892280 0.000000 
#    z 0.000000 0.000000 1.800680 
# 
# From -- ./inp_files/20036.got.cif
#   From: 2010.05.17/outbox.cif.g08.bks.cpg/sg59_11_cif.got.tgz:20036.got - 2010.06.03 14:40:33.
