data_PCOD9451291
_publ_section_title
;
Structure prediction by ZEFSAII (Michael W. Deem and Ramdas Pophale) SiO2 
 PCOD9451291
Probable space group: P M M N
;
_chemical_formula_sum "Si O2"
_cell_formula_units_Z 40
_cell_length_a 7.825530
_cell_length_b 15.324532
_cell_length_c 17.536148
_cell_angle_alpha 90.000000
_cell_angle_beta 90.000000
_cell_angle_gamma 90.000000
_cell_volume 2102.980197
_symmetry_space_group_name_H-M "P M M N"
_symmetry_group_IT_number 59
_space_group.IT_coordinate_system_code '2'
_symmetry_cell_setting 'orthorhombic'
loop_
_space_group_symop_operation_xyz
x,y,z
1/2-x,1/2-y,z
1/2+x,-y,-z
-x,1/2+y,-z
-x,-y,-z
1/2+x,1/2+y,-z
1/2-x,y,z
x,1/2-y,z
loop_
_atom_site_type_symbol
_atom_site_label
_atom_site_fract_x
_atom_site_fract_y
_atom_site_fract_z
Si Si1 0.045004 0.013967 0.882515
Si Si2 0.445302 0.473024 0.281955
Si Si3 0.955640 0.351469 0.013446
Si Si4 0.449208 0.070016 0.565395
Si Si5 0.750000 0.353678 0.319573
Si Si6 0.250000 0.845292 0.509928
O O1 0.250000 0.010219 0.875120
O O2 0.963548 0.019356 0.799362
O O3 0.986750 0.922565 0.922634
O O4 0.001002 0.096722 0.935691
O O5 0.250000 0.445511 0.295175
O O6 0.502519 0.534805 0.351524
O O7 0.579721 0.393734 0.282731
O O8 0.750000 0.347688 0.018634
O O9 0.017038 0.250000 0.018128
O O10 0.250000 0.092700 0.559673
O O11 0.583521 0.142999 0.541029
O O12 0.500000 0.000000 0.500000
O O13 0.750000 0.250000 0.309573
O O14 0.750000 0.392584 0.407340
O O15 0.250000 0.750000 0.541191
#
# Coordination Sequence:
#
# PCOD9451291 Si02
#       6
#     8   8   8   8   4   4
#     4  10  20  36  58  90 121 157 201 250 302 360
#     4  12  22  38  63  90 119 164 205 247 299 363
#     4   9  19  37  60  85 118 159 198 245 305 364
#     4  12  20  37  64  88 116 162 208 243 296 363
#     4  11  24  40  58  90 129 156 199 259 304 353
#     4  11  24  40  60  92 123 154 203 259 304 355
#
# _framework density 19.020627000000001
#
# number of rings (size 3 to 8) (size 9 to 14) (size 15 to 20)
#    0.000    1.200    6.000    0.600    0.000    2.800 
#    0.000    3.000    0.000    2.400    0.000    0.000 
#    0.000    0.000    0.000    0.000    0.000    0.000 
#
# Total GULP energy -222890.077773 kJ/mol
# GULP energy per Si atom -5572.251944 kJ/mol
# Density = 1.897733 g / cm^3
# Si number density = 19.020627 Si / 1000 Ang^3
#
#
#
# Elastic Constant Matrix: (Units=GPa)
#
#
# Indices 1 2 3 4 5 6 
#
# 1 127.2601 6.9460 11.0755 0.0000 0.0000 0.0000
# 2 6.9460 66.5567 13.1151 0.0000 0.0000 0.0000
# 3 11.0755 13.1151 116.0807 0.0000 0.0000 0.0000
# 4 0.0000 0.0000 0.0000 12.3478 0.0000 0.0000
# 5 0.0000 0.0000 0.0000 0.0000 41.8431 0.0000
# 6 0.0000 0.0000 0.0000 0.0000 0.0000 19.1949
#
#
#
# Elastic Compliance Matrix: (Units=1/GPa)
#
#
# Indices 1 2 3 4 5 6 
#
# 1 0.007955 -0.000696 -0.000680 0.000000 0.000000 0.000000
# 2 -0.000696 0.015428 -0.001677 0.000000 0.000000 0.000000
# 3 -0.000680 -0.001677 0.008869 0.000000 0.000000 0.000000
# 4 0.000000 0.000000 0.000000 0.080986 0.000000 0.000000
# 5 0.000000 0.000000 0.000000 0.000000 0.023899 0.000000
# 6 0.000000 0.000000 0.000000 0.000000 0.000000 0.052097
#
#
# Mechanical properties :
#
#
# Convention : Reuss Voigt Hill
#
# Bulk Modulus (GPa) = 38.24726 41.35230 39.79978
# Shear Modulus (GPa) = 24.50311 33.26122 28.88217
#
# Velocity S-wave (km/s) = 3.59310 4.18627 3.90098
# Velocity P-wave (km/s) = 6.11275 6.71971 6.42340
#
# Compressibility (1/GPa) = 0.02614566
#
# Stress axis : x y z
#
# Youngs Moduli (GPa) = 125.70509 64.81800 112.75170
#
# Poissons Ratio (x) = 0.04512 0.07671
# Poissons Ratio (y) = 0.08751 0.18905
# Poissons Ratio (z) = 0.08552 0.10868
#
# Static dielectric constant tensor:
#      x y z
#    x 1.667690 0.000000 0.000000 
#    y 0.000000 1.700870 0.000000 
#    z 0.000000 0.000000 1.665900 
# 
# From -- ./inp_files/19989.got.cif
#   From: 2010.05.17/outbox.cif.g08.bks.cpg/sg59_10_cif.got.tgz:19989.got - 2010.06.03 14:40:33.
