data_PCOD9451430
_publ_section_title
;
Structure prediction by ZEFSAII (Michael W. Deem and Ramdas Pophale) SiO2 
 PCOD9451430
Probable space group: P M M N
;
_chemical_formula_sum "Si O2"
_cell_formula_units_Z 58
_cell_length_a 24.198280
_cell_length_b 7.838016
_cell_length_c 15.200461
_cell_angle_alpha 90.000000
_cell_angle_beta 90.000000
_cell_angle_gamma 90.000000
_cell_volume 2883.018325
_symmetry_space_group_name_H-M "P M M N"
_symmetry_group_IT_number 59
_space_group.IT_coordinate_system_code '2'
_symmetry_cell_setting 'orthorhombic'
loop_
_space_group_symop_operation_xyz
x,y,z
1/2-x,1/2-y,z
1/2+x,-y,-z
-x,1/2+y,-z
-x,-y,-z
1/2+x,1/2+y,-z
1/2-x,y,z
x,1/2-y,z
loop_
_atom_site_type_symbol
_atom_site_label
_atom_site_fract_x
_atom_site_fract_y
_atom_site_fract_z
Si Si1 0.813498 0.043657 0.936633
Si Si2 0.937523 0.548194 0.420174
Si Si3 0.250000 0.750000 0.642414
Si Si4 0.873039 0.548054 0.118716
Si Si5 0.101802 0.551552 0.208518
Si Si6 0.939745 0.047381 0.610756
Si Si7 0.832614 0.952641 0.305604
Si Si8 0.997261 0.054074 0.101858
O O1 0.750000 0.982789 0.934638
O O2 0.812223 0.250000 0.932180
O O3 0.851676 0.977755 0.856486
O O4 0.843922 0.999663 0.027704
O O5 0.944383 0.750000 0.435105
O O6 0.916128 0.476944 0.513133
O O7 0.894404 0.527928 0.342579
O O8 0.997730 0.476097 0.395858
O O9 0.203108 0.596440 0.647768
O O10 0.882688 0.750000 0.119804
O O11 0.834103 0.508294 0.201571
O O12 0.933516 0.466672 0.128801
O O13 0.117289 0.750000 0.219393
O O14 0.093348 0.475790 0.305924
O O15 0.042347 0.544314 0.159771
O O16 0.944598 0.250000 0.626970
O O17 0.817438 0.750000 0.317804
O O18 0.013796 0.250000 0.108571
O O19 0.000000 0.000000 0.000000
#
# Coordination Sequence:
#
# PCOD9451430 Si02
#       8
#     8   8   2   8   8   8   8   8
#     4  10  22  37  57  80 110 151 203 248 290 343
#     4   9  18  36  58  88 122 156 191 245 306 366
#     4  12  26  40  68  90 120 170 218 256 306 370
#     4  11  23  39  59  84 117 157 196 248 306 358
#     4  10  20  37  57  82 118 158 194 245 300 355
#     4   9  18  33  60  89 119 155 195 238 304 371
#     4  10  24  42  62  90 127 163 207 259 312 365
#     4  12  23  35  55  84 118 153 195 243 302 369
#
# _framework density 20.117805000000001
#
# number of rings (size 3 to 8) (size 9 to 14) (size 15 to 20)
#    0.000    1.793    1.379    2.690    3.862    3.034 
#    0.000    0.000    1.517    0.000    0.000    0.000 
#    0.000    0.000    0.000    0.000    0.000    0.000 
#
# Total GULP energy -323133.800545 kJ/mol
# GULP energy per Si atom -5571.272423 kJ/mol
# Density = 2.007202 g / cm^3
# Si number density = 20.117805 Si / 1000 Ang^3
#
#
#
# Elastic Constant Matrix: (Units=GPa)
#
#
# Indices 1 2 3 4 5 6 
#
# 1 74.4549 1.4124 25.6792 0.0000 0.0000 0.0000
# 2 1.4124 46.8653 -5.7033 0.0000 0.0000 0.0000
# 3 25.6792 -5.7033 111.4256 0.0000 0.0000 0.0000
# 4 0.0000 0.0000 0.0000 21.3098 0.0000 0.0000
# 5 0.0000 0.0000 0.0000 0.0000 -56.6908 0.0000
# 6 0.0000 0.0000 0.0000 0.0000 0.0000 27.4693
#
#
#
# Elastic Compliance Matrix: (Units=1/GPa)
#
#
# Indices 1 2 3 4 5 6 
#
# 1 0.014625 -0.000856 -0.003414 0.000000 0.000000 0.000000
# 2 -0.000856 0.021522 0.001299 0.000000 0.000000 0.000000
# 3 -0.003414 0.001299 0.009828 0.000000 0.000000 0.000000
# 4 0.000000 0.000000 0.000000 0.046927 0.000000 0.000000
# 5 0.000000 0.000000 0.000000 0.000000 -0.017640 0.000000
# 6 0.000000 0.000000 0.000000 0.000000 0.000000 0.036404
#
#
# Mechanical properties :
#
#
# Convention : Reuss Voigt Hill
#
# Bulk Modulus (GPa) = 24.98057 30.61360 27.79709
# Shear Modulus (GPa) = 38.18172 12.50815 25.34493
#
# Velocity S-wave (km/s) = 4.36122 2.49619 3.55325
# Velocity P-wave (km/s) = 6.14853 4.85367 5.53907
#
# Compressibility (1/GPa) = 0.04003111
#
# Stress axis : x y z
#
# Youngs Moduli (GPa) = 68.37724 46.46492 101.75079
#
# Poissons Ratio (x) = 0.03979 0.34740
# Poissons Ratio (y) = 0.05855 -0.13217
# Poissons Ratio (z) = 0.23346 -0.06035
#
# Static dielectric constant tensor:
#      x y z
#    x 1.669040 0.000000 0.000000 
#    y 0.000000 1.730570 0.000000 
#    z 0.000000 0.000000 1.716810 
# 
# From -- ./inp_files/24609.got.cif
#   From: 2010.05.17/outbox.cif.g08.bks.cpg/sg59_13_cif.got.tgz:24609.got - 2010.06.03 14:40:33.
