data_PCOD9451294
_publ_section_title
;
Structure prediction by ZEFSAII (Michael W. Deem and Ramdas Pophale) SiO2 
 PCOD9451294
Probable space group: P M M N
;
_chemical_formula_sum "Si O2"
_cell_formula_units_Z 64
_cell_length_a 19.303361
_cell_length_b 12.915851
_cell_length_c 13.718883
_cell_angle_alpha 90.000000
_cell_angle_beta 90.000000
_cell_angle_gamma 90.000000
_cell_volume 3420.382779
_symmetry_space_group_name_H-M "P M M N"
_symmetry_group_IT_number 59
_space_group.IT_coordinate_system_code '2'
_symmetry_cell_setting 'orthorhombic'
loop_
_space_group_symop_operation_xyz
x,y,z
1/2-x,1/2-y,z
1/2+x,-y,-z
-x,1/2+y,-z
-x,-y,-z
1/2+x,1/2+y,-z
1/2-x,y,z
x,1/2-y,z
loop_
_atom_site_type_symbol
_atom_site_label
_atom_site_fract_x
_atom_site_fract_y
_atom_site_fract_z
Si Si1 0.327260 0.864666 0.498069
Si Si2 0.053437 0.522804 0.410391
Si Si3 0.672581 0.874258 0.892383
Si Si4 0.829326 0.370644 0.145222
Si Si5 0.927992 0.526507 0.048580
Si Si6 0.673658 0.525747 0.328123
Si Si7 0.330330 0.125803 0.334526
Si Si8 0.042776 0.370664 0.742686
O O1 0.250000 0.870535 0.452077
O O2 0.331094 0.750000 0.543880
O O3 0.394069 0.882538 0.432233
O O4 0.331955 0.956786 0.575615
O O5 0.107545 0.429135 0.392050
O O6 0.000000 0.500000 0.500000
O O7 0.010561 0.554609 0.314319
O O8 0.750000 0.909375 0.920144
O O9 0.672200 0.750000 0.892823
O O10 0.660786 0.904435 0.779585
O O11 0.618074 0.913362 0.970078
O O12 0.750000 0.378524 0.108111
O O13 0.843371 0.250000 0.164554
O O14 0.885270 0.423189 0.075728
O O15 0.832346 0.440720 0.242107
O O16 0.942667 0.591258 0.147196
O O17 0.000000 0.500000 0.000000
O O18 0.750000 0.572917 0.323264
O O19 0.614627 0.609681 0.314715
O O20 0.250000 0.099409 0.362516
O O21 0.335895 0.250000 0.342366
O O22 0.023058 0.250000 0.740299
#
# Coordination Sequence:
#
# PCOD9451294 Si02
#       8
#     8   8   8   8   8   8   8   8
#     4  10  20  36  59  82 106 143 193 242 283 334
#     4  12  23  39  57  82 120 159 196 238 292 355
#     4   9  18  36  62  87 110 144 194 246 293 347
#     4   9  18  33  54  79 109 144 185 233 282 339
#     4  11  22  36  56  83 118 154 191 234 296 357
#     4   9  18  36  57  81 109 145 190 235 283 336
#     4   9  20  40  65  90 114 146 197 255 300 343
#     4  11  24  40  55  82 121 159 194 240 296 354
#
# _framework density 18.711355999999999
#
# number of rings (size 3 to 8) (size 9 to 14) (size 15 to 20)
#    0.000    2.000    1.250    3.375    0.000    4.250 
#    0.000    1.875    0.000    0.000    0.000    5.250 
#    0.000    0.000    0.000    0.000    0.000    0.000 
#
# Total GULP energy -356777.222512 kJ/mol
# GULP energy per Si atom -5574.644102 kJ/mol
# Density = 1.866877 g / cm^3
# Si number density = 18.711356 Si / 1000 Ang^3
#
#
#
# Elastic Constant Matrix: (Units=GPa)
#
#
# Indices 1 2 3 4 5 6 
#
# 1 136.8486 33.8739 58.4388 0.0000 0.0000 0.0000
# 2 33.8739 64.0836 24.6193 0.0000 0.0000 0.0000
# 3 58.4388 24.6193 65.0057 0.0000 0.0000 0.0000
# 4 0.0000 0.0000 0.0000 18.3337 0.0000 0.0000
# 5 0.0000 0.0000 0.0000 0.0000 38.3039 0.0000
# 6 0.0000 0.0000 0.0000 0.0000 0.0000 24.5279
#
#
#
# Elastic Compliance Matrix: (Units=1/GPa)
#
#
# Indices 1 2 3 4 5 6 
#
# 1 0.012226 -0.002621 -0.009998 0.000000 0.000000 0.000000
# 2 -0.002621 0.018824 -0.004772 0.000000 0.000000 0.000000
# 3 -0.009998 -0.004772 0.026178 0.000000 0.000000 0.000000
# 4 0.000000 0.000000 0.000000 0.054544 0.000000 0.000000
# 5 0.000000 0.000000 0.000000 0.000000 0.026107 0.000000
# 6 0.000000 0.000000 0.000000 0.000000 0.000000 0.040770
#
#
# Mechanical properties :
#
#
# Convention : Reuss Voigt Hill
#
# Bulk Modulus (GPa) = 44.55417 55.53356 50.04387
# Shear Modulus (GPa) = 22.63327 26.16684 24.40005
#
# Velocity S-wave (km/s) = 3.48170 3.74364 3.61504
# Velocity P-wave (km/s) = 6.32661 6.95916 6.65041
#
# Compressibility (1/GPa) = 0.02244459
#
# Stress axis : x y z
#
# Youngs Moduli (GPa) = 81.79570 53.12447 38.19936
#
# Poissons Ratio (x) = 0.13926 0.38191
# Poissons Ratio (y) = 0.21442 0.18230
# Poissons Ratio (z) = 0.81777 0.25353
#
# Static dielectric constant tensor:
#      x y z
#    x 1.664480 0.000000 0.000000 
#    y 0.000000 1.625310 0.000000 
#    z 0.000000 0.000000 1.670240 
# 
# From -- ./inp_files/23950.got.cif
#   From: 2010.05.17/outbox.cif.g08.bks.cpg/sg59_12_cif.got.tgz:23950.got - 2010.06.03 14:40:33.
