data_PCOD9451231
_publ_section_title
;
Structure prediction by ZEFSAII (Michael W. Deem and Ramdas Pophale) SiO2 
 PCOD9451231
Probable space group: P M M N
;
_chemical_formula_sum "Si O2"
_cell_formula_units_Z 48
_cell_length_a 8.429201
_cell_length_b 16.078401
_cell_length_c 18.013324
_cell_angle_alpha 90.000000
_cell_angle_beta 90.000000
_cell_angle_gamma 90.000000
_cell_volume 2441.311104
_symmetry_space_group_name_H-M "P M M N"
_symmetry_group_IT_number 59
_space_group.IT_coordinate_system_code '2'
_symmetry_cell_setting 'orthorhombic'
loop_
_space_group_symop_operation_xyz
x,y,z
1/2-x,1/2-y,z
1/2+x,-y,-z
-x,1/2+y,-z
-x,-y,-z
1/2+x,1/2+y,-z
1/2-x,y,z
x,1/2-y,z
loop_
_atom_site_type_symbol
_atom_site_label
_atom_site_fract_x
_atom_site_fract_y
_atom_site_fract_z
Si Si1 0.560373 0.385433 0.653883
Si Si2 0.562830 0.750000 0.232366
Si Si3 0.559673 0.589508 0.974472
Si Si4 0.443160 0.079232 0.336706
Si Si5 0.438105 0.750000 0.064707
Si Si6 0.059352 0.404284 0.497527
Si Si7 0.556401 0.654842 0.817465
O O1 0.750000 0.380548 0.659184
O O2 0.486843 0.328793 0.717529
O O3 0.511092 0.481986 0.662926
O O4 0.509492 0.360528 0.570323
O O5 0.750000 0.750000 0.221000
O O6 0.482549 0.750000 0.151730
O O7 0.750000 0.590101 0.975551
O O8 0.505215 0.604522 0.889700
O O9 0.500000 0.500000 0.000000
O O10 0.503427 0.666912 0.024728
O O11 0.250000 0.080585 0.336165
O O12 0.489629 0.122665 0.414393
O O13 0.500424 0.121062 0.261454
O O14 0.250000 0.750000 0.057238
O O15 0.250000 0.402346 0.502341
O O16 0.000000 0.500000 0.500000
O O17 0.750000 0.652300 0.815721
O O18 0.509085 0.750000 0.827583
#
# Coordination Sequence:
#
# PCOD9451231 Si02
#       7
#     8   4   8   8   4   8   8
#     4  10  20  36  57  82 117 158 201 245 300 367
#     4  12  26  42  60  87 120 151 198 255 308 367
#     4  11  23  41  66  97 127 163 209 258 315 381
#     4   8  16  30  53  84 115 154 202 243 289 355
#     4  12  26  46  68  91 126 167 206 259 320 381
#     4   9  16  30  52  80 114 153 201 251 297 349
#     4   9  17  33  57  86 120 153 193 248 300 354
#
# _framework density 19.661563999999998
#
# number of rings (size 3 to 8) (size 9 to 14) (size 15 to 20)
#    0.000    2.167    0.833    4.000    2.333    0.000 
#    1.500    0.000    0.000    3.000    0.000    0.000 
#    0.000    0.000    0.000    0.000    0.000    0.000 
#
# Total GULP energy -267864.730316 kJ/mol
# GULP energy per Si atom -5580.515215 kJ/mol
# Density = 1.961681 g / cm^3
# Si number density = 19.661564 Si / 1000 Ang^3
#
#
#
# Elastic Constant Matrix: (Units=GPa)
#
#
# Indices 1 2 3 4 5 6 
#
# 1 51.4757 17.9683 17.1920 0.0000 0.0000 0.0000
# 2 17.9683 88.6437 65.2593 0.0000 0.0000 0.0000
# 3 17.1920 65.2593 179.6547 0.0000 0.0000 0.0000
# 4 0.0000 0.0000 0.0000 31.3689 0.0000 0.0000
# 5 0.0000 0.0000 0.0000 0.0000 28.0015 0.0000
# 6 0.0000 0.0000 0.0000 0.0000 0.0000 26.2891
#
#
#
# Elastic Compliance Matrix: (Units=1/GPa)
#
#
# Indices 1 2 3 4 5 6 
#
# 1 0.020958 -0.003784 -0.000631 0.000000 0.000000 0.000000
# 2 -0.003784 0.016082 -0.005480 0.000000 0.000000 0.000000
# 3 -0.000631 -0.005480 0.007617 0.000000 0.000000 0.000000
# 4 0.000000 0.000000 0.000000 0.031879 0.000000 0.000000
# 5 0.000000 0.000000 0.000000 0.000000 0.035712 0.000000
# 6 0.000000 0.000000 0.000000 0.000000 0.000000 0.038039
#
#
# Mechanical properties :
#
#
# Convention : Reuss Voigt Hill
#
# Bulk Modulus (GPa) = 40.21159 57.84591 49.02875
# Shear Modulus (GPa) = 28.03227 31.75554 29.89391
#
# Velocity S-wave (km/s) = 3.77999 4.02320 3.90349
# Velocity P-wave (km/s) = 6.28867 7.14606 6.73103
#
# Compressibility (1/GPa) = 0.02486845
#
# Stress axis : x y z
#
# Youngs Moduli (GPa) = 47.71408 62.18024 131.28252
#
# Poissons Ratio (x) = 0.23526 0.08287
# Poissons Ratio (y) = 0.18053 0.71940
# Poissons Ratio (z) = 0.03012 0.34073
#
# Static dielectric constant tensor:
#      x y z
#    x 1.677120 0.000000 0.000000 
#    y 0.000000 1.700180 0.000000 
#    z 0.000000 0.000000 1.707730 
# 
# From -- ./inp_files/25557.got.cif
#   From: 2010.05.17/outbox.cif.g08.bks.cpg/sg59_13_cif.got.tgz:25557.got - 2010.06.03 14:40:33.
