data_PCOD9451561
_publ_section_title
;
Structure prediction by ZEFSAII (Michael W. Deem and Ramdas Pophale) SiO2 
 PCOD9451561
Probable space group: P M M N
;
_chemical_formula_sum "Si O2"
_cell_formula_units_Z 40
_cell_length_a 8.049819
_cell_length_b 10.434661
_cell_length_c 24.548205
_cell_angle_alpha 90.000000
_cell_angle_beta 90.000000
_cell_angle_gamma 90.000000
_cell_volume 2061.978825
_symmetry_space_group_name_H-M "P M M N"
_symmetry_group_IT_number 59
_space_group.IT_coordinate_system_code '2'
_symmetry_cell_setting 'orthorhombic'
loop_
_space_group_symop_operation_xyz
x,y,z
1/2-x,1/2-y,z
1/2+x,-y,-z
-x,1/2+y,-z
-x,-y,-z
1/2+x,1/2+y,-z
1/2-x,y,z
x,1/2-y,z
loop_
_atom_site_type_symbol
_atom_site_label
_atom_site_fract_x
_atom_site_fract_y
_atom_site_fract_z
Si Si1 0.950076 0.518402 0.625772
Si Si2 0.950410 0.604842 0.167383
Si Si3 0.450148 0.105391 0.255218
Si Si4 0.546316 0.250000 0.576800
Si Si5 0.550012 0.605779 0.043418
Si Si6 0.448625 0.750000 0.548486
O O1 0.750000 0.512591 0.628929
O O2 0.011979 0.560811 0.685278
O O3 0.009619 0.378996 0.606879
O O4 0.993845 0.625215 0.581350
O O5 0.750000 0.606302 0.166990
O O6 0.005955 0.750000 0.181781
O O7 0.006747 0.577617 0.105317
O O8 0.005290 0.497778 0.209639
O O9 0.250000 0.110596 0.258129
O O10 0.510020 0.250000 0.243411
O O11 0.750000 0.250000 0.576869
O O12 0.491641 0.250000 0.513877
O O13 0.750000 0.608963 0.044859
O O14 0.492198 0.750000 0.029103
O O15 0.500000 0.500000 0.000000
O O16 0.250000 0.750000 0.547296
#
# Coordination Sequence:
#
# PCOD9451561 Si02
#       6
#     8   8   8   4   8   4
#     4  10  20  38  58  77 106 144 179 219 272 324
#     4   9  20  38  57  79 110 146 180 219 271 321
#     4  10  21  36  55  80 106 138 183 225 265 320
#     4   9  20  35  57  83 105 137 182 223 266 323
#     4   9  19  36  56  80 112 147 182 221 265 314
#     4  11  21  35  55  83 111 137 176 223 268 323
#
# _framework density 19.398841000000001
#
# number of rings (size 3 to 8) (size 9 to 14) (size 15 to 20)
#    0.000    2.400    1.000    2.100    1.400    3.600 
#    0.000    7.500    0.000    0.000    0.000    0.000 
#    0.000    0.000    0.000    0.000    0.000    0.000 
#
# Total GULP energy -223269.420307 kJ/mol
# GULP energy per Si atom -5581.735508 kJ/mol
# Density = 1.935469 g / cm^3
# Si number density = 19.398841 Si / 1000 Ang^3
#
#
#
# Elastic Constant Matrix: (Units=GPa)
#
#
# Indices 1 2 3 4 5 6 
#
# 1 8.7018 15.5695 15.6992 0.0000 0.0000 0.0000
# 2 15.5695 217.2700 133.1482 0.0000 0.0000 0.0000
# 3 15.6992 133.1482 155.9693 0.0000 0.0000 0.0000
# 4 0.0000 0.0000 0.0000 47.7353 0.0000 0.0000
# 5 0.0000 0.0000 0.0000 0.0000 25.0274 0.0000
# 6 0.0000 0.0000 0.0000 0.0000 0.0000 232.6270
#
#
#
# Elastic Compliance Matrix: (Units=1/GPa)
#
#
# Indices 1 2 3 4 5 6 
#
# 1 0.141317 -0.002956 -0.011701 0.000000 0.000000 0.000000
# 2 -0.002956 0.009714 -0.007995 0.000000 0.000000 0.000000
# 3 -0.011701 -0.007995 0.014415 0.000000 0.000000 0.000000
# 4 0.000000 0.000000 0.000000 0.020949 0.000000 0.000000
# 5 0.000000 0.000000 0.000000 0.000000 0.039956 0.000000
# 6 0.000000 0.000000 0.000000 0.000000 0.000000 0.004299
#
#
# Mechanical properties :
#
#
# Convention : Reuss Voigt Hill
#
# Bulk Modulus (GPa) = 8.32353 78.97499 43.64926
# Shear Modulus (GPa) = 15.82277 75.57956 45.70117
#
# Velocity S-wave (km/s) = 2.85907 6.24864 4.85900
# Velocity P-wave (km/s) = 3.89860 9.63640 7.35048
#
# Compressibility (1/GPa) = 0.12014139
#
# Stress axis : x y z
#
# Youngs Moduli (GPa) = 7.07630 102.94413 69.37448
#
# Poissons Ratio (x) = 0.30434 0.81172
# Poissons Ratio (y) = 0.02092 0.55466
# Poissons Ratio (z) = 0.08280 0.82305
#
# Static dielectric constant tensor:
#      x y z
#    x 1.699720 0.000000 0.000000 
#    y 0.000000 1.667630 0.000000 
#    z 0.000000 0.000000 1.656090 
# 
# From -- ./inp_files/32410.got.cif
#   From: 2010.05.17/outbox.cif.g08.bks.cpg/sg59_17_cif.got.tgz:32410.got - 2010.06.03 14:40:33.
