data_PCOD9451666
_publ_section_title
;
Structure prediction by ZEFSAII (Michael W. Deem and Ramdas Pophale) SiO2 
 PCOD9451666
Probable space group: P M M N
;
_chemical_formula_sum "Si O2"
_cell_formula_units_Z 64
_cell_length_a 19.478887
_cell_length_b 7.669639
_cell_length_c 21.212963
_cell_angle_alpha 90.000000
_cell_angle_beta 90.000000
_cell_angle_gamma 90.000000
_cell_volume 3169.132487
_symmetry_space_group_name_H-M "P M M N"
_symmetry_group_IT_number 59
_space_group.IT_coordinate_system_code '2'
_symmetry_cell_setting 'orthorhombic'
loop_
_space_group_symop_operation_xyz
x,y,z
1/2-x,1/2-y,z
1/2+x,-y,-z
-x,1/2+y,-z
-x,-y,-z
1/2+x,1/2+y,-z
1/2-x,y,z
x,1/2-y,z
loop_
_atom_site_type_symbol
_atom_site_label
_atom_site_fract_x
_atom_site_fract_y
_atom_site_fract_z
Si Si1 0.580146 0.040538 0.502309
Si Si2 0.970170 0.548825 0.067505
Si Si3 0.674398 0.954123 0.761789
Si Si4 0.328921 0.963411 0.615449
Si Si5 0.389509 0.536528 0.749426
Si Si6 0.173715 0.960707 0.882439
Si Si7 0.172409 0.539389 0.383616
Si Si8 0.969119 0.548843 0.802025
O O1 0.587210 0.250000 0.502703
O O2 0.621795 0.977563 0.441038
O O3 0.617016 0.976511 0.565961
O O4 0.500000 0.000000 0.500000
O O5 0.984107 0.750000 0.079288
O O6 0.888606 0.518283 0.073249
O O7 0.005747 0.451783 0.125888
O O8 0.000000 0.500000 0.000000
O O9 0.750000 0.031152 0.775665
O O10 0.678142 0.750000 0.779625
O O11 0.606013 0.031374 0.793100
O O12 0.664061 0.966795 0.686502
O O13 0.250000 0.017108 0.606447
O O14 0.329357 0.750000 0.615600
O O15 0.357411 0.019501 0.683531
O O16 0.390350 0.750000 0.749516
O O17 0.345883 0.484722 0.811025
O O18 0.467412 0.474100 0.761738
O O19 0.250000 0.021580 0.899229
O O20 0.173879 0.750000 0.882944
O O21 0.250000 0.497833 0.405533
O O22 0.167971 0.750000 0.378637
O O23 0.962967 0.750000 0.781134
#
# Coordination Sequence:
#
# PCOD9451666 Si02
#       8
#     8   8   8   8   8   8   8   8
#     4  10  21  33  47  68  96 130 169 215 261 308
#     4  11  22  37  57  80 109 145 184 221 259 307
#     4   9  18  32  53  80 105 132 170 218 268 317
#     4   9  16  27  46  71  96 125 167 212 250 297
#     4   8  14  25  46  76 102 128 163 207 253 300
#     4   9  17  32  55  82 112 142 174 214 261 314
#     4   9  18  33  50  68  95 133 173 214 261 312
#     4   9  18  33  53  77 107 137 168 211 262 316
#
# _framework density 20.194800999999998
#
# number of rings (size 3 to 8) (size 9 to 14) (size 15 to 20)
#    0.000    2.750    0.000    2.625    1.750    4.250 
#    0.000    0.625    0.000    3.375    0.000    0.000 
#    0.000    0.000    0.000    0.000    0.000    0.000 
#
# Total GULP energy -357027.186945 kJ/mol
# GULP energy per Si atom -5578.549796 kJ/mol
# Density = 2.014884 g / cm^3
# Si number density = 20.194801 Si / 1000 Ang^3
#
#
#
# Elastic Constant Matrix: (Units=GPa)
#
#
# Indices 1 2 3 4 5 6 
#
# 1 197.0629 -0.5511 74.9796 0.0000 0.0000 0.0000
# 2 -0.5511 38.7823 -8.3581 0.0000 0.0000 0.0000
# 3 74.9796 -8.3581 67.7381 0.0000 0.0000 0.0000
# 4 0.0000 0.0000 0.0000 12.2643 0.0000 0.0000
# 5 0.0000 0.0000 0.0000 0.0000 28.8622 0.0000
# 6 0.0000 0.0000 0.0000 0.0000 0.0000 14.2207
#
#
#
# Elastic Compliance Matrix: (Units=1/GPa)
#
#
# Indices 1 2 3 4 5 6 
#
# 1 0.008924 -0.002057 -0.010131 0.000000 0.000000 0.000000
# 2 -0.002057 0.026963 0.005603 0.000000 0.000000 0.000000
# 3 -0.010131 0.005603 0.026669 0.000000 0.000000 0.000000
# 4 0.000000 0.000000 0.000000 0.081537 0.000000 0.000000
# 5 0.000000 0.000000 0.000000 0.000000 0.034647 0.000000
# 6 0.000000 0.000000 0.000000 0.000000 0.000000 0.070320
#
#
# Mechanical properties :
#
#
# Convention : Reuss Voigt Hill
#
# Bulk Modulus (GPa) = 20.24844 48.41379 34.33111
# Shear Modulus (GPa) = 17.94101 26.90365 22.42233
#
# Velocity S-wave (km/s) = 2.98383 3.65390 3.33573
# Velocity P-wave (km/s) = 4.68181 6.46736 5.64562
#
# Compressibility (1/GPa) = 0.04938653
#
# Stress axis : x y z
#
# Youngs Moduli (GPa) = 112.06235 37.08738 37.49730
#
# Poissons Ratio (x) = 0.07628 0.37990
# Poissons Ratio (y) = 0.23047 -0.21012
# Poissons Ratio (z) = 1.13534 -0.20782
#
# Static dielectric constant tensor:
#      x y z
#    x 1.727760 0.000000 0.000000 
#    y 0.000000 1.773220 0.000000 
#    z 0.000000 0.000000 2.649860 
# 
# From -- ./inp_files/30775.got.cif
#   From: 2010.05.17/outbox.cif.g08.bks.cpg/sg59_16_cif.got.tgz:30775.got - 2010.06.03 14:40:33.
