data_PCOD9451452
_publ_section_title
;
Structure prediction by ZEFSAII (Michael W. Deem and Ramdas Pophale) SiO2 
 PCOD9451452
Probable space group: P M M N
;
_chemical_formula_sum "Si O2"
_cell_formula_units_Z 48
_cell_length_a 8.314776
_cell_length_b 18.576987
_cell_length_c 16.307114
_cell_angle_alpha 90.000000
_cell_angle_beta 90.000000
_cell_angle_gamma 90.000000
_cell_volume 2518.853669
_symmetry_space_group_name_H-M "P M M N"
_symmetry_group_IT_number 59
_space_group.IT_coordinate_system_code '2'
_symmetry_cell_setting 'orthorhombic'
loop_
_space_group_symop_operation_xyz
x,y,z
1/2-x,1/2-y,z
1/2+x,-y,-z
-x,1/2+y,-z
-x,-y,-z
1/2+x,1/2+y,-z
1/2-x,y,z
x,1/2-y,z
loop_
_atom_site_type_symbol
_atom_site_label
_atom_site_fract_x
_atom_site_fract_y
_atom_site_fract_z
Si Si1 0.443438 0.250000 0.098151
Si Si2 0.553390 0.886939 0.605170
Si Si3 0.558069 0.395051 0.016324
Si Si4 0.559256 0.524644 0.134136
Si Si5 0.940831 0.462229 0.681635
Si Si6 0.056399 0.332538 0.573546
Si Si7 0.054050 0.250000 0.287069
O O1 0.250000 0.250000 0.097244
O O2 0.508856 0.319318 0.052233
O O3 0.497420 0.250000 0.192928
O O4 0.750000 0.887981 0.605777
O O5 0.500994 0.865227 0.513771
O O6 0.502794 0.822449 0.665911
O O7 0.497940 0.965433 0.635392
O O8 0.750000 0.401685 0.008286
O O9 0.502351 0.454916 0.082544
O O10 0.480827 0.410947 0.928225
O O11 0.750000 0.519318 0.146137
O O12 0.479435 0.531028 0.222344
O O13 0.750000 0.460251 0.670477
O O14 0.009886 0.389189 0.643288
O O15 0.250000 0.329175 0.570043
O O16 0.998459 0.250000 0.584340
O O17 0.250000 0.250000 0.288570
#
# Coordination Sequence:
#
# PCOD9451452 Si02
#       7
#     4   8   8   8   8   8   4
#     4  11  21  33  55  88 121 154 189 227 278 347
#     4   9  17  32  55  83 113 148 189 234 282 335
#     4  10  21  38  60  84 116 151 187 237 290 338
#     4  10  21  39  61  84 112 149 193 237 286 344
#     4  11  22  35  56  86 117 148 188 237 289 347
#     4  10  20  37  59  80 109 151 197 240 282 334
#     4   9  16  29  53  84 115 146 187 233 276 329
#
# _framework density 19.056287999999999
#
# number of rings (size 3 to 8) (size 9 to 14) (size 15 to 20)
#    0.000    2.000    0.833    3.250    0.000    3.667 
#    1.500    0.833    0.000    2.000    0.000    0.000 
#    0.000    0.000    0.000    0.000    0.000    0.000 
#
# Total GULP energy -268036.832246 kJ/mol
# GULP energy per Si atom -5584.100672 kJ/mol
# Density = 1.901292 g / cm^3
# Si number density = 19.056288 Si / 1000 Ang^3
#
#
#
# Elastic Constant Matrix: (Units=GPa)
#
#
# Indices 1 2 3 4 5 6 
#
# 1 8.5913 7.8795 -0.1483 0.0000 0.0000 0.0000
# 2 7.8795 135.5877 83.6482 0.0000 0.0000 0.0000
# 3 -0.1483 83.6482 93.6267 0.0000 0.0000 0.0000
# 4 0.0000 0.0000 0.0000 27.1062 0.0000 0.0000
# 5 0.0000 0.0000 0.0000 0.0000 16.0837 0.0000
# 6 0.0000 0.0000 0.0000 0.0000 0.0000 13.6457
#
#
#
# Elastic Compliance Matrix: (Units=1/GPa)
#
#
# Indices 1 2 3 4 5 6 
#
# 1 0.132693 -0.017470 0.015818 0.000000 0.000000 0.000000
# 2 -0.017470 0.018733 -0.016764 0.000000 0.000000 0.000000
# 3 0.015818 -0.016764 0.025683 0.000000 0.000000 0.000000
# 4 0.000000 0.000000 0.000000 0.036892 0.000000 0.000000
# 5 0.000000 0.000000 0.000000 0.000000 0.062175 0.000000
# 6 0.000000 0.000000 0.000000 0.000000 0.000000 0.073283
#
#
# Mechanical properties :
#
#
# Convention : Reuss Voigt Hill
#
# Bulk Modulus (GPa) = 7.12874 46.72939 26.92906
# Shear Modulus (GPa) = 11.54604 21.12887 16.33746
#
# Velocity S-wave (km/s) = 2.46416 3.33342 2.93119
# Velocity P-wave (km/s) = 3.44167 6.27619 5.06141
#
# Compressibility (1/GPa) = 0.14027724
#
# Stress axis : x y z
#
# Youngs Moduli (GPa) = 7.53620 53.38252 38.93619
#
# Poissons Ratio (x) = 0.93259 -0.61590
# Poissons Ratio (y) = 0.13166 0.65272
# Poissons Ratio (z) = -0.11921 0.89490
#
# Static dielectric constant tensor:
#      x y z
#    x 1.662760 0.000000 0.000000 
#    y 0.000000 1.646480 0.000000 
#    z 0.000000 0.000000 1.630560 
# 
# From -- ./inp_files/20491.got.cif
#   From: 2010.05.17/outbox.cif.g08.bks.cpg/sg59_11_cif.got.tgz:20491.got - 2010.06.03 14:40:33.
