data_PCOD9451583
_publ_section_title
;
Structure prediction by ZEFSAII (Michael W. Deem and Ramdas Pophale) SiO2 
 PCOD9451583
Probable space group: P M M N
;
_chemical_formula_sum "Si O2"
_cell_formula_units_Z 48
_cell_length_a 23.677790
_cell_length_b 13.853933
_cell_length_c 7.735877
_cell_angle_alpha 90.000000
_cell_angle_beta 90.000000
_cell_angle_gamma 90.000000
_cell_volume 2537.603726
_symmetry_space_group_name_H-M "P M M N"
_symmetry_group_IT_number 59
_space_group.IT_coordinate_system_code '2'
_symmetry_cell_setting 'orthorhombic'
loop_
_space_group_symop_operation_xyz
x,y,z
1/2-x,1/2-y,z
1/2+x,-y,-z
-x,1/2+y,-z
-x,-y,-z
1/2+x,1/2+y,-z
1/2-x,y,z
x,1/2-y,z
loop_
_atom_site_type_symbol
_atom_site_label
_atom_site_fract_x
_atom_site_fract_y
_atom_site_fract_z
Si Si1 0.586624 0.857399 0.768940
Si Si2 0.140644 0.864022 0.596612
Si Si3 0.686167 0.008655 0.121441
Si Si4 0.904637 0.641147 0.176977
Si Si5 0.317713 0.996478 0.284719
Si Si6 0.024286 0.529118 0.682652
O O1 0.580097 0.750000 0.694682
O O2 0.527670 0.914447 0.766152
O O3 0.638823 0.914776 0.683616
O O4 0.599625 0.848976 0.971196
O O5 0.140104 0.750000 0.574713
O O6 0.178396 0.898160 0.758868
O O7 0.163468 0.915631 0.422551
O O8 0.078594 0.903681 0.649329
O O9 0.750000 0.975369 0.119260
O O10 0.649764 0.924966 0.214388
O O11 0.671271 0.028513 0.919379
O O12 0.907580 0.750000 0.249607
O O13 0.955949 0.569691 0.225036
O O14 0.250000 0.015620 0.303008
O O15 0.000000 0.500000 0.500000
#
# Coordination Sequence:
#
# PCOD9451583 Si02
#       6
#     8   8   8   8   8   8
#     4  10  20  38  60  85 115 150 191 236 288 345
#     4  11  23  39  59  85 115 153 197 238 287 342
#     4   9  20  38  59  84 118 153 192 240 290 342
#     4   9  20  36  59  86 114 150 191 236 288 345
#     4  10  21  39  60  86 117 151 192 240 288 341
#     4  11  21  38  58  82 118 151 188 237 287 342
#
# _framework density 18.915482000000001
#
# number of rings (size 3 to 8) (size 9 to 14) (size 15 to 20)
#    0.000    2.000    1.667    1.500    0.000    4.000 
#    0.000    5.000    0.000    2.000    0.000    0.000 
#    0.000    0.000    0.000    0.000    0.000    0.000 
#
# Total GULP energy -267337.152942 kJ/mol
# GULP energy per Si atom -5569.524020 kJ/mol
# Density = 1.887243 g / cm^3
# Si number density = 18.915482 Si / 1000 Ang^3
#
#
#
# Elastic Constant Matrix: (Units=GPa)
#
#
# Indices 1 2 3 4 5 6 
#
# 1 93.4116 56.4894 11.8609 0.0000 0.0000 0.0000
# 2 56.4894 154.8640 34.8014 0.0000 0.0000 0.0000
# 3 11.8609 34.8014 53.8226 0.0000 0.0000 0.0000
# 4 0.0000 0.0000 0.0000 24.6502 0.0000 0.0000
# 5 0.0000 0.0000 0.0000 0.0000 26.7426 0.0000
# 6 0.0000 0.0000 0.0000 0.0000 0.0000 10.7861
#
#
#
# Elastic Compliance Matrix: (Units=1/GPa)
#
#
# Indices 1 2 3 4 5 6 
#
# 1 0.013738 -0.005067 0.000249 0.000000 0.000000 0.000000
# 2 -0.005067 0.009424 -0.004977 0.000000 0.000000 0.000000
# 3 0.000249 -0.004977 0.021743 0.000000 0.000000 0.000000
# 4 0.000000 0.000000 0.000000 0.040568 0.000000 0.000000
# 5 0.000000 0.000000 0.000000 0.000000 0.037393 0.000000
# 6 0.000000 0.000000 0.000000 0.000000 0.000000 0.092712
#
#
# Mechanical properties :
#
#
# Convention : Reuss Voigt Hill
#
# Bulk Modulus (GPa) = 39.50293 56.48909 47.99601
# Shear Modulus (GPa) = 20.52494 25.69888 23.11191
#
# Velocity S-wave (km/s) = 3.29764 3.68994 3.49929
# Velocity P-wave (km/s) = 5.95218 6.93419 6.46187
#
# Compressibility (1/GPa) = 0.02531458
#
# Stress axis : x y z
#
# Youngs Moduli (GPa) = 72.79092 106.11186 45.99243
#
# Poissons Ratio (x) = 0.53768 -0.01145
# Poissons Ratio (y) = 0.36884 0.22890
# Poissons Ratio (z) = -0.01812 0.52811
#
# Static dielectric constant tensor:
#      x y z
#    x 1.581070 0.000000 0.000000 
#    y 0.000000 1.679720 0.000000 
#    z 0.000000 0.000000 1.622100 
# 
# From -- ./inp_files/12026.got.cif
#   From: 2010.05.17/outbox.cif.g08.bks.cpg/sg59_7_cif.got.tgz:12026.got - 2010.06.03 14:40:33.
