data_PCOD9451473
_publ_section_title
;
Structure prediction by ZEFSAII (Michael W. Deem and Ramdas Pophale) SiO2 
 PCOD9451473
Probable space group: P M M N
;
_chemical_formula_sum "Si O2"
_cell_formula_units_Z 48
_cell_length_a 31.868147
_cell_length_b 8.111439
_cell_length_c 9.232818
_cell_angle_alpha 90.000000
_cell_angle_beta 90.000000
_cell_angle_gamma 90.000000
_cell_volume 2386.651419
_symmetry_space_group_name_H-M "P M M N"
_symmetry_group_IT_number 59
_space_group.IT_coordinate_system_code '2'
_symmetry_cell_setting 'orthorhombic'
loop_
_space_group_symop_operation_xyz
x,y,z
1/2-x,1/2-y,z
1/2+x,-y,-z
-x,1/2+y,-z
-x,-y,-z
1/2+x,1/2+y,-z
1/2-x,y,z
x,1/2-y,z
loop_
_atom_site_type_symbol
_atom_site_label
_atom_site_fract_x
_atom_site_fract_y
_atom_site_fract_z
Si Si1 0.333435 0.949129 0.836775
Si Si2 0.082844 0.548040 0.334657
Si Si3 0.750000 0.947360 0.331549
Si Si4 0.833382 0.448949 0.831557
Si Si5 0.084152 0.551471 0.667166
Si Si6 0.499515 0.447121 0.833236
Si Si7 0.250000 0.052878 0.337238
O O1 0.335625 0.750000 0.841558
O O2 0.374611 0.009549 0.751587
O O3 0.291419 0.995687 0.752359
O O4 0.332622 0.008999 0.002623
O O5 0.082788 0.750000 0.334669
O O6 0.124960 0.494093 0.252389
O O7 0.082685 0.492450 0.501306
O O8 0.041212 0.493079 0.250151
O O9 0.750000 0.750000 0.335226
O O10 0.750000 0.009980 0.497203
O O11 0.835081 0.250000 0.835868
O O12 0.791512 0.496868 0.746750
O O13 0.086958 0.750000 0.661970
O O14 0.042175 0.507182 0.752895
O O15 0.499990 0.250000 0.828182
O O16 0.500000 0.500000 0.000000
O O17 0.250000 0.250000 0.341704
#
# Coordination Sequence:
#
# PCOD9451473 Si02
#       7
#     8   8   4   8   8   8   4
#     4  10  21  37  60  86 112 144 186 230 277 333
#     4   9  19  36  59  84 111 144 185 229 274 325
#     4  11  24  39  56  80 114 149 186 231 278 328
#     4  10  20  37  60  84 108 142 186 228 270 327
#     4  10  20  37  60  85 112 145 184 229 278 331
#     4  11  22  37  57  83 115 150 187 230 277 329
#     4  11  24  39  54  80 114 147 182 227 280 330
#
# _framework density 20.111858999999999
#
# number of rings (size 3 to 8) (size 9 to 14) (size 15 to 20)
#    0.000    1.833    0.000    4.000    0.000    8.667 
#    0.000    5.000    0.000    0.000    0.000    0.000 
#    0.000    0.000    0.000    0.000    0.000    0.000 
#
# Total GULP energy -268325.456359 kJ/mol
# GULP energy per Si atom -5590.113674 kJ/mol
# Density = 2.006608 g / cm^3
# Si number density = 20.111859 Si / 1000 Ang^3
#
#
#
# Elastic Constant Matrix: (Units=GPa)
#
#
# Indices 1 2 3 4 5 6 
#
# 1 242.2809 6.0378 151.3765 0.0000 0.0000 0.0000
# 2 6.0378 9.3732 13.7139 0.0000 0.0000 0.0000
# 3 151.3765 13.7139 254.1906 0.0000 0.0000 0.0000
# 4 0.0000 0.0000 0.0000 23.2334 0.0000 0.0000
# 5 0.0000 0.0000 0.0000 0.0000 45.6856 0.0000
# 6 0.0000 0.0000 0.0000 0.0000 0.0000 23.6995
#
#
#
# Elastic Compliance Matrix: (Units=1/GPa)
#
#
# Indices 1 2 3 4 5 6 
#
# 1 0.006596 0.001627 -0.004016 0.000000 0.000000 0.000000
# 2 0.001627 0.116231 -0.007240 0.000000 0.000000 0.000000
# 3 -0.004016 -0.007240 0.006716 0.000000 0.000000 0.000000
# 4 0.000000 0.000000 0.000000 0.043041 0.000000 0.000000
# 5 0.000000 0.000000 0.000000 0.000000 0.021889 0.000000
# 6 0.000000 0.000000 0.000000 0.000000 0.000000 0.042195
#
#
# Mechanical properties :
#
#
# Convention : Reuss Voigt Hill
#
# Bulk Modulus (GPa) = 9.06736 94.23346 51.65041
# Shear Modulus (GPa) = 17.08307 40.83813 28.96060
#
# Velocity S-wave (km/s) = 2.91761 4.51105 3.79882
# Velocity P-wave (km/s) = 3.98349 8.60751 6.70662
#
# Compressibility (1/GPa) = 0.11028568
#
# Stress axis : x y z
#
# Youngs Moduli (GPa) = 151.60753 8.60357 148.89471
#
# Poissons Ratio (x) = -0.01400 0.59793
# Poissons Ratio (y) = -0.24662 1.07793
# Poissons Ratio (z) = 0.60883 0.06229
#
# Static dielectric constant tensor:
#      x y z
#    x 1.659650 0.000000 0.000000 
#    y 0.000000 1.723370 0.000000 
#    z 0.000000 0.000000 1.683280 
# 
# From -- ./inp_files/6385.got.cif
#   From: 2010.05.17/outbox.cif.g08.bks.cpg/sg59_4_cif.got.tgz:6385.got - 2010.06.03 14:40:33.
