data_PCOD9451520
_publ_section_title
;
Structure prediction by ZEFSAII (Michael W. Deem and Ramdas Pophale) SiO2 
 PCOD9451520
Probable space group: P M M N
;
_chemical_formula_sum "Si O2"
_cell_formula_units_Z 64
_cell_length_a 9.114522
_cell_length_b 22.846924
_cell_length_c 16.874850
_cell_angle_alpha 90.000000
_cell_angle_beta 90.000000
_cell_angle_gamma 90.000000
_cell_volume 3513.998370
_symmetry_space_group_name_H-M "P M M N"
_symmetry_group_IT_number 59
_space_group.IT_coordinate_system_code '2'
_symmetry_cell_setting 'orthorhombic'
loop_
_space_group_symop_operation_xyz
x,y,z
1/2-x,1/2-y,z
1/2+x,-y,-z
-x,1/2+y,-z
-x,-y,-z
1/2+x,1/2+y,-z
1/2-x,y,z
x,1/2-y,z
loop_
_atom_site_type_symbol
_atom_site_label
_atom_site_fract_x
_atom_site_fract_y
_atom_site_fract_z
Si Si1 0.574516 0.025525 0.377561
Si Si2 0.572950 0.423508 0.205519
Si Si3 0.420975 0.853495 0.053210
Si Si4 0.921071 0.489450 0.916973
Si Si5 0.073834 0.180514 0.110785
Si Si6 0.576111 0.417600 0.545163
Si Si7 0.914181 0.317649 0.778779
Si Si8 0.917835 0.679660 0.373011
O O1 0.750000 0.016107 0.376796
O O2 0.536712 0.058337 0.295883
O O3 0.537446 0.063372 0.455714
O O4 0.496104 0.963825 0.393979
O O5 0.750000 0.420864 0.196777
O O6 0.506698 0.474415 0.149513
O O7 0.502787 0.362608 0.174489
O O8 0.250000 0.840226 0.033881
O O9 0.426690 0.919431 0.086781
O O10 0.467058 0.818420 0.131023
O O11 0.515226 0.840836 0.975419
O O12 0.750000 0.507585 0.917872
O O13 0.000000 0.500000 0.000000
O O14 0.250000 0.173890 0.114547
O O15 0.039554 0.250000 0.120387
O O16 0.750000 0.420450 0.553761
O O17 0.517961 0.353480 0.564459
O O18 0.750000 0.344718 0.775173
O O19 0.897536 0.250000 0.757199
O O20 0.024554 0.340921 0.713304
O O21 0.750000 0.662025 0.383626
O O22 0.925315 0.750000 0.379571
#
# Coordination Sequence:
#
# PCOD9451520 Si02
#       8
#     8   8   8   8   8   8   8   8
#     4   9  21  40  61  88 117 145 183 231 282 340
#     4  11  23  40  61  85 115 151 189 231 282 336
#     4  10  21  36  56  81 110 148 191 232 279 334
#     4  11  22  36  55  83 117 149 185 229 278 329
#     4  11  24  40  59  83 112 148 192 241 288 334
#     4  10  20  37  62  88 115 147 184 228 281 340
#     4   9  18  33  52  77 109 144 187 233 273 324
#     4  10  21  36  54  80 116 154 190 231 280 335
#
# _framework density 18.212871
#
# number of rings (size 3 to 8) (size 9 to 14) (size 15 to 20)
#    0.000    1.875    1.250    2.250    1.750    4.750 
#    0.000    1.875    0.000    3.750    0.000    0.000 
#    0.000    0.000    0.000    0.000    0.000    0.000 
#
# Total GULP energy -356868.904322 kJ/mol
# GULP energy per Si atom -5576.076630 kJ/mol
# Density = 1.817142 g / cm^3
# Si number density = 18.212871 Si / 1000 Ang^3
#
#
#
# Elastic Constant Matrix: (Units=GPa)
#
#
# Indices 1 2 3 4 5 6 
#
# 1 64.1240 42.7609 50.0389 0.0000 0.0000 0.0000
# 2 42.7609 74.4596 53.2431 0.0000 0.0000 0.0000
# 3 50.0389 53.2431 105.4549 0.0000 0.0000 0.0000
# 4 0.0000 0.0000 0.0000 23.4802 0.0000 0.0000
# 5 0.0000 0.0000 0.0000 0.0000 26.1548 0.0000
# 6 0.0000 0.0000 0.0000 0.0000 0.0000 30.2722
#
#
#
# Elastic Compliance Matrix: (Units=1/GPa)
#
#
# Indices 1 2 3 4 5 6 
#
# 1 0.029459 -0.010833 -0.008509 0.000000 0.000000 0.000000
# 2 -0.010833 0.025002 -0.007483 0.000000 0.000000 0.000000
# 3 -0.008509 -0.007483 0.017298 0.000000 0.000000 0.000000
# 4 0.000000 0.000000 0.000000 0.042589 0.000000 0.000000
# 5 0.000000 0.000000 0.000000 0.000000 0.038234 0.000000
# 6 0.000000 0.000000 0.000000 0.000000 0.000000 0.033034
#
#
# Mechanical properties :
#
#
# Convention : Reuss Voigt Hill
#
# Bulk Modulus (GPa) = 55.22041 59.56936 57.39489
# Shear Modulus (GPa) = 20.38305 22.51448 21.44877
#
# Velocity S-wave (km/s) = 3.34901 3.51976 3.43544
# Velocity P-wave (km/s) = 6.73348 7.02115 6.87882
#
# Compressibility (1/GPa) = 0.01810925
#
# Stress axis : x y z
#
# Youngs Moduli (GPa) = 33.94587 39.99640 57.80975
#
# Poissons Ratio (x) = 0.43330 0.49188
# Poissons Ratio (y) = 0.36775 0.43258
# Poissons Ratio (z) = 0.28883 0.29929
#
# Static dielectric constant tensor:
#      x y z
#    x 1.631070 0.000000 0.000000 
#    y 0.000000 1.632550 0.000000 
#    z 0.000000 0.000000 1.622510 
# 
# From -- ./inp_files/21453.got.cif
#   From: 2010.05.17/outbox.cif.g08.bks.cpg/sg59_11_cif.got.tgz:21453.got - 2010.06.03 14:40:33.
