data_PCOD9451837
_publ_section_title
;
Structure prediction by ZEFSAII (Michael W. Deem and Ramdas Pophale) SiO2 
 PCOD9451837
Probable space group: P M M N
;
_chemical_formula_sum "Si O2"
_cell_formula_units_Z 64
_cell_length_a 9.110735
_cell_length_b 14.162319
_cell_length_c 24.544231
_cell_angle_alpha 90.000000
_cell_angle_beta 90.000000
_cell_angle_gamma 90.000000
_cell_volume 3166.920905
_symmetry_space_group_name_H-M "P M M N"
_symmetry_group_IT_number 59
_space_group.IT_coordinate_system_code '2'
_symmetry_cell_setting 'orthorhombic'
loop_
_space_group_symop_operation_xyz
x,y,z
1/2-x,1/2-y,z
1/2+x,-y,-z
-x,1/2+y,-z
-x,-y,-z
1/2+x,1/2+y,-z
1/2-x,y,z
x,1/2-y,z
loop_
_atom_site_type_symbol
_atom_site_label
_atom_site_fract_x
_atom_site_fract_y
_atom_site_fract_z
Si Si1 0.081030 0.135142 0.075698
Si Si2 0.071547 0.143360 0.196700
Si Si3 0.919018 0.864206 0.143605
Si Si4 0.926204 0.357265 0.415831
Si Si5 0.573342 0.956908 0.358727
Si Si6 0.919123 0.863441 0.472325
Si Si7 0.074292 0.548618 0.248013
Si Si8 0.419376 0.634763 0.033364
O O1 0.250000 0.104129 0.071137
O O2 0.083144 0.250000 0.074791
O O3 0.022220 0.112719 0.135958
O O4 0.990622 0.103354 0.023470
O O5 0.250000 0.146679 0.193764
O O6 0.020720 0.250000 0.208709
O O7 0.032774 0.061588 0.238467
O O8 0.750000 0.895769 0.146587
O O9 0.919538 0.750000 0.142847
O O10 0.008660 0.897577 0.196130
O O11 0.993786 0.896374 0.087159
O O12 0.750000 0.356467 0.419139
O O13 0.977216 0.250000 0.404955
O O14 0.967057 0.433953 0.370720
O O15 0.987841 0.388907 0.474507
O O16 0.750000 0.949126 0.352467
O O17 0.531191 0.903637 0.414402
O O18 0.494766 0.919961 0.304976
O O19 0.750000 0.894005 0.480471
O O20 0.921843 0.750000 0.468932
O O21 0.250000 0.557191 0.248561
O O22 0.250000 0.607713 0.036775
O O23 0.425079 0.750000 0.033065
#
# Coordination Sequence:
#
# PCOD9451837 Si02
#       8
#     8   8   8   8   8   8   8   8
#     4   8  13  25  48  74  99 131 170 208 254 319
#     4   8  16  33  55  77 104 139 176 217 267 319
#     4  10  21  38  58  76 100 139 180 217 265 325
#     4   9  18  33  54  80 109 139 171 211 259 307
#     4  10  21  36  52  73 106 144 177 211 256 312
#     4   9  18  33  54  79 105 134 170 211 255 307
#     4  11  23  37  55  80 107 137 181 231 268 304
#     4   9  16  27  47  77 108 132 162 212 268 318
#
# _framework density 20.208902999999999
#
# number of rings (size 3 to 8) (size 9 to 14) (size 15 to 20)
#    0.000    2.750    0.000    2.250    0.000    4.250 
#    0.000    3.125    0.000    2.625    0.000    0.000 
#    0.000    0.000    0.000    0.000    0.000    0.000 
#
# Total GULP energy -357265.004867 kJ/mol
# GULP energy per Si atom -5582.265701 kJ/mol
# Density = 2.016291 g / cm^3
# Si number density = 20.208903 Si / 1000 Ang^3
#
#
#
# Elastic Constant Matrix: (Units=GPa)
#
#
# Indices 1 2 3 4 5 6 
#
# 1 52.5773 1.1470 32.6576 0.0000 0.0000 0.0000
# 2 1.1470 25.3149 -0.7789 0.0000 0.0000 0.0000
# 3 32.6576 -0.7789 97.5373 0.0000 0.0000 0.0000
# 4 0.0000 0.0000 0.0000 24.0686 0.0000 0.0000
# 5 0.0000 0.0000 0.0000 0.0000 10.3981 0.0000
# 6 0.0000 0.0000 0.0000 0.0000 0.0000 13.0044
#
#
#
# Elastic Compliance Matrix: (Units=1/GPa)
#
#
# Indices 1 2 3 4 5 6 
#
# 1 0.024059 -0.001338 -0.008066 0.000000 0.000000 0.000000
# 2 -0.001338 0.039587 0.000764 0.000000 0.000000 0.000000
# 3 -0.008066 0.000764 0.012959 0.000000 0.000000 0.000000
# 4 0.000000 0.000000 0.000000 0.041548 0.000000 0.000000
# 5 0.000000 0.000000 0.000000 0.000000 0.096171 0.000000
# 6 0.000000 0.000000 0.000000 0.000000 0.000000 0.076897
#
#
# Mechanical properties :
#
#
# Convention : Reuss Voigt Hill
#
# Bulk Modulus (GPa) = 16.85645 26.83120 21.84383
# Shear Modulus (GPa) = 15.23107 18.98781 17.10944
#
# Velocity S-wave (km/s) = 2.74830 3.06858 2.91285
# Velocity P-wave (km/s) = 4.29303 5.08533 4.70589
#
# Compressibility (1/GPa) = 0.05932447
#
# Stress axis : x y z
#
# Youngs Moduli (GPa) = 41.56453 25.26104 77.16455
#
# Poissons Ratio (x) = 0.03381 0.62242
# Poissons Ratio (y) = 0.05563 -0.05897
# Poissons Ratio (z) = 0.33527 -0.01931
#
# Static dielectric constant tensor:
#      x y z
#    x 1.745570 0.000000 0.000000 
#    y 0.000000 1.779150 0.000000 
#    z 0.000000 0.000000 1.674910 
# 
# From -- ./inp_files/31433.got.cif
#   From: 2010.05.17/outbox.cif.g08.bks.cpg/sg59_16_cif.got.tgz:31433.got - 2010.06.03 14:40:33.
