data_PCOD9451993
_publ_section_title
;
Structure prediction by ZEFSAII (Michael W. Deem and Ramdas Pophale) SiO2 
 PCOD9451993
Probable space group: P M M N
;
_chemical_formula_sum "Si O2"
_cell_formula_units_Z 40
_cell_length_a 14.017721
_cell_length_b 9.988206
_cell_length_c 13.017026
_cell_angle_alpha 90.000000
_cell_angle_beta 90.000000
_cell_angle_gamma 90.000000
_cell_volume 1822.538347
_symmetry_space_group_name_H-M "P M M N"
_symmetry_group_IT_number 59
_space_group.IT_coordinate_system_code '2'
_symmetry_cell_setting 'orthorhombic'
loop_
_space_group_symop_operation_xyz
x,y,z
1/2-x,1/2-y,z
1/2+x,-y,-z
-x,1/2+y,-z
-x,-y,-z
1/2+x,1/2+y,-z
1/2-x,y,z
x,1/2-y,z
loop_
_atom_site_type_symbol
_atom_site_label
_atom_site_fract_x
_atom_site_fract_y
_atom_site_fract_z
Si Si1 0.009261 0.250000 0.345843
Si Si2 0.860895 0.455982 0.821991
Si Si3 0.639910 0.750000 0.900225
Si Si4 0.138182 0.542834 0.628892
Si Si5 0.862471 0.002131 0.597651
Si Si6 0.637422 0.750000 0.291094
Si Si7 0.997755 0.750000 0.093491
O O1 0.077675 0.368112 0.393131
O O2 0.932665 0.133283 0.307192
O O3 0.750000 0.426953 0.846812
O O4 0.872946 0.616659 0.832609
O O5 0.878247 0.417907 0.703402
O O6 0.933048 0.377717 0.894276
O O7 0.750000 0.750000 0.937477
O O8 0.564654 0.750000 0.991275
O O9 0.250000 0.568228 0.649228
O O10 0.118100 0.576809 0.509044
O O11 0.119768 0.386081 0.646455
O O12 0.750000 0.968235 0.595851
O O13 0.750000 0.750000 0.264081
O O14 0.574570 0.750000 0.189106
#
# Coordination Sequence:
#
# PCOD9451993 Si02
#       7
#     4   8   4   8   8   4   4
#     4  12  20  32  55  83 108 145 195 237 270 319
#     4  10  22  39  60  87 116 145 182 230 286 341
#     4  10  22  41  62  84 112 146 182 226 285 348
#     4  10  22  38  55  79 115 155 194 235 277 323
#     4  10  21  36  55  82 117 152 184 228 286 338
#     4  10  22  39  56  79 115 159 197 227 272 334
#     4  12  22  38  61  88 113 146 188 236 277 327
#
# _framework density 21.947413000000001
#
# number of rings (size 3 to 8) (size 9 to 14) (size 15 to 20)
#    0.000    1.600    0.000    4.800    0.000    5.600 
#    0.000    3.000    0.000    0.000    0.000   14.000 
#    0.000    0.000    0.000    0.000    0.000    0.000 
#
# Total GULP energy -222673.431210 kJ/mol
# GULP energy per Si atom -5566.835780 kJ/mol
# Density = 2.189746 g / cm^3
# Si number density = 21.947413 Si / 1000 Ang^3
#
#
#
# Elastic Constant Matrix: (Units=GPa)
#
#
# Indices 1 2 3 4 5 6 
#
# 1 99.3015 24.1413 29.5896 0.0000 0.0000 0.0000
# 2 24.1413 102.6934 -3.8130 0.0000 0.0000 0.0000
# 3 29.5896 -3.8130 69.7618 0.0000 0.0000 0.0000
# 4 0.0000 0.0000 0.0000 -52.9783 0.0000 0.0000
# 5 0.0000 0.0000 0.0000 0.0000 33.3333 0.0000
# 6 0.0000 0.0000 0.0000 0.0000 0.0000 39.6676
#
#
#
# Elastic Compliance Matrix: (Units=1/GPa)
#
#
# Indices 1 2 3 4 5 6 
#
# 1 0.012457 -0.003131 -0.005455 0.000000 0.000000 0.000000
# 2 -0.003131 0.010544 0.001904 0.000000 0.000000 0.000000
# 3 -0.005455 0.001904 0.016752 0.000000 0.000000 0.000000
# 4 0.000000 0.000000 0.000000 -0.018876 0.000000 0.000000
# 5 0.000000 0.000000 0.000000 0.000000 0.030000 0.000000
# 6 0.000000 0.000000 0.000000 0.000000 0.000000 0.025209
#
#
# Mechanical properties :
#
#
# Convention : Reuss Voigt Hill
#
# Bulk Modulus (GPa) = 37.89191 41.28807 39.58999
# Shear Modulus (GPa) = 50.89214 18.79378 34.84296
#
# Velocity S-wave (km/s) = 4.82064 2.92945 3.98875
# Velocity P-wave (km/s) = 6.94889 5.50412 6.26827
#
# Compressibility (1/GPa) = 0.02639086
#
# Stress axis : x y z
#
# Youngs Moduli (GPa) = 80.27688 94.83664 59.69365
#
# Poissons Ratio (x) = 0.29693 0.32561
# Poissons Ratio (y) = 0.25134 -0.11368
# Poissons Ratio (z) = 0.43789 -0.18060
#
# Static dielectric constant tensor:
#      x y z
#    x 1.849390 0.000000 0.000000 
#    y 0.000000 1.811140 0.000000 
#    z 0.000000 0.000000 1.851890 
# 
# From -- ./inp_files/23044.got.cif
#   From: 2010.05.17/outbox.cif.g08.bks.cpg/sg59_12_cif.got.tgz:23044.got - 2010.06.03 14:40:33.
