data_PCOD9451573
_publ_section_title
;
Structure prediction by ZEFSAII (Michael W. Deem and Ramdas Pophale) SiO2 
 PCOD9451573
Probable space group: P M M N
;
_chemical_formula_sum "Si O2"
_cell_formula_units_Z 64
_cell_length_a 8.510954
_cell_length_b 26.183764
_cell_length_c 14.842847
_cell_angle_alpha 90.000000
_cell_angle_beta 90.000000
_cell_angle_gamma 90.000000
_cell_volume 3307.710805
_symmetry_space_group_name_H-M "P M M N"
_symmetry_group_IT_number 59
_space_group.IT_coordinate_system_code '2'
_symmetry_cell_setting 'orthorhombic'
loop_
_space_group_symop_operation_xyz
x,y,z
1/2-x,1/2-y,z
1/2+x,-y,-z
-x,1/2+y,-z
-x,-y,-z
1/2+x,1/2+y,-z
1/2-x,y,z
x,1/2-y,z
loop_
_atom_site_type_symbol
_atom_site_label
_atom_site_fract_x
_atom_site_fract_y
_atom_site_fract_z
Si Si1 0.939978 0.600187 0.089099
Si Si2 0.058238 0.494639 0.787880
Si Si3 0.059860 0.807894 0.761471
Si Si4 0.437179 0.521797 0.593471
Si Si5 0.939760 0.808639 0.216745
Si Si6 0.435816 0.135658 0.411364
Si Si7 0.937179 0.310174 0.585966
Si Si8 0.439629 0.901130 0.886284
O O1 0.750000 0.599139 0.085869
O O2 0.992911 0.552431 0.150333
O O3 0.988602 0.652172 0.139433
O O4 0.002650 0.597013 0.988302
O O5 0.250000 0.494116 0.787250
O O6 0.005988 0.492967 0.683893
O O7 0.008788 0.548334 0.832125
O O8 0.250000 0.808937 0.758482
O O9 0.010430 0.750000 0.782237
O O10 0.007600 0.850042 0.834262
O O11 0.997781 0.825702 0.664587
O O12 0.500000 0.500000 0.500000
O O13 0.250000 0.517976 0.591481
O O14 0.484391 0.580856 0.602934
O O15 0.750000 0.810033 0.223185
O O16 0.987261 0.750000 0.198692
O O17 0.008110 0.824156 0.313627
O O18 0.250000 0.129927 0.403476
O O19 0.479971 0.157105 0.509303
O O20 0.750000 0.316010 0.577886
O O21 0.975725 0.250000 0.573552
O O22 0.250000 0.901183 0.886174
#
# Coordination Sequence:
#
# PCOD9451573 Si02
#       8
#     8   8   8   8   8   8   8   8
#     4  10  21  36  58  86 113 150 195 241 294 354
#     4   9  19  38  61  82 114 153 190 237 292 348
#     4  10  21  39  62  86 117 159 202 247 303 361
#     4  11  23  41  62  89 123 159 197 242 297 355
#     4   9  19  36  56  81 117 155 190 236 295 354
#     4  12  24  38  59  87 120 157 197 243 296 357
#     4  10  21  37  58  84 115 152 194 241 292 348
#     4  10  20  38  59  83 114 151 193 244 300 351
#
# _framework density 19.348728000000001
#
# number of rings (size 3 to 8) (size 9 to 14) (size 15 to 20)
#    0.000    1.875    1.250    2.625    1.750    4.000 
#    0.000    1.250    0.000    0.000    0.000    0.000 
#    0.000    0.000    0.000    0.000    0.000    0.000 
#
# Total GULP energy -357568.073290 kJ/mol
# GULP energy per Si atom -5587.001145 kJ/mol
# Density = 1.930469 g / cm^3
# Si number density = 19.348728 Si / 1000 Ang^3
#
#
#
# Elastic Constant Matrix: (Units=GPa)
#
#
# Indices 1 2 3 4 5 6 
#
# 1 15.8350 17.2230 19.5688 0.0000 0.0000 0.0000
# 2 17.2230 106.4620 76.3876 0.0000 0.0000 0.0000
# 3 19.5688 76.3876 160.4933 0.0000 0.0000 0.0000
# 4 0.0000 0.0000 0.0000 -23.6091 0.0000 0.0000
# 5 0.0000 0.0000 0.0000 0.0000 35.9465 0.0000
# 6 0.0000 0.0000 0.0000 0.0000 0.0000 2.9926
#
#
#
# Elastic Compliance Matrix: (Units=1/GPa)
#
#
# Indices 1 2 3 4 5 6 
#
# 1 0.079639 -0.008985 -0.005434 0.000000 0.000000 0.000000
# 2 -0.008985 0.015278 -0.006176 0.000000 0.000000 0.000000
# 3 -0.005434 -0.006176 0.009833 0.000000 0.000000 0.000000
# 4 0.000000 0.000000 0.000000 -0.042357 0.000000 0.000000
# 5 0.000000 0.000000 0.000000 0.000000 0.027819 0.000000
# 6 0.000000 0.000000 0.000000 0.000000 0.000000 0.334162
#
#
# Mechanical properties :
#
#
# Convention : Reuss Voigt Hill
#
# Bulk Modulus (GPa) = 15.73314 56.57211 36.15262
# Shear Modulus (GPa) = 10.27219 14.37338 12.32279
#
# Velocity S-wave (km/s) = 2.30662 2.72850 2.52638
# Velocity P-wave (km/s) = 3.90423 6.26322 5.21876
#
# Compressibility (1/GPa) = 0.06356011
#
# Stress axis : x y z
#
# Youngs Moduli (GPa) = 12.55668 65.45371 101.69937
#
# Poissons Ratio (x) = 0.58808 0.55263
# Poissons Ratio (y) = 0.11282 0.62811
# Poissons Ratio (z) = 0.06823 0.40425
#
# Static dielectric constant tensor:
#      x y z
#    x 1.667160 0.000000 0.000000 
#    y 0.000000 1.674810 0.000000 
#    z 0.000000 0.000000 1.632110 
# 
# From -- ./inp_files/21610.got.cif
#   From: 2010.05.17/outbox.cif.g08.bks.cpg/sg59_11_cif.got.tgz:21610.got - 2010.06.03 14:40:33.
