data_PCOD9451363
_publ_section_title
;
Structure prediction by ZEFSAII (Michael W. Deem and Ramdas Pophale) SiO2 
 PCOD9451363
Probable space group: P M M N
;
_chemical_formula_sum "Si O2"
_cell_formula_units_Z 64
_cell_length_a 8.896618
_cell_length_b 19.519774
_cell_length_c 20.607546
_cell_angle_alpha 90.000000
_cell_angle_beta 90.000000
_cell_angle_gamma 90.000000
_cell_volume 3578.705876
_symmetry_space_group_name_H-M "P M M N"
_symmetry_group_IT_number 59
_space_group.IT_coordinate_system_code '2'
_symmetry_cell_setting 'orthorhombic'
loop_
_space_group_symop_operation_xyz
x,y,z
1/2-x,1/2-y,z
1/2+x,-y,-z
-x,1/2+y,-z
-x,-y,-z
1/2+x,1/2+y,-z
1/2-x,y,z
x,1/2-y,z
loop_
_atom_site_type_symbol
_atom_site_label
_atom_site_fract_x
_atom_site_fract_y
_atom_site_fract_z
Si Si1 0.430482 0.921162 0.295725
Si Si2 0.570098 0.449164 0.851545
Si Si3 0.070828 0.574341 0.514403
Si Si4 0.570634 0.669458 0.404317
Si Si5 0.426145 0.829410 0.756448
Si Si6 0.929378 0.610195 0.878620
Si Si7 0.429554 0.426427 0.982051
Si Si8 0.928354 0.926433 0.651363
O O1 0.250000 0.911034 0.298647
O O2 0.475040 0.925195 0.220148
O O3 0.512743 0.863826 0.337494
O O4 0.461650 0.995189 0.328179
O O5 0.750000 0.442441 0.857390
O O6 0.537615 0.530602 0.859629
O O7 0.493475 0.409776 0.911298
O O8 0.250000 0.570220 0.509719
O O9 0.000000 0.500000 0.500000
O O10 0.008399 0.628036 0.462279
O O11 0.018262 0.592788 0.586793
O O12 0.750000 0.660658 0.409537
O O13 0.535777 0.750000 0.407367
O O14 0.250000 0.846166 0.749689
O O15 0.448080 0.750000 0.739635
O O16 0.479308 0.843028 0.829755
O O17 0.522890 0.877761 0.709960
O O18 0.750000 0.620080 0.869802
O O19 0.965280 0.619352 0.954842
O O20 0.250000 0.432805 0.979094
O O21 0.500000 0.500000 0.000000
O O22 0.750000 0.921379 0.639634
#
# Coordination Sequence:
#
# PCOD9451363 Si02
#       8
#     8   8   8   8   8   8   8   8
#     4  10  20  36  60  87 117 152 190 237 289 343
#     4   9  17  31  51  80 112 141 181 231 282 337
#     4  12  24  40  64  92 121 154 193 238 286 340
#     4  11  25  43  63  90 122 156 195 236 284 344
#     4  11  24  38  53  79 114 152 196 243 292 347
#     4   9  17  32  51  73 107 146 187 233 283 340
#     4   9  17  28  45  74 108 140 178 226 280 335
#     4  11  22  39  62  87 115 150 192 238 288 344
#
# _framework density 17.883559000000002
#
# number of rings (size 3 to 8) (size 9 to 14) (size 15 to 20)
#    0.000    1.750    2.500    3.375    0.000    6.000 
#    0.000    0.000    0.000    0.750    0.000    0.000 
#    0.000    0.000    0.000    0.000    0.000    0.000 
#
# Total GULP energy -357302.649358 kJ/mol
# GULP energy per Si atom -5582.853896 kJ/mol
# Density = 1.784286 g / cm^3
# Si number density = 17.883559 Si / 1000 Ang^3
#
#
#
# Elastic Constant Matrix: (Units=GPa)
#
#
# Indices 1 2 3 4 5 6 
#
# 1 66.7365 50.5054 52.8966 0.0000 0.0000 0.0000
# 2 50.5054 72.9472 43.0718 0.0000 0.0000 0.0000
# 3 52.8966 43.0718 144.4560 0.0000 0.0000 0.0000
# 4 0.0000 0.0000 0.0000 19.7703 0.0000 0.0000
# 5 0.0000 0.0000 0.0000 0.0000 37.2887 0.0000
# 6 0.0000 0.0000 0.0000 0.0000 0.0000 21.9535
#
#
#
# Elastic Compliance Matrix: (Units=1/GPa)
#
#
# Indices 1 2 3 4 5 6 
#
# 1 0.036637 -0.021172 -0.007103 0.000000 0.000000 0.000000
# 2 -0.021172 0.028872 -0.000856 0.000000 0.000000 0.000000
# 3 -0.007103 -0.000856 0.009779 0.000000 0.000000 0.000000
# 4 0.000000 0.000000 0.000000 0.050581 0.000000 0.000000
# 5 0.000000 0.000000 0.000000 0.000000 0.026818 0.000000
# 6 0.000000 0.000000 0.000000 0.000000 0.000000 0.045551
#
#
# Mechanical properties :
#
#
# Convention : Reuss Voigt Hill
#
# Bulk Modulus (GPa) = 58.73248 64.12080 61.42664
# Shear Modulus (GPa) = 19.07127 24.98022 22.02575
#
# Velocity S-wave (km/s) = 3.26914 3.74147 3.51325
# Velocity P-wave (km/s) = 6.86750 7.38899 7.13302
#
# Compressibility (1/GPa) = 0.01702635
#
# Stress axis : x y z
#
# Youngs Moduli (GPa) = 27.29501 34.63507 102.26291
#
# Poissons Ratio (x) = 0.73329 0.72636
# Poissons Ratio (y) = 0.57788 0.08755
# Poissons Ratio (z) = 0.19387 0.02965
#
# Static dielectric constant tensor:
#      x y z
#    x 1.596540 0.000000 0.000000 
#    y 0.000000 1.589010 0.000000 
#    z 0.000000 0.000000 1.639560 
# 
# From -- ./inp_files/29412.got.cif
#   From: 2010.05.17/outbox.cif.g08.bks.cpg/sg59_15_cif.got.tgz:29412.got - 2010.06.03 14:40:33.
