data_PCOD9451725
_publ_section_title
;
Structure prediction by ZEFSAII (Michael W. Deem and Ramdas Pophale) SiO2 
 PCOD9451725
Probable space group: P M M N
;
_chemical_formula_sum "Si O2"
_cell_formula_units_Z 48
_cell_length_a 13.023423
_cell_length_b 10.522840
_cell_length_c 17.722117
_cell_angle_alpha 90.000000
_cell_angle_beta 90.000000
_cell_angle_gamma 90.000000
_cell_volume 2428.699107
_symmetry_space_group_name_H-M "P M M N"
_symmetry_group_IT_number 59
_space_group.IT_coordinate_system_code '2'
_symmetry_cell_setting 'orthorhombic'
loop_
_space_group_symop_operation_xyz
x,y,z
1/2-x,1/2-y,z
1/2+x,-y,-z
-x,1/2+y,-z
-x,-y,-z
1/2+x,1/2+y,-z
1/2-x,y,z
x,1/2-y,z
loop_
_atom_site_type_symbol
_atom_site_label
_atom_site_fract_x
_atom_site_fract_y
_atom_site_fract_z
Si Si1 0.137750 0.029932 0.083357
Si Si2 0.412498 0.613638 0.941389
Si Si3 0.637475 0.895073 0.468559
Si Si4 0.136984 0.105554 0.824794
Si Si5 0.414907 0.601152 0.406586
Si Si6 0.584599 0.398422 0.763625
O O1 0.250000 0.087361 0.070291
O O2 0.036410 0.109485 0.063597
O O3 0.129219 0.982553 0.169242
O O4 0.124047 0.911322 0.026308
O O5 0.376444 0.750000 0.913535
O O6 0.374155 0.497049 0.890873
O O7 0.750000 0.906913 0.432110
O O8 0.630819 0.750000 0.499645
O O9 0.538835 0.908595 0.415164
O O10 0.628417 0.001822 0.533129
O O11 0.250000 0.092346 0.789634
O O12 0.129540 0.250000 0.855259
O O13 0.039265 0.089294 0.771005
O O14 0.388155 0.750000 0.421374
O O15 0.383740 0.569330 0.321255
O O16 0.609939 0.250000 0.776431
#
# Coordination Sequence:
#
# PCOD9451725 Si02
#       6
#     8   8   8   8   8   8
#     4  10  21  35  51  73 103 137 170 208 257 305
#     4  10  21  36  54  76 101 132 174 219 257 298
#     4   9  18  33  53  76 102 133 166 201 247 301
#     4   9  18  33  53  76 103 135 170 212 261 306
#     4   9  18  33  53  77 104 132 166 209 249 292
#     4   9  18  32  50  75 105 134 167 208 253 301
#
# _framework density 19.763666000000001
#
# number of rings (size 3 to 8) (size 9 to 14) (size 15 to 20)
#    0.000    2.667    0.000    1.000    0.000    8.333 
#    0.000    8.333    0.000    0.000    0.000    7.000 
#    0.000    0.000    0.000    0.000    0.000    0.000 
#
# Total GULP energy -267583.248126 kJ/mol
# GULP energy per Si atom -5574.651003 kJ/mol
# Density = 1.971868 g / cm^3
# Si number density = 19.763666 Si / 1000 Ang^3
#
#
#
# Elastic Constant Matrix: (Units=GPa)
#
#
# Indices 1 2 3 4 5 6 
#
# 1 116.9688 7.4499 -2.1578 0.0000 0.0000 0.0000
# 2 7.4499 75.8621 28.6352 0.0000 0.0000 0.0000
# 3 -2.1578 28.6352 77.2508 0.0000 0.0000 0.0000
# 4 0.0000 0.0000 0.0000 9.3991 0.0000 0.0000
# 5 0.0000 0.0000 0.0000 0.0000 -3.9749 0.0000
# 6 0.0000 0.0000 0.0000 0.0000 0.0000 4.0564
#
#
#
# Elastic Compliance Matrix: (Units=1/GPa)
#
#
# Indices 1 2 3 4 5 6 
#
# 1 0.008631 -0.001091 0.000646 0.000000 0.000000 0.000000
# 2 -0.001091 0.015464 -0.005763 0.000000 0.000000 0.000000
# 3 0.000646 -0.005763 0.015099 0.000000 0.000000 0.000000
# 4 0.000000 0.000000 0.000000 0.106393 0.000000 0.000000
# 5 0.000000 0.000000 0.000000 0.000000 -0.251577 0.000000
# 6 0.000000 0.000000 0.000000 0.000000 0.000000 0.246522
#
#
# Mechanical properties :
#
#
# Convention : Reuss Voigt Hill
#
# Bulk Modulus (GPa) = 37.34534 37.54849 37.44692
# Shear Modulus (GPa) = 30.88802 17.63974 24.26388
#
# Velocity S-wave (km/s) = 3.95760 2.99077 3.50766
# Velocity P-wave (km/s) = 6.31035 5.56474 5.94923
#
# Compressibility (1/GPa) = 0.02677710
#
# Stress axis : x y z
#
# Youngs Moduli (GPa) = 115.86546 64.66550 66.22955
#
# Poissons Ratio (x) = 0.07057 -0.04276
# Poissons Ratio (y) = 0.12644 0.38166
# Poissons Ratio (z) = -0.07480 0.37265
#
# Static dielectric constant tensor:
#      x y z
#    x 1.754410 0.000000 0.000000 
#    y 0.000000 1.642820 0.000000 
#    z 0.000000 0.000000 1.649420 
# 
# From -- ./inp_files/27389.got.cif
#   From: 2010.05.17/outbox.cif.g08.bks.cpg/sg59_14_cif.got.tgz:27389.got - 2010.06.03 14:40:33.
