data_PCOD9451207
_publ_section_title
;
Structure prediction by ZEFSAII (Michael W. Deem and Ramdas Pophale) SiO2 
 PCOD9451207
Probable space group: P M M N
;
_chemical_formula_sum "Si O2"
_cell_formula_units_Z 48
_cell_length_a 15.953245
_cell_length_b 13.730521
_cell_length_c 12.089157
_cell_angle_alpha 90.000000
_cell_angle_beta 90.000000
_cell_angle_gamma 90.000000
_cell_volume 2648.085903
_symmetry_space_group_name_H-M "P M M N"
_symmetry_group_IT_number 59
_space_group.IT_coordinate_system_code '2'
_symmetry_cell_setting 'orthorhombic'
loop_
_space_group_symop_operation_xyz
x,y,z
1/2-x,1/2-y,z
1/2+x,-y,-z
-x,1/2+y,-z
-x,-y,-z
1/2+x,1/2+y,-z
1/2-x,y,z
x,1/2-y,z
loop_
_atom_site_type_symbol
_atom_site_label
_atom_site_fract_x
_atom_site_fract_y
_atom_site_fract_z
Si Si1 0.939923 0.498266 0.236411
Si Si2 0.651667 0.861943 0.066380
Si Si3 0.341691 0.367835 0.417114
Si Si4 0.092078 0.365901 0.179344
Si Si5 0.000184 0.365540 0.571480
Si Si6 0.152636 0.863770 0.592823
O O1 0.896346 0.563475 0.143977
O O2 0.874638 0.435732 0.309267
O O3 0.005696 0.423749 0.183983
O O4 0.988704 0.569866 0.320432
O O5 0.750000 0.866625 0.091046
O O6 0.623548 0.750000 0.085859
O O7 0.637552 0.883279 0.936675
O O8 0.250000 0.402935 0.456097
O O9 0.339330 0.250000 0.420965
O O10 0.356529 0.394742 0.289267
O O11 0.422598 0.393843 0.489850
O O12 0.077049 0.250000 0.188614
O O13 0.008179 0.250000 0.595643
O O14 0.912812 0.379760 0.507232
O O15 0.250000 0.876395 0.562970
O O16 0.141005 0.750000 0.626529
#
# Coordination Sequence:
#
# PCOD9451207 Si02
#       6
#     8   8   8   8   8   8
#     4  12  21  35  56  86 110 143 182 235 274 332
#     4  10  22  39  57  80 110 144 182 227 285 342
#     4   9  17  31  53  80 109 143 183 227 274 325
#     4  10  20  36  57  79 109 146 185 229 274 328
#     4  10  21  37  54  80 116 148 183 226 278 333
#     4  10  21  37  55  77 111 153 190 223 266 326
#
# _framework density 18.126300000000001
#
# number of rings (size 3 to 8) (size 9 to 14) (size 15 to 20)
#    0.000    1.833    1.667    3.000    0.000    3.333 
#    0.000    2.500    0.000    0.000    0.000    0.000 
#    0.000    0.000    0.000    0.000    0.000    0.000 
#
# Total GULP energy -268054.737925 kJ/mol
# GULP energy per Si atom -5584.473707 kJ/mol
# Density = 1.808504 g / cm^3
# Si number density = 18.126300 Si / 1000 Ang^3
#
#
#
# Elastic Constant Matrix: (Units=GPa)
#
#
# Indices 1 2 3 4 5 6 
#
# 1 97.6527 17.4542 4.8690 0.0000 0.0000 0.0000
# 2 17.4542 67.2679 21.3737 0.0000 0.0000 0.0000
# 3 4.8690 21.3737 38.3357 0.0000 0.0000 0.0000
# 4 0.0000 0.0000 0.0000 32.4398 0.0000 0.0000
# 5 0.0000 0.0000 0.0000 0.0000 -84.6374 0.0000
# 6 0.0000 0.0000 0.0000 0.0000 0.0000 5.7700
#
#
#
# Elastic Compliance Matrix: (Units=1/GPa)
#
#
# Indices 1 2 3 4 5 6 
#
# 1 0.010740 -0.002860 0.000230 0.000000 0.000000 0.000000
# 2 -0.002860 0.018828 -0.010134 0.000000 0.000000 0.000000
# 3 0.000230 -0.010134 0.031706 0.000000 0.000000 0.000000
# 4 0.000000 0.000000 0.000000 0.030826 0.000000 0.000000
# 5 0.000000 0.000000 0.000000 0.000000 -0.011815 0.000000
# 6 0.000000 0.000000 0.000000 0.000000 0.000000 0.173311
#
#
# Mechanical properties :
#
#
# Convention : Reuss Voigt Hill
#
# Bulk Modulus (GPa) = 27.97432 32.29445 30.13439
# Shear Modulus (GPa) = 17.17976 1.35176 9.26576
#
# Velocity S-wave (km/s) = 3.08194 0.86450 2.26338
# Velocity P-wave (km/s) = 5.30387 4.34183 4.84678
#
# Compressibility (1/GPa) = 0.03574707
#
# Stress axis : x y z
#
# Youngs Moduli (GPa) = 93.10928 53.11221 31.53944
#
# Poissons Ratio (x) = 0.15190 -0.00727
# Poissons Ratio (y) = 0.26629 0.31963
# Poissons Ratio (z) = -0.02146 0.53825
#
# Static dielectric constant tensor:
#      x y z
#    x 1.619030 0.000000 0.000000 
#    y 0.000000 1.635110 0.000000 
#    z 0.000000 0.000000 1.599460 
# 
# From -- ./inp_files/16800.got.cif
#   From: 2010.05.17/outbox.cif.g08.bks.cpg/sg59_9_cif.got.tgz:16800.got - 2010.06.03 14:40:33.
