data_PCOD9451131
_publ_section_title
;
Structure prediction by ZEFSAII (Michael W. Deem and Ramdas Pophale) SiO2 
 PCOD9451131
Probable space group: P M M N
;
_chemical_formula_sum "Si O2"
_cell_formula_units_Z 32
_cell_length_a 9.819371
_cell_length_b 10.338473
_cell_length_c 17.406663
_cell_angle_alpha 90.000000
_cell_angle_beta 90.000000
_cell_angle_gamma 90.000000
_cell_volume 1767.077464
_symmetry_space_group_name_H-M "P M M N"
_symmetry_group_IT_number 59
_space_group.IT_coordinate_system_code '2'
_symmetry_cell_setting 'orthorhombic'
loop_
_space_group_symop_operation_xyz
x,y,z
1/2-x,1/2-y,z
1/2+x,-y,-z
-x,1/2+y,-z
-x,-y,-z
1/2+x,1/2+y,-z
1/2-x,y,z
x,1/2-y,z
loop_
_atom_site_type_symbol
_atom_site_label
_atom_site_fract_x
_atom_site_fract_y
_atom_site_fract_z
Si Si1 0.750000 0.601260 0.602402
Si Si2 0.914756 0.750000 0.902512
Si Si3 0.909147 0.015395 0.162857
Si Si4 0.750000 0.096747 0.462172
Si Si5 0.958253 0.400808 0.327907
Si Si6 0.913518 0.750000 0.083681
O O1 0.750000 0.750000 0.572149
O O2 0.750000 0.497163 0.534482
O O3 0.616599 0.586193 0.654062
O O4 0.750000 0.750000 0.891530
O O5 0.988879 0.626440 0.865590
O O6 0.945841 0.750000 0.993598
O O7 0.750000 0.040442 0.140747
O O8 0.914896 0.015437 0.255282
O O9 0.956820 0.880794 0.125922
O O10 0.750000 0.250000 0.482885
O O11 0.621984 0.071021 0.406319
O O12 0.927382 0.250000 0.308906
O O13 0.750000 0.750000 0.089183
#
# Coordination Sequence:
#
# PCOD9451131 Si02
#       6
#     4   4   8   4   8   4
#     4  10  22  38  56  82 115 149 186 242 291 345
#     4  11  23  37  65  91 118 155 201 246 298 357
#     4  11  21  39  64  87 120 160 203 242 295 353
#     4  10  20  38  58  84 113 147 192 236 281 355
#     4  10  20  35  60  84 113 149 198 234 285 348
#     4   9  22  41  57  91 126 153 195 254 296 347
#
# _framework density 18.108996999999999
#
# number of rings (size 3 to 8) (size 9 to 14) (size 15 to 20)
#    0.000    1.750    2.500    1.875    1.750    0.000 
#    4.500    1.875    0.000    0.000    0.000    0.000 
#    0.000    0.000    0.000    0.000    0.000    0.000 
#
# Total GULP energy -178585.374820 kJ/mol
# GULP energy per Si atom -5580.792963 kJ/mol
# Density = 1.806778 g / cm^3
# Si number density = 18.108997 Si / 1000 Ang^3
#
#
#
# Elastic Constant Matrix: (Units=GPa)
#
#
# Indices 1 2 3 4 5 6 
#
# 1 104.7730 34.7605 15.6927 0.0000 0.0000 0.0000
# 2 34.7605 106.7916 53.9069 0.0000 0.0000 0.0000
# 3 15.6927 53.9069 77.1111 0.0000 0.0000 0.0000
# 4 0.0000 0.0000 0.0000 30.1908 0.0000 0.0000
# 5 0.0000 0.0000 0.0000 0.0000 17.7351 0.0000
# 6 0.0000 0.0000 0.0000 0.0000 0.0000 62.0163
#
#
#
# Elastic Compliance Matrix: (Units=1/GPa)
#
#
# Indices 1 2 3 4 5 6 
#
# 1 0.010708 -0.003686 0.000398 0.000000 0.000000 0.000000
# 2 -0.003686 0.015739 -0.010253 0.000000 0.000000 0.000000
# 3 0.000398 -0.010253 0.020055 0.000000 0.000000 0.000000
# 4 0.000000 0.000000 0.000000 0.033123 0.000000 0.000000
# 5 0.000000 0.000000 0.000000 0.000000 0.056385 0.000000
# 6 0.000000 0.000000 0.000000 0.000000 0.000000 0.016125
#
#
# Mechanical properties :
#
#
# Convention : Reuss Voigt Hill
#
# Bulk Modulus (GPa) = 51.49444 55.26620 53.38032
# Shear Modulus (GPa) = 26.92647 34.27615 30.60131
#
# Velocity S-wave (km/s) = 3.86023 4.35532 4.11523
# Velocity P-wave (km/s) = 6.95457 7.47507 7.21951
#
# Compressibility (1/GPa) = 0.01941957
#
# Stress axis : x y z
#
# Youngs Moduli (GPa) = 93.38963 63.53467 49.86291
#
# Poissons Ratio (x) = 0.23420 -0.01984
# Poissons Ratio (y) = 0.34425 0.51124
# Poissons Ratio (z) = -0.03715 0.65142
#
# Static dielectric constant tensor:
#      x y z
#    x 1.634770 0.000000 0.000000 
#    y 0.000000 1.614650 0.000000 
#    z 0.000000 0.000000 1.613280 
# 
# From -- ./inp_files/19690.got.cif
#   From: 2010.05.17/outbox.cif.g08.bks.cpg/sg59_10_cif.got.tgz:19690.got - 2010.06.03 14:40:33.
