data_PCOD9451630
_publ_section_title
;
Structure prediction by ZEFSAII (Michael W. Deem and Ramdas Pophale) SiO2 
 PCOD9451630
Probable space group: P M M N
;
_chemical_formula_sum "Si O2"
_cell_formula_units_Z 44
_cell_length_a 15.480461
_cell_length_b 15.825967
_cell_length_c 8.188781
_cell_angle_alpha 90.000000
_cell_angle_beta 90.000000
_cell_angle_gamma 90.000000
_cell_volume 2006.196193
_symmetry_space_group_name_H-M "P M M N"
_symmetry_group_IT_number 59
_space_group.IT_coordinate_system_code '2'
_symmetry_cell_setting 'orthorhombic'
loop_
_space_group_symop_operation_xyz
x,y,z
1/2-x,1/2-y,z
1/2+x,-y,-z
-x,1/2+y,-z
-x,-y,-z
1/2+x,1/2+y,-z
1/2-x,y,z
x,1/2-y,z
loop_
_atom_site_type_symbol
_atom_site_label
_atom_site_fract_x
_atom_site_fract_y
_atom_site_fract_z
Si Si1 0.557850 0.046873 0.638993
Si Si2 0.959874 0.903622 0.847153
Si Si3 0.250000 0.750000 0.129192
Si Si4 0.572540 0.653030 0.481945
Si Si5 0.750000 0.098361 0.619783
Si Si6 0.405188 0.750000 0.878748
Si Si7 0.750000 0.250000 0.371148
Si Si8 0.851258 0.650901 0.151330
O O1 0.523407 0.140651 0.596788
O O2 0.660666 0.046560 0.622522
O O3 0.500000 0.000000 0.500000
O O4 0.527549 0.003415 0.807692
O O5 0.920449 0.878730 0.667983
O O6 0.036784 0.835399 0.871386
O O7 0.897455 0.892055 0.999162
O O8 0.250000 0.836825 0.229239
O O9 0.339458 0.750000 0.029497
O O10 0.595963 0.750000 0.494326
O O11 0.628833 0.615509 0.332802
O O12 0.750000 0.162915 0.469790
O O13 0.338485 0.750000 0.729730
O O14 0.750000 0.647317 0.125244
O O15 0.878651 0.750000 0.149482
#
# Coordination Sequence:
#
# PCOD9451630 Si02
#       8
#     8   8   2   8   4   4   2   8
#     4  10  24  41  63 100 135 176 229 282 346 417
#     4  11  22  41  67  90 133 175 218 281 342 409
#     4  10  28  42  72 108 142 166 240 296 338 432
#     4  10  21  40  66  94 124 174 226 277 346 411
#     4  11  24  42  70 103 136 181 227 292 353 406
#     4  11  22  44  67 104 130 182 231 280 352 419
#     4  10  20  38  72  92 130 172 230 286 344 416
#     4  10  22  38  60  92 124 167 222 273 326 407
#
# _framework density 21.932053
#
# number of rings (size 3 to 8) (size 9 to 14) (size 15 to 20)
#    0.000    1.636    1.818    2.182    6.364    1.455 
#    4.909    1.818    0.000    0.000    0.000    0.000 
#    0.000    0.000    0.000    0.000    0.000    0.000 
#
# Total GULP energy -245142.871557 kJ/mol
# GULP energy per Si atom -5571.428899 kJ/mol
# Density = 2.188213 g / cm^3
# Si number density = 21.932053 Si / 1000 Ang^3
#
#
#
# Elastic Constant Matrix: (Units=GPa)
#
#
# Indices 1 2 3 4 5 6 
#
# 1 115.4176 28.9974 55.6020 0.0000 0.0000 0.0000
# 2 28.9974 47.8513 29.3133 0.0000 0.0000 0.0000
# 3 55.6020 29.3133 145.1653 0.0000 0.0000 0.0000
# 4 0.0000 0.0000 0.0000 27.5327 0.0000 0.0000
# 5 0.0000 0.0000 0.0000 0.0000 54.7809 0.0000
# 6 0.0000 0.0000 0.0000 0.0000 0.0000 32.7731
#
#
#
# Elastic Compliance Matrix: (Units=1/GPa)
#
#
# Indices 1 2 3 4 5 6 
#
# 1 0.011549 -0.004894 -0.003435 0.000000 0.000000 0.000000
# 2 -0.004894 0.025922 -0.003360 0.000000 0.000000 0.000000
# 3 -0.003435 -0.003360 0.008883 0.000000 0.000000 0.000000
# 4 0.000000 0.000000 0.000000 0.036320 0.000000 0.000000
# 5 0.000000 0.000000 0.000000 0.000000 0.018255 0.000000
# 6 0.000000 0.000000 0.000000 0.000000 0.000000 0.030513
#
#
# Mechanical properties :
#
#
# Convention : Reuss Voigt Hill
#
# Bulk Modulus (GPa) = 43.52476 59.58439 51.55457
# Shear Modulus (GPa) = 30.77338 35.98544 33.37941
#
# Velocity S-wave (km/s) = 3.74989 4.05504 3.90545
# Velocity P-wave (km/s) = 6.21589 7.01079 6.62527
#
# Compressibility (1/GPa) = 0.02297543
#
# Stress axis : x y z
#
# Youngs Moduli (GPa) = 86.59026 38.57720 112.57545
#
# Poissons Ratio (x) = 0.18880 0.38672
# Poissons Ratio (y) = 0.42377 0.37824
# Poissons Ratio (z) = 0.29745 0.12962
#
# Static dielectric constant tensor:
#      x y z
#    x 1.792960 0.000000 0.000000 
#    y 0.000000 2.049240 0.000000 
#    z 0.000000 0.000000 1.813830 
# 
# From -- ./inp_files/8960.got.cif
#   From: 2010.05.17/outbox.cif.g08.bks.cpg/sg59_5_cif.got.tgz:8960.got - 2010.06.03 14:40:33.
