data_PCOD9451955
_publ_section_title
;
Structure prediction by ZEFSAII (Michael W. Deem and Ramdas Pophale) SiO2 
 PCOD9451955
Probable space group: P M M N
;
_chemical_formula_sum "Si O2"
_cell_formula_units_Z 64
_cell_length_a 9.121399
_cell_length_b 14.804862
_cell_length_c 26.849133
_cell_angle_alpha 90.000000
_cell_angle_beta 90.000000
_cell_angle_gamma 90.000000
_cell_volume 3625.735204
_symmetry_space_group_name_H-M "P M M N"
_symmetry_group_IT_number 59
_space_group.IT_coordinate_system_code '2'
_symmetry_cell_setting 'orthorhombic'
loop_
_space_group_symop_operation_xyz
x,y,z
1/2-x,1/2-y,z
1/2+x,-y,-z
-x,1/2+y,-z
-x,-y,-z
1/2+x,1/2+y,-z
1/2-x,y,z
x,1/2-y,z
loop_
_atom_site_type_symbol
_atom_site_label
_atom_site_fract_x
_atom_site_fract_y
_atom_site_fract_z
Si Si1 0.922594 0.642192 0.125095
Si Si2 0.073830 0.507919 0.423741
Si Si3 0.425047 0.143337 0.760482
Si Si4 0.575849 0.644259 0.865639
Si Si5 0.426600 0.354876 0.502375
Si Si6 0.074429 0.497177 0.307999
Si Si7 0.424795 0.995713 0.053463
Si Si8 0.921877 0.357861 0.237609
O O1 0.750000 0.620481 0.118650
O O2 0.938048 0.750000 0.119591
O O3 0.963450 0.619568 0.182252
O O4 0.017136 0.588530 0.085426
O O5 0.250000 0.518794 0.426782
O O6 0.035774 0.416486 0.454229
O O7 0.032424 0.501151 0.366032
O O8 0.998198 0.591859 0.451527
O O9 0.250000 0.129034 0.754975
O O10 0.452724 0.250000 0.753757
O O11 0.512350 0.083005 0.721793
O O12 0.750000 0.633986 0.855771
O O13 0.547143 0.750000 0.875375
O O14 0.538123 0.583048 0.912766
O O15 0.487995 0.617107 0.816244
O O16 0.250000 0.356475 0.507461
O O17 0.472049 0.250000 0.498575
O O18 0.250000 0.494398 0.304766
O O19 0.006261 0.410944 0.280400
O O20 0.250000 0.991898 0.047724
O O21 0.500000 0.000000 0.000000
O O22 0.750000 0.380113 0.239046
O O23 0.939162 0.250000 0.243079
#
# Coordination Sequence:
#
# PCOD9451955 Si02
#       8
#     8   8   8   8   8   8   8   8
#     4   9  19  37  58  77 101 136 175 216 264 314
#     4   9  20  36  52  76 108 139 174 215 261 312
#     4   9  19  36  57  80 107 142 180 216 260 313
#     4   9  19  37  58  78 103 137 176 216 260 313
#     4   9  18  35  58  78  98 132 178 223 265 310
#     4  11  22  34  52  79 112 147 177 213 261 311
#     4  11  23  36  53  79 107 137 174 215 262 314
#     4  10  21  36  55  80 108 139 176 217 262 313
#
# _framework density 17.651592000000001
#
# number of rings (size 3 to 8) (size 9 to 14) (size 15 to 20)
#    0.000    2.375    0.000    2.625    0.000    7.500 
#    0.000    6.250    0.000    0.000    0.000    0.000 
#    0.000    0.000    0.000    0.000    0.000    0.000 
#
# Total GULP energy -357247.096844 kJ/mol
# GULP energy per Si atom -5581.985888 kJ/mol
# Density = 1.761142 g / cm^3
# Si number density = 17.651592 Si / 1000 Ang^3
#
#
#
# Elastic Constant Matrix: (Units=GPa)
#
#
# Indices 1 2 3 4 5 6 
#
# 1 50.8927 48.8721 75.7789 0.0000 0.0000 0.0000
# 2 48.8721 103.7378 82.1481 0.0000 0.0000 0.0000
# 3 75.7789 82.1481 181.4611 0.0000 0.0000 0.0000
# 4 0.0000 0.0000 0.0000 72.5207 0.0000 0.0000
# 5 0.0000 0.0000 0.0000 0.0000 33.3547 0.0000
# 6 0.0000 0.0000 0.0000 0.0000 0.0000 31.8972
#
#
#
# Elastic Compliance Matrix: (Units=1/GPa)
#
#
# Indices 1 2 3 4 5 6 
#
# 1 0.062271 -0.013630 -0.019834 0.000000 0.000000 0.000000
# 2 -0.013630 0.018010 -0.002461 0.000000 0.000000 0.000000
# 3 -0.019834 -0.002461 0.014908 0.000000 0.000000 0.000000
# 4 0.000000 0.000000 0.000000 0.013789 0.000000 0.000000
# 5 0.000000 0.000000 0.000000 0.000000 0.029981 0.000000
# 6 0.000000 0.000000 0.000000 0.000000 0.000000 0.031351
#
#
# Mechanical properties :
#
#
# Convention : Reuss Voigt Hill
#
# Bulk Modulus (GPa) = 42.84897 83.29887 63.07392
# Shear Modulus (GPa) = 20.00473 36.17401 28.08937
#
# Velocity S-wave (km/s) = 3.37012 4.53187 3.99347
# Velocity P-wave (km/s) = 6.28261 8.64157 7.55473
#
# Compressibility (1/GPa) = 0.02333779
#
# Stress axis : x y z
#
# Youngs Moduli (GPa) = 16.05872 55.52460 67.07876
#
# Poissons Ratio (x) = 0.75682 1.33046
# Poissons Ratio (y) = 0.21889 0.16509
# Poissons Ratio (z) = 0.31851 0.13665
#
# Static dielectric constant tensor:
#      x y z
#    x 1.587720 0.000000 0.000000 
#    y 0.000000 1.600990 0.000000 
#    z 0.000000 0.000000 1.570490 
# 
# From -- ./inp_files/31639.got.cif
#   From: 2010.05.17/outbox.cif.g08.bks.cpg/sg59_16_cif.got.tgz:31639.got - 2010.06.03 14:40:33.
