data_PCOD9451083
_publ_section_title
;
Structure prediction by ZEFSAII (Michael W. Deem and Ramdas Pophale) SiO2 
 PCOD9451083
Probable space group: P M M N
;
_chemical_formula_sum "Si O2"
_cell_formula_units_Z 64
_cell_length_a 7.953372
_cell_length_b 24.708593
_cell_length_c 15.852407
_cell_angle_alpha 90.000000
_cell_angle_beta 90.000000
_cell_angle_gamma 90.000000
_cell_volume 3115.261628
_symmetry_space_group_name_H-M "P M M N"
_symmetry_group_IT_number 59
_space_group.IT_coordinate_system_code '2'
_symmetry_cell_setting 'orthorhombic'
loop_
_space_group_symop_operation_xyz
x,y,z
1/2-x,1/2-y,z
1/2+x,-y,-z
-x,1/2+y,-z
-x,-y,-z
1/2+x,1/2+y,-z
1/2-x,y,z
x,1/2-y,z
loop_
_atom_site_type_symbol
_atom_site_label
_atom_site_fract_x
_atom_site_fract_y
_atom_site_fract_z
Si Si1 0.048052 0.811304 0.502365
Si Si2 0.047655 0.886348 0.155070
Si Si3 0.049284 0.119482 0.658363
Si Si4 0.452820 0.497230 0.598255
Si Si5 0.547180 0.997230 0.901745
Si Si6 0.452345 0.886348 0.655070
Si Si7 0.048052 0.688696 0.002365
Si Si8 0.450716 0.380519 0.158363
O O1 0.250000 0.808876 0.510999
O O2 0.982685 0.750000 0.505616
O O3 0.983972 0.848690 0.579042
O O4 0.010704 0.840008 0.413893
O O5 0.250000 0.888146 0.148552
O O6 0.983973 0.848690 0.079042
O O7 0.002825 0.865376 0.247367
O O8 0.984549 0.947961 0.142664
O O9 0.250000 0.117779 0.654490
O O10 0.983173 0.058890 0.637459
O O11 0.500000 0.500000 0.500000
O O12 0.250000 0.496754 0.604285
O O13 0.515451 0.552039 0.642664
O O14 0.750000 0.996755 0.895715
O O15 0.483173 0.941110 0.862541
O O16 0.500000 0.000000 0.000000
O O17 0.250000 0.888146 0.648552
O O18 0.497175 0.865376 0.747367
O O19 0.250000 0.691125 0.010999
O O20 0.982685 0.750000 0.005615
O O21 0.010703 0.659992 0.913893
O O22 0.250000 0.382222 0.154491
#
# Coordination Sequence:
#
# PCOD9451083 Si02
#       8
#     8   8   8   8   8   8   8   8
#     4  10  22  41  63  84 110 151 201 245 284 335
#     4  10  21  38  60  86 117 155 196 238 283 342
#     4  11  23  37  58  90 122 152 187 236 295 350
#     4  10  20  35  58  87 118 153 191 233 288 345
#     4  10  20  35  58  87 118 153 191 233 288 345
#     4  10  21  38  60  86 117 155 196 238 283 342
#     4  10  22  41  63  84 110 151 201 245 284 335
#     4  11  23  37  58  90 122 152 187 236 295 350
#
# _framework density 20.544021999999998
#
# number of rings (size 3 to 8) (size 9 to 14) (size 15 to 20)
#    0.000    1.750    2.500    1.500    0.000    4.500 
#    0.000    2.500    0.000    0.000    0.000    0.000 
#    0.000    0.000    0.000    0.000    0.000    0.000 
#
# Total GULP energy -357652.131544 kJ/mol
# GULP energy per Si atom -5588.314555 kJ/mol
# Density = 2.049726 g / cm^3
# Si number density = 20.544022 Si / 1000 Ang^3
#
#
#
# Elastic Constant Matrix: (Units=GPa)
#
#
# Indices 1 2 3 4 5 6 
#
# 1 13.9033 9.8360 -13.3303 0.0000 0.0000 0.0000
# 2 9.8360 132.9099 45.3151 0.0000 0.0000 0.0000
# 3 -13.3303 45.3151 131.0671 0.0000 0.0000 0.0000
# 4 0.0000 0.0000 0.0000 1.3402 0.0000 0.0000
# 5 0.0000 0.0000 0.0000 0.0000 27.0765 0.0000
# 6 0.0000 0.0000 0.0000 0.0000 0.0000 12.8615
#
#
#
# Elastic Compliance Matrix: (Units=1/GPa)
#
#
# Indices 1 2 3 4 5 6 
#
# 1 0.092869 -0.011442 0.013401 0.000000 0.000000 0.000000
# 2 -0.011442 0.009939 -0.004600 0.000000 0.000000 0.000000
# 3 0.013401 -0.004600 0.010583 0.000000 0.000000 0.000000
# 4 0.000000 0.000000 0.000000 0.746148 0.000000 0.000000
# 5 0.000000 0.000000 0.000000 0.000000 0.036932 0.000000
# 6 0.000000 0.000000 0.000000 0.000000 0.000000 0.077752
#
#
# Mechanical properties :
#
#
# Convention : Reuss Voigt Hill
#
# Bulk Modulus (GPa) = 9.24983 40.16908 24.70945
# Shear Modulus (GPa) = 4.92348 23.99293 14.45821
#
# Velocity S-wave (km/s) = 1.54976 3.42113 2.65574
# Velocity P-wave (km/s) = 2.77751 5.93301 4.63224
#
# Compressibility (1/GPa) = 0.10811013
#
# Stress axis : x y z
#
# Youngs Moduli (GPa) = 10.76782 100.61375 94.49049
#
# Poissons Ratio (x) = 1.15121 -1.26629
# Poissons Ratio (y) = 0.12320 0.43466
# Poissons Ratio (z) = -0.14430 0.46282
#
# Static dielectric constant tensor:
#      x y z
#    x 1.735110 0.000000 0.000000 
#    y 0.000000 1.747450 0.000000 
#    z 0.000000 0.000000 1.693120 
# 
# From -- ./inp_files/21520.got.cif
#   From: 2010.05.17/outbox.cif.g08.bks.cpg/sg59_11_cif.got.tgz:21520.got - 2010.06.03 14:40:33.
