data_PCOD9451222
_publ_section_title
;
Structure prediction by ZEFSAII (Michael W. Deem and Ramdas Pophale) SiO2 
 PCOD9451222
Probable space group: P M M N
;
_chemical_formula_sum "Si O2"
_cell_formula_units_Z 48
_cell_length_a 14.897646
_cell_length_b 8.485342
_cell_length_c 21.028374
_cell_angle_alpha 90.000000
_cell_angle_beta 90.000000
_cell_angle_gamma 90.000000
_cell_volume 2658.230851
_symmetry_space_group_name_H-M "P M M N"
_symmetry_group_IT_number 59
_space_group.IT_coordinate_system_code '2'
_symmetry_cell_setting 'orthorhombic'
loop_
_space_group_symop_operation_xyz
x,y,z
1/2-x,1/2-y,z
1/2+x,-y,-z
-x,1/2+y,-z
-x,-y,-z
1/2+x,1/2+y,-z
1/2-x,y,z
x,1/2-y,z
loop_
_atom_site_type_symbol
_atom_site_label
_atom_site_fract_x
_atom_site_fract_y
_atom_site_fract_z
Si Si1 0.058099 0.439103 0.940452
Si Si2 0.750000 0.060895 0.020853
Si Si3 0.061208 0.061358 0.319600
Si Si4 0.750000 0.441910 0.481404
Si Si5 0.444410 0.940752 0.560588
Si Si6 0.250000 0.560886 0.370475
Si Si7 0.750000 0.441914 0.872837
Si Si8 0.558079 0.440492 0.819326
O O1 0.057617 0.250000 0.942230
O O2 0.159199 0.499899 0.947148
O O3 0.009543 0.489845 0.875260
O O4 0.000000 0.500000 0.000000
O O5 0.750000 0.250000 0.021516
O O6 0.750000 0.009416 0.946657
O O7 0.063004 0.250000 0.320285
O O8 0.993251 0.006624 0.374953
O O9 0.160193 0.999322 0.336895
O O10 0.034596 0.003145 0.249954
O O11 0.750000 0.250000 0.481450
O O12 0.658378 0.493816 0.447809
O O13 0.750000 0.490824 0.555492
O O14 0.445177 0.750000 0.559691
O O15 0.500000 0.000000 0.500000
O O16 0.250000 0.750000 0.368792
O O17 0.750000 0.250000 0.872402
O O18 0.658722 0.493444 0.838672
O O19 0.558770 0.250000 0.817529
#
# Coordination Sequence:
#
# PCOD9451222 Si02
#       8
#     8   4   8   4   8   4   4   8
#     4  11  22  38  61  89 118 153 196 243 290 344
#     4  11  21  38  61  88 120 151 193 243 292 347
#     4  11  23  36  54  85 120 147 185 241 288 329
#     4   9  18  34  57  82 106 144 188 223 272 341
#     4  10  20  36  57  81 111 144 185 232 277 333
#     4  11  20  34  59  83 111 152 190 224 281 355
#     4   9  17  34  57  83 111 147 189 230 279 341
#     4  10  21  38  59  82 117 158 193 229 281 353
#
# _framework density 18.057123000000001
#
# number of rings (size 3 to 8) (size 9 to 14) (size 15 to 20)
#    0.000    1.667    3.333    2.000    0.000    2.667 
#    0.000    1.250    0.000    1.000    0.000    0.000 
#    0.000    0.000    0.000    0.000    0.000    0.000 
#
# Total GULP energy -268123.016349 kJ/mol
# GULP energy per Si atom -5585.896174 kJ/mol
# Density = 1.801602 g / cm^3
# Si number density = 18.057123 Si / 1000 Ang^3
#
#
#
# Elastic Constant Matrix: (Units=GPa)
#
#
# Indices 1 2 3 4 5 6 
#
# 1 164.5182 26.2338 96.8055 0.0000 0.0000 0.0000
# 2 26.2338 26.1020 32.0583 0.0000 0.0000 0.0000
# 3 96.8055 32.0583 184.8028 0.0000 0.0000 0.0000
# 4 0.0000 0.0000 0.0000 28.7588 0.0000 0.0000
# 5 0.0000 0.0000 0.0000 0.0000 24.7633 0.0000
# 6 0.0000 0.0000 0.0000 0.0000 0.0000 17.3719
#
#
#
# Elastic Compliance Matrix: (Units=1/GPa)
#
#
# Indices 1 2 3 4 5 6 
#
# 1 0.009135 -0.004199 -0.004057 0.000000 0.000000 0.000000
# 2 -0.004199 0.050613 -0.006581 0.000000 0.000000 0.000000
# 3 -0.004057 -0.006581 0.008678 0.000000 0.000000 0.000000
# 4 0.000000 0.000000 0.000000 0.034772 0.000000 0.000000
# 5 0.000000 0.000000 0.000000 0.000000 0.040382 0.000000
# 6 0.000000 0.000000 0.000000 0.000000 0.000000 0.057564
#
#
# Mechanical properties :
#
#
# Convention : Reuss Voigt Hill
#
# Bulk Modulus (GPa) = 25.80380 76.17979 50.99180
# Shear Modulus (GPa) = 20.51409 28.86715 24.69062
#
# Velocity S-wave (km/s) = 3.37421 4.00266 3.70180
# Velocity P-wave (km/s) = 5.43153 7.97756 6.82433
#
# Compressibility (1/GPa) = 0.03875398
#
# Stress axis : x y z
#
# Youngs Moduli (GPa) = 109.46941 19.75764 115.23578
#
# Poissons Ratio (x) = 0.08295 0.46749
# Poissons Ratio (y) = 0.45961 0.75834
# Poissons Ratio (z) = 0.44410 0.13002
#
# Static dielectric constant tensor:
#      x y z
#    x 1.602180 0.000000 0.000000 
#    y 0.000000 1.619540 0.000000 
#    z 0.000000 0.000000 1.602480 
# 
# From -- ./inp_files/27528.got.cif
#   From: 2010.05.17/outbox.cif.g08.bks.cpg/sg59_14_cif.got.tgz:27528.got - 2010.06.03 14:40:33.
