data_PCOD9451656
_publ_section_title
;
Structure prediction by ZEFSAII (Michael W. Deem and Ramdas Pophale) SiO2 
 PCOD9451656
Probable space group: P M M N
;
_chemical_formula_sum "Si O2"
_cell_formula_units_Z 34
_cell_length_a 11.767296
_cell_length_b 14.268262
_cell_length_c 9.648943
_cell_angle_alpha 90.000000
_cell_angle_beta 90.000000
_cell_angle_gamma 90.000000
_cell_volume 1620.046553
_symmetry_space_group_name_H-M "P M M N"
_symmetry_group_IT_number 59
_space_group.IT_coordinate_system_code '2'
_symmetry_cell_setting 'orthorhombic'
loop_
_space_group_symop_operation_xyz
x,y,z
1/2-x,1/2-y,z
1/2+x,-y,-z
-x,1/2+y,-z
-x,-y,-z
1/2+x,1/2+y,-z
1/2-x,y,z
x,1/2-y,z
loop_
_atom_site_type_symbol
_atom_site_label
_atom_site_fract_x
_atom_site_fract_y
_atom_site_fract_z
Si Si1 0.377153 0.609025 0.415338
Si Si2 0.959427 0.357509 0.893382
Si Si3 0.055847 0.400401 0.361524
Si Si4 0.377592 0.520351 0.859939
Si Si5 0.250000 0.250000 0.296397
O O1 0.250000 0.637526 0.455680
O O2 0.403830 0.639454 0.258523
O O3 0.477806 0.641278 0.516105
O O4 0.386113 0.495715 0.416944
O O5 0.971720 0.250000 0.938190
O O6 0.077885 0.414845 0.886035
O O7 0.885951 0.419238 0.999762
O O8 0.150059 0.331197 0.304913
O O9 0.967335 0.433312 0.244109
O O10 0.250000 0.520922 0.805381
#
# Coordination Sequence:
#
# PCOD9451656 Si02
#       5
#     8   8   8   8   2
#     4  10  20  41  64  91 127 165 207 261 326 382
#     4  10  23  41  62  96 131 168 211 258 330 374
#     4  10  23  40  65  92 125 169 211 264 323 370
#     4  10  22  44  66  94 130 171 217 263 317 382
#     4  12  24  44  62  98 126 168 216 272 304 412
#
# _framework density 20.987051999999998
#
# number of rings (size 3 to 8) (size 9 to 14) (size 15 to 20)
#    0.000    1.882    1.176    1.412    3.294    2.353 
#    4.235    1.176    0.000    0.000    0.000    0.000 
#    0.000    0.000    0.000    0.000    0.000    0.000 
#
# Total GULP energy -189456.208607 kJ/mol
# GULP energy per Si atom -5572.241430 kJ/mol
# Density = 2.093928 g / cm^3
# Si number density = 20.987052 Si / 1000 Ang^3
#
#
#
# Elastic Constant Matrix: (Units=GPa)
#
#
# Indices 1 2 3 4 5 6 
#
# 1 170.9222 39.4762 5.7989 0.0000 0.0000 0.0000
# 2 39.4762 128.3301 -18.9356 0.0000 0.0000 0.0000
# 3 5.7989 -18.9356 39.1211 0.0000 0.0000 0.0000
# 4 0.0000 0.0000 0.0000 -17.3421 0.0000 0.0000
# 5 0.0000 0.0000 0.0000 0.0000 3.3687 0.0000
# 6 0.0000 0.0000 0.0000 0.0000 0.0000 12.6155
#
#
#
# Elastic Compliance Matrix: (Units=1/GPa)
#
#
# Indices 1 2 3 4 5 6 
#
# 1 0.006449 -0.002288 -0.002064 0.000000 0.000000 0.000000
# 2 -0.002288 0.009204 0.004794 0.000000 0.000000 0.000000
# 3 -0.002064 0.004794 0.028188 0.000000 0.000000 0.000000
# 4 0.000000 0.000000 0.000000 -0.057663 0.000000 0.000000
# 5 0.000000 0.000000 0.000000 0.000000 0.296849 0.000000
# 6 0.000000 0.000000 0.000000 0.000000 0.000000 0.079268
#
#
# Mechanical properties :
#
#
# Convention : Reuss Voigt Hill
#
# Bulk Modulus (GPa) = 22.35883 43.45027 32.90455
# Shear Modulus (GPa) = 13.28661 20.53068 16.90865
#
# Velocity S-wave (km/s) = 2.51885 3.13110 2.84151
# Velocity P-wave (km/s) = 4.37450 5.81550 5.14569
#
# Compressibility (1/GPa) = 0.04472506
#
# Stress axis : x y z
#
# Youngs Moduli (GPa) = 155.05946 108.65187 35.47613
#
# Poissons Ratio (x) = 0.24863 0.07321
# Poissons Ratio (y) = 0.35483 -0.17007
# Poissons Ratio (z) = 0.31998 -0.52088
#
# Static dielectric constant tensor:
#      x y z
#    x 1.726870 0.000000 0.000000 
#    y 0.000000 1.751970 0.000000 
#    z 0.000000 0.000000 1.783120 
# 
# From -- ./inp_files/6855.got.cif
#   From: 2010.05.17/outbox.cif.g08.bks.cpg/sg59_4_cif.got.tgz:6855.got - 2010.06.03 14:40:33.
