data_PCOD9451352
_publ_section_title
;
Structure prediction by ZEFSAII (Michael W. Deem and Ramdas Pophale) SiO2 
 PCOD9451352
Probable space group: P M M N
;
_chemical_formula_sum "Si O2"
_cell_formula_units_Z 48
_cell_length_a 18.948729
_cell_length_b 15.763561
_cell_length_c 8.085779
_cell_angle_alpha 90.000000
_cell_angle_beta 90.000000
_cell_angle_gamma 90.000000
_cell_volume 2415.217703
_symmetry_space_group_name_H-M "P M M N"
_symmetry_group_IT_number 59
_space_group.IT_coordinate_system_code '2'
_symmetry_cell_setting 'orthorhombic'
loop_
_space_group_symop_operation_xyz
x,y,z
1/2-x,1/2-y,z
1/2+x,-y,-z
-x,1/2+y,-z
-x,-y,-z
1/2+x,1/2+y,-z
1/2-x,y,z
x,1/2-y,z
loop_
_atom_site_type_symbol
_atom_site_label
_atom_site_fract_x
_atom_site_fract_y
_atom_site_fract_z
Si Si1 0.170922 0.509246 0.275589
Si Si2 0.555624 0.154499 0.225748
Si Si3 0.671848 0.018683 0.323908
Si Si4 0.898663 0.844282 0.678793
Si Si5 0.395137 0.153355 0.716697
Si Si6 0.468898 0.580419 0.106639
O O1 0.250000 0.534000 0.221313
O O2 0.168616 0.515403 0.475713
O O3 0.154766 0.410290 0.241888
O O4 0.104011 0.556826 0.197320
O O5 0.570823 0.250000 0.284741
O O6 0.479290 0.127389 0.294753
O O7 0.613835 0.086151 0.271241
O O8 0.547451 0.151127 0.029430
O O9 0.750000 0.046169 0.275361
O O10 0.656438 0.925857 0.246081
O O11 0.891611 0.750000 0.748629
O O12 0.889524 0.840599 0.481913
O O13 0.383349 0.250000 0.780269
O O14 0.471314 0.117476 0.772605
O O15 0.500000 0.500000 0.000000
#
# Coordination Sequence:
#
# PCOD9451352 Si02
#       6
#     8   8   8   8   8   8
#     4  10  21  37  58  82 115 153 189 234 294 349
#     4  11  22  37  58  84 113 151 196 239 282 337
#     4  10  21  38  59  85 115 151 193 241 291 340
#     4   9  18  34  58  86 112 144 190 238 285 337
#     4  10  20  36  60  86 115 149 188 237 286 340
#     4  12  21  36  57  85 115 155 190 235 284 341
#
# _framework density 19.873985000000001
#
# number of rings (size 3 to 8) (size 9 to 14) (size 15 to 20)
#    0.000    1.667    3.333    1.500    0.000    4.333 
#    0.000    4.167    0.000    3.500    0.000    0.000 
#    0.000    0.000    0.000    0.000    0.000    0.000 
#
# Total GULP energy -267640.326588 kJ/mol
# GULP energy per Si atom -5575.840137 kJ/mol
# Density = 1.982875 g / cm^3
# Si number density = 19.873985 Si / 1000 Ang^3
#
#
#
# Elastic Constant Matrix: (Units=GPa)
#
#
# Indices 1 2 3 4 5 6 
#
# 1 66.3320 16.8698 1.0429 0.0000 0.0000 0.0000
# 2 16.8698 72.6440 -1.6094 0.0000 0.0000 0.0000
# 3 1.0429 -1.6094 8.6900 0.0000 0.0000 0.0000
# 4 0.0000 0.0000 0.0000 22.2289 0.0000 0.0000
# 5 0.0000 0.0000 0.0000 0.0000 -0.9936 0.0000
# 6 0.0000 0.0000 0.0000 0.0000 0.0000 10.7986
#
#
#
# Elastic Compliance Matrix: (Units=1/GPa)
#
#
# Indices 1 2 3 4 5 6 
#
# 1 0.016082 -0.003793 -0.002632 0.000000 0.000000 0.000000
# 2 -0.003793 0.014717 0.003181 0.000000 0.000000 0.000000
# 3 -0.002632 0.003181 0.115980 0.000000 0.000000 0.000000
# 4 0.000000 0.000000 0.000000 0.044987 0.000000 0.000000
# 5 0.000000 0.000000 0.000000 0.000000 -1.006463 0.000000
# 6 0.000000 0.000000 0.000000 0.000000 0.000000 0.092604
#
#
# Mechanical properties :
#
#
# Convention : Reuss Voigt Hill
#
# Bulk Modulus (GPa) = 7.12812 20.03029 13.57920
# Shear Modulus (GPa) = -7.47561 15.16430 3.84435
#
# Velocity S-wave (km/s) = -1.94156 2.76528 1.39232
# Velocity P-wave (km/s) = 1.19657 4.50514 3.07119
#
# Compressibility (1/GPa) = 0.14028953
#
# Stress axis : x y z
#
# Youngs Moduli (GPa) = 62.18250 67.94841 8.62219
#
# Poissons Ratio (x) = 0.25772 0.02270
# Poissons Ratio (y) = 0.23585 -0.02743
# Poissons Ratio (z) = 0.16369 -0.21613
#
# Static dielectric constant tensor:
#      x y z
#    x 1.676750 0.000000 0.000000 
#    y 0.000000 1.736030 0.000000 
#    z 0.000000 0.000000 1.726260 
# 
# From -- ./inp_files/9010.got.cif
#   From: 2010.05.17/outbox.cif.g08.bks.cpg/sg59_5_cif.got.tgz:9010.got - 2010.06.03 14:40:33.
