data_PCOD9451883
_publ_section_title
;
Structure prediction by ZEFSAII (Michael W. Deem and Ramdas Pophale) SiO2 
 PCOD9451883
Probable space group: P M M N
;
_chemical_formula_sum "Si O2"
_cell_formula_units_Z 64
_cell_length_a 31.852809
_cell_length_b 8.950021
_cell_length_c 12.474916
_cell_angle_alpha 90.000000
_cell_angle_beta 90.000000
_cell_angle_gamma 90.000000
_cell_volume 3556.390339
_symmetry_space_group_name_H-M "P M M N"
_symmetry_group_IT_number 59
_space_group.IT_coordinate_system_code '2'
_symmetry_cell_setting 'orthorhombic'
loop_
_space_group_symop_operation_xyz
x,y,z
1/2-x,1/2-y,z
1/2+x,-y,-z
-x,1/2+y,-z
-x,-y,-z
1/2+x,1/2+y,-z
1/2-x,y,z
x,1/2-y,z
loop_
_atom_site_type_symbol
_atom_site_label
_atom_site_fract_x
_atom_site_fract_y
_atom_site_fract_z
Si Si1 0.987125 0.576023 0.611566
Si Si2 0.546184 0.570156 0.011860
Si Si3 0.128063 0.571656 0.597556
Si Si4 0.886840 0.575231 0.626265
Si Si5 0.124459 0.432525 0.133449
Si Si6 0.444115 0.071923 0.743233
Si Si7 0.298123 0.069792 0.985498
Si Si8 0.298025 0.571229 0.755803
O O1 0.999505 0.750000 0.610149
O O2 0.937388 0.567416 0.624571
O O3 0.000000 0.500000 0.500000
O O4 0.011211 0.492955 0.706601
O O5 0.541970 0.750000 0.002927
O O6 0.562997 0.536914 0.131878
O O7 0.500000 0.500000 0.000000
O O8 0.581331 0.520399 0.925922
O O9 0.123203 0.750000 0.597930
O O10 0.129085 0.513028 0.476677
O O11 0.089696 0.499663 0.663477
O O12 0.169865 0.530340 0.662779
O O13 0.875097 0.750000 0.615470
O O14 0.873120 0.519306 0.743138
O O15 0.123360 0.250000 0.134110
O O16 0.165611 0.478985 0.067159
O O17 0.443505 0.250000 0.729705
O O18 0.250000 0.023574 0.012140
O O19 0.298710 0.250000 0.982511
O O20 0.308197 0.008566 0.867512
O O21 0.250000 0.533972 0.727896
O O22 0.300677 0.750000 0.772068
#
# Coordination Sequence:
#
# PCOD9451883 Si02
#       8
#     8   8   8   8   8   8   8   8
#     4  11  21  34  53  76 104 142 185 226 267 314
#     4  10  21  36  54  76 105 141 178 220 267 319
#     4  11  22  35  54  78 104 137 177 220 265 315
#     4  10  21  36  54  74 104 145 182 220 266 317
#     4   9  18  35  55  76 106 143 177 215 269 321
#     4  11  22  35  54  80 108 138 175 222 273 321
#     4   9  17  32  58  87 109 134 173 218 263 319
#     4   9  19  36  56  79 108 138 168 210 268 326
#
# _framework density 17.995774999999998
#
# number of rings (size 3 to 8) (size 9 to 14) (size 15 to 20)
#    0.000    2.000    1.250    2.625    0.000    4.500 
#    0.000    2.500    0.000    0.750    0.000    0.000 
#    0.000    0.000    0.000    0.000    0.000    0.000 
#
# Total GULP energy -357277.217222 kJ/mol
# GULP energy per Si atom -5582.456519 kJ/mol
# Density = 1.795482 g / cm^3
# Si number density = 17.995775 Si / 1000 Ang^3
#
#
#
# Elastic Constant Matrix: (Units=GPa)
#
#
# Indices 1 2 3 4 5 6 
#
# 1 97.1170 31.8976 80.9990 0.0000 0.0000 0.0000
# 2 31.8976 34.0534 47.8681 0.0000 0.0000 0.0000
# 3 80.9990 47.8681 152.4359 0.0000 0.0000 0.0000
# 4 0.0000 0.0000 0.0000 21.1235 0.0000 0.0000
# 5 0.0000 0.0000 0.0000 0.0000 35.6954 0.0000
# 6 0.0000 0.0000 0.0000 0.0000 0.0000 18.6413
#
#
#
# Elastic Compliance Matrix: (Units=1/GPa)
#
#
# Indices 1 2 3 4 5 6 
#
# 1 0.019275 -0.006548 -0.008186 0.000000 0.000000 0.000000
# 2 -0.006548 0.054796 -0.013728 0.000000 0.000000 0.000000
# 3 -0.008186 -0.013728 0.015220 0.000000 0.000000 0.000000
# 4 0.000000 0.000000 0.000000 0.047341 0.000000 0.000000
# 5 0.000000 0.000000 0.000000 0.000000 0.028015 0.000000
# 6 0.000000 0.000000 0.000000 0.000000 0.000000 0.053644
#
#
# Mechanical properties :
#
#
# Convention : Reuss Voigt Hill
#
# Bulk Modulus (GPa) = 30.89446 67.23729 49.06587
# Shear Modulus (GPa) = 17.48236 23.28149 20.38193
#
# Velocity S-wave (km/s) = 3.12022 3.60073 3.36906
# Velocity P-wave (km/s) = 5.49417 7.39804 6.51602
#
# Compressibility (1/GPa) = 0.03236826
#
# Stress axis : x y z
#
# Youngs Moduli (GPa) = 51.88166 18.24957 65.70106
#
# Poissons Ratio (x) = 0.11950 0.53780
# Poissons Ratio (y) = 0.33972 0.90192
# Poissons Ratio (z) = 0.42468 0.25052
#
# Static dielectric constant tensor:
#      x y z
#    x 1.627490 0.000000 0.000000 
#    y 0.000000 1.608200 0.000000 
#    z 0.000000 0.000000 1.609650 
# 
# From -- ./inp_files/19393.got.cif
#   From: 2010.05.17/outbox.cif.g08.bks.cpg/sg59_10_cif.got.tgz:19393.got - 2010.06.03 14:40:33.
