data_PCOD9451548
_publ_section_title
;
Structure prediction by ZEFSAII (Michael W. Deem and Ramdas Pophale) SiO2 
 PCOD9451548
Probable space group: P M M N
;
_chemical_formula_sum "Si O2"
_cell_formula_units_Z 40
_cell_length_a 17.530501
_cell_length_b 14.693976
_cell_length_c 7.853431
_cell_angle_alpha 90.000000
_cell_angle_beta 90.000000
_cell_angle_gamma 90.000000
_cell_volume 2022.986974
_symmetry_space_group_name_H-M "P M M N"
_symmetry_group_IT_number 59
_space_group.IT_coordinate_system_code '2'
_symmetry_cell_setting 'orthorhombic'
loop_
_space_group_symop_operation_xyz
x,y,z
1/2-x,1/2-y,z
1/2+x,-y,-z
-x,1/2+y,-z
-x,-y,-z
1/2+x,1/2+y,-z
1/2-x,y,z
x,1/2-y,z
loop_
_atom_site_type_symbol
_atom_site_label
_atom_site_fract_x
_atom_site_fract_y
_atom_site_fract_z
Si Si1 0.157316 0.649780 0.473798
Si Si2 0.839799 0.858449 0.306430
Si Si3 0.841637 0.544225 0.663666
Si Si4 0.658608 0.349266 0.128291
Si Si5 0.086955 0.030360 0.994886
O O1 0.250000 0.649820 0.468501
O O2 0.131963 0.750000 0.413128
O O3 0.133140 0.559794 0.375370
O O4 0.135931 0.640501 0.672999
O O5 0.750000 0.880235 0.271392
O O6 0.848712 0.750000 0.303198
O O7 0.856529 0.897814 0.493901
O O8 0.890740 0.907496 0.165136
O O9 0.750000 0.545711 0.693286
O O10 0.885568 0.576606 0.830506
O O11 0.750000 0.347496 0.125143
O O12 0.631140 0.250000 0.067613
O O13 0.632486 0.435838 0.025333
O O14 0.000000 0.000000 0.000000
#
# Coordination Sequence:
#
# PCOD9451548 Si02
#       5
#     8   8   8   8   8
#     4   8  14  28  55  87 114 140 180 240 297 344
#     4  10  22  43  67  87 114 158 216 274 312 345
#     4  10  20  37  64  90 113 151 210 260 299 355
#     4   9  17  34  60  86 114 152 198 244 294 353
#     4  12  25  38  59  89 133 166 196 240 312 385
#
# _framework density 19.772742000000001
#
# number of rings (size 3 to 8) (size 9 to 14) (size 15 to 20)
#    0.000    2.200    2.000    3.000    0.000    3.200 
#    0.000    4.000    0.000    0.000    0.000    0.000 
#    0.000    0.000    0.000    0.000    0.000    0.000 
#
# Total GULP energy -223282.139267 kJ/mol
# GULP energy per Si atom -5582.053482 kJ/mol
# Density = 1.972774 g / cm^3
# Si number density = 19.772742 Si / 1000 Ang^3
#
#
#
# Elastic Constant Matrix: (Units=GPa)
#
#
# Indices 1 2 3 4 5 6 
#
# 1 54.0570 26.1232 60.9698 0.0000 0.0000 0.0000
# 2 26.1232 67.8824 41.1923 0.0000 0.0000 0.0000
# 3 60.9698 41.1923 131.2060 0.0000 0.0000 0.0000
# 4 0.0000 0.0000 0.0000 -0.6239 0.0000 0.0000
# 5 0.0000 0.0000 0.0000 0.0000 -10.6956 0.0000
# 6 0.0000 0.0000 0.0000 0.0000 0.0000 5.6154
#
#
#
# Elastic Compliance Matrix: (Units=1/GPa)
#
#
# Indices 1 2 3 4 5 6 
#
# 1 0.040261 -0.005115 -0.017103 0.000000 0.000000 0.000000
# 2 -0.005115 0.018848 -0.003540 0.000000 0.000000 0.000000
# 3 -0.017103 -0.003540 0.016681 0.000000 0.000000 0.000000
# 4 0.000000 0.000000 0.000000 -1.602906 0.000000 0.000000
# 5 0.000000 0.000000 0.000000 0.000000 -0.093496 0.000000
# 6 0.000000 0.000000 0.000000 0.000000 0.000000 0.178080
#
#
# Mechanical properties :
#
#
# Convention : Reuss Voigt Hill
#
# Bulk Modulus (GPa) = 41.19853 56.63511 48.91682
# Shear Modulus (GPa) = -3.61553 7.18320 1.78384
#
# Velocity S-wave (km/s) = -1.35370 1.90808 0.95086
# Velocity P-wave (km/s) = 4.29394 5.79306 5.09890
#
# Compressibility (1/GPa) = 0.02427271
#
# Stress axis : x y z
#
# Youngs Moduli (GPa) = 24.83805 53.05525 59.94998
#
# Poissons Ratio (x) = 0.27139 1.02531
# Poissons Ratio (y) = 0.12705 0.21225
# Poissons Ratio (z) = 0.42480 0.18784
#
# Static dielectric constant tensor:
#      x y z
#    x 1.674520 0.000000 0.000000 
#    y 0.000000 1.744160 0.000000 
#    z 0.000000 0.000000 1.723310 
# 
# From -- ./inp_files/8626.got.cif
#   From: 2010.05.17/outbox.cif.g08.bks.cpg/sg59_5_cif.got.tgz:8626.got - 2010.06.03 14:40:33.
