data_PCOD9451585
_publ_section_title
;
Structure prediction by ZEFSAII (Michael W. Deem and Ramdas Pophale) SiO2 
 PCOD9451585
Probable space group: P M M N
;
_chemical_formula_sum "Si O2"
_cell_formula_units_Z 48
_cell_length_a 14.505915
_cell_length_b 17.368403
_cell_length_c 9.395534
_cell_angle_alpha 90.000000
_cell_angle_beta 90.000000
_cell_angle_gamma 90.000000
_cell_volume 2367.153845
_symmetry_space_group_name_H-M "P M M N"
_symmetry_group_IT_number 59
_space_group.IT_coordinate_system_code '2'
_symmetry_cell_setting 'orthorhombic'
loop_
_space_group_symop_operation_xyz
x,y,z
1/2-x,1/2-y,z
1/2+x,-y,-z
-x,1/2+y,-z
-x,-y,-z
1/2+x,1/2+y,-z
1/2-x,y,z
x,1/2-y,z
loop_
_atom_site_type_symbol
_atom_site_label
_atom_site_fract_x
_atom_site_fract_y
_atom_site_fract_z
Si Si1 0.110340 0.975914 0.996693
Si Si2 0.861393 0.750000 0.035751
Si Si3 0.750000 0.160346 0.003542
Si Si4 0.637604 0.750000 0.707352
Si Si5 0.750000 0.162958 0.659790
Si Si6 0.600805 0.897615 0.219298
Si Si7 0.144917 0.101658 0.461956
Si Si8 0.901747 0.455559 0.688073
O O1 0.158011 0.892259 0.962857
O O2 0.143527 0.033451 0.873776
O O3 0.138879 0.988324 0.161579
O O4 0.000000 0.000000 0.000000
O O5 0.750000 0.750000 0.040907
O O6 0.896973 0.675684 0.117983
O O7 0.890311 0.750000 0.871356
O O8 0.750000 0.250000 0.057431
O O9 0.750000 0.167520 0.831988
O O10 0.750000 0.750000 0.702280
O O11 0.606953 0.825694 0.623778
O O12 0.750000 0.250000 0.603806
O O13 0.661896 0.111074 0.623709
O O14 0.647125 0.882532 0.370624
O O15 0.497325 0.918819 0.264587
O O16 0.250000 0.087161 0.414586
O O17 0.090191 0.025606 0.419875
#
# Coordination Sequence:
#
# PCOD9451585 Si02
#       8
#     8   4   4   4   4   8   8   8
#     4   9  20  37  58  89 124 159 211 268 319 371
#     4  11  23  39  59  92 119 156 202 248 324 367
#     4   9  18  34  63  88 119 166 215 257 320 383
#     4   9  21  39  61  83 119 158 200 249 288 379
#     4   9  18  34  59  86 109 148 209 253 282 361
#     4  11  23  36  59  90 127 156 199 262 308 373
#     4  11  21  37  59  87 120 162 206 244 309 368
#     4  10  20  38  60  86 115 163 206 245 304 370
#
# _framework density 20.277515000000001
#
# number of rings (size 3 to 8) (size 9 to 14) (size 15 to 20)
#    0.000    2.000    0.833    2.500    3.500    0.667 
#    4.500    0.000    5.500    2.000    0.000    0.000 
#    0.000    0.000    0.000    0.000    0.000    0.000 
#
# Total GULP energy -267400.093008 kJ/mol
# GULP energy per Si atom -5570.835271 kJ/mol
# Density = 2.023136 g / cm^3
# Si number density = 20.277515 Si / 1000 Ang^3
#
#
#
# Elastic Constant Matrix: (Units=GPa)
#
#
# Indices 1 2 3 4 5 6 
#
# 1 93.9382 43.5403 10.8550 0.0000 0.0000 0.0000
# 2 43.5403 182.0358 64.7282 0.0000 0.0000 0.0000
# 3 10.8550 64.7282 112.5414 0.0000 0.0000 0.0000
# 4 0.0000 0.0000 0.0000 23.9995 0.0000 0.0000
# 5 0.0000 0.0000 0.0000 0.0000 17.4573 0.0000
# 6 0.0000 0.0000 0.0000 0.0000 0.0000 32.2786
#
#
#
# Elastic Compliance Matrix: (Units=1/GPa)
#
#
# Indices 1 2 3 4 5 6 
#
# 1 0.012007 -0.003093 0.000621 0.000000 0.000000 0.000000
# 2 -0.003093 0.007702 -0.004132 0.000000 0.000000 0.000000
# 3 0.000621 -0.004132 0.011202 0.000000 0.000000 0.000000
# 4 0.000000 0.000000 0.000000 0.041667 0.000000 0.000000
# 5 0.000000 0.000000 0.000000 0.000000 0.057283 0.000000
# 6 0.000000 0.000000 0.000000 0.000000 0.000000 0.030980
#
#
# Mechanical properties :
#
#
# Convention : Reuss Voigt Hill
#
# Bulk Modulus (GPa) = 56.48431 69.64028 63.06229
# Shear Modulus (GPa) = 27.78542 32.70654 30.24598
#
# Velocity S-wave (km/s) = 3.70572 4.02051 3.86632
# Velocity P-wave (km/s) = 6.79896 7.48136 7.14831
#
# Compressibility (1/GPa) = 0.01770403
#
# Stress axis : x y z
#
# Youngs Moduli (GPa) = 83.28484 129.83209 89.26905
#
# Poissons Ratio (x) = 0.40151 -0.05540
# Poissons Ratio (y) = 0.25756 0.36883
# Poissons Ratio (z) = -0.05168 0.53642
#
# Static dielectric constant tensor:
#      x y z
#    x 1.828520 0.000000 0.000000 
#    y 0.000000 1.746040 0.000000 
#    z 0.000000 0.000000 1.709740 
# 
# From -- ./inp_files/9097.got.cif
#   From: 2010.05.17/outbox.cif.g08.bks.cpg/sg59_5_cif.got.tgz:9097.got - 2010.06.03 14:40:33.
