data_PCOD9451579
_publ_section_title
;
Structure prediction by ZEFSAII (Michael W. Deem and Ramdas Pophale) SiO2 
 PCOD9451579
Probable space group: P M M N
;
_chemical_formula_sum "Si O2"
_cell_formula_units_Z 48
_cell_length_a 7.712527
_cell_length_b 16.485536
_cell_length_c 17.485435
_cell_angle_alpha 90.000000
_cell_angle_beta 90.000000
_cell_angle_gamma 90.000000
_cell_volume 2223.188107
_symmetry_space_group_name_H-M "P M M N"
_symmetry_group_IT_number 59
_space_group.IT_coordinate_system_code '2'
_symmetry_cell_setting 'orthorhombic'
loop_
_space_group_symop_operation_xyz
x,y,z
1/2-x,1/2-y,z
1/2+x,-y,-z
-x,1/2+y,-z
-x,-y,-z
1/2+x,1/2+y,-z
1/2-x,y,z
x,1/2-y,z
loop_
_atom_site_type_symbol
_atom_site_label
_atom_site_fract_x
_atom_site_fract_y
_atom_site_fract_z
Si Si1 0.537954 0.842999 0.508535
Si Si2 0.959584 0.343015 0.194305
Si Si3 0.451179 0.383071 0.660731
Si Si4 0.539057 0.750000 0.221776
Si Si5 0.453119 0.437317 0.344139
Si Si6 0.045901 0.750000 0.045150
Si Si7 0.458614 0.586759 0.963338
O O1 0.750000 0.846842 0.509214
O O2 0.490227 0.750000 0.524434
O O3 0.475056 0.866819 0.423947
O O4 0.476637 0.901375 0.576259
O O5 0.750000 0.344757 0.196577
O O6 0.011987 0.250000 0.179523
O O7 0.018006 0.399823 0.124166
O O8 0.024066 0.373993 0.275751
O O9 0.250000 0.358727 0.654559
O O10 0.521101 0.327504 0.728653
O O11 0.462274 0.477705 0.677514
O O12 0.750000 0.750000 0.215837
O O13 0.472954 0.750000 0.135967
O O14 0.250000 0.453689 0.354457
O O15 0.250000 0.750000 0.025408
O O16 0.975560 0.834400 0.010321
O O17 0.250000 0.591003 0.962412
O O18 0.500000 0.500000 0.000000
#
# Coordination Sequence:
#
# PCOD9451579 Si02
#       7
#     8   8   8   4   8   4   8
#     4   9  17  34  58  81 110 151 193 235 283 335
#     4  10  21  41  64  84 114 155 196 235 281 341
#     4  10  20  38  60  81 110 151 197 238 281 339
#     4  10  22  38  60  85 108 146 196 239 282 340
#     4  11  23  35  55  88 121 150 187 236 290 340
#     4  10  22  42  64  87 120 154 188 239 302 354
#     4  10  22  41  64  89 117 155 195 237 292 353
#
# _framework density 21.590616000000001
#
# number of rings (size 3 to 8) (size 9 to 14) (size 15 to 20)
#    0.000    2.000    1.667    1.500    2.333    3.000 
#    0.000    0.833    0.000    2.000    0.000    0.000 
#    0.000    0.000    0.000    0.000    0.000    0.000 
#
# Total GULP energy -268138.703632 kJ/mol
# GULP energy per Si atom -5586.222992 kJ/mol
# Density = 2.154148 g / cm^3
# Si number density = 21.590616 Si / 1000 Ang^3
#
#
#
# Elastic Constant Matrix: (Units=GPa)
#
#
# Indices 1 2 3 4 5 6 
#
# 1 33.2120 -1.3041 -2.8500 0.0000 0.0000 0.0000
# 2 -1.3041 90.4756 13.2643 0.0000 0.0000 0.0000
# 3 -2.8500 13.2643 96.7857 0.0000 0.0000 0.0000
# 4 0.0000 0.0000 0.0000 25.0192 0.0000 0.0000
# 5 0.0000 0.0000 0.0000 0.0000 20.8188 0.0000
# 6 0.0000 0.0000 0.0000 0.0000 0.0000 17.4756
#
#
#
# Elastic Compliance Matrix: (Units=1/GPa)
#
#
# Indices 1 2 3 4 5 6 
#
# 1 0.030194 0.000311 0.000846 0.000000 0.000000 0.000000
# 2 0.000311 0.011283 -0.001537 0.000000 0.000000 0.000000
# 3 0.000846 -0.001537 0.010568 0.000000 0.000000 0.000000
# 4 0.000000 0.000000 0.000000 0.039969 0.000000 0.000000
# 5 0.000000 0.000000 0.000000 0.000000 0.048033 0.000000
# 6 0.000000 0.000000 0.000000 0.000000 0.000000 0.057223
#
#
# Mechanical properties :
#
#
# Convention : Reuss Voigt Hill
#
# Bulk Modulus (GPa) = 19.49862 26.52152 23.01007
# Shear Modulus (GPa) = 23.24236 26.75358 24.99797
#
# Velocity S-wave (km/s) = 3.28457 3.52395 3.40636
# Velocity P-wave (km/s) = 4.84099 5.37290 5.11387
#
# Compressibility (1/GPa) = 0.05128568
#
# Stress axis : x y z
#
# Youngs Moduli (GPa) = 33.11869 88.63254 94.62804
#
# Poissons Ratio (x) = -0.02758 -0.08010
# Poissons Ratio (y) = -0.01030 0.14545
# Poissons Ratio (z) = -0.02803 0.13624
#
# Static dielectric constant tensor:
#      x y z
#    x 1.811030 0.000000 0.000000 
#    y 0.000000 1.757720 0.000000 
#    z 0.000000 0.000000 1.761410 
# 
# From -- ./inp_files/20626.got.cif
#   From: 2010.05.17/outbox.cif.g08.bks.cpg/sg59_11_cif.got.tgz:20626.got - 2010.06.03 14:40:33.
