data_PCOD9451803
_publ_section_title
;
Structure prediction by ZEFSAII (Michael W. Deem and Ramdas Pophale) SiO2 
 PCOD9451803
Probable space group: P M M N
;
_chemical_formula_sum "Si O2"
_cell_formula_units_Z 56
_cell_length_a 15.177612
_cell_length_b 30.476114
_cell_length_c 6.838722
_cell_angle_alpha 90.000000
_cell_angle_beta 90.000000
_cell_angle_gamma 90.000000
_cell_volume 3163.282549
_symmetry_space_group_name_H-M "P M M N"
_symmetry_group_IT_number 59
_space_group.IT_coordinate_system_code '2'
_symmetry_cell_setting 'orthorhombic'
loop_
_space_group_symop_operation_xyz
x,y,z
1/2-x,1/2-y,z
1/2+x,-y,-z
-x,1/2+y,-z
-x,-y,-z
1/2+x,1/2+y,-z
1/2-x,y,z
x,1/2-y,z
loop_
_atom_site_type_symbol
_atom_site_label
_atom_site_fract_x
_atom_site_fract_y
_atom_site_fract_z
Si Si1 0.929844 0.535276 0.918764
Si Si2 0.151025 0.633738 0.923098
Si Si3 0.647460 0.197824 0.434507
Si Si4 0.929727 0.431399 0.353145
Si Si5 0.466492 0.864018 0.305177
Si Si6 0.148389 0.094517 0.737604
Si Si7 0.348252 0.013109 0.466784
O O1 0.866807 0.511693 0.763196
O O2 0.984772 0.568781 0.783439
O O3 0.879491 0.562110 0.084821
O O4 0.000000 0.500000 0.000000
O O5 0.250000 0.637415 0.002003
O O6 0.081774 0.631524 0.097918
O O7 0.133824 0.674197 0.774915
O O8 0.142885 0.591391 0.782555
O O9 0.750000 0.187702 0.491852
O O10 0.639203 0.250000 0.420330
O O11 0.576781 0.177589 0.584987
O O12 0.940580 0.404113 0.551101
O O13 0.911371 0.480993 0.414669
O O14 0.572095 0.868798 0.280179
O O15 0.250000 0.109369 0.760688
O O16 0.144750 0.062286 0.549738
O O17 0.250000 0.997238 0.507135
#
# Coordination Sequence:
#
# PCOD9451803 Si02
#       7
#     8   8   8   8   8   8   8
#     4  12  21  36  53  72 103 151 198 248 292 327
#     4  10  21  35  55  83 115 148 181 222 276 337
#     4   9  20  39  62  91 120 141 172 216 268 341
#     4  11  21  35  52  76 110 145 191 241 286 329
#     4  11  21  37  59  83 114 151 184 225 282 336
#     4  11  23  38  55  80 111 150 200 247 288 330
#     4  11  23  36  51  74 106 149 199 246 290 330
#
# _framework density 17.703130000000002
#
# number of rings (size 3 to 8) (size 9 to 14) (size 15 to 20)
#    0.000    1.286    4.286    2.571    0.000    2.286 
#    0.000    1.429    0.000    0.429    0.000    0.000 
#    0.000    0.000    0.000    0.000    0.000    0.000 
#
# Total GULP energy -312377.993859 kJ/mol
# GULP energy per Si atom -5578.178462 kJ/mol
# Density = 1.766284 g / cm^3
# Si number density = 17.703130 Si / 1000 Ang^3
#
#
#
# Elastic Constant Matrix: (Units=GPa)
#
#
# Indices 1 2 3 4 5 6 
#
# 1 126.9741 38.7002 57.3191 0.0000 0.0000 0.0000
# 2 38.7002 56.4187 22.4699 0.0000 0.0000 0.0000
# 3 57.3191 22.4699 92.5109 0.0000 0.0000 0.0000
# 4 0.0000 0.0000 0.0000 12.8653 0.0000 0.0000
# 5 0.0000 0.0000 0.0000 0.0000 29.7497 0.0000
# 6 0.0000 0.0000 0.0000 0.0000 0.0000 22.0793
#
#
#
# Elastic Compliance Matrix: (Units=1/GPa)
#
#
# Indices 1 2 3 4 5 6 
#
# 1 0.012593 -0.006123 -0.006315 0.000000 0.000000 0.000000
# 2 -0.006123 0.022600 -0.001696 0.000000 0.000000 0.000000
# 3 -0.006315 -0.001696 0.015134 0.000000 0.000000 0.000000
# 4 0.000000 0.000000 0.000000 0.077729 0.000000 0.000000
# 5 0.000000 0.000000 0.000000 0.000000 0.033614 0.000000
# 6 0.000000 0.000000 0.000000 0.000000 0.000000 0.045291
#
#
# Mechanical properties :
#
#
# Convention : Reuss Voigt Hill
#
# Bulk Modulus (GPa) = 45.33178 56.98691 51.15935
# Shear Modulus (GPa) = 20.61172 23.43315 22.02244
#
# Velocity S-wave (km/s) = 3.41588 3.64218 3.53084
# Velocity P-wave (km/s) = 6.42027 7.06735 6.75157
#
# Compressibility (1/GPa) = 0.02205958
#
# Stress axis : x y z
#
# Youngs Moduli (GPa) = 79.41204 44.24822 66.07550
#
# Poissons Ratio (x) = 0.27092 0.41728
# Poissons Ratio (y) = 0.48622 0.11204
# Poissons Ratio (z) = 0.50150 0.07503
#
# Static dielectric constant tensor:
#      x y z
#    x 1.653380 0.000000 0.000000 
#    y 0.000000 1.589600 0.000000 
#    z 0.000000 0.000000 1.617120 
# 
# From -- ./inp_files/2291.got.cif
#   From: 2010.05.17/outbox.cif.g08.bks.cpg/sg59_2_cif.got.tgz:2291.got - 2010.06.03 14:40:33.
