data_PCOD9451953
_publ_section_title
;
Structure prediction by ZEFSAII (Michael W. Deem and Ramdas Pophale) SiO2 
 PCOD9451953
Probable space group: P M M N
;
_chemical_formula_sum "Si O2"
_cell_formula_units_Z 64
_cell_length_a 9.108669
_cell_length_b 14.809620
_cell_length_c 26.864714
_cell_angle_alpha 90.000000
_cell_angle_beta 90.000000
_cell_angle_gamma 90.000000
_cell_volume 3623.940488
_symmetry_space_group_name_H-M "P M M N"
_symmetry_group_IT_number 59
_space_group.IT_coordinate_system_code '2'
_symmetry_cell_setting 'orthorhombic'
loop_
_space_group_symop_operation_xyz
x,y,z
1/2-x,1/2-y,z
1/2+x,-y,-z
-x,1/2+y,-z
-x,-y,-z
1/2+x,1/2+y,-z
1/2-x,y,z
x,1/2-y,z
loop_
_atom_site_type_symbol
_atom_site_label
_atom_site_fract_x
_atom_site_fract_y
_atom_site_fract_z
Si Si1 0.075616 0.855720 0.134304
Si Si2 0.574444 0.356445 0.239306
Si Si3 0.926461 0.007077 0.576257
Si Si4 0.077944 0.357849 0.762299
Si Si5 0.925050 0.504334 0.946511
Si Si6 0.422977 0.642187 0.874756
Si Si7 0.426891 0.354861 0.502641
Si Si8 0.074175 0.997519 0.308033
O O1 0.250000 0.866158 0.144209
O O2 0.047317 0.750000 0.124424
O O3 0.987409 0.882416 0.183705
O O4 0.037625 0.917120 0.087300
O O5 0.750000 0.369679 0.244247
O O6 0.545078 0.250000 0.245892
O O7 0.535021 0.380896 0.182223
O O8 0.489364 0.416989 0.278432
O O9 0.750000 0.017701 0.573245
O O10 0.964826 0.915853 0.545695
O O11 0.968040 0.000738 0.633943
O O12 0.001714 0.091239 0.548535
O O13 0.250000 0.380441 0.760483
O O14 0.061229 0.250000 0.756670
O O15 0.992336 0.410955 0.719793
O O16 0.750000 0.508032 0.952168
O O17 0.983151 0.588695 0.914682
O O18 0.000000 0.500000 0.000000
O O19 0.250000 0.620650 0.880947
O O20 0.438471 0.750000 0.880074
O O21 0.250000 0.356471 0.507636
O O22 0.472496 0.250000 0.499176
O O23 0.250000 0.996511 0.304799
#
# Coordination Sequence:
#
# PCOD9451953 Si02
#       8
#     8   8   8   8   8   8   8   8
#     4   9  19  37  58  78 103 136 174 216 262 314
#     4   9  19  36  57  81 109 142 178 215 259 311
#     4   9  20  36  52  76 108 139 174 215 261 312
#     4  10  21  36  55  79 106 139 178 218 263 315
#     4  11  23  36  53  79 107 137 174 215 262 314
#     4   9  19  37  58  77 102 138 175 214 263 313
#     4   9  18  35  58  78  99 133 176 221 266 310
#     4  11  22  34  52  79 112 147 177 213 261 311
#
# _framework density 17.660336000000001
#
# number of rings (size 3 to 8) (size 9 to 14) (size 15 to 20)
#    0.000    2.375    0.000    2.625    0.000    7.500 
#    0.000    6.250    0.000    0.000    0.000    0.000 
#    0.000    0.000    0.000    0.000    0.000    0.000 
#
# Total GULP energy -357245.592222 kJ/mol
# GULP energy per Si atom -5581.962378 kJ/mol
# Density = 1.762014 g / cm^3
# Si number density = 17.660336 Si / 1000 Ang^3
#
#
#
# Elastic Constant Matrix: (Units=GPa)
#
#
# Indices 1 2 3 4 5 6 
#
# 1 48.9631 47.6735 74.5754 0.0000 0.0000 0.0000
# 2 47.6735 104.2412 83.5514 0.0000 0.0000 0.0000
# 3 74.5754 83.5514 184.6510 0.0000 0.0000 0.0000
# 4 0.0000 0.0000 0.0000 76.3214 0.0000 0.0000
# 5 0.0000 0.0000 0.0000 0.0000 29.0071 0.0000
# 6 0.0000 0.0000 0.0000 0.0000 0.0000 31.4776
#
#
#
# Elastic Compliance Matrix: (Units=1/GPa)
#
#
# Indices 1 2 3 4 5 6 
#
# 1 0.062800 -0.013167 -0.019405 0.000000 0.000000 0.000000
# 2 -0.013167 0.017813 -0.002742 0.000000 0.000000 0.000000
# 3 -0.019405 -0.002742 0.014494 0.000000 0.000000 0.000000
# 4 0.000000 0.000000 0.000000 0.013102 0.000000 0.000000
# 5 0.000000 0.000000 0.000000 0.000000 0.034474 0.000000
# 6 0.000000 0.000000 0.000000 0.000000 0.000000 0.031769
#
#
# Mechanical properties :
#
#
# Convention : Reuss Voigt Hill
#
# Bulk Modulus (GPa) = 40.85412 83.27287 62.06350
# Shear Modulus (GPa) = 19.74411 36.16489 27.95450
#
# Velocity S-wave (km/s) = 3.34727 4.53018 3.98288
# Velocity P-wave (km/s) = 6.17433 8.63818 7.50801
#
# Compressibility (1/GPa) = 0.02447734
#
# Stress axis : x y z
#
# Youngs Moduli (GPa) = 15.92359 56.13914 68.99579
#
# Poissons Ratio (x) = 0.73919 1.33888
# Poissons Ratio (y) = 0.20967 0.18920
# Poissons Ratio (z) = 0.30900 0.15394
#
# Static dielectric constant tensor:
#      x y z
#    x 1.589980 0.000000 0.000000 
#    y 0.000000 1.600980 0.000000 
#    z 0.000000 0.000000 1.571300 
# 
# From -- ./inp_files/31689.got.cif
#   From: 2010.05.17/outbox.cif.g08.bks.cpg/sg59_16_cif.got.tgz:31689.got - 2010.06.03 14:40:33.
