data_PCOD9451736
_publ_section_title
;
Structure prediction by ZEFSAII (Michael W. Deem and Ramdas Pophale) SiO2 
 PCOD9451736
Probable space group: P M M N
;
_chemical_formula_sum "Si O2"
_cell_formula_units_Z 64
_cell_length_a 8.676305
_cell_length_b 23.388176
_cell_length_c 17.069979
_cell_angle_alpha 90.000000
_cell_angle_beta 90.000000
_cell_angle_gamma 90.000000
_cell_volume 3463.890467
_symmetry_space_group_name_H-M "P M M N"
_symmetry_group_IT_number 59
_space_group.IT_coordinate_system_code '2'
_symmetry_cell_setting 'orthorhombic'
loop_
_space_group_symop_operation_xyz
x,y,z
1/2-x,1/2-y,z
1/2+x,-y,-z
-x,1/2+y,-z
-x,-y,-z
1/2+x,1/2+y,-z
1/2-x,y,z
x,1/2-y,z
loop_
_atom_site_type_symbol
_atom_site_label
_atom_site_fract_x
_atom_site_fract_y
_atom_site_fract_z
Si Si1 0.435482 0.465323 0.120525
Si Si2 0.936667 0.317217 0.388422
Si Si3 0.067283 0.488277 0.585830
Si Si4 0.935241 0.183600 0.854634
Si Si5 0.935564 0.920534 0.708933
Si Si6 0.064216 0.918278 0.038507
Si Si7 0.069994 0.869186 0.443176
Si Si8 0.577819 0.683070 0.305446
O O1 0.250000 0.464687 0.122377
O O2 0.487583 0.440259 0.204129
O O3 0.482822 0.530310 0.097838
O O4 0.493440 0.429310 0.046371
O O5 0.750000 0.318115 0.386068
O O6 0.983804 0.250000 0.384151
O O7 0.982934 0.346137 0.472004
O O8 0.000520 0.359440 0.321379
O O9 0.250000 0.496233 0.587008
O O10 0.000000 0.500000 0.500000
O O11 0.992449 0.531102 0.648043
O O12 0.020001 0.422521 0.594252
O O13 0.750000 0.181304 0.845567
O O14 0.976709 0.250000 0.867924
O O15 0.980223 0.142272 0.925146
O O16 0.009199 0.159308 0.774993
O O17 0.750000 0.918356 0.707400
O O18 0.250000 0.920690 0.031855
O O19 0.250000 0.883725 0.450091
O O20 0.037465 0.822378 0.377799
O O21 0.750000 0.661269 0.323173
O O22 0.591508 0.750000 0.289936
#
# Coordination Sequence:
#
# PCOD9451736 Si02
#       8
#     8   8   8   8   8   8   8   8
#     4   9  20  37  57  83 112 143 183 230 281 342
#     4  10  22  40  61  83 110 149 196 244 291 338
#     4  12  24  39  58  85 117 151 189 232 282 334
#     4   9  18  33  54  80 111 148 188 230 281 343
#     4  11  23  39  60  86 117 154 192 234 287 341
#     4   9  18  35  58  83 110 143 182 228 283 340
#     4  11  22  37  58  82 111 150 193 238 285 335
#     4  10  21  35  51  78 115 151 191 235 277 331
#
# _framework density 18.476334000000001
#
# number of rings (size 3 to 8) (size 9 to 14) (size 15 to 20)
#    0.000    1.875    1.250    2.625    1.750    3.500 
#    0.000    0.625    0.000    2.250    0.000    0.000 
#    0.000    0.000    0.000    0.000    0.000    0.000 
#
# Total GULP energy -356850.392305 kJ/mol
# GULP energy per Si atom -5575.787380 kJ/mol
# Density = 1.843428 g / cm^3
# Si number density = 18.476334 Si / 1000 Ang^3
#
#
#
# Elastic Constant Matrix: (Units=GPa)
#
#
# Indices 1 2 3 4 5 6 
#
# 1 28.1416 27.3141 21.5203 0.0000 0.0000 0.0000
# 2 27.3141 99.3854 63.5330 0.0000 0.0000 0.0000
# 3 21.5203 63.5330 131.2153 0.0000 0.0000 0.0000
# 4 0.0000 0.0000 0.0000 26.6495 0.0000 0.0000
# 5 0.0000 0.0000 0.0000 0.0000 30.0535 0.0000
# 6 0.0000 0.0000 0.0000 0.0000 0.0000 28.4888
#
#
#
# Elastic Compliance Matrix: (Units=1/GPa)
#
#
# Indices 1 2 3 4 5 6 
#
# 1 0.048893 -0.012037 -0.002191 0.000000 0.000000 0.000000
# 2 -0.012037 0.017536 -0.006516 0.000000 0.000000 0.000000
# 3 -0.002191 -0.006516 0.011136 0.000000 0.000000 0.000000
# 4 0.000000 0.000000 0.000000 0.037524 0.000000 0.000000
# 5 0.000000 0.000000 0.000000 0.000000 0.033274 0.000000
# 6 0.000000 0.000000 0.000000 0.000000 0.000000 0.035101
#
#
# Mechanical properties :
#
#
# Convention : Reuss Voigt Hill
#
# Bulk Modulus (GPa) = 27.71919 53.71965 40.71942
# Shear Modulus (GPa) = 21.09913 26.79668 23.94790
#
# Velocity S-wave (km/s) = 3.38295 3.81244 3.60410
# Velocity P-wave (km/s) = 5.50402 6.96546 6.27741
#
# Compressibility (1/GPa) = 0.03607609
#
# Stress axis : x y z
#
# Youngs Moduli (GPa) = 20.45294 57.02687 89.80258
#
# Poissons Ratio (x) = 0.68642 0.19673
# Poissons Ratio (y) = 0.24619 0.58519
# Poissons Ratio (z) = 0.04481 0.37161
#
# Static dielectric constant tensor:
#      x y z
#    x 1.630040 0.000000 0.000000 
#    y 0.000000 1.656680 0.000000 
#    z 0.000000 0.000000 1.672500 
# 
# From -- ./inp_files/21488.got.cif
#   From: 2010.05.17/outbox.cif.g08.bks.cpg/sg59_11_cif.got.tgz:21488.got - 2010.06.03 14:40:33.
