data_PCOD9451111
_publ_section_title
;
Structure prediction by ZEFSAII (Michael W. Deem and Ramdas Pophale) SiO2 
 PCOD9451111
Probable space group: P M M N
;
_chemical_formula_sum "Si O2"
_cell_formula_units_Z 64
_cell_length_a 9.272936
_cell_length_b 23.155892
_cell_length_c 16.037675
_cell_angle_alpha 90.000000
_cell_angle_beta 90.000000
_cell_angle_gamma 90.000000
_cell_volume 3443.659366
_symmetry_space_group_name_H-M "P M M N"
_symmetry_group_IT_number 59
_space_group.IT_coordinate_system_code '2'
_symmetry_cell_setting 'orthorhombic'
loop_
_space_group_symop_operation_xyz
x,y,z
1/2-x,1/2-y,z
1/2+x,-y,-z
-x,1/2+y,-z
-x,-y,-z
1/2+x,1/2+y,-z
1/2-x,y,z
x,1/2-y,z
loop_
_atom_site_type_symbol
_atom_site_label
_atom_site_fract_x
_atom_site_fract_y
_atom_site_fract_z
Si Si1 0.923137 0.818011 0.823735
Si Si2 0.413529 0.318914 0.650278
Si Si3 0.584425 0.413336 0.727787
Si Si4 0.590477 0.181494 0.491501
Si Si5 0.918937 0.993406 0.588317
Si Si6 0.421036 0.472439 0.877310
Si Si7 0.920931 0.916968 0.947123
Si Si8 0.418575 0.610210 0.678232
O O1 0.750000 0.820407 0.808153
O O2 0.963746 0.750000 0.826207
O O3 0.950758 0.853787 0.909215
O O4 0.005593 0.854044 0.752133
O O5 0.250000 0.338437 0.662933
O O6 0.420512 0.250000 0.658599
O O7 0.518632 0.350618 0.713351
O O8 0.467645 0.333343 0.557213
O O9 0.750000 0.412024 0.754007
O O10 0.575328 0.447352 0.640234
O O11 0.491825 0.447053 0.795362
O O12 0.750000 0.168013 0.527727
O O13 0.584453 0.250000 0.477330
O O14 0.578252 0.149763 0.404393
O O15 0.750000 0.978709 0.574949
O O16 0.995161 0.946381 0.648304
O O17 0.000000 0.000000 0.500000
O O18 0.250000 0.478062 0.868766
O O19 0.490065 0.534422 0.897999
O O20 0.451080 0.429743 0.955814
O O21 0.750000 0.927987 0.934474
O O22 0.250000 0.597556 0.697839
#
# Coordination Sequence:
#
# PCOD9451111 Si02
#       8
#     8   8   8   8   8   8   8   8
#     4  10  21  37  57  81 112 151 190 229 279 340
#     4  10  21  36  55  79 104 132 172 221 266 310
#     4  11  23  38  56  79 109 143 178 217 267 326
#     4   9  18  33  51  71 100 139 179 218 263 314
#     4  11  24  39  55  79 112 150 190 234 283 333
#     4  10  20  35  59  87 111 140 181 229 278 328
#     4   9  19  37  58  82 112 143 179 224 277 336
#     4  11  22  35  53  79 111 147 187 231 278 329
#
# _framework density 18.584882
#
# number of rings (size 3 to 8) (size 9 to 14) (size 15 to 20)
#    0.000    1.875    0.000    3.750    0.000   11.500 
#    0.000    1.875    0.000    2.250    0.000    0.000 
#    0.000    0.000    0.000    0.000    0.000    0.000 
#
# Total GULP energy -357315.873272 kJ/mol
# GULP energy per Si atom -5583.060520 kJ/mol
# Density = 1.854258 g / cm^3
# Si number density = 18.584882 Si / 1000 Ang^3
#
#
#
# Elastic Constant Matrix: (Units=GPa)
#
#
# Indices 1 2 3 4 5 6 
#
# 1 73.3243 48.1047 36.8908 0.0000 0.0000 0.0000
# 2 48.1047 84.7660 38.0697 0.0000 0.0000 0.0000
# 3 36.8908 38.0697 59.6094 0.0000 0.0000 0.0000
# 4 0.0000 0.0000 0.0000 28.0189 0.0000 0.0000
# 5 0.0000 0.0000 0.0000 0.0000 29.1669 0.0000
# 6 0.0000 0.0000 0.0000 0.0000 0.0000 28.2960
#
#
#
# Elastic Compliance Matrix: (Units=1/GPa)
#
#
# Indices 1 2 3 4 5 6 
#
# 1 0.024674 -0.010018 -0.008872 0.000000 0.000000 0.000000
# 2 -0.010018 0.020609 -0.006962 0.000000 0.000000 0.000000
# 3 -0.008872 -0.006962 0.026713 0.000000 0.000000 0.000000
# 4 0.000000 0.000000 0.000000 0.035690 0.000000 0.000000
# 5 0.000000 0.000000 0.000000 0.000000 0.034285 0.000000
# 6 0.000000 0.000000 0.000000 0.000000 0.000000 0.035341
#
#
# Mechanical properties :
#
#
# Convention : Reuss Voigt Hill
#
# Bulk Modulus (GPa) = 49.28141 51.53668 50.40905
# Shear Modulus (GPa) = 21.20606 23.40533 22.30570
#
# Velocity S-wave (km/s) = 3.38159 3.55262 3.46816
# Velocity P-wave (km/s) = 6.46694 6.67973 6.57420
#
# Compressibility (1/GPa) = 0.02029163
#
# Stress axis : x y z
#
# Youngs Moduli (GPa) = 40.52826 48.52205 37.43463
#
# Poissons Ratio (x) = 0.48609 0.33213
# Poissons Ratio (y) = 0.40601 0.26063
# Poissons Ratio (z) = 0.35958 0.33782
#
# Static dielectric constant tensor:
#      x y z
#    x 1.629260 0.000000 0.000000 
#    y 0.000000 1.659260 0.000000 
#    z 0.000000 0.000000 1.625380 
# 
# From -- ./inp_files/21559.got.cif
#   From: 2010.05.17/outbox.cif.g08.bks.cpg/sg59_11_cif.got.tgz:21559.got - 2010.06.03 14:40:33.
