data_PCOD9451417
_publ_section_title
;
Structure prediction by ZEFSAII (Michael W. Deem and Ramdas Pophale) SiO2 
 PCOD9451417
Probable space group: P M M N
;
_chemical_formula_sum "Si O2"
_cell_formula_units_Z 64
_cell_length_a 8.831580
_cell_length_b 31.244289
_cell_length_c 12.051469
_cell_angle_alpha 90.000000
_cell_angle_beta 90.000000
_cell_angle_gamma 90.000000
_cell_volume 3325.439427
_symmetry_space_group_name_H-M "P M M N"
_symmetry_group_IT_number 59
_space_group.IT_coordinate_system_code '2'
_symmetry_cell_setting 'orthorhombic'
loop_
_space_group_symop_operation_xyz
x,y,z
1/2-x,1/2-y,z
1/2+x,-y,-z
-x,1/2+y,-z
-x,-y,-z
1/2+x,1/2+y,-z
1/2-x,y,z
x,1/2-y,z
loop_
_atom_site_type_symbol
_atom_site_label
_atom_site_fract_x
_atom_site_fract_y
_atom_site_fract_z
Si Si1 0.930247 0.626401 0.390749
Si Si2 0.431784 0.799411 0.242452
Si Si3 0.570163 0.122919 0.366458
Si Si4 0.430474 0.456087 0.231881
Si Si5 0.928044 0.174170 0.007547
Si Si6 0.570500 0.798830 0.765551
Si Si7 0.928505 0.428686 0.001285
Si Si8 0.930740 0.545361 0.233971
O O1 0.750000 0.628173 0.409910
O O2 0.963645 0.584524 0.316606
O O3 0.983889 0.667638 0.321788
O O4 0.015910 0.624014 0.507015
O O5 0.250000 0.805929 0.252478
O O6 0.465323 0.750000 0.268062
O O7 0.471220 0.809155 0.114155
O O8 0.750000 0.118480 0.358176
O O9 0.492562 0.083375 0.303246
O O10 0.518136 0.166414 0.306279
O O11 0.250000 0.456705 0.234022
O O12 0.489049 0.449392 0.106231
O O13 0.497298 0.500964 0.273664
O O14 0.750000 0.184352 0.025188
O O15 0.944011 0.122766 0.009646
O O16 0.024029 0.194037 0.106578
O O17 0.750000 0.805752 0.752725
O O18 0.535042 0.750000 0.733575
O O19 0.750000 0.439115 0.004264
O O20 0.999486 0.443694 0.885886
O O21 0.750000 0.540891 0.224276
#
# Coordination Sequence:
#
# PCOD9451417 Si02
#       8
#     8   8   8   8   8   8   8   8
#     4  11  25  44  66  91 123 163 208 261 312 365
#     4  10  21  39  64  94 128 166 208 254 306 367
#     4  12  26  45  68  91 121 163 211 261 311 371
#     4  12  25  42  66  94 128 165 206 257 313 372
#     4  10  20  36  63  94 129 169 208 253 309 371
#     4  11  24  41  64  95 130 166 207 257 312 370
#     4  11  21  37  64  96 130 167 207 253 311 371
#     4  11  24  42  65  94 128 166 209 255 311 373
#
# _framework density 19.245577000000001
#
# number of rings (size 3 to 8) (size 9 to 14) (size 15 to 20)
#    0.000    1.000    2.500    4.500    0.000    5.250 
#    0.000    0.000    0.000    0.000    0.000    0.000 
#    0.000    0.000    0.000    0.000    0.000    0.000 
#
# Total GULP energy -358173.141995 kJ/mol
# GULP energy per Si atom -5596.455344 kJ/mol
# Density = 1.920177 g / cm^3
# Si number density = 19.245577 Si / 1000 Ang^3
#
#
#
# Elastic Constant Matrix: (Units=GPa)
#
#
# Indices 1 2 3 4 5 6 
#
# 1 106.3190 72.2672 50.8047 0.0000 0.0000 0.0000
# 2 72.2672 123.8676 47.0879 0.0000 0.0000 0.0000
# 3 50.8047 47.0879 93.9261 0.0000 0.0000 0.0000
# 4 0.0000 0.0000 0.0000 -8.4369 0.0000 0.0000
# 5 0.0000 0.0000 0.0000 0.0000 36.6098 0.0000
# 6 0.0000 0.0000 0.0000 0.0000 0.0000 85.2349
#
#
#
# Elastic Compliance Matrix: (Units=1/GPa)
#
#
# Indices 1 2 3 4 5 6 
#
# 1 0.017545 -0.008189 -0.005385 0.000000 0.000000 0.000000
# 2 -0.008189 0.013796 -0.002487 0.000000 0.000000 0.000000
# 3 -0.005385 -0.002487 0.014806 0.000000 0.000000 0.000000
# 4 0.000000 0.000000 0.000000 -0.118527 0.000000 0.000000
# 5 0.000000 0.000000 0.000000 0.000000 0.027315 0.000000
# 6 0.000000 0.000000 0.000000 0.000000 0.000000 0.011732
#
#
# Mechanical properties :
#
#
# Convention : Reuss Voigt Hill
#
# Bulk Modulus (GPa) = 71.29733 73.82581 72.56157
# Shear Modulus (GPa) = 1443.06743 32.94509 738.00626
#
# Velocity S-wave (km/s) = 27.41251 4.14191 19.60358
# Velocity P-wave (km/s) = 32.23436 7.83052 23.45603
#
# Compressibility (1/GPa) = 0.01402577
#
# Stress axis : x y z
#
# Youngs Moduli (GPa) = 56.99579 72.48302 67.54019
#
# Poissons Ratio (x) = 0.59358 0.36368
# Poissons Ratio (y) = 0.46675 0.16797
# Poissons Ratio (z) = 0.30690 0.18026
#
# Static dielectric constant tensor:
#      x y z
#    x 1.643250 0.000000 0.000000 
#    y 0.000000 1.665310 0.000000 
#    z 0.000000 0.000000 1.633930 
# 
# From -- ./inp_files/14927.got.cif
#   From: 2010.05.17/outbox.cif.g08.bks.cpg/sg59_8_cif.got.tgz:14927.got - 2010.06.03 14:40:33.
