data_PCOD9451980
_publ_section_title
;
Structure prediction by ZEFSAII (Michael W. Deem and Ramdas Pophale) SiO2 
 PCOD9451980
Probable space group: P M M N
;
_chemical_formula_sum "Si O2"
_cell_formula_units_Z 56
_cell_length_a 23.182593
_cell_length_b 8.213014
_cell_length_c 15.284235
_cell_angle_alpha 90.000000
_cell_angle_beta 90.000000
_cell_angle_gamma 90.000000
_cell_volume 2910.102462
_symmetry_space_group_name_H-M "P M M N"
_symmetry_group_IT_number 59
_space_group.IT_coordinate_system_code '2'
_symmetry_cell_setting 'orthorhombic'
loop_
_space_group_symop_operation_xyz
x,y,z
1/2-x,1/2-y,z
1/2+x,-y,-z
-x,1/2+y,-z
-x,-y,-z
1/2+x,1/2+y,-z
1/2-x,y,z
x,1/2-y,z
loop_
_atom_site_type_symbol
_atom_site_label
_atom_site_fract_x
_atom_site_fract_y
_atom_site_fract_z
Si Si1 0.915598 0.555884 0.701962
Si Si2 0.522869 0.940264 0.406215
Si Si3 0.576276 0.552765 0.083755
Si Si4 0.815499 0.053128 0.573512
Si Si5 0.448171 0.445800 0.111565
Si Si6 0.648963 0.440423 0.379796
Si Si7 0.686418 0.555814 0.192796
O O1 0.925124 0.750000 0.698281
O O2 0.860929 0.513949 0.642689
O O3 0.911893 0.505245 0.803411
O O4 0.971194 0.469848 0.660711
O O5 0.537428 0.750000 0.411050
O O6 0.500000 0.000000 0.500000
O O7 0.580130 0.035954 0.379661
O O8 0.577480 0.750000 0.084822
O O9 0.514555 0.500285 0.122381
O O10 0.631688 0.491999 0.137598
O O11 0.574862 0.495665 0.982497
O O12 0.750000 0.008650 0.595201
O O13 0.820499 0.250000 0.573494
O O14 0.829761 0.998118 0.474447
O O15 0.448039 0.250000 0.107567
O O16 0.663744 0.250000 0.374135
O O17 0.675292 0.525448 0.295266
O O18 0.750000 0.490531 0.168921
O O19 0.687573 0.750000 0.178572
#
# Coordination Sequence:
#
# PCOD9451980 Si02
#       7
#     8   8   8   8   8   8   8
#     4  11  22  36  56  83 113 146 182 226 275 326
#     4  12  23  36  55  82 113 146 182 226 275 325
#     4   9  18  35  57  81 109 142 179 224 278 333
#     4  10  22  39  56  74 103 146 190 229 270 321
#     4   9  19  35  56  83 111 139 179 227 278 333
#     4  11  22  37  57  81 110 147 186 228 278 330
#     4  10  21  36  55  81 112 148 189 231 277 334
#
# _framework density 19.243307000000001
#
# number of rings (size 3 to 8) (size 9 to 14) (size 15 to 20)
#    0.000    1.714    1.429    3.429    0.000    5.714 
#    0.000    0.714    0.000    2.571    0.000    0.000 
#    0.000    0.000    0.000    0.000    0.000    0.000 
#
# Total GULP energy -312783.633122 kJ/mol
# GULP energy per Si atom -5585.422020 kJ/mol
# Density = 1.919951 g / cm^3
# Si number density = 19.243307 Si / 1000 Ang^3
#
#
#
# Elastic Constant Matrix: (Units=GPa)
#
#
# Indices 1 2 3 4 5 6 
#
# 1 97.8061 -7.7148 58.3003 0.0000 0.0000 0.0000
# 2 -7.7148 13.1873 6.2359 0.0000 0.0000 0.0000
# 3 58.3003 6.2359 124.1652 0.0000 0.0000 0.0000
# 4 0.0000 0.0000 0.0000 20.9667 0.0000 0.0000
# 5 0.0000 0.0000 0.0000 0.0000 13.3915 0.0000
# 6 0.0000 0.0000 0.0000 0.0000 0.0000 19.9914
#
#
#
# Elastic Compliance Matrix: (Units=1/GPa)
#
#
# Indices 1 2 3 4 5 6 
#
# 1 0.016225 0.013413 -0.008292 0.000000 0.000000 0.000000
# 2 0.013413 0.088763 -0.010756 0.000000 0.000000 0.000000
# 3 -0.008292 -0.010756 0.012487 0.000000 0.000000 0.000000
# 4 0.000000 0.000000 0.000000 0.047695 0.000000 0.000000
# 5 0.000000 0.000000 0.000000 0.000000 0.074674 0.000000
# 6 0.000000 0.000000 0.000000 0.000000 0.000000 0.050022
#
#
# Mechanical properties :
#
#
# Convention : Reuss Voigt Hill
#
# Bulk Modulus (GPa) = 9.41565 38.75572 24.08568
# Shear Modulus (GPa) = 14.85717 22.75906 18.80811
#
# Velocity S-wave (km/s) = 2.78163 3.44277 3.12971
# Velocity P-wave (km/s) = 3.90130 5.99893 5.06001
#
# Compressibility (1/GPa) = 0.10620612
#
# Stress axis : x y z
#
# Youngs Moduli (GPa) = 61.63362 11.26589 80.08124
#
# Poissons Ratio (x) = -0.15111 0.66402
# Poissons Ratio (y) = -0.82668 0.86134
# Poissons Ratio (z) = 0.51106 0.12117
#
# Static dielectric constant tensor:
#      x y z
#    x 1.628320 0.000000 0.000000 
#    y 0.000000 1.688280 0.000000 
#    z 0.000000 0.000000 1.679580 
# 
# From -- ./inp_files/24191.got.cif
#   From: 2010.05.17/outbox.cif.g08.bks.cpg/sg59_13_cif.got.tgz:24191.got - 2010.06.03 14:40:33.
