data_PCOD9451708
_publ_section_title
;
Structure prediction by ZEFSAII (Michael W. Deem and Ramdas Pophale) SiO2 
 PCOD9451708
Probable space group: P M M N
;
_chemical_formula_sum "Si O2"
_cell_formula_units_Z 56
_cell_length_a 15.176630
_cell_length_b 13.276395
_cell_length_c 16.001770
_cell_angle_alpha 90.000000
_cell_angle_beta 90.000000
_cell_angle_gamma 90.000000
_cell_volume 3224.211593
_symmetry_space_group_name_H-M "P M M N"
_symmetry_group_IT_number 59
_space_group.IT_coordinate_system_code '2'
_symmetry_cell_setting 'orthorhombic'
loop_
_space_group_symop_operation_xyz
x,y,z
1/2-x,1/2-y,z
1/2+x,-y,-z
-x,1/2+y,-z
-x,-y,-z
1/2+x,1/2+y,-z
1/2-x,y,z
x,1/2-y,z
loop_
_atom_site_type_symbol
_atom_site_label
_atom_site_fract_x
_atom_site_fract_y
_atom_site_fract_z
Si Si1 0.501753 0.969508 0.404115
Si Si2 0.654150 0.134991 0.674735
Si Si3 0.147730 0.005378 0.162783
Si Si4 0.645034 0.632248 0.290468
Si Si5 0.016362 0.135522 0.263780
Si Si6 0.356655 0.633072 0.009068
Si Si7 0.854239 0.447491 0.174563
O O1 0.479624 0.065282 0.345369
O O2 0.500000 0.000000 0.500000
O O3 0.423533 0.891464 0.386965
O O4 0.589525 0.918164 0.365599
O O5 0.750000 0.116819 0.635539
O O6 0.648730 0.250000 0.701256
O O7 0.648258 0.068423 0.757491
O O8 0.250000 0.037385 0.147945
O O9 0.082445 0.093228 0.192433
O O10 0.114575 0.939095 0.084787
O O11 0.750000 0.628080 0.306540
O O12 0.620710 0.750000 0.278676
O O13 0.627974 0.560890 0.209264
O O14 0.037269 0.250000 0.283156
O O15 0.917479 0.122772 0.228987
O O16 0.250000 0.638644 0.016362
O O17 0.388285 0.750000 0.011292
O O18 0.375508 0.578063 0.921360
O O19 0.750000 0.428203 0.186569
#
# Coordination Sequence:
#
# PCOD9451708 Si02
#       7
#     8   8   8   8   8   8   8
#     4  10  21  35  53  75 100 126 161 209 252 297
#     4   9  17  31  52  75  99 127 159 200 250 297
#     4   9  18  32  49  72 102 134 170 207 242 288
#     4   9  18  34  55  76 101 134 167 200 245 302
#     4  10  21  35  50  70  98 134 170 203 248 301
#     4   9  16  28  50  77 103 133 169 209 250 289
#     4   9  18  33  52  75 102 130 164 206 247 289
#
# _framework density 17.368587000000002
#
# number of rings (size 3 to 8) (size 9 to 14) (size 15 to 20)
#    0.000    2.714    0.000    1.286    0.000    5.143 
#    0.000    1.429    0.000    2.571    0.000    0.000 
#    0.000    0.000    0.000    0.000    0.000    0.000 
#
# Total GULP energy -311853.842951 kJ/mol
# GULP energy per Si atom -5568.818624 kJ/mol
# Density = 1.732906 g / cm^3
# Si number density = 17.368587 Si / 1000 Ang^3
#
#
#
# Elastic Constant Matrix: (Units=GPa)
#
#
# Indices 1 2 3 4 5 6 
#
# 1 49.4476 30.8754 23.6379 0.0000 0.0000 0.0000
# 2 30.8754 111.3644 29.3482 0.0000 0.0000 0.0000
# 3 23.6379 29.3482 75.9092 0.0000 0.0000 0.0000
# 4 0.0000 0.0000 0.0000 11.6977 0.0000 0.0000
# 5 0.0000 0.0000 0.0000 0.0000 13.9441 0.0000
# 6 0.0000 0.0000 0.0000 0.0000 0.0000 9.7788
#
#
#
# Elastic Compliance Matrix: (Units=1/GPa)
#
#
# Indices 1 2 3 4 5 6 
#
# 1 0.026765 -0.005817 -0.006086 0.000000 0.000000 0.000000
# 2 -0.005817 0.011262 -0.002543 0.000000 0.000000 0.000000
# 3 -0.006086 -0.002543 0.016052 0.000000 0.000000 0.000000
# 4 0.000000 0.000000 0.000000 0.085487 0.000000 0.000000
# 5 0.000000 0.000000 0.000000 0.000000 0.071715 0.000000
# 6 0.000000 0.000000 0.000000 0.000000 0.000000 0.102262
#
#
# Mechanical properties :
#
#
# Convention : Reuss Voigt Hill
#
# Bulk Modulus (GPa) = 39.70090 44.93825 42.31958
# Shear Modulus (GPa) = 14.25195 17.27476 15.76335
#
# Velocity S-wave (km/s) = 2.86765 3.15715 3.01587
# Velocity P-wave (km/s) = 5.81997 6.26255 6.04531
#
# Compressibility (1/GPa) = 0.02518834
#
# Stress axis : x y z
#
# Youngs Moduli (GPa) = 37.36289 88.79152 62.29817
#
# Poissons Ratio (x) = 0.51647 0.37912
# Poissons Ratio (y) = 0.21733 0.15842
# Poissons Ratio (z) = 0.22737 0.22580
#
# Static dielectric constant tensor:
#      x y z
#    x 1.624220 0.000000 0.000000 
#    y 0.000000 1.595730 0.000000 
#    z 0.000000 0.000000 1.593700 
# 
# From -- ./inp_files/22511.got.cif
#   From: 2010.05.17/outbox.cif.g08.bks.cpg/sg59_12_cif.got.tgz:22511.got - 2010.06.03 14:40:33.
