data_PCOD9451426
_publ_section_title
;
Structure prediction by ZEFSAII (Michael W. Deem and Ramdas Pophale) SiO2 
 PCOD9451426
Probable space group: P M M N
;
_chemical_formula_sum "Si O2"
_cell_formula_units_Z 48
_cell_length_a 16.906090
_cell_length_b 7.628801
_cell_length_c 16.061477
_cell_angle_alpha 90.000000
_cell_angle_beta 90.000000
_cell_angle_gamma 90.000000
_cell_volume 2071.500026
_symmetry_space_group_name_H-M "P M M N"
_symmetry_group_IT_number 59
_space_group.IT_coordinate_system_code '2'
_symmetry_cell_setting 'orthorhombic'
loop_
_space_group_symop_operation_xyz
x,y,z
1/2-x,1/2-y,z
1/2+x,-y,-z
-x,1/2+y,-z
-x,-y,-z
1/2+x,1/2+y,-z
1/2-x,y,z
x,1/2-y,z
loop_
_atom_site_type_symbol
_atom_site_label
_atom_site_fract_x
_atom_site_fract_y
_atom_site_fract_z
Si Si1 0.619367 0.038589 0.148904
Si Si2 0.161851 0.043916 0.205623
Si Si3 0.576107 0.460660 0.443733
Si Si4 0.750000 0.054109 0.460999
Si Si5 0.994765 0.535872 0.724923
Si Si6 0.409618 0.540841 0.027377
Si Si7 0.250000 0.444770 0.719767
O O1 0.622932 0.250000 0.147227
O O2 0.534785 0.987459 0.187146
O O3 0.636122 0.977799 0.055816
O O4 0.677956 0.974406 0.218835
O O5 0.250000 0.967428 0.209453
O O6 0.168067 0.250000 0.224602
O O7 0.095372 0.972466 0.269016
O O8 0.126164 0.032282 0.112248
O O9 0.500000 0.500000 0.500000
O O10 0.585442 0.250000 0.438609
O O11 0.662089 0.526981 0.476064
O O12 0.548410 0.524706 0.352181
O O13 0.750000 0.250000 0.498468
O O14 0.750000 0.066012 0.360173
O O15 0.994385 0.750000 0.720638
O O16 0.402871 0.750000 0.034219
O O17 0.500000 0.500000 0.000000
O O18 0.250000 0.250000 0.685043
#
# Coordination Sequence:
#
# PCOD9451426 Si02
#       7
#     8   8   8   4   8   8   4
#     4  10  20  37  57  77 111 157 197 230 287 365
#     4  10  21  38  58  82 116 155 200 248 292 345
#     4  10  21  39  64  90 120 155 197 242 293 357
#     4  10  20  40  66  88 117 164 199 230 297 380
#     4   9  17  36  62  83 106 150 197 232 283 355
#     4  11  22  36  57  81 110 149 197 247 296 347
#     4  12  24  34  54  90 121 142 187 254 299 332
#
# _framework density 23.171614999999999
#
# number of rings (size 3 to 8) (size 9 to 14) (size 15 to 20)
#    0.000    1.833    3.333    1.250    1.167    2.333 
#    1.500    0.833    0.000    0.000    0.000    0.000 
#    0.000    0.000    0.000    0.000    0.000    0.000 
#
# Total GULP energy -267747.655297 kJ/mol
# GULP energy per Si atom -5578.076152 kJ/mol
# Density = 2.311888 g / cm^3
# Si number density = 23.171615 Si / 1000 Ang^3
#
#
#
# Elastic Constant Matrix: (Units=GPa)
#
#
# Indices 1 2 3 4 5 6 
#
# 1 187.6195 -0.3111 25.4966 0.0000 0.0000 0.0000
# 2 -0.3111 41.6428 -10.4396 0.0000 0.0000 0.0000
# 3 25.4966 -10.4396 42.3134 0.0000 0.0000 0.0000
# 4 0.0000 0.0000 0.0000 15.5896 0.0000 0.0000
# 5 0.0000 0.0000 0.0000 0.0000 38.2032 0.0000
# 6 0.0000 0.0000 0.0000 0.0000 0.0000 13.7923
#
#
#
# Elastic Compliance Matrix: (Units=1/GPa)
#
#
# Indices 1 2 3 4 5 6 
#
# 1 0.005836 -0.000893 -0.003737 0.000000 0.000000 0.000000
# 2 -0.000893 0.025734 0.006887 0.000000 0.000000 0.000000
# 3 -0.003737 0.006887 0.027584 0.000000 0.000000 0.000000
# 4 0.000000 0.000000 0.000000 0.064145 0.000000 0.000000
# 5 0.000000 0.000000 0.000000 0.000000 0.026176 0.000000
# 6 0.000000 0.000000 0.000000 0.000000 0.000000 0.072504
#
#
# Mechanical properties :
#
#
# Convention : Reuss Voigt Hill
#
# Bulk Modulus (GPa) = 15.70648 33.45193 24.57921
# Shear Modulus (GPa) = 20.94782 30.63903 25.79343
#
# Velocity S-wave (km/s) = 3.00997 3.64024 3.34001
# Velocity P-wave (km/s) = 4.34430 5.66890 5.05022
#
# Compressibility (1/GPa) = 0.06366798
#
# Stress axis : x y z
#
# Youngs Moduli (GPa) = 171.34095 38.85962 36.25253
#
# Poissons Ratio (x) = 0.03471 0.13548
# Poissons Ratio (y) = 0.15305 -0.24968
# Poissons Ratio (z) = 0.64033 -0.26764
#
# Static dielectric constant tensor:
#      x y z
#    x 1.198060 0.000000 0.000000 
#    y 0.000000 1.914230 0.000000 
#    z 0.000000 0.000000 1.704370 
# 
# From -- ./inp_files/27436.got.cif
#   From: 2010.05.17/outbox.cif.g08.bks.cpg/sg59_14_cif.got.tgz:27436.got - 2010.06.03 14:40:33.
