data_PCOD9451227
_publ_section_title
;
Structure prediction by ZEFSAII (Michael W. Deem and Ramdas Pophale) SiO2 
 PCOD9451227
Probable space group: P M M N
;
_chemical_formula_sum "Si O2"
_cell_formula_units_Z 48
_cell_length_a 20.951573
_cell_length_b 8.832336
_cell_length_c 15.144110
_cell_angle_alpha 90.000000
_cell_angle_beta 90.000000
_cell_angle_gamma 90.000000
_cell_volume 2802.437734
_symmetry_space_group_name_H-M "P M M N"
_symmetry_group_IT_number 59
_space_group.IT_coordinate_system_code '2'
_symmetry_cell_setting 'orthorhombic'
loop_
_space_group_symop_operation_xyz
x,y,z
1/2-x,1/2-y,z
1/2+x,-y,-z
-x,1/2+y,-z
-x,-y,-z
1/2+x,1/2+y,-z
1/2-x,y,z
x,1/2-y,z
loop_
_atom_site_type_symbol
_atom_site_label
_atom_site_fract_x
_atom_site_fract_y
_atom_site_fract_z
Si Si1 0.507612 0.425807 0.235811
Si Si2 0.948452 0.070177 0.931892
Si Si3 0.179172 0.932145 0.609640
Si Si4 0.043245 0.068986 0.577184
Si Si5 0.845388 0.076123 0.186690
Si Si6 0.321111 0.071631 0.994334
O O1 0.490046 0.250000 0.249258
O O2 0.462322 0.506546 0.165695
O O3 0.515947 0.507990 0.329429
O O4 0.577987 0.428209 0.192042
O O5 0.955544 0.250000 0.933698
O O6 0.878103 0.021502 0.962181
O O7 0.000000 0.000000 0.000000
O O8 0.250000 0.974086 0.576051
O O9 0.171509 0.750000 0.600331
O O10 0.177578 0.962976 0.715047
O O11 0.116793 0.012083 0.570362
O O12 0.041614 0.250000 0.575328
O O13 0.000000 0.000000 0.500000
O O14 0.826386 0.250000 0.167422
O O15 0.822944 0.967671 0.109620
O O16 0.250000 0.034323 0.027515
O O17 0.332509 0.250000 0.006935
#
# Coordination Sequence:
#
# PCOD9451227 Si02
#       6
#     8   8   8   8   8   8
#     4  10  20  36  57  82 110 143 182 228 277 329
#     4  12  23  36  56  80 108 146 189 230 272 325
#     4   9  18  33  53  78 111 147 181 221 274 335
#     4  11  22  37  58  84 114 147 186 231 278 332
#     4   9  17  30  50  75 106 144 180 217 266 326
#     4  11  23  35  49  73 108 148 189 233 277 324
#
# _framework density 17.127945
#
# number of rings (size 3 to 8) (size 9 to 14) (size 15 to 20)
#    0.000    1.667    1.667    5.500    0.000    5.000 
#    0.000    0.000    0.000    1.000    0.000    0.000 
#    0.000    0.000    0.000    0.000    0.000    0.000 
#
# Total GULP energy -267994.715436 kJ/mol
# GULP energy per Si atom -5583.223238 kJ/mol
# Density = 1.708896 g / cm^3
# Si number density = 17.127945 Si / 1000 Ang^3
#
#
#
# Elastic Constant Matrix: (Units=GPa)
#
#
# Indices 1 2 3 4 5 6 
#
# 1 121.0924 72.3015 59.9574 0.0000 0.0000 0.0000
# 2 72.3015 127.8419 53.0203 0.0000 0.0000 0.0000
# 3 59.9574 53.0203 77.8366 0.0000 0.0000 0.0000
# 4 0.0000 0.0000 0.0000 28.9722 0.0000 0.0000
# 5 0.0000 0.0000 0.0000 0.0000 17.3734 0.0000
# 6 0.0000 0.0000 0.0000 0.0000 0.0000 24.5390
#
#
#
# Elastic Compliance Matrix: (Units=1/GPa)
#
#
# Indices 1 2 3 4 5 6 
#
# 1 0.015596 -0.005349 -0.008370 0.000000 0.000000 0.000000
# 2 -0.005349 0.012737 -0.004555 0.000000 0.000000 0.000000
# 3 -0.008370 -0.004555 0.022398 0.000000 0.000000 0.000000
# 4 0.000000 0.000000 0.000000 0.034516 0.000000 0.000000
# 5 0.000000 0.000000 0.000000 0.000000 0.057559 0.000000
# 6 0.000000 0.000000 0.000000 0.000000 0.000000 0.040752
#
#
# Mechanical properties :
#
#
# Convention : Reuss Voigt Hill
#
# Bulk Modulus (GPa) = 70.51429 77.48103 73.99766
# Shear Modulus (GPa) = 22.23857 23.60969 22.92413
#
# Velocity S-wave (km/s) = 3.60721 3.71675 3.66239
# Velocity P-wave (km/s) = 7.65557 7.98460 7.82182
#
# Compressibility (1/GPa) = 0.01418152
#
# Stress axis : x y z
#
# Youngs Moduli (GPa) = 64.11720 78.51302 44.64690
#
# Poissons Ratio (x) = 0.41999 0.37370
# Poissons Ratio (y) = 0.34298 0.20339
# Poissons Ratio (z) = 0.53667 0.35766
#
# Static dielectric constant tensor:
#      x y z
#    x 1.604190 0.000000 0.000000 
#    y 0.000000 1.509040 0.000000 
#    z 0.000000 0.000000 1.559000 
# 
# From -- ./inp_files/28003.got.cif
#   From: 2010.05.17/outbox.cif.g08.bks.cpg/sg59_15_cif.got.tgz:28003.got - 2010.06.03 14:40:33.
