data_PCOD9451599
_publ_section_title
;
Structure prediction by ZEFSAII (Michael W. Deem and Ramdas Pophale) SiO2 
 PCOD9451599
Probable space group: P M M N
;
_chemical_formula_sum "Si O2"
_cell_formula_units_Z 64
_cell_length_a 19.240828
_cell_length_b 31.552977
_cell_length_c 4.966422
_cell_angle_alpha 90.000000
_cell_angle_beta 90.000000
_cell_angle_gamma 90.000000
_cell_volume 3015.141631
_symmetry_space_group_name_H-M "P M M N"
_symmetry_group_IT_number 59
_space_group.IT_coordinate_system_code '2'
_symmetry_cell_setting 'orthorhombic'
loop_
_space_group_symop_operation_xyz
x,y,z
1/2-x,1/2-y,z
1/2+x,-y,-z
-x,1/2+y,-z
-x,-y,-z
1/2+x,1/2+y,-z
1/2-x,y,z
x,1/2-y,z
loop_
_atom_site_type_symbol
_atom_site_label
_atom_site_fract_x
_atom_site_fract_y
_atom_site_fract_z
Si Si1 0.672742 0.938223 0.645359
Si Si2 0.829055 0.881060 0.146521
Si Si3 0.672301 0.395246 0.698558
Si Si4 0.523682 0.843735 0.014499
Si Si5 0.536618 0.201171 0.462442
Si Si6 0.563932 0.989245 0.315407
Si Si7 0.456266 0.567797 0.025257
Si Si8 0.826947 0.336920 0.204996
O O1 0.750000 0.955411 0.614612
O O2 0.665112 0.922083 0.949224
O O3 0.620933 0.971121 0.514682
O O4 0.666309 0.896935 0.453496
O O5 0.750000 0.864306 0.102109
O O6 0.896112 0.853128 0.081667
O O7 0.750000 0.413782 0.750416
O O8 0.603559 0.422061 0.757792
O O9 0.666745 0.354640 0.901946
O O10 0.671377 0.378348 0.395654
O O11 0.516794 0.810386 0.775164
O O12 0.484058 0.886930 0.916976
O O13 0.483839 0.827398 0.280997
O O14 0.534055 0.250000 0.543075
O O15 0.610861 0.191093 0.321444
O O16 0.500000 0.000000 0.500000
O O17 0.579796 0.032381 0.159731
O O18 0.527742 0.953997 0.125726
O O19 0.750000 0.317361 0.234375
#
# Coordination Sequence:
#
# PCOD9451599 Si02
#       8
#     8   8   8   8   8   8   8   8
#     4  10  21  39  60  87 125 162 208 265 309 355
#     4  10  21  39  66  94 118 159 211 251 309 379
#     4  10  21  37  60  86 117 160 212 247 295 366
#     4  12  23  41  69  90 126 165 203 255 315 374
#     4  12  25  41  65  99 127 158 205 258 309 373
#     4  11  25  37  57  89 128 157 217 261 300 365
#     4  11  23  38  59  87 118 172 206 252 309 360
#     4  10  20  38  61  89 121 160 205 253 297 361
#
# _framework density 21.226202000000001
#
# number of rings (size 3 to 8) (size 9 to 14) (size 15 to 20)
#    0.000    1.250    3.750    1.875    5.250    0.750 
#    0.000    0.625    0.000    6.000    0.000    0.000 
#    0.000    0.000    0.000    0.000    0.000    0.000 
#
# Total GULP energy -357358.283138 kJ/mol
# GULP energy per Si atom -5583.723174 kJ/mol
# Density = 2.117789 g / cm^3
# Si number density = 21.226202 Si / 1000 Ang^3
#
#
#
# Elastic Constant Matrix: (Units=GPa)
#
#
# Indices 1 2 3 4 5 6 
#
# 1 141.5593 29.9852 -4.3868 0.0000 0.0000 0.0000
# 2 29.9852 61.2278 -2.9614 0.0000 0.0000 0.0000
# 3 -4.3868 -2.9614 46.2360 0.0000 0.0000 0.0000
# 4 0.0000 0.0000 0.0000 19.2113 0.0000 0.0000
# 5 0.0000 0.0000 0.0000 0.0000 29.5699 0.0000
# 6 0.0000 0.0000 0.0000 0.0000 0.0000 19.8277
#
#
#
# Elastic Compliance Matrix: (Units=1/GPa)
#
#
# Indices 1 2 3 4 5 6 
#
# 1 0.007893 -0.003841 0.000503 0.000000 0.000000 0.000000
# 2 -0.003841 0.018253 0.000805 0.000000 0.000000 0.000000
# 3 0.000503 0.000805 0.021727 0.000000 0.000000 0.000000
# 4 0.000000 0.000000 0.000000 0.052053 0.000000 0.000000
# 5 0.000000 0.000000 0.000000 0.000000 0.033818 0.000000
# 6 0.000000 0.000000 0.000000 0.000000 0.000000 0.050434
#
#
# Mechanical properties :
#
#
# Convention : Reuss Voigt Hill
#
# Bulk Modulus (GPa) = 23.36135 32.69967 28.03051
# Shear Modulus (GPa) = 24.56823 28.81421 26.69122
#
# Velocity S-wave (km/s) = 3.40582 3.68840 3.54992
# Velocity P-wave (km/s) = 5.14742 5.79464 5.48059
#
# Compressibility (1/GPa) = 0.04280574
#
# Stress axis : x y z
#
# Youngs Moduli (GPa) = 126.68754 54.78676 46.02484
#
# Poissons Ratio (x) = 0.21045 -0.02315
# Poissons Ratio (y) = 0.48665 -0.03703
# Poissons Ratio (z) = -0.06371 -0.04408
#
# Static dielectric constant tensor:
#      x y z
#    x 1.794160 0.000000 0.000000 
#    y 0.000000 1.768220 0.000000 
#    z 0.000000 0.000000 1.780290 
# 
# From -- ./inp_files/3527.got.cif
#   From: 2010.05.17/outbox.cif.g08.bks.cpg/sg59_2_cif.got.tgz:3527.got - 2010.06.03 14:40:33.
