data_PCOD9451858
_publ_section_title
;
Structure prediction by ZEFSAII (Michael W. Deem and Ramdas Pophale) SiO2 
 PCOD9451858
Probable space group: P M M N
;
_chemical_formula_sum "Si O2"
_cell_formula_units_Z 24
_cell_length_a 13.472337
_cell_length_b 7.406875
_cell_length_c 11.080231
_cell_angle_alpha 90.000000
_cell_angle_beta 90.000000
_cell_angle_gamma 90.000000
_cell_volume 1105.673162
_symmetry_space_group_name_H-M "P M M N"
_symmetry_group_IT_number 59
_space_group.IT_coordinate_system_code '2'
_symmetry_cell_setting 'orthorhombic'
loop_
_space_group_symop_operation_xyz
x,y,z
1/2-x,1/2-y,z
1/2+x,-y,-z
-x,1/2+y,-z
-x,-y,-z
1/2+x,1/2+y,-z
1/2-x,y,z
x,1/2-y,z
loop_
_atom_site_type_symbol
_atom_site_label
_atom_site_fract_x
_atom_site_fract_y
_atom_site_fract_z
Si Si1 0.750000 0.044398 0.195640
Si Si2 0.750000 0.532925 0.472030
Si Si3 0.035536 0.533689 0.864795
Si Si4 0.358154 0.468763 0.300285
O O1 0.750000 0.250000 0.148459
O O2 0.853888 0.960456 0.155044
O O3 0.750000 0.047610 0.340792
O O4 0.750000 0.750000 0.458800
O O5 0.843097 0.482096 0.558658
O O6 0.040441 0.750000 0.845443
O O7 0.953016 0.463229 0.770879
O O8 0.000000 0.500000 0.000000
O O9 0.250000 0.521269 0.245211
O O10 0.361120 0.250000 0.296646
#
# Coordination Sequence:
#
# PCOD9451858 Si02
#       4
#     4   4   8   8
#     4  10  22  35  48  78 114 133 155 214 281 304
#     4   8  16  33  56  78  96 129 181 214 237 302
#     4  10  21  36  53  74 105 140 172 210 257 306
#     4   7  14  31  54  74  94 129 173 210 242 288
#
# _framework density 21.706235
#
# number of rings (size 3 to 8) (size 9 to 14) (size 15 to 20)
#    1.000    2.333    0.000    0.000    2.333    2.667 
#    0.000    1.667    0.000    0.000    0.000    0.000 
#    0.000    0.000    0.000    0.000    0.000    0.000 
#
# Total GULP energy -133628.218424 kJ/mol
# GULP energy per Si atom -5567.842434 kJ/mol
# Density = 2.165683 g / cm^3
# Si number density = 21.706235 Si / 1000 Ang^3
#
#
#
# Elastic Constant Matrix: (Units=GPa)
#
#
# Indices 1 2 3 4 5 6 
#
# 1 209.7266 7.1171 90.4986 0.0000 0.0000 0.0000
# 2 7.1171 74.2314 -11.0289 0.0000 0.0000 0.0000
# 3 90.4986 -11.0289 110.2017 0.0000 0.0000 0.0000
# 4 0.0000 0.0000 0.0000 22.3193 0.0000 0.0000
# 5 0.0000 0.0000 0.0000 0.0000 40.6749 0.0000
# 6 0.0000 0.0000 0.0000 0.0000 0.0000 -20.6771
#
#
#
# Elastic Compliance Matrix: (Units=1/GPa)
#
#
# Indices 1 2 3 4 5 6 
#
# 1 0.007585 -0.001678 -0.006397 0.000000 0.000000 0.000000
# 2 -0.001678 0.014046 0.002783 0.000000 0.000000 0.000000
# 3 -0.006397 0.002783 0.014606 0.000000 0.000000 0.000000
# 4 0.000000 0.000000 0.000000 0.044804 0.000000 0.000000
# 5 0.000000 0.000000 0.000000 0.000000 0.024585 0.000000
# 6 0.000000 0.000000 0.000000 0.000000 0.000000 -0.048363
#
#
# Mechanical properties :
#
#
# Convention : Reuss Voigt Hill
#
# Bulk Modulus (GPa) = 38.97926 63.03702 51.00814
# Shear Modulus (GPa) = 65.44610 28.96827 47.20719
#
# Velocity S-wave (km/s) = 5.49693 3.65713 4.66856
# Velocity P-wave (km/s) = 7.63446 6.85104 7.25334
#
# Compressibility (1/GPa) = 0.02565467
#
# Stress axis : x y z
#
# Youngs Moduli (GPa) = 131.83093 71.19564 68.46382
#
# Poissons Ratio (x) = 0.11945 0.43797
# Poissons Ratio (y) = 0.22118 -0.19057
# Poissons Ratio (z) = 0.84334 -0.19817
#
# Static dielectric constant tensor:
#      x y z
#    x 1.842280 0.000000 0.000000 
#    y 0.000000 1.798200 0.000000 
#    z 0.000000 0.000000 1.742310 
# 
# From -- ./inp_files/6575.got.cif
#   From: 2010.05.17/outbox.cif.g08.bks.cpg/sg59_4_cif.got.tgz:6575.got - 2010.06.03 14:40:33.
