data_PCOD9451954
_publ_section_title
;
Structure prediction by ZEFSAII (Michael W. Deem and Ramdas Pophale) SiO2 
 PCOD9451954
Probable space group: P M M N
;
_chemical_formula_sum "Si O2"
_cell_formula_units_Z 48
_cell_length_a 9.153329
_cell_length_b 9.329504
_cell_length_c 31.659902
_cell_angle_alpha 90.000000
_cell_angle_beta 90.000000
_cell_angle_gamma 90.000000
_cell_volume 2703.629609
_symmetry_space_group_name_H-M "P M M N"
_symmetry_group_IT_number 59
_space_group.IT_coordinate_system_code '2'
_symmetry_cell_setting 'orthorhombic'
loop_
_space_group_symop_operation_xyz
x,y,z
1/2-x,1/2-y,z
1/2+x,-y,-z
-x,1/2+y,-z
-x,-y,-z
1/2+x,1/2+y,-z
1/2-x,y,z
x,1/2-y,z
loop_
_atom_site_type_symbol
_atom_site_label
_atom_site_fract_x
_atom_site_fract_y
_atom_site_fract_z
Si Si1 0.078321 0.578116 0.461362
Si Si2 0.924995 0.919343 0.704119
Si Si3 0.923538 0.579616 0.373080
Si Si4 0.925600 0.417317 0.790228
Si Si5 0.076073 0.920010 0.961778
Si Si6 0.074061 0.580915 0.866892
O O1 0.250000 0.542177 0.459957
O O2 0.065011 0.750000 0.466616
O O3 0.000000 0.500000 0.500000
O O4 0.001304 0.540529 0.417110
O O5 0.750000 0.938257 0.698396
O O6 0.954828 0.750000 0.706817
O O7 0.966715 0.997671 0.747707
O O8 0.008104 0.991037 0.665190
O O9 0.750000 0.556313 0.376257
O O10 0.948460 0.750000 0.365971
O O11 0.750000 0.427462 0.794515
O O12 0.964573 0.250000 0.786480
O O13 0.999854 0.488912 0.830650
O O14 0.250000 0.942709 0.964250
O O15 0.049547 0.750000 0.965131
O O16 0.028812 0.963949 0.914409
O O17 0.000000 0.000000 0.000000
O O18 0.250000 0.568402 0.864475
O O19 0.038801 0.750000 0.861723
#
# Coordination Sequence:
#
# PCOD9451954 Si02
#       6
#     8   8   8   8   8   8
#     4  10  21  37  58  83 111 145 183 223 268 316
#     4  10  21  37  57  80 106 139 178 218 262 313
#     4  10  21  37  57  81 109 142 180 221 266 316
#     4  10  21  36  55  80 108 138 174 217 264 314
#     4   9  19  35  53  75 104 137 174 216 261 311
#     4   9  19  36  55  75 103 139 176 215 261 312
#
# _framework density 17.753912
#
# number of rings (size 3 to 8) (size 9 to 14) (size 15 to 20)
#    0.000    2.333    0.000    3.000    0.000    7.333 
#    0.000    5.000    0.000    0.000    0.000    0.000 
#    0.000    0.000    0.000    0.000    0.000    0.000 
#
# Total GULP energy -267971.693729 kJ/mol
# GULP energy per Si atom -5582.743619 kJ/mol
# Density = 1.771350 g / cm^3
# Si number density = 17.753912 Si / 1000 Ang^3
#
#
#
# Elastic Constant Matrix: (Units=GPa)
#
#
# Indices 1 2 3 4 5 6 
#
# 1 65.2013 67.2168 92.8621 0.0000 0.0000 0.0000
# 2 67.2168 91.1171 111.4533 0.0000 0.0000 0.0000
# 3 92.8621 111.4533 221.6694 0.0000 0.0000 0.0000
# 4 0.0000 0.0000 0.0000 42.6358 0.0000 0.0000
# 5 0.0000 0.0000 0.0000 0.0000 41.1065 0.0000
# 6 0.0000 0.0000 0.0000 0.0000 0.0000 32.1369
#
#
#
# Elastic Compliance Matrix: (Units=1/GPa)
#
#
# Indices 1 2 3 4 5 6 
#
# 1 0.069988 -0.040953 -0.008729 0.000000 0.000000 0.000000
# 2 -0.040953 0.052470 -0.009225 0.000000 0.000000 0.000000
# 3 -0.008729 -0.009225 0.012806 0.000000 0.000000 0.000000
# 4 0.000000 0.000000 0.000000 0.023454 0.000000 0.000000
# 5 0.000000 0.000000 0.000000 0.000000 0.024327 0.000000
# 6 0.000000 0.000000 0.000000 0.000000 0.000000 0.031117
#
#
# Mechanical properties :
#
#
# Convention : Reuss Voigt Hill
#
# Bulk Modulus (GPa) = 57.30620 102.33914 79.82267
# Shear Modulus (GPa) = 14.80197 30.27289 22.53743
#
# Velocity S-wave (km/s) = 2.89057 4.13381 3.56678
# Velocity P-wave (km/s) = 6.59459 8.97512 7.87533
#
# Compressibility (1/GPa) = 0.01745012
#
# Stress axis : x y z
#
# Youngs Moduli (GPa) = 14.28826 19.05843 78.08683
#
# Poissons Ratio (x) = 0.78050 0.68158
# Poissons Ratio (y) = 0.58515 0.72038
# Poissons Ratio (z) = 0.12472 0.17582
#
# Static dielectric constant tensor:
#      x y z
#    x 1.591140 0.000000 0.000000 
#    y 0.000000 1.589700 0.000000 
#    z 0.000000 0.000000 1.575650 
# 
# From -- ./inp_files/32785.got.cif
#   From: 2010.05.17/outbox.cif.g08.bks.cpg/sg59_17_cif.got.tgz:32785.got - 2010.06.03 14:40:33.
