data_PCOD9451252
_publ_section_title
;
Structure prediction by ZEFSAII (Michael W. Deem and Ramdas Pophale) SiO2 
 PCOD9451252
Probable space group: P M M N
;
_chemical_formula_sum "Si O2"
_cell_formula_units_Z 64
_cell_length_a 9.272016
_cell_length_b 24.523166
_cell_length_c 15.635380
_cell_angle_alpha 90.000000
_cell_angle_beta 90.000000
_cell_angle_gamma 90.000000
_cell_volume 3555.160001
_symmetry_space_group_name_H-M "P M M N"
_symmetry_group_IT_number 59
_space_group.IT_coordinate_system_code '2'
_symmetry_cell_setting 'orthorhombic'
loop_
_space_group_symop_operation_xyz
x,y,z
1/2-x,1/2-y,z
1/2+x,-y,-z
-x,1/2+y,-z
-x,-y,-z
1/2+x,1/2+y,-z
1/2-x,y,z
x,1/2-y,z
loop_
_atom_site_type_symbol
_atom_site_label
_atom_site_fract_x
_atom_site_fract_y
_atom_site_fract_z
Si Si1 0.580061 0.810857 0.425584
Si Si2 0.417418 0.628218 0.782957
Si Si3 0.581703 0.537205 0.565890
Si Si4 0.079585 0.185273 0.064174
Si Si5 0.420691 0.685318 0.111804
Si Si6 0.415326 0.505814 0.723280
Si Si7 0.918673 0.878494 0.259882
Si Si8 0.922569 0.150384 0.412821
O O1 0.750000 0.818522 0.445839
O O2 0.563400 0.750000 0.386819
O O3 0.539604 0.857062 0.355476
O O4 0.490753 0.812061 0.513861
O O5 0.250000 0.641156 0.801238
O O6 0.517389 0.652401 0.855860
O O7 0.427618 0.561899 0.777436
O O8 0.451546 0.654796 0.689447
O O9 0.500000 0.500000 0.500000
O O10 0.750000 0.542829 0.549012
O O11 0.545183 0.511495 0.657061
O O12 0.499403 0.593954 0.564787
O O13 0.250000 0.176468 0.054605
O O14 0.055042 0.250000 0.078215
O O15 0.998373 0.169877 0.976821
O O16 0.250000 0.676222 0.104869
O O17 0.445363 0.750000 0.124948
O O18 0.487082 0.652345 0.190223
O O19 0.250000 0.509713 0.685630
O O20 0.426172 0.443750 0.755329
O O21 0.750000 0.862896 0.250636
O O22 0.750000 0.148774 0.421638
#
# Coordination Sequence:
#
# PCOD9451252 Si02
#       8
#     8   8   8   8   8   8   8   8
#     4  10  21  35  52  78 112 149 188 231 279 330
#     4   9  19  36  56  80 112 145 179 224 275 325
#     4  11  20  31  50  74 101 135 177 225 271 317
#     4  10  21  37  59  85 109 137 178 225 272 328
#     4  10  21  37  58  84 112 141 177 225 278 330
#     4   9  19  35  54  79 110 144 183 225 270 324
#     4  10  20  36  58  81 109 146 185 226 273 324
#     4  10  21  36  53  75 105 143 184 224 269 321
#
# _framework density 18.002002999999998
#
# number of rings (size 3 to 8) (size 9 to 14) (size 15 to 20)
#    0.000    2.125    0.000    4.125    0.000    7.250 
#    0.000    3.125    0.000    0.000    0.000    0.000 
#    0.000    0.000    0.000    0.000    0.000    0.000 
#
# Total GULP energy -356603.441952 kJ/mol
# GULP energy per Si atom -5571.928781 kJ/mol
# Density = 1.796103 g / cm^3
# Si number density = 18.002003 Si / 1000 Ang^3
#
#
#
# Elastic Constant Matrix: (Units=GPa)
#
#
# Indices 1 2 3 4 5 6 
#
# 1 61.6908 48.2003 60.4578 0.0000 0.0000 0.0000
# 2 48.2003 58.7819 56.5278 0.0000 0.0000 0.0000
# 3 60.4578 56.5278 97.8410 0.0000 0.0000 0.0000
# 4 0.0000 0.0000 0.0000 18.1019 0.0000 0.0000
# 5 0.0000 0.0000 0.0000 0.0000 38.4646 0.0000
# 6 0.0000 0.0000 0.0000 0.0000 0.0000 26.9041
#
#
#
# Elastic Compliance Matrix: (Units=1/GPa)
#
#
# Indices 1 2 3 4 5 6 
#
# 1 0.056847 -0.028879 -0.018442 0.000000 0.000000 0.000000
# 2 -0.028879 0.052952 -0.012748 0.000000 0.000000 0.000000
# 3 -0.018442 -0.012748 0.028981 0.000000 0.000000 0.000000
# 4 0.000000 0.000000 0.000000 0.055243 0.000000 0.000000
# 5 0.000000 0.000000 0.000000 0.000000 0.025998 0.000000
# 6 0.000000 0.000000 0.000000 0.000000 0.000000 0.037169
#
#
# Mechanical properties :
#
#
# Convention : Reuss Voigt Hill
#
# Bulk Modulus (GPa) = 53.64180 60.96505 57.30342
# Shear Modulus (GPa) = 13.03639 20.23597 16.63618
#
# Velocity S-wave (km/s) = 2.69395 3.35639 3.04325
# Velocity P-wave (km/s) = 6.28799 6.99712 6.65201
#
# Compressibility (1/GPa) = 0.01864218
#
# Stress axis : x y z
#
# Youngs Moduli (GPa) = 17.59109 18.88517 34.50484
#
# Poissons Ratio (x) = 0.54538 0.63634
# Poissons Ratio (y) = 0.50801 0.43987
# Poissons Ratio (z) = 0.32441 0.24075
#
# Static dielectric constant tensor:
#      x y z
#    x 1.706500 0.000000 0.000000 
#    y 0.000000 1.625520 0.000000 
#    z 0.000000 0.000000 1.624190 
# 
# From -- ./inp_files/21445.got.cif
#   From: 2010.05.17/outbox.cif.g08.bks.cpg/sg59_11_cif.got.tgz:21445.got - 2010.06.03 14:40:33.
