data_PCOD9451442
_publ_section_title
;
Structure prediction by ZEFSAII (Michael W. Deem and Ramdas Pophale) SiO2 
 PCOD9451442
Probable space group: P M M N
;
_chemical_formula_sum "Si O2"
_cell_formula_units_Z 64
_cell_length_a 8.474925
_cell_length_b 29.803964
_cell_length_c 12.913758
_cell_angle_alpha 90.000000
_cell_angle_beta 90.000000
_cell_angle_gamma 90.000000
_cell_volume 3261.839122
_symmetry_space_group_name_H-M "P M M N"
_symmetry_group_IT_number 59
_space_group.IT_coordinate_system_code '2'
_symmetry_cell_setting 'orthorhombic'
loop_
_space_group_symop_operation_xyz
x,y,z
1/2-x,1/2-y,z
1/2+x,-y,-z
-x,1/2+y,-z
-x,-y,-z
1/2+x,1/2+y,-z
1/2-x,y,z
x,1/2-y,z
loop_
_atom_site_type_symbol
_atom_site_label
_atom_site_fract_x
_atom_site_fract_y
_atom_site_fract_z
Si Si1 0.441488 0.697597 0.770586
Si Si2 0.565661 0.952459 0.035430
Si Si3 0.559472 0.450686 0.524619
Si Si4 0.439803 0.352197 0.023845
Si Si5 0.565511 0.583073 0.257739
Si Si6 0.063515 0.298616 0.595058
Si Si7 0.062170 0.638181 0.576891
Si Si8 0.931747 0.324563 0.807620
O O1 0.250000 0.697949 0.769316
O O2 0.492717 0.750000 0.766594
O O3 0.497085 0.672319 0.874254
O O4 0.499608 0.668119 0.672175
O O5 0.750000 0.952341 0.009462
O O6 0.503633 0.904478 0.989900
O O7 0.550415 0.949495 0.159726
O O8 0.500000 0.000000 0.000000
O O9 0.500000 0.500000 0.500000
O O10 0.750000 0.449732 0.531526
O O11 0.484028 0.437197 0.633996
O O12 0.508613 0.413098 0.439996
O O13 0.250000 0.352919 0.024660
O O14 0.494994 0.325001 0.921861
O O15 0.750000 0.598237 0.260401
O O16 0.453029 0.624356 0.230833
O O17 0.250000 0.304654 0.583217
O O18 0.017005 0.250000 0.551717
O O19 0.976931 0.336506 0.529923
O O20 0.021260 0.299278 0.715995
O O21 0.250000 0.636634 0.589666
O O22 0.750000 0.311014 0.811201
#
# Coordination Sequence:
#
# PCOD9451442 Si02
#       8
#     8   8   8   8   8   8   8   8
#     4  10  22  41  64  89 120 161 207 259 315 369
#     4   9  20  36  57  86 118 156 200 248 304 362
#     4  11  23  38  59  89 120 160 207 252 308 369
#     4  10  22  40  60  86 121 159 202 252 306 365
#     4  10  20  37  58  82 117 155 192 246 306 361
#     4  11  23  37  58  89 121 154 194 242 299 359
#     4  10  22  41  63  87 119 159 207 255 305 366
#     4  11  21  36  60  87 115 153 196 241 299 362
#
# _framework density 19.620832
#
# number of rings (size 3 to 8) (size 9 to 14) (size 15 to 20)
#    0.000    1.750    1.250    3.750    0.000    7.250 
#    0.000    3.750    0.000    0.000    0.000    0.000 
#    0.000    0.000    0.000    0.000    0.000    0.000 
#
# Total GULP energy -357100.001772 kJ/mol
# GULP energy per Si atom -5579.687528 kJ/mol
# Density = 1.957617 g / cm^3
# Si number density = 19.620832 Si / 1000 Ang^3
#
#
#
# Elastic Constant Matrix: (Units=GPa)
#
#
# Indices 1 2 3 4 5 6 
#
# 1 15.3716 8.0077 10.2843 0.0000 0.0000 0.0000
# 2 8.0077 119.8067 69.0921 0.0000 0.0000 0.0000
# 3 10.2843 69.0921 123.6232 0.0000 0.0000 0.0000
# 4 0.0000 0.0000 0.0000 18.1942 0.0000 0.0000
# 5 0.0000 0.0000 0.0000 0.0000 28.1240 0.0000
# 6 0.0000 0.0000 0.0000 0.0000 0.0000 22.5556
#
#
#
# Elastic Compliance Matrix: (Units=1/GPa)
#
#
# Indices 1 2 3 4 5 6 
#
# 1 0.069189 -0.001926 -0.004680 0.000000 0.000000 0.000000
# 2 -0.001926 0.012370 -0.006753 0.000000 0.000000 0.000000
# 3 -0.004680 -0.006753 0.012253 0.000000 0.000000 0.000000
# 4 0.000000 0.000000 0.000000 0.054962 0.000000 0.000000
# 5 0.000000 0.000000 0.000000 0.000000 0.035557 0.000000
# 6 0.000000 0.000000 0.000000 0.000000 0.000000 0.044335
#
#
# Mechanical properties :
#
#
# Convention : Reuss Voigt Hill
#
# Bulk Modulus (GPa) = 14.90435 48.17440 31.53938
# Shear Modulus (GPa) = 18.00191 25.20260 21.60226
#
# Velocity S-wave (km/s) = 3.03230 3.58786 3.32171
# Velocity P-wave (km/s) = 4.45785 6.46294 5.55167
#
# Compressibility (1/GPa) = 0.06709449
#
# Stress axis : x y z
#
# Youngs Moduli (GPa) = 14.45317 80.83988 81.61407
#
# Poissons Ratio (x) = 0.15568 0.38192
# Poissons Ratio (y) = 0.02783 0.55117
# Poissons Ratio (z) = 0.06763 0.54594
#
# Static dielectric constant tensor:
#      x y z
#    x 1.680980 0.000000 0.000000 
#    y 0.000000 1.705920 0.000000 
#    z 0.000000 0.000000 1.683180 
# 
# From -- ./inp_files/15008.got.cif
#   From: 2010.05.17/outbox.cif.g08.bks.cpg/sg59_8_cif.got.tgz:15008.got - 2010.06.03 14:40:33.
