data_PCOD9451762
_publ_section_title
;
Structure prediction by ZEFSAII (Michael W. Deem and Ramdas Pophale) SiO2 
 PCOD9451762
Probable space group: P M M N
;
_chemical_formula_sum "Si O2"
_cell_formula_units_Z 64
_cell_length_a 8.996374
_cell_length_b 29.805455
_cell_length_c 12.834467
_cell_angle_alpha 90.000000
_cell_angle_beta 90.000000
_cell_angle_gamma 90.000000
_cell_volume 3441.447078
_symmetry_space_group_name_H-M "P M M N"
_symmetry_group_IT_number 59
_space_group.IT_coordinate_system_code '2'
_symmetry_cell_setting 'orthorhombic'
loop_
_space_group_symop_operation_xyz
x,y,z
1/2-x,1/2-y,z
1/2+x,-y,-z
-x,1/2+y,-z
-x,-y,-z
1/2+x,1/2+y,-z
1/2-x,y,z
x,1/2-y,z
loop_
_atom_site_type_symbol
_atom_site_label
_atom_site_fract_x
_atom_site_fract_y
_atom_site_fract_z
Si Si1 0.573518 0.892718 0.374097
Si Si2 0.421809 0.677441 0.657954
Si Si3 0.428488 0.062139 0.847892
Si Si4 0.073040 0.199233 0.127413
Si Si5 0.428335 0.888715 0.957368
Si Si6 0.430962 0.963308 0.790536
Si Si7 0.923313 0.075110 0.419188
Si Si8 0.428604 0.799179 0.423069
O O1 0.750000 0.889492 0.386525
O O2 0.541120 0.916731 0.265213
O O3 0.508772 0.919913 0.472686
O O4 0.504930 0.842760 0.375235
O O5 0.250000 0.688459 0.683578
O O6 0.523597 0.691937 0.752822
O O7 0.428882 0.624196 0.635642
O O8 0.460346 0.699067 0.547012
O O9 0.250000 0.063964 0.865478
O O10 0.510969 0.089127 0.937661
O O11 0.475414 0.010082 0.842350
O O12 0.250000 0.194432 0.118556
O O13 0.031878 0.250000 0.096531
O O14 0.993303 0.160478 0.062185
O O15 0.250000 0.886973 0.957891
O O16 0.475782 0.921446 0.862106
O O17 0.250000 0.962885 0.785833
O O18 0.481243 0.958056 0.670654
O O19 0.750000 0.065390 0.441323
O O20 0.250000 0.803855 0.412963
O O21 0.472491 0.750000 0.382321
#
# Coordination Sequence:
#
# PCOD9451762 Si02
#       8
#     8   8   8   8   8   8   8   8
#     4  10  21  35  52  80 116 150 184 225 277 333
#     4   9  16  30  52  79 111 144 179 222 271 324
#     4  10  22  40  59  80 112 151 188 232 285 334
#     4  11  23  36  53  81 116 150 181 219 276 339
#     4  11  22  39  62  85 110 142 189 238 278 329
#     4   9  18  36  61  86 112 145 184 230 284 335
#     4   9  17  33  56  81 114 151 184 223 272 324
#     4   9  18  33  54  78 105 143 189 232 275 325
#
# _framework density 18.596829
#
# number of rings (size 3 to 8) (size 9 to 14) (size 15 to 20)
#    0.000    2.250    1.250    2.625    0.000    5.250 
#    0.000    1.875    0.000    0.750    0.000    0.000 
#    0.000    0.000    0.000    0.000    0.000    0.000 
#
# Total GULP energy -357203.058246 kJ/mol
# GULP energy per Si atom -5581.297785 kJ/mol
# Density = 1.855450 g / cm^3
# Si number density = 18.596829 Si / 1000 Ang^3
#
#
#
# Elastic Constant Matrix: (Units=GPa)
#
#
# Indices 1 2 3 4 5 6 
#
# 1 37.8817 33.6612 38.8029 0.0000 0.0000 0.0000
# 2 33.6612 80.4382 32.3051 0.0000 0.0000 0.0000
# 3 38.8029 32.3051 75.8396 0.0000 0.0000 0.0000
# 4 0.0000 0.0000 0.0000 -27.9397 0.0000 0.0000
# 5 0.0000 0.0000 0.0000 0.0000 29.8803 0.0000
# 6 0.0000 0.0000 0.0000 0.0000 0.0000 12.2056
#
#
#
# Elastic Compliance Matrix: (Units=1/GPa)
#
#
# Indices 1 2 3 4 5 6 
#
# 1 0.073387 -0.018857 -0.029516 0.000000 0.000000 0.000000
# 2 -0.018857 0.019843 0.001196 0.000000 0.000000 0.000000
# 3 -0.029516 0.001196 0.027778 0.000000 0.000000 0.000000
# 4 0.000000 0.000000 0.000000 -0.035791 0.000000 0.000000
# 5 0.000000 0.000000 0.000000 0.000000 0.033467 0.000000
# 6 0.000000 0.000000 0.000000 0.000000 0.000000 0.081930
#
#
# Mechanical properties :
#
#
# Convention : Reuss Voigt Hill
#
# Bulk Modulus (GPa) = 37.51752 44.85532 41.18642
# Shear Modulus (GPa) = 16.45538 8.78860 12.62199
#
# Velocity S-wave (km/s) = 2.97787 2.17626 2.60805
# Velocity P-wave (km/s) = 5.66052 5.52151 5.59145
#
# Compressibility (1/GPa) = 0.02665422
#
# Stress axis : x y z
#
# Youngs Moduli (GPa) = 13.62633 50.39633 35.99954
#
# Poissons Ratio (x) = 0.95030 1.06256
# Poissons Ratio (y) = 0.25695 -0.04304
# Poissons Ratio (z) = 0.40219 -0.06025
#
# Static dielectric constant tensor:
#      x y z
#    x 1.618120 0.000000 0.000000 
#    y 0.000000 1.670000 0.000000 
#    z 0.000000 0.000000 1.622070 
# 
# From -- ./inp_files/15028.got.cif
#   From: 2010.05.17/outbox.cif.g08.bks.cpg/sg59_8_cif.got.tgz:15028.got - 2010.06.03 14:40:33.
