data_PCOD9451162
_publ_section_title
;
Structure prediction by ZEFSAII (Michael W. Deem and Ramdas Pophale) SiO2 
 PCOD9451162
Probable space group: P M M N
;
_chemical_formula_sum "Si O2"
_cell_formula_units_Z 56
_cell_length_a 7.458184
_cell_length_b 24.377125
_cell_length_c 12.836411
_cell_angle_alpha 90.000000
_cell_angle_beta 90.000000
_cell_angle_gamma 90.000000
_cell_volume 2333.776121
_symmetry_space_group_name_H-M "P M M N"
_symmetry_group_IT_number 59
_space_group.IT_coordinate_system_code '2'
_symmetry_cell_setting 'orthorhombic'
loop_
_space_group_symop_operation_xyz
x,y,z
1/2-x,1/2-y,z
1/2+x,-y,-z
-x,1/2+y,-z
-x,-y,-z
1/2+x,1/2+y,-z
1/2-x,y,z
x,1/2-y,z
loop_
_atom_site_type_symbol
_atom_site_label
_atom_site_fract_x
_atom_site_fract_y
_atom_site_fract_z
Si Si1 0.530859 0.079480 0.313205
Si Si2 0.537890 0.250000 0.055988
Si Si3 0.030926 0.459640 0.691594
Si Si4 0.032916 0.339150 0.643786
Si Si5 0.033339 0.250000 0.810671
Si Si6 0.040988 0.632663 0.895687
Si Si7 0.037996 0.447433 0.929009
Si Si8 0.540890 0.191370 0.413603
O O1 0.750000 0.077633 0.319130
O O2 0.466465 0.133602 0.373133
O O3 0.470651 0.019165 0.349237
O O4 0.474289 0.091540 0.193599
O O5 0.750000 0.250000 0.079648
O O6 0.523454 0.250000 0.930445
O O7 0.461123 0.306636 0.100772
O O8 0.250000 0.459697 0.688654
O O9 0.972037 0.402455 0.641601
O O10 0.972262 0.455523 0.812265
O O11 0.250000 0.338906 0.644926
O O12 0.975860 0.303689 0.744362
O O13 0.972031 0.310963 0.537987
O O14 0.250000 0.250000 0.811627
O O15 0.250000 0.638760 0.870828
O O16 0.028935 0.605073 0.008329
O O17 0.250000 0.440989 0.920523
O O18 0.000000 0.500000 0.000000
O O19 0.750000 0.191610 0.382676
O O20 0.463974 0.250000 0.377452
#
# Coordination Sequence:
#
# PCOD9451162 Si02
#       8
#     8   4   8   8   4   8   8   8
#     4   9  18  34  55  78 108 143 181 220 265 326
#     4  10  22  34  53  84 114 142 183 236 279 312
#     4   9  18  33  55  81 106 140 180 218 265 328
#     4  10  20  36  59  80 102 138 181 222 272 334
#     4  10  20  36  55  76 106 146 183 218 275 344
#     4  10  20  36  55  80 113 150 187 227 274 326
#     4  11  20  34  57  83 113 150 188 225 268 324
#     4  10  21  36  57  82 105 137 181 227 273 320
#
# _framework density 23.995446999999999
#
# number of rings (size 3 to 8) (size 9 to 14) (size 15 to 20)
#    0.000    2.143    2.143    1.286    1.000    2.857 
#    0.000    2.143    0.000    0.000    0.000    0.000 
#    0.000    0.000    0.000    0.000    0.000    0.000 
#
# Total GULP energy -312855.032084 kJ/mol
# GULP energy per Si atom -5586.697002 kJ/mol
# Density = 2.394083 g / cm^3
# Si number density = 23.995447 Si / 1000 Ang^3
#
#
#
# Elastic Constant Matrix: (Units=GPa)
#
#
# Indices 1 2 3 4 5 6 
#
# 1 70.3720 8.4042 -4.3685 0.0000 0.0000 0.0000
# 2 8.4042 226.7203 16.9317 0.0000 0.0000 0.0000
# 3 -4.3685 16.9317 23.1200 0.0000 0.0000 0.0000
# 4 0.0000 0.0000 0.0000 34.9374 0.0000 0.0000
# 5 0.0000 0.0000 0.0000 0.0000 7.3646 0.0000
# 6 0.0000 0.0000 0.0000 0.0000 0.0000 1.8975
#
#
#
# Elastic Compliance Matrix: (Units=1/GPa)
#
#
# Indices 1 2 3 4 5 6 
#
# 1 0.014510 -0.000786 0.003317 0.000000 0.000000 0.000000
# 2 -0.000786 0.004708 -0.003597 0.000000 0.000000 0.000000
# 3 0.003317 -0.003597 0.046513 0.000000 0.000000 0.000000
# 4 0.000000 0.000000 0.000000 0.028623 0.000000 0.000000
# 5 0.000000 0.000000 0.000000 0.000000 0.135784 0.000000
# 6 0.000000 0.000000 0.000000 0.000000 0.000000 0.527016
#
#
# Mechanical properties :
#
#
# Convention : Reuss Voigt Hill
#
# Bulk Modulus (GPa) = 15.72299 40.23858 27.98079
# Shear Modulus (GPa) = 6.40627 28.78956 17.59792
#
# Velocity S-wave (km/s) = 1.63572 3.46756 2.71105
# Velocity P-wave (km/s) = 3.18342 5.73041 4.63529
#
# Compressibility (1/GPa) = 0.06360112
#
# Stress axis : x y z
#
# Youngs Moduli (GPa) = 68.91837 212.38455 21.49923
#
# Poissons Ratio (x) = 0.16684 -0.07131
# Poissons Ratio (y) = 0.05414 0.07732
# Poissons Ratio (z) = -0.22860 0.76387
#
# Static dielectric constant tensor:
#      x y z
#    x 1.922120 0.000000 0.000000 
#    y 0.000000 1.944020 0.000000 
#    z 0.000000 0.000000 1.878710 
# 
# From -- ./inp_files/16220.got.cif
#   From: 2010.05.17/outbox.cif.g08.bks.cpg/sg59_9_cif.got.tgz:16220.got - 2010.06.03 14:40:33.
