data_PCOD9451344
_publ_section_title
;
Structure prediction by ZEFSAII (Michael W. Deem and Ramdas Pophale) SiO2 
 PCOD9451344
Probable space group: P M M N
;
_chemical_formula_sum "Si O2"
_cell_formula_units_Z 56
_cell_length_a 16.580150
_cell_length_b 8.273661
_cell_length_c 20.187405
_cell_angle_alpha 90.000000
_cell_angle_beta 90.000000
_cell_angle_gamma 90.000000
_cell_volume 2769.278753
_symmetry_space_group_name_H-M "P M M N"
_symmetry_group_IT_number 59
_space_group.IT_coordinate_system_code '2'
_symmetry_cell_setting 'orthorhombic'
loop_
_space_group_symop_operation_xyz
x,y,z
1/2-x,1/2-y,z
1/2+x,-y,-z
-x,1/2+y,-z
-x,-y,-z
1/2+x,1/2+y,-z
1/2-x,y,z
x,1/2-y,z
loop_
_atom_site_type_symbol
_atom_site_label
_atom_site_fract_x
_atom_site_fract_y
_atom_site_fract_z
Si Si1 0.400110 0.447246 0.791907
Si Si2 0.656660 0.444496 0.923054
Si Si3 0.750000 0.445248 0.450385
Si Si4 0.580934 0.054207 0.785231
Si Si5 0.912928 0.440827 0.523499
Si Si6 0.659748 0.557514 0.653445
Si Si7 0.843889 0.555440 0.064554
Si Si8 0.750000 0.553721 0.298527
O O1 0.398032 0.250000 0.792639
O O2 0.489308 0.497025 0.771052
O O3 0.384880 0.500332 0.867643
O O4 0.328929 0.499033 0.742899
O O5 0.750000 0.501106 0.918513
O O6 0.657518 0.250000 0.922205
O O7 0.608509 0.499159 0.858338
O O8 0.622787 0.497478 0.994164
O O9 0.750000 0.250000 0.456254
O O10 0.833014 0.506377 0.485025
O O11 0.750000 0.491273 0.373222
O O12 0.584262 0.250000 0.784092
O O13 0.637694 0.988676 0.727940
O O14 0.912040 0.250000 0.514168
O O15 0.900352 0.481560 0.600487
O O16 0.000000 0.500000 0.500000
O O17 0.750000 0.498203 0.638002
O O18 0.657690 0.750000 0.646340
O O19 0.750000 0.504155 0.067594
O O20 0.845843 0.750000 0.064415
O O21 0.750000 0.750000 0.300133
#
# Coordination Sequence:
#
# PCOD9451344 Si02
#       8
#     8   8   4   8   8   8   8   4
#     4   9  18  34  55  82 110 145 193 240 287 346
#     4   9  18  32  49  73 106 144 188 237 292 352
#     4  10  24  44  64  92 127 160 195 242 301 358
#     4  10  21  36  56  82 114 152 194 241 295 352
#     4  11  24  44  68  95 128 164 203 248 300 361
#     4  11  24  42  64  90 121 157 200 247 293 352
#     4   9  16  30  53  75 103 144 189 235 284 342
#     4  10  20  36  60  84 113 150 193 238 285 346
#
# _framework density 20.221871
#
# number of rings (size 3 to 8) (size 9 to 14) (size 15 to 20)
#    0.000    2.143    1.429    1.286    2.000    3.714 
#    0.000    2.857    0.000    0.000    0.000    0.000 
#    0.000    0.000    0.000    0.000    0.000    0.000 
#
# Total GULP energy -312640.315903 kJ/mol
# GULP energy per Si atom -5582.862784 kJ/mol
# Density = 2.017585 g / cm^3
# Si number density = 20.221871 Si / 1000 Ang^3
#
#
#
# Elastic Constant Matrix: (Units=GPa)
#
#
# Indices 1 2 3 4 5 6 
#
# 1 84.1116 17.4992 29.1822 0.0000 0.0000 0.0000
# 2 17.4992 8.7006 4.3135 0.0000 0.0000 0.0000
# 3 29.1822 4.3135 104.3827 0.0000 0.0000 0.0000
# 4 0.0000 0.0000 0.0000 34.1108 0.0000 0.0000
# 5 0.0000 0.0000 0.0000 0.0000 25.2539 0.0000
# 6 0.0000 0.0000 0.0000 0.0000 0.0000 18.0170
#
#
#
# Elastic Compliance Matrix: (Units=1/GPa)
#
#
# Indices 1 2 3 4 5 6 
#
# 1 0.022320 -0.042672 -0.004477 0.000000 0.000000 0.000000
# 2 -0.042672 0.198919 0.003709 0.000000 0.000000 0.000000
# 3 -0.004477 0.003709 0.010678 0.000000 0.000000 0.000000
# 4 0.000000 0.000000 0.000000 0.029316 0.000000 0.000000
# 5 0.000000 0.000000 0.000000 0.000000 0.039598 0.000000
# 6 0.000000 0.000000 0.000000 0.000000 0.000000 0.055503
#
#
# Mechanical properties :
#
#
# Convention : Reuss Voigt Hill
#
# Bulk Modulus (GPa) = 6.89465 33.24275 20.06870
# Shear Modulus (GPa) = 10.17172 25.22299 17.69735
#
# Velocity S-wave (km/s) = 2.24521 3.53556 2.96152
# Velocity P-wave (km/s) = 3.18405 5.75688 4.65187
#
# Compressibility (1/GPa) = 0.14504008
#
# Stress axis : x y z
#
# Youngs Moduli (GPa) = 44.80322 5.02716 93.64746
#
# Poissons Ratio (x) = 0.21452 0.41922
# Poissons Ratio (y) = 1.91183 -0.34738
# Poissons Ratio (z) = 0.20056 -0.01865
#
# Static dielectric constant tensor:
#      x y z
#    x 1.730200 0.000000 0.000000 
#    y 0.000000 1.709880 0.000000 
#    z 0.000000 0.000000 1.686670 
# 
# From -- ./inp_files/30451.got.cif
#   From: 2010.05.17/outbox.cif.g08.bks.cpg/sg59_16_cif.got.tgz:30451.got - 2010.06.03 14:40:33.
