data_PCOD9451640
_publ_section_title
;
Structure prediction by ZEFSAII (Michael W. Deem and Ramdas Pophale) SiO2 
 PCOD9451640
Probable space group: P M M N
;
_chemical_formula_sum "Si O2"
_cell_formula_units_Z 56
_cell_length_a 9.362182
_cell_length_b 22.553853
_cell_length_c 12.588236
_cell_angle_alpha 90.000000
_cell_angle_beta 90.000000
_cell_angle_gamma 90.000000
_cell_volume 2658.047278
_symmetry_space_group_name_H-M "P M M N"
_symmetry_group_IT_number 59
_space_group.IT_coordinate_system_code '2'
_symmetry_cell_setting 'orthorhombic'
loop_
_space_group_symop_operation_xyz
x,y,z
1/2-x,1/2-y,z
1/2+x,-y,-z
-x,1/2+y,-z
-x,-y,-z
1/2+x,1/2+y,-z
1/2-x,y,z
x,1/2-y,z
loop_
_atom_site_type_symbol
_atom_site_label
_atom_site_fract_x
_atom_site_fract_y
_atom_site_fract_z
Si Si1 0.412422 0.074112 0.396759
Si Si2 0.911930 0.044062 0.072375
Si Si3 0.423325 0.750000 0.100197
Si Si4 0.587493 0.525226 0.295283
Si Si5 0.419456 0.750000 0.850426
Si Si6 0.917097 0.182600 0.503211
Si Si7 0.583122 0.145574 0.745535
Si Si8 0.410301 0.138847 0.172611
O O1 0.250000 0.063882 0.434264
O O2 0.491319 0.127308 0.459336
O O3 0.399811 0.098470 0.276376
O O4 0.503619 0.014027 0.382230
O O5 0.750000 0.054796 0.035021
O O6 0.003352 0.103487 0.083209
O O7 0.904530 0.013981 0.188174
O O8 0.000000 0.000000 0.000000
O O9 0.250000 0.750000 0.106178
O O10 0.469442 0.691095 0.164050
O O11 0.460196 0.750000 0.975957
O O12 0.750000 0.537658 0.327679
O O13 0.505151 0.585307 0.266414
O O14 0.250000 0.750000 0.841151
O O15 0.491229 0.693600 0.798245
O O16 0.750000 0.175245 0.471470
O O17 0.962049 0.250000 0.472355
O O18 0.922658 0.177886 0.631242
O O19 0.750000 0.131093 0.766533
O O20 0.250000 0.155704 0.139943
#
# Coordination Sequence:
#
# PCOD9451640 Si02
#       8
#     8   8   4   8   4   8   8   8
#     4  10  22  40  62  87 117 155 197 240 295 353
#     4  10  21  37  58  84 115 152 196 243 292 349
#     4   9  20  39  60  85 116 154 199 241 282 349
#     4  10  22  39  59  87 119 151 194 245 296 346
#     4  11  23  37  58  89 118 156 201 239 290 351
#     4  10  21  38  62  90 118 154 195 239 293 348
#     4  10  20  39  64  87 118 156 196 239 291 352
#     4  10  22  40  58  83 119 155 194 242 291 347
#
# _framework density 21.068100000000001
#
# number of rings (size 3 to 8) (size 9 to 14) (size 15 to 20)
#    0.000    2.000    0.714    1.929    3.000    4.857 
#    0.000    1.071    0.000    0.000    0.000    0.000 
#    0.000    0.000    0.000    0.000    0.000    0.000 
#
# Total GULP energy -312782.748930 kJ/mol
# GULP energy per Si atom -5585.406231 kJ/mol
# Density = 2.102015 g / cm^3
# Si number density = 21.068100 Si / 1000 Ang^3
#
#
#
# Elastic Constant Matrix: (Units=GPa)
#
#
# Indices 1 2 3 4 5 6 
#
# 1 134.4708 39.9623 17.1631 0.0000 0.0000 0.0000
# 2 39.9623 86.1379 -12.3881 0.0000 0.0000 0.0000
# 3 17.1631 -12.3881 37.8203 0.0000 0.0000 0.0000
# 4 0.0000 0.0000 0.0000 21.0633 0.0000 0.0000
# 5 0.0000 0.0000 0.0000 0.0000 20.0033 0.0000
# 6 0.0000 0.0000 0.0000 0.0000 0.0000 32.4818
#
#
#
# Elastic Compliance Matrix: (Units=1/GPa)
#
#
# Indices 1 2 3 4 5 6 
#
# 1 0.009865 -0.005479 -0.006271 0.000000 0.000000 0.000000
# 2 -0.005479 0.015226 0.007474 0.000000 0.000000 0.000000
# 3 -0.006271 0.007474 0.031735 0.000000 0.000000 0.000000
# 4 0.000000 0.000000 0.000000 0.047476 0.000000 0.000000
# 5 0.000000 0.000000 0.000000 0.000000 0.049992 0.000000
# 6 0.000000 0.000000 0.000000 0.000000 0.000000 0.030787
#
#
# Mechanical properties :
#
#
# Convention : Reuss Voigt Hill
#
# Bulk Modulus (GPa) = 20.71566 38.65595 29.68580
# Shear Modulus (GPa) = 23.84083 28.95579 26.39831
#
# Velocity S-wave (km/s) = 3.36759 3.71130 3.54361
# Velocity P-wave (km/s) = 4.99749 6.06242 5.55553
#
# Compressibility (1/GPa) = 0.04827265
#
# Stress axis : x y z
#
# Youngs Moduli (GPa) = 101.36643 65.67753 31.51112
#
# Poissons Ratio (x) = 0.35983 0.19762
# Poissons Ratio (y) = 0.55536 -0.23550
# Poissons Ratio (z) = 0.63572 -0.49085
#
# Static dielectric constant tensor:
#      x y z
#    x 1.738680 0.000000 0.000000 
#    y 0.000000 1.722120 0.000000 
#    z 0.000000 0.000000 1.793570 
# 
# From -- ./inp_files/21237.got.cif
#   From: 2010.05.17/outbox.cif.g08.bks.cpg/sg59_11_cif.got.tgz:21237.got - 2010.06.03 14:40:33.
