data_PCOD9451418
_publ_section_title
;
Structure prediction by ZEFSAII (Michael W. Deem and Ramdas Pophale) SiO2 
 PCOD9451418
Probable space group: P M M N
;
_chemical_formula_sum "Si O2"
_cell_formula_units_Z 64
_cell_length_a 15.481665
_cell_length_b 18.676287
_cell_length_c 11.010167
_cell_angle_alpha 90.000000
_cell_angle_beta 90.000000
_cell_angle_gamma 90.000000
_cell_volume 3183.479893
_symmetry_space_group_name_H-M "P M M N"
_symmetry_group_IT_number 59
_space_group.IT_coordinate_system_code '2'
_symmetry_cell_setting 'orthorhombic'
loop_
_space_group_symop_operation_xyz
x,y,z
1/2-x,1/2-y,z
1/2+x,-y,-z
-x,1/2+y,-z
-x,-y,-z
1/2+x,1/2+y,-z
1/2-x,y,z
x,1/2-y,z
loop_
_atom_site_type_symbol
_atom_site_label
_atom_site_fract_x
_atom_site_fract_y
_atom_site_fract_z
Si Si1 0.155424 0.598415 0.714205
Si Si2 0.033249 0.668495 0.908950
Si Si3 0.465234 0.329810 0.554664
Si Si4 0.845281 0.125545 0.560597
Si Si5 0.605250 0.830640 0.709123
Si Si6 0.344487 0.006579 0.278193
Si Si7 0.507068 0.441746 0.893880
Si Si8 0.351273 0.430974 0.715981
O O1 0.250000 0.609194 0.768212
O O2 0.088898 0.624552 0.812458
O O3 0.152822 0.635846 0.584000
O O4 0.144877 0.514881 0.685945
O O5 0.063113 0.750000 0.915755
O O6 0.940660 0.668569 0.840674
O O7 0.035728 0.630281 0.038096
O O8 0.438587 0.250000 0.590081
O O9 0.562906 0.342756 0.601386
O O10 0.459033 0.333897 0.407778
O O11 0.398044 0.385024 0.612299
O O12 0.750000 0.152074 0.603438
O O13 0.847716 0.041907 0.600207
O O14 0.646009 0.750000 0.698018
O O15 0.650740 0.908086 0.701294
O O16 0.250000 0.991706 0.221082
O O17 0.423538 0.975643 0.199034
O O18 0.415026 0.425840 0.831602
O O19 0.500000 0.500000 0.000000
O O20 0.250000 0.411860 0.733611
#
# Coordination Sequence:
#
# PCOD9451418 Si02
#       8
#     8   8   8   8   8   8   8   8
#     4  10  20  36  63  97 126 158 207 264 323 386
#     4  11  23  40  61  90 126 164 209 261 324 383
#     4  11  23  39  65  96 132 174 212 258 322 386
#     4  10  21  37  62  97 131 167 212 261 319 387
#     4  10  21  38  62  94 129 166 207 258 321 383
#     4  11  23  40  65  94 126 167 214 262 315 378
#     4  12  23  42  66  92 121 169 216 270 314 368
#     4  11  24  42  67  96 126 165 216 268 318 376
#
# _framework density 20.103784999999998
#
# number of rings (size 3 to 8) (size 9 to 14) (size 15 to 20)
#    0.000    1.250    5.000    0.750    0.000    5.000 
#    0.000    2.500    0.000    0.000    0.000    0.000 
#    0.000    0.000    0.000    0.000    0.000    0.000 
#
# Total GULP energy -356564.007826 kJ/mol
# GULP energy per Si atom -5571.312622 kJ/mol
# Density = 2.005803 g / cm^3
# Si number density = 20.103785 Si / 1000 Ang^3
#
#
#
# Elastic Constant Matrix: (Units=GPa)
#
#
# Indices 1 2 3 4 5 6 
#
# 1 127.7157 36.4814 33.0964 0.0000 0.0000 0.0000
# 2 36.4814 71.4552 16.9552 0.0000 0.0000 0.0000
# 3 33.0964 16.9552 62.9346 0.0000 0.0000 0.0000
# 4 0.0000 0.0000 0.0000 23.8278 0.0000 0.0000
# 5 0.0000 0.0000 0.0000 0.0000 10.7287 0.0000
# 6 0.0000 0.0000 0.0000 0.0000 0.0000 2.0492
#
#
#
# Elastic Compliance Matrix: (Units=1/GPa)
#
#
# Indices 1 2 3 4 5 6 
#
# 1 0.010106 -0.004165 -0.004193 0.000000 0.000000 0.000000
# 2 -0.004165 0.016667 -0.002300 0.000000 0.000000 0.000000
# 3 -0.004193 -0.002300 0.018714 0.000000 0.000000 0.000000
# 4 0.000000 0.000000 0.000000 0.041968 0.000000 0.000000
# 5 0.000000 0.000000 0.000000 0.000000 0.093208 0.000000
# 6 0.000000 0.000000 0.000000 0.000000 0.000000 0.487989
#
#
# Mechanical properties :
#
#
# Convention : Reuss Voigt Hill
#
# Bulk Modulus (GPa) = 41.36999 48.35240 44.86119
# Shear Modulus (GPa) = 7.16308 19.02596 13.09452
#
# Velocity S-wave (km/s) = 1.88965 3.07968 2.55492
# Velocity P-wave (km/s) = 5.03825 6.06214 5.57375
#
# Compressibility (1/GPa) = 0.02417211
#
# Stress axis : x y z
#
# Youngs Moduli (GPa) = 98.95096 59.99923 53.43604
#
# Poissons Ratio (x) = 0.24988 0.22403
# Poissons Ratio (y) = 0.41211 0.12290
# Poissons Ratio (z) = 0.41486 0.13800
#
# Static dielectric constant tensor:
#      x y z
#    x 1.780300 0.000000 0.000000 
#    y 0.000000 1.724600 0.000000 
#    z 0.000000 0.000000 1.700510 
# 
# From -- ./inp_files/17203.got.cif
#   From: 2010.05.17/outbox.cif.g08.bks.cpg/sg59_9_cif.got.tgz:17203.got - 2010.06.03 14:40:33.
