data_PCOD9451481
_publ_section_title
;
Structure prediction by ZEFSAII (Michael W. Deem and Ramdas Pophale) SiO2 
 PCOD9451481
Probable space group: P M M N
;
_chemical_formula_sum "Si O2"
_cell_formula_units_Z 48
_cell_length_a 8.678270
_cell_length_b 31.517039
_cell_length_c 9.559314
_cell_angle_alpha 90.000000
_cell_angle_beta 90.000000
_cell_angle_gamma 90.000000
_cell_volume 2614.600226
_symmetry_space_group_name_H-M "P M M N"
_symmetry_group_IT_number 59
_space_group.IT_coordinate_system_code '2'
_symmetry_cell_setting 'orthorhombic'
loop_
_space_group_symop_operation_xyz
x,y,z
1/2-x,1/2-y,z
1/2+x,-y,-z
-x,1/2+y,-z
-x,-y,-z
1/2+x,1/2+y,-z
1/2-x,y,z
x,1/2-y,z
loop_
_atom_site_type_symbol
_atom_site_label
_atom_site_fract_x
_atom_site_fract_y
_atom_site_fract_z
Si Si1 0.564772 0.671866 0.337949
Si Si2 0.064547 0.498171 0.843858
Si Si3 0.564814 0.079339 0.665703
Si Si4 0.435254 0.921541 0.658727
Si Si5 0.562900 0.750000 0.850104
Si Si6 0.064663 0.170180 0.337135
Si Si7 0.433773 0.750000 0.162473
O O1 0.750000 0.672033 0.328645
O O2 0.500402 0.625707 0.297641
O O3 0.520925 0.678957 0.501158
O O4 0.496887 0.708727 0.242760
O O5 0.250000 0.497284 0.846742
O O6 0.014507 0.539910 0.756893
O O7 0.002915 0.456883 0.763859
O O8 0.000000 0.500000 0.000000
O O9 0.750000 0.079665 0.674463
O O10 0.519581 0.070962 0.503376
O O11 0.250000 0.919513 0.662562
O O12 0.499820 0.875820 0.702355
O O13 0.750000 0.750000 0.858114
O O14 0.515089 0.791822 0.763665
O O15 0.494681 0.750000 0.004302
O O16 0.250000 0.168164 0.333150
O O17 0.250000 0.750000 0.164450
#
# Coordination Sequence:
#
# PCOD9451481 Si02
#       7
#     8   8   8   8   4   8   4
#     4  10  20  38  62  86 111 144 184 229 278 332
#     4  11  23  38  55  80 114 153 189 228 278 333
#     4  10  20  37  60  86 112 142 183 233 280 330
#     4   9  20  37  58  83 112 143 182 230 280 330
#     4  10  21  38  56  80 114 150 185 228 278 332
#     4   9  19  36  61  86 108 139 185 232 278 331
#     4  12  25  38  54  82 116 152 189 228 274 328
#
# _framework density 18.358446000000001
#
# number of rings (size 3 to 8) (size 9 to 14) (size 15 to 20)
#    0.000    2.000    0.000    3.250    0.000    6.000 
#    0.000    4.167    0.000    0.000    0.000    0.000 
#    0.000    0.000    0.000    0.000    0.000    0.000 
#
# Total GULP energy -268163.773415 kJ/mol
# GULP energy per Si atom -5586.745279 kJ/mol
# Density = 1.831666 g / cm^3
# Si number density = 18.358446 Si / 1000 Ang^3
#
#
#
# Elastic Constant Matrix: (Units=GPa)
#
#
# Indices 1 2 3 4 5 6 
#
# 1 55.8614 60.0199 49.4128 0.0000 0.0000 0.0000
# 2 60.0199 211.9440 142.5847 0.0000 0.0000 0.0000
# 3 49.4128 142.5847 136.2227 0.0000 0.0000 0.0000
# 4 0.0000 0.0000 0.0000 -13.8336 0.0000 0.0000
# 5 0.0000 0.0000 0.0000 0.0000 26.3779 0.0000
# 6 0.0000 0.0000 0.0000 0.0000 0.0000 36.5599
#
#
#
# Elastic Compliance Matrix: (Units=1/GPa)
#
#
# Indices 1 2 3 4 5 6 
#
# 1 0.027145 -0.003593 -0.006086 0.000000 0.000000 0.000000
# 2 -0.003593 0.016425 -0.015888 0.000000 0.000000 0.000000
# 3 -0.006086 -0.015888 0.026179 0.000000 0.000000 0.000000
# 4 0.000000 0.000000 0.000000 -0.072288 0.000000 0.000000
# 5 0.000000 0.000000 0.000000 0.000000 0.037911 0.000000
# 6 0.000000 0.000000 0.000000 0.000000 0.000000 0.027352
#
#
# Mechanical properties :
#
#
# Convention : Reuss Voigt Hill
#
# Bulk Modulus (GPa) = 53.72181 100.89589 77.30885
# Shear Modulus (GPa) = 41.64497 19.95486 30.79991
#
# Velocity S-wave (km/s) = 4.76798 3.30048 4.10041
# Velocity P-wave (km/s) = 7.72255 8.34280 8.03866
#
# Compressibility (1/GPa) = 0.01861441
#
# Stress axis : x y z
#
# Youngs Moduli (GPa) = 36.83910 60.88445 38.19899
#
# Poissons Ratio (x) = 0.21876 0.23246
# Poissons Ratio (y) = 0.13237 0.60692
# Poissons Ratio (z) = 0.22419 0.96735
#
# Static dielectric constant tensor:
#      x y z
#    x 1.617530 0.000000 0.000000 
#    y 0.000000 1.603310 0.000000 
#    z 0.000000 0.000000 1.611210 
# 
# From -- ./inp_files/6346.got.cif
#   From: 2010.05.17/outbox.cif.g08.bks.cpg/sg59_4_cif.got.tgz:6346.got - 2010.06.03 14:40:33.
