data_PCOD9451278
_publ_section_title
;
Structure prediction by ZEFSAII (Michael W. Deem and Ramdas Pophale) SiO2 
 PCOD9451278
Probable space group: P M M N
;
_chemical_formula_sum "Si O2"
_cell_formula_units_Z 58
_cell_length_a 29.082944
_cell_length_b 9.059184
_cell_length_c 12.327317
_cell_angle_alpha 90.000000
_cell_angle_beta 90.000000
_cell_angle_gamma 90.000000
_cell_volume 3247.850362
_symmetry_space_group_name_H-M "P M M N"
_symmetry_group_IT_number 59
_space_group.IT_coordinate_system_code '2'
_symmetry_cell_setting 'orthorhombic'
loop_
_space_group_symop_operation_xyz
x,y,z
1/2-x,1/2-y,z
1/2+x,-y,-z
-x,1/2+y,-z
-x,-y,-z
1/2+x,1/2+y,-z
1/2-x,y,z
x,1/2-y,z
loop_
_atom_site_type_symbol
_atom_site_label
_atom_site_fract_x
_atom_site_fract_y
_atom_site_fract_z
Si Si1 0.195026 0.581834 0.133448
Si Si2 0.695308 0.918847 0.082878
Si Si3 0.129440 0.425314 0.716915
Si Si4 0.346691 0.587272 0.494953
Si Si5 0.944400 0.425732 0.885224
Si Si6 0.125427 0.075948 0.279390
Si Si7 0.552895 0.926264 0.113883
Si Si8 0.250000 0.750000 0.481268
O O1 0.250000 0.576473 0.144052
O O2 0.180242 0.750000 0.156509
O O3 0.171233 0.469595 0.214073
O O4 0.183005 0.532199 0.011843
O O5 0.750000 0.926629 0.098985
O O6 0.683973 0.750000 0.048448
O O7 0.669270 0.948025 0.193882
O O8 0.126888 0.250000 0.692692
O O9 0.141454 0.514244 0.609645
O O10 0.083219 0.468941 0.782065
O O11 0.368705 0.750000 0.488767
O O12 0.366909 0.489641 0.398410
O O13 0.291916 0.623082 0.482555
O O14 0.937209 0.250000 0.886348
O O15 0.914903 0.499433 0.790302
O O16 0.998832 0.454745 0.869448
O O17 0.932193 0.493111 0.003156
O O18 0.118611 0.250000 0.281929
O O19 0.559268 0.750000 0.097943
#
# Coordination Sequence:
#
# PCOD9451278 Si02
#       8
#     8   8   8   8   8   8   8   2
#     4  10  21  35  53  79 111 145 182 229 287 350
#     4   9  18  31  49  78 114 149 183 223 277 340
#     4  10  20  36  58  84 115 149 190 238 285 342
#     4  10  23  41  60  82 111 149 193 238 291 343
#     4  10  20  36  60  90 122 158 196 238 293 352
#     4  12  24  38  58  82 111 148 194 245 292 348
#     4   9  19  36  60  91 126 158 192 237 292 353
#     4   8  24  44  62  80 114 156 190 252 292 346
#
# _framework density 17.857965
#
# number of rings (size 3 to 8) (size 9 to 14) (size 15 to 20)
#    0.414    1.655    0.000    3.310    1.931    3.586 
#    0.000    1.379    0.000    0.000    0.000    0.000 
#    0.000    0.000    0.000    0.000    0.000    0.000 
#
# Total GULP energy -323067.654984 kJ/mol
# GULP energy per Si atom -5570.131982 kJ/mol
# Density = 1.781732 g / cm^3
# Si number density = 17.857965 Si / 1000 Ang^3
#
#
#
# Elastic Constant Matrix: (Units=GPa)
#
#
# Indices 1 2 3 4 5 6 
#
# 1 58.7513 21.1349 24.4650 0.0000 0.0000 0.0000
# 2 21.1349 74.6232 39.7853 0.0000 0.0000 0.0000
# 3 24.4650 39.7853 79.8342 0.0000 0.0000 0.0000
# 4 0.0000 0.0000 0.0000 27.9585 0.0000 0.0000
# 5 0.0000 0.0000 0.0000 0.0000 43.3510 0.0000
# 6 0.0000 0.0000 0.0000 0.0000 0.0000 22.3835
#
#
#
# Elastic Compliance Matrix: (Units=1/GPa)
#
#
# Indices 1 2 3 4 5 6 
#
# 1 0.020083 -0.003277 -0.004521 0.000000 0.000000 0.000000
# 2 -0.003277 0.018784 -0.008357 0.000000 0.000000 0.000000
# 3 -0.004521 -0.008357 0.018076 0.000000 0.000000 0.000000
# 4 0.000000 0.000000 0.000000 0.035767 0.000000 0.000000
# 5 0.000000 0.000000 0.000000 0.000000 0.023067 0.000000
# 6 0.000000 0.000000 0.000000 0.000000 0.000000 0.044676
#
#
# Mechanical properties :
#
#
# Convention : Reuss Voigt Hill
#
# Bulk Modulus (GPa) = 40.59683 42.66436 41.63059
# Shear Modulus (GPa) = 24.87879 27.26019 26.06949
#
# Velocity S-wave (km/s) = 3.73654 3.91128 3.82491
# Velocity P-wave (km/s) = 6.43414 6.65885 6.54746
#
# Compressibility (1/GPa) = 0.02463247
#
# Stress axis : x y z
#
# Youngs Moduli (GPa) = 49.79459 53.23588 55.32205
#
# Poissons Ratio (x) = 0.17448 0.25011
# Poissons Ratio (y) = 0.16320 0.46231
# Poissons Ratio (z) = 0.22512 0.44488
#
# Static dielectric constant tensor:
#      x y z
#    x 1.628710 0.000000 0.000000 
#    y 0.000000 1.606240 0.000000 
#    z 0.000000 0.000000 1.603320 
# 
# From -- ./inp_files/19173.got.cif
#   From: 2010.05.17/outbox.cif.g08.bks.cpg/sg59_10_cif.got.tgz:19173.got - 2010.06.03 14:40:33.
