data_PCOD9451691
_publ_section_title
;
Structure prediction by ZEFSAII (Michael W. Deem and Ramdas Pophale) SiO2 
 PCOD9451691
Probable space group: P M M N
;
_chemical_formula_sum "Si O2"
_cell_formula_units_Z 64
_cell_length_a 24.366102
_cell_length_b 20.577130
_cell_length_c 6.861061
_cell_angle_alpha 90.000000
_cell_angle_beta 90.000000
_cell_angle_gamma 90.000000
_cell_volume 3440.029285
_symmetry_space_group_name_H-M "P M M N"
_symmetry_group_IT_number 59
_space_group.IT_coordinate_system_code '2'
_symmetry_cell_setting 'orthorhombic'
loop_
_space_group_symop_operation_xyz
x,y,z
1/2-x,1/2-y,z
1/2+x,-y,-z
-x,1/2+y,-z
-x,-y,-z
1/2+x,1/2+y,-z
1/2-x,y,z
x,1/2-y,z
loop_
_atom_site_type_symbol
_atom_site_label
_atom_site_fract_x
_atom_site_fract_y
_atom_site_fract_z
Si Si1 0.023105 0.179466 0.832387
Si Si2 0.454060 0.633527 0.813506
Si Si3 0.815271 0.558248 0.967944
Si Si4 0.683853 0.824989 0.667459
Si Si5 0.388897 0.559966 0.133738
Si Si6 0.120937 0.397751 0.661657
Si Si7 0.085482 0.676655 0.408743
Si Si8 0.541461 0.963151 0.636544
O O1 0.049609 0.250000 0.821980
O O2 0.070597 0.128384 0.793285
O O3 0.977501 0.172574 0.665071
O O4 0.985855 0.175415 0.024835
O O5 0.420608 0.666478 0.639214
O O6 0.505278 0.593779 0.726012
O O7 0.410237 0.590563 0.932738
O O8 0.750000 0.556724 0.971608
O O9 0.838912 0.568622 0.184808
O O10 0.831217 0.620562 0.831018
O O11 0.838820 0.489947 0.888366
O O12 0.750000 0.828870 0.640886
O O13 0.670613 0.750000 0.722584
O O14 0.653135 0.844135 0.466972
O O15 0.384103 0.618592 0.291876
O O16 0.437876 0.512963 0.202613
O O17 0.092493 0.442064 0.497113
O O18 0.105415 0.750000 0.363784
O O19 0.500000 0.000000 0.500000
#
# Coordination Sequence:
#
# PCOD9451691 Si02
#       8
#     8   8   8   8   8   8   8   8
#     4  10  21  34  52  84 123 163 201 236 284 352
#     4  11  20  36  56  86 122 161 194 240 294 354
#     4  11  25  43  63  89 116 152 206 261 307 354
#     4  10  23  43  63  83 114 159 210 262 308 349
#     4  11  22  38  62  88 118 156 201 247 303 358
#     4  12  22  38  57  86 120 160 204 249 296 346
#     4  10  21  38  58  87 123 160 197 236 296 374
#     4  12  20  35  55  86 120 156 194 236 286 353
#
# _framework density 18.604493000000002
#
# number of rings (size 3 to 8) (size 9 to 14) (size 15 to 20)
#    0.000    1.125    3.750    3.750    0.000    1.500 
#    0.000    1.250    0.000    0.375    0.000    0.000 
#    0.000    0.000    0.000    0.000    0.000    0.000 
#
# Total GULP energy -356943.506984 kJ/mol
# GULP energy per Si atom -5577.242297 kJ/mol
# Density = 1.856215 g / cm^3
# Si number density = 18.604493 Si / 1000 Ang^3
#
#
#
# Elastic Constant Matrix: (Units=GPa)
#
#
# Indices 1 2 3 4 5 6 
#
# 1 52.7816 34.8247 31.5322 0.0000 0.0000 0.0000
# 2 34.8247 115.0411 46.0501 0.0000 0.0000 0.0000
# 3 31.5322 46.0501 95.3969 0.0000 0.0000 0.0000
# 4 0.0000 0.0000 0.0000 1.2981 0.0000 0.0000
# 5 0.0000 0.0000 0.0000 0.0000 16.4515 0.0000
# 6 0.0000 0.0000 0.0000 0.0000 0.0000 28.9268
#
#
#
# Elastic Compliance Matrix: (Units=1/GPa)
#
#
# Indices 1 2 3 4 5 6 
#
# 1 0.026165 -0.005527 -0.005981 0.000000 0.000000 0.000000
# 2 -0.005527 0.011942 -0.003938 0.000000 0.000000 0.000000
# 3 -0.005981 -0.003938 0.014360 0.000000 0.000000 0.000000
# 4 0.000000 0.000000 0.000000 0.770375 0.000000 0.000000
# 5 0.000000 0.000000 0.000000 0.000000 0.060785 0.000000
# 6 0.000000 0.000000 0.000000 0.000000 0.000000 0.034570
#
#
# Mechanical properties :
#
#
# Convention : Reuss Voigt Hill
#
# Bulk Modulus (GPa) = 46.34562 54.22592 50.28577
# Shear Modulus (GPa) = 5.22859 19.38944 12.30902
#
# Velocity S-wave (km/s) = 1.67824 3.23180 2.57498
# Velocity P-wave (km/s) = 5.35914 6.56780 5.99401
#
# Compressibility (1/GPa) = 0.02157701
#
# Stress axis : x y z
#
# Youngs Moduli (GPa) = 38.21844 83.73943 69.63656
#
# Poissons Ratio (x) = 0.46279 0.41648
# Poissons Ratio (y) = 0.21122 0.27422
# Poissons Ratio (z) = 0.22858 0.32975
#
# Static dielectric constant tensor:
#      x y z
#    x 1.442880 0.000000 0.000000 
#    y 0.000000 1.668930 0.000000 
#    z 0.000000 0.000000 1.583260 
# 
# From -- ./inp_files/4328.got.cif
#   From: 2010.05.17/outbox.cif.g08.bks.cpg/sg59_3_cif.got.tgz:4328.got - 2010.06.03 14:40:33.
