data_PCOD9451290
_publ_section_title
;
Structure prediction by ZEFSAII (Michael W. Deem and Ramdas Pophale) SiO2 
 PCOD9451290
Probable space group: P M M N
;
_chemical_formula_sum "Si O2"
_cell_formula_units_Z 64
_cell_length_a 7.661855
_cell_length_b 24.010963
_cell_length_c 15.835936
_cell_angle_alpha 90.000000
_cell_angle_beta 90.000000
_cell_angle_gamma 90.000000
_cell_volume 2913.313660
_symmetry_space_group_name_H-M "P M M N"
_symmetry_group_IT_number 59
_space_group.IT_coordinate_system_code '2'
_symmetry_cell_setting 'orthorhombic'
loop_
_space_group_symop_operation_xyz
x,y,z
1/2-x,1/2-y,z
1/2+x,-y,-z
-x,1/2+y,-z
-x,-y,-z
1/2+x,1/2+y,-z
1/2-x,y,z
x,1/2-y,z
loop_
_atom_site_type_symbol
_atom_site_label
_atom_site_fract_x
_atom_site_fract_y
_atom_site_fract_z
Si Si1 0.452615 0.687909 0.518602
Si Si2 0.044824 0.394577 0.334677
Si Si3 0.963750 0.686818 0.012048
Si Si4 0.459476 0.989517 0.402006
Si Si5 0.950339 0.867060 0.346793
Si Si6 0.541280 0.488987 0.098366
Si Si7 0.036178 0.107437 0.835750
Si Si8 0.951208 0.867116 0.842631
O O1 0.250000 0.689948 0.541486
O O2 0.527784 0.750000 0.527473
O O3 0.532184 0.642889 0.582022
O O4 0.464960 0.667438 0.422202
O O5 0.250000 0.402912 0.317536
O O6 0.973412 0.456240 0.352183
O O7 0.969533 0.365641 0.251035
O O8 0.750000 0.684485 0.011018
O O9 0.014103 0.750000 0.030728
O O10 0.028403 0.667551 0.920125
O O11 0.019366 0.643777 0.084113
O O12 0.250000 0.984656 0.392539
O O13 0.541567 0.931935 0.372679
O O14 0.500000 0.000000 0.500000
O O15 0.750000 0.848410 0.343320
O O16 0.024677 0.866081 0.252245
O O17 0.750000 0.483477 0.107305
O O18 0.482488 0.543370 0.150633
O O19 0.457257 0.431714 0.129045
O O20 0.500000 0.500000 0.000000
O O21 0.250000 0.107087 0.833674
O O22 0.750000 0.848109 0.836041
#
# Coordination Sequence:
#
# PCOD9451290 Si02
#       8
#     8   8   8   8   8   8   8   8
#     4  11  25  43  61  82 113 155 197 240 291 346
#     4  10  22  38  60  88 117 152 193 238 290 345
#     4   9  17  32  55  81 111 147 187 232 278 325
#     4  11  21  35  57  86 118 152 187 232 289 351
#     4  11  22  37  60  88 115 149 192 243 293 343
#     4  11  20  34  57  85 117 155 190 232 286 343
#     4   9  19  34  54  84 116 146 188 234 282 339
#     4  10  20  36  58  87 118 147 187 237 285 343
#
# _framework density 21.968112000000001
#
# number of rings (size 3 to 8) (size 9 to 14) (size 15 to 20)
#    0.000    1.750    2.500    2.250    0.000    3.000 
#    0.000    4.375    0.000    0.375    0.000    0.000 
#    0.000    0.000    0.000    0.000    0.000    0.000 
#
# Total GULP energy -357646.707980 kJ/mol
# GULP energy per Si atom -5588.229812 kJ/mol
# Density = 2.191811 g / cm^3
# Si number density = 21.968112 Si / 1000 Ang^3
#
#
#
# Elastic Constant Matrix: (Units=GPa)
#
#
# Indices 1 2 3 4 5 6 
#
# 1 47.2704 -14.5850 -11.6683 0.0000 0.0000 0.0000
# 2 -14.5850 66.7340 -12.5709 0.0000 0.0000 0.0000
# 3 -11.6683 -12.5709 90.0104 0.0000 0.0000 0.0000
# 4 0.0000 0.0000 0.0000 9.8444 0.0000 0.0000
# 5 0.0000 0.0000 0.0000 0.0000 4.5942 0.0000
# 6 0.0000 0.0000 0.0000 0.0000 0.0000 16.3250
#
#
#
# Elastic Compliance Matrix: (Units=1/GPa)
#
#
# Indices 1 2 3 4 5 6 
#
# 1 0.023974 0.005982 0.003943 0.000000 0.000000 0.000000
# 2 0.005982 0.016883 0.003133 0.000000 0.000000 0.000000
# 3 0.003943 0.003133 0.012059 0.000000 0.000000 0.000000
# 4 0.000000 0.000000 0.000000 0.101580 0.000000 0.000000
# 5 0.000000 0.000000 0.000000 0.000000 0.217664 0.000000
# 6 0.000000 0.000000 0.000000 0.000000 0.000000 0.061256
#
#
# Mechanical properties :
#
#
# Convention : Reuss Voigt Hill
#
# Bulk Modulus (GPa) = 12.65284 14.04072 13.34678
# Shear Modulus (GPa) = 11.53026 22.34201 16.93614
#
# Velocity S-wave (km/s) = 2.29348 3.19253 2.77960
# Velocity P-wave (km/s) = 3.57568 4.47158 4.04849
#
# Compressibility (1/GPa) = 0.07903362
#
# Stress axis : x y z
#
# Youngs Moduli (GPa) = 41.71166 59.23263 82.92824
#
# Poissons Ratio (x) = -0.35436 -0.32701
# Poissons Ratio (y) = -0.24954 -0.25984
# Poissons Ratio (z) = -0.16448 -0.18560
#
# Static dielectric constant tensor:
#      x y z
#    x 19.005150 0.000000 0.000000 
#    y 0.000000 1.770990 0.000000 
#    z 0.000000 0.000000 1.811480 
# 
# From -- ./inp_files/21425.got.cif
#   From: 2010.05.17/outbox.cif.g08.bks.cpg/sg59_11_cif.got.tgz:21425.got - 2010.06.03 14:40:33.
