data_PCOD9451409
_publ_section_title
;
Structure prediction by ZEFSAII (Michael W. Deem and Ramdas Pophale) SiO2 
 PCOD9451409
Probable space group: P M M N
;
_chemical_formula_sum "Si O2"
_cell_formula_units_Z 48
_cell_length_a 15.147424
_cell_length_b 8.625893
_cell_length_c 19.484877
_cell_angle_alpha 90.000000
_cell_angle_beta 90.000000
_cell_angle_gamma 90.000000
_cell_volume 2545.895172
_symmetry_space_group_name_H-M "P M M N"
_symmetry_group_IT_number 59
_space_group.IT_coordinate_system_code '2'
_symmetry_cell_setting 'orthorhombic'
loop_
_space_group_symop_operation_xyz
x,y,z
1/2-x,1/2-y,z
1/2+x,-y,-z
-x,1/2+y,-z
-x,-y,-z
1/2+x,1/2+y,-z
1/2-x,y,z
x,1/2-y,z
loop_
_atom_site_type_symbol
_atom_site_label
_atom_site_fract_x
_atom_site_fract_y
_atom_site_fract_z
Si Si1 0.750000 0.061552 0.233353
Si Si2 0.603325 0.068359 0.855342
Si Si3 0.144347 0.071960 0.996059
Si Si4 0.750000 0.563376 0.597092
Si Si5 0.918074 0.066359 0.143329
Si Si6 0.250000 0.435405 0.243149
Si Si7 0.899505 0.436819 0.498185
Si Si8 0.250000 0.938382 0.609748
O O1 0.750000 0.250000 0.235240
O O2 0.835736 0.016803 0.189946
O O3 0.750000 0.006395 0.311816
O O4 0.618837 0.250000 0.863271
O O5 0.621951 0.986896 0.928248
O O6 0.503522 0.029376 0.836515
O O7 0.666492 0.000648 0.797460
O O8 0.250000 0.067263 0.988381
O O9 0.114368 0.250000 0.987944
O O10 0.103017 0.969211 0.936105
O O11 0.750000 0.750000 0.590253
O O12 0.750000 0.521603 0.677124
O O13 0.837683 0.496861 0.560341
O O14 0.933280 0.250000 0.152012
O O15 0.250000 0.250000 0.238239
O O16 0.903394 0.250000 0.499784
O O17 0.838885 0.483494 0.431989
O O18 0.000000 0.500000 0.500000
O O19 0.250000 0.750000 0.610460
#
# Coordination Sequence:
#
# PCOD9451409 Si02
#       8
#     4   8   8   4   8   4   8   4
#     4   9  19  36  59  84 113 151 194 237 284 340
#     4  12  25  40  60  86 117 153 195 245 302 361
#     4  11  22  38  61  84 113 151 196 250 302 354
#     4  10  22  40  63  89 121 158 200 246 296 354
#     4  11  22  38  60  86 116 152 199 248 297 355
#     4  11  24  43  63  86 117 157 200 245 298 360
#     4  10  20  36  62  92 124 158 198 243 291 349
#     4   8  17  35  57  85 117 152 192 236 282 334
#
# _framework density 18.853878000000002
#
# number of rings (size 3 to 8) (size 9 to 14) (size 15 to 20)
#    0.000    1.500    1.667    4.500    0.000    3.333 
#    0.000    3.333    0.000   11.000    0.000    0.000 
#    0.000    0.000    0.000    0.000    0.000    0.000 
#
# Total GULP energy -268189.079334 kJ/mol
# GULP energy per Si atom -5587.272486 kJ/mol
# Density = 1.881097 g / cm^3
# Si number density = 18.853878 Si / 1000 Ang^3
#
#
#
# Elastic Constant Matrix: (Units=GPa)
#
#
# Indices 1 2 3 4 5 6 
#
# 1 130.6926 14.8481 56.2759 0.0000 0.0000 0.0000
# 2 14.8481 40.4735 17.3748 0.0000 0.0000 0.0000
# 3 56.2759 17.3748 130.5322 0.0000 0.0000 0.0000
# 4 0.0000 0.0000 0.0000 23.8827 0.0000 0.0000
# 5 0.0000 0.0000 0.0000 0.0000 213.8579 0.0000
# 6 0.0000 0.0000 0.0000 0.0000 0.0000 112.9330
#
#
#
# Elastic Compliance Matrix: (Units=1/GPa)
#
#
# Indices 1 2 3 4 5 6 
#
# 1 0.009523 -0.001836 -0.003861 0.000000 0.000000 0.000000
# 2 -0.001836 0.026559 -0.002744 0.000000 0.000000 0.000000
# 3 -0.003861 -0.002744 0.009691 0.000000 0.000000 0.000000
# 4 0.000000 0.000000 0.000000 0.041871 0.000000 0.000000
# 5 0.000000 0.000000 0.000000 0.000000 0.004676 0.000000
# 6 0.000000 0.000000 0.000000 0.000000 0.000000 0.008855
#
#
# Mechanical properties :
#
#
# Convention : Reuss Voigt Hill
#
# Bulk Modulus (GPa) = 34.61298 53.18844 43.90071
# Shear Modulus (GPa) = 39.15850 84.34802 61.75326
#
# Velocity S-wave (km/s) = 4.56230 6.69589 5.72929
# Velocity P-wave (km/s) = 6.79346 9.38360 8.19155
#
# Compressibility (1/GPa) = 0.02889089
#
# Stress axis : x y z
#
# Youngs Moduli (GPa) = 105.01214 37.65221 103.19103
#
# Poissons Ratio (x) = 0.06913 0.39843
# Poissons Ratio (y) = 0.19280 0.28312
# Poissons Ratio (z) = 0.40546 0.10330
#
# Static dielectric constant tensor:
#      x y z
#    x 1.647350 0.000000 0.000000 
#    y 0.000000 1.634690 0.000000 
#    z 0.000000 0.000000 1.633980 
# 
# From -- ./inp_files/27539.got.cif
#   From: 2010.05.17/outbox.cif.g08.bks.cpg/sg59_14_cif.got.tgz:27539.got - 2010.06.03 14:40:33.
