data_PCOD9451779
_publ_section_title
;
Structure prediction by ZEFSAII (Michael W. Deem and Ramdas Pophale) SiO2 
 PCOD9451779
Probable space group: P M M N
;
_chemical_formula_sum "Si O2"
_cell_formula_units_Z 64
_cell_length_a 9.502615
_cell_length_b 23.250007
_cell_length_c 15.772110
_cell_angle_alpha 90.000000
_cell_angle_beta 90.000000
_cell_angle_gamma 90.000000
_cell_volume 3484.624770
_symmetry_space_group_name_H-M "P M M N"
_symmetry_group_IT_number 59
_space_group.IT_coordinate_system_code '2'
_symmetry_cell_setting 'orthorhombic'
loop_
_space_group_symop_operation_xyz
x,y,z
1/2-x,1/2-y,z
1/2+x,-y,-z
-x,1/2+y,-z
-x,-y,-z
1/2+x,1/2+y,-z
1/2-x,y,z
x,1/2-y,z
loop_
_atom_site_type_symbol
_atom_site_label
_atom_site_fract_x
_atom_site_fract_y
_atom_site_fract_z
Si Si1 0.080021 0.863961 0.694600
Si Si2 0.421054 0.105880 0.623578
Si Si3 0.421199 0.503250 0.724577
Si Si4 0.587964 0.010718 0.086011
Si Si5 0.593564 0.818306 0.039482
Si Si6 0.590942 0.148186 0.116310
Si Si7 0.580685 0.816603 0.534176
Si Si8 0.421876 0.316034 0.780430
O O1 0.250000 0.860550 0.684452
O O2 0.045150 0.839498 0.787790
O O3 0.999677 0.831750 0.620312
O O4 0.040393 0.931754 0.699054
O O5 0.250000 0.105047 0.620962
O O6 0.466815 0.042401 0.653193
O O7 0.465113 0.136960 0.537003
O O8 0.464774 0.146513 0.701236
O O9 0.250000 0.502034 0.728840
O O10 0.465866 0.488006 0.821726
O O11 0.750000 0.990972 0.073571
O O12 0.592139 0.079263 0.103249
O O13 0.500000 0.000000 0.000000
O O14 0.750000 0.842523 0.027798
O O15 0.605106 0.750000 0.053373
O O16 0.531031 0.840208 0.128322
O O17 0.505253 0.827807 0.956625
O O18 0.750000 0.169320 0.106181
O O19 0.750000 0.821560 0.545094
O O20 0.553367 0.750000 0.508449
O O21 0.250000 0.316541 0.783956
O O22 0.466008 0.250000 0.768927
#
# Coordination Sequence:
#
# PCOD9451779 Si02
#       8
#     8   8   8   8   8   8   8   8
#     4   9  19  37  55  71  99 135 172 212 250 299
#     4   9  16  28  50  76 102 132 164 203 254 310
#     4   8  16  31  50  74 101 133 174 209 245 299
#     4   9  18  31  48  72 101 132 169 210 245 289
#     4   9  18  30  46  73 102 127 165 213 253 293
#     4   9  19  34  49  68  97 133 169 205 246 298
#     4  10  21  35  53  80 106 127 161 212 264 308
#     4   8  14  25  42  68 101 131 161 201 248 301
#
# _framework density 18.366396000000002
#
# number of rings (size 3 to 8) (size 9 to 14) (size 15 to 20)
#    0.000    3.125    0.000    2.625    1.750    4.000 
#    0.000    4.375    0.000    1.500    0.000    1.750 
#    0.000    0.000    0.000    0.000    0.000    0.000 
#
# Total GULP energy -356339.274447 kJ/mol
# GULP energy per Si atom -5567.801163 kJ/mol
# Density = 1.832459 g / cm^3
# Si number density = 18.366396 Si / 1000 Ang^3
#
#
#
# Elastic Constant Matrix: (Units=GPa)
#
#
# Indices 1 2 3 4 5 6 
#
# 1 12.4536 0.9089 24.1843 0.0000 0.0000 0.0000
# 2 0.9089 23.4956 -0.1804 0.0000 0.0000 0.0000
# 3 24.1843 -0.1804 95.3391 0.0000 0.0000 0.0000
# 4 0.0000 0.0000 0.0000 33.3365 0.0000 0.0000
# 5 0.0000 0.0000 0.0000 0.0000 19.1961 0.0000
# 6 0.0000 0.0000 0.0000 0.0000 0.0000 17.2549
#
#
#
# Elastic Compliance Matrix: (Units=1/GPa)
#
#
# Indices 1 2 3 4 5 6 
#
# 1 0.159235 -0.006470 -0.040405 0.000000 0.000000 0.000000
# 2 -0.006470 0.042825 0.001722 0.000000 0.000000 0.000000
# 3 -0.040405 0.001722 0.020741 0.000000 0.000000 0.000000
# 4 0.000000 0.000000 0.000000 0.029997 0.000000 0.000000
# 5 0.000000 0.000000 0.000000 0.000000 0.052094 0.000000
# 6 0.000000 0.000000 0.000000 0.000000 0.000000 0.057955
#
#
# Mechanical properties :
#
#
# Convention : Reuss Voigt Hill
#
# Bulk Modulus (GPa) = 7.54742 20.12377 13.83560
# Shear Modulus (GPa) = 10.05396 21.04919 15.55157
#
# Velocity S-wave (km/s) = 2.34222 3.38904 2.91304
# Velocity P-wave (km/s) = 3.38126 5.12784 4.34325
#
# Compressibility (1/GPa) = 0.13249563
#
# Stress axis : x y z
#
# Youngs Moduli (GPa) = 6.28005 23.35105 48.21279
#
# Poissons Ratio (x) = 0.15108 1.94802
# Poissons Ratio (y) = 0.04063 -0.08304
# Poissons Ratio (z) = 0.25374 -0.04022
#
# Static dielectric constant tensor:
#      x y z
#    x 1.613580 0.000000 0.000000 
#    y 0.000000 1.674520 0.000000 
#    z 0.000000 0.000000 1.647450 
# 
# From -- ./inp_files/16271.got.cif
#   From: 2010.05.17/outbox.cif.g08.bks.cpg/sg59_9_cif.got.tgz:16271.got - 2010.06.03 14:40:33.
