data_PCOD9451509
_publ_section_title
;
Structure prediction by ZEFSAII (Michael W. Deem and Ramdas Pophale) SiO2 
 PCOD9451509
Probable space group: P M M N
;
_chemical_formula_sum "Si O2"
_cell_formula_units_Z 48
_cell_length_a 8.474672
_cell_length_b 28.846827
_cell_length_c 10.402580
_cell_angle_alpha 90.000000
_cell_angle_beta 90.000000
_cell_angle_gamma 90.000000
_cell_volume 2543.091655
_symmetry_space_group_name_H-M "P M M N"
_symmetry_group_IT_number 59
_space_group.IT_coordinate_system_code '2'
_symmetry_cell_setting 'orthorhombic'
loop_
_space_group_symop_operation_xyz
x,y,z
1/2-x,1/2-y,z
1/2+x,-y,-z
-x,1/2+y,-z
-x,-y,-z
1/2+x,1/2+y,-z
1/2-x,y,z
x,1/2-y,z
loop_
_atom_site_type_symbol
_atom_site_label
_atom_site_fract_x
_atom_site_fract_y
_atom_site_fract_z
Si Si1 0.061505 0.606131 0.250736
Si Si2 0.939756 0.250000 0.382435
Si Si3 0.059003 0.993805 0.354149
Si Si4 0.941811 0.591857 0.742065
Si Si5 0.561196 0.849904 0.989184
Si Si6 0.439252 0.345290 0.499030
Si Si7 0.938679 0.250000 0.082811
O O1 0.250000 0.604925 0.237682
O O2 0.005909 0.554660 0.292405
O O3 0.989376 0.624540 0.118849
O O4 0.014155 0.639852 0.366942
O O5 0.750000 0.250000 0.386414
O O6 0.990302 0.250000 0.232709
O O7 0.005587 0.204667 0.451627
O O8 0.250000 0.993422 0.358139
O O9 0.007770 0.038560 0.271519
O O10 0.000000 0.000000 0.500000
O O11 0.750000 0.592119 0.746354
O O12 0.988475 0.618458 0.612036
O O13 0.997543 0.620437 0.865922
O O14 0.750000 0.847916 0.982585
O O15 0.498513 0.797439 0.980674
O O16 0.250000 0.346548 0.509849
O O17 0.750000 0.250000 0.079675
#
# Coordination Sequence:
#
# PCOD9451509 Si02
#       7
#     8   4   8   8   8   8   4
#     4  11  24  40  59  90 129 162 198 252 310 360
#     4  11  23  38  61  94 127 154 194 252 311 364
#     4  10  20  37  61  89 122 160 202 249 303 358
#     4   9  19  36  61  90 119 153 201 251 291 348
#     4  11  23  41  64  89 121 163 207 249 299 364
#     4  11  21  38  64  90 119 157 204 250 295 356
#     4  11  23  40  63  90 123 158 196 246 309 366
#
# _framework density 18.874665
#
# number of rings (size 3 to 8) (size 9 to 14) (size 15 to 20)
#    0.000    1.500    3.333    2.000    0.000    2.667 
#    0.000    5.000    0.000    0.000    0.000    0.000 
#    0.000    0.000    0.000    0.000    0.000    0.000 
#
# Total GULP energy -268215.035206 kJ/mol
# GULP energy per Si atom -5587.813233 kJ/mol
# Density = 1.883171 g / cm^3
# Si number density = 18.874665 Si / 1000 Ang^3
#
#
#
# Elastic Constant Matrix: (Units=GPa)
#
#
# Indices 1 2 3 4 5 6 
#
# 1 32.3382 19.2472 13.9040 0.0000 0.0000 0.0000
# 2 19.2472 143.9859 49.2551 0.0000 0.0000 0.0000
# 3 13.9040 49.2551 114.8329 0.0000 0.0000 0.0000
# 4 0.0000 0.0000 0.0000 36.7817 0.0000 0.0000
# 5 0.0000 0.0000 0.0000 0.0000 25.1480 0.0000
# 6 0.0000 0.0000 0.0000 0.0000 0.0000 9.3531
#
#
#
# Elastic Compliance Matrix: (Units=1/GPa)
#
#
# Indices 1 2 3 4 5 6 
#
# 1 0.034225 -0.003700 -0.002557 0.000000 0.000000 0.000000
# 2 -0.003700 0.008539 -0.003215 0.000000 0.000000 0.000000
# 3 -0.002557 -0.003215 0.010397 0.000000 0.000000 0.000000
# 4 0.000000 0.000000 0.000000 0.027187 0.000000 0.000000
# 5 0.000000 0.000000 0.000000 0.000000 0.039765 0.000000
# 6 0.000000 0.000000 0.000000 0.000000 0.000000 0.106917
#
#
# Mechanical properties :
#
#
# Convention : Reuss Voigt Hill
#
# Bulk Modulus (GPa) = 29.22496 50.66329 39.94413
# Shear Modulus (GPa) = 19.42654 28.17325 23.79990
#
# Velocity S-wave (km/s) = 3.21166 3.86767 3.55483
# Velocity P-wave (km/s) = 5.41020 6.84437 6.16910
#
# Compressibility (1/GPa) = 0.03421733
#
# Stress axis : x y z
#
# Youngs Moduli (GPa) = 29.21849 117.10295 96.18342
#
# Poissons Ratio (x) = 0.43332 0.24592
# Poissons Ratio (y) = 0.10812 0.30921
# Poissons Ratio (z) = 0.07471 0.37646
#
# Static dielectric constant tensor:
#      x y z
#    x 1.638060 0.000000 0.000000 
#    y 0.000000 1.641590 0.000000 
#    z 0.000000 0.000000 1.617630 
# 
# From -- ./inp_files/6430.got.cif
#   From: 2010.05.17/outbox.cif.g08.bks.cpg/sg59_4_cif.got.tgz:6430.got - 2010.06.03 14:40:33.
