data_PCOD9451079
_publ_section_title
;
Structure prediction by ZEFSAII (Michael W. Deem and Ramdas Pophale) SiO2 
 PCOD9451079
Probable space group: P M M N
;
_chemical_formula_sum "Si O2"
_cell_formula_units_Z 64
_cell_length_a 8.701874
_cell_length_b 14.383352
_cell_length_c 27.288943
_cell_angle_alpha 90.000000
_cell_angle_beta 90.000000
_cell_angle_gamma 90.000000
_cell_volume 3415.541871
_symmetry_space_group_name_H-M "P M M N"
_symmetry_group_IT_number 59
_space_group.IT_coordinate_system_code '2'
_symmetry_cell_setting 'orthorhombic'
loop_
_space_group_symop_operation_xyz
x,y,z
1/2-x,1/2-y,z
1/2+x,-y,-z
-x,1/2+y,-z
-x,-y,-z
1/2+x,1/2+y,-z
1/2-x,y,z
x,1/2-y,z
loop_
_atom_site_type_symbol
_atom_site_label
_atom_site_fract_x
_atom_site_fract_y
_atom_site_fract_z
Si Si1 0.429801 0.516026 0.053390
Si Si2 0.066741 0.147441 0.223368
Si Si3 0.566098 0.357275 0.671365
Si Si4 0.564597 0.857317 0.136213
Si Si5 0.427485 0.856283 0.885189
Si Si6 0.566803 0.544137 0.237090
Si Si7 0.064366 0.355647 0.479598
Si Si8 0.935656 0.459935 0.573639
O O1 0.250000 0.533075 0.048930
O O2 0.503995 0.597392 0.086232
O O3 0.465872 0.422948 0.083824
O O4 0.500000 0.500000 0.000000
O O5 0.250000 0.141900 0.216542
O O6 0.032689 0.250000 0.245093
O O7 0.982871 0.143710 0.170807
O O8 0.008797 0.055094 0.249785
O O9 0.750000 0.368365 0.678449
O O10 0.537600 0.250000 0.658063
O O11 0.482026 0.383849 0.721299
O O12 0.516319 0.423466 0.626756
O O13 0.750000 0.859192 0.135467
O O14 0.515810 0.750000 0.141574
O O15 0.515025 0.917886 0.183626
O O16 0.250000 0.888524 0.887710
O O17 0.434133 0.750000 0.902790
O O18 0.750000 0.533837 0.235411
O O19 0.250000 0.355387 0.481551
O O20 0.013011 0.250000 0.469853
O O21 0.018615 0.434497 0.440076
O O22 0.001652 0.393348 0.531319
O O23 0.750000 0.454560 0.571641
#
# Coordination Sequence:
#
# PCOD9451079 Si02
#       8
#     8   8   8   8   8   8   8   8
#     4  12  25  40  60  84 114 149 185 228 279 334
#     4  10  20  35  58  87 114 142 179 221 268 323
#     4  10  21  36  54  78 111 150 192 238 286 338
#     4  10  22  41  62  84 113 148 186 229 279 336
#     4  10  20  36  59  85 112 142 178 220 267 321
#     4  11  22  37  60  86 115 150 189 232 281 334
#     4   9  17  30  51  79 109 143 186 237 291 346
#     4   9  18  33  52  76 109 149 191 236 286 339
#
# _framework density 18.737874999999999
#
# number of rings (size 3 to 8) (size 9 to 14) (size 15 to 20)
#    0.000    1.875    1.250    3.000    0.000    4.750 
#    0.000    0.625    0.000    2.250    0.000    0.000 
#    0.000    0.000    0.000    0.000    0.000    0.000 
#
# Total GULP energy -357224.703156 kJ/mol
# GULP energy per Si atom -5581.635987 kJ/mol
# Density = 1.869523 g / cm^3
# Si number density = 18.737875 Si / 1000 Ang^3
#
#
#
# Elastic Constant Matrix: (Units=GPa)
#
#
# Indices 1 2 3 4 5 6 
#
# 1 30.2832 23.1691 16.2373 0.0000 0.0000 0.0000
# 2 23.1691 121.9168 30.2881 0.0000 0.0000 0.0000
# 3 16.2373 30.2881 71.3609 0.0000 0.0000 0.0000
# 4 0.0000 0.0000 0.0000 20.1977 0.0000 0.0000
# 5 0.0000 0.0000 0.0000 0.0000 27.3157 0.0000
# 6 0.0000 0.0000 0.0000 0.0000 0.0000 27.2503
#
#
#
# Elastic Compliance Matrix: (Units=1/GPa)
#
#
# Indices 1 2 3 4 5 6 
#
# 1 0.041392 -0.006178 -0.006796 0.000000 0.000000 0.000000
# 2 -0.006178 0.010091 -0.002877 0.000000 0.000000 0.000000
# 3 -0.006796 -0.002877 0.016781 0.000000 0.000000 0.000000
# 4 0.000000 0.000000 0.000000 0.049511 0.000000 0.000000
# 5 0.000000 0.000000 0.000000 0.000000 0.036609 0.000000
# 6 0.000000 0.000000 0.000000 0.000000 0.000000 0.036697
#
#
# Mechanical properties :
#
#
# Convention : Reuss Voigt Hill
#
# Bulk Modulus (GPa) = 27.35116 40.32776 33.83946
# Shear Modulus (GPa) = 21.27926 25.21049 23.24488
#
# Velocity S-wave (km/s) = 3.37356 3.67199 3.52594
# Velocity P-wave (km/s) = 5.45921 6.28862 5.88854
#
# Compressibility (1/GPa) = 0.03656153
#
# Stress axis : x y z
#
# Youngs Moduli (GPa) = 24.15917 99.09643 59.59142
#
# Poissons Ratio (x) = 0.61220 0.40500
# Poissons Ratio (y) = 0.14925 0.17147
# Poissons Ratio (z) = 0.16419 0.28514
#
# Static dielectric constant tensor:
#      x y z
#    x 1.630180 0.000000 0.000000 
#    y 0.000000 1.686160 0.000000 
#    z 0.000000 0.000000 1.618210 
# 
# From -- ./inp_files/31478.got.cif
#   From: 2010.05.17/outbox.cif.g08.bks.cpg/sg59_16_cif.got.tgz:31478.got - 2010.06.03 14:40:33.
