data_PCOD9451515
_publ_section_title
;
Structure prediction by ZEFSAII (Michael W. Deem and Ramdas Pophale) SiO2 
 PCOD9451515
Probable space group: P M M N
;
_chemical_formula_sum "Si O2"
_cell_formula_units_Z 40
_cell_length_a 9.064149
_cell_length_b 7.844899
_cell_length_c 30.194839
_cell_angle_alpha 90.000000
_cell_angle_beta 90.000000
_cell_angle_gamma 90.000000
_cell_volume 2147.074485
_symmetry_space_group_name_H-M "P M M N"
_symmetry_group_IT_number 59
_space_group.IT_coordinate_system_code '2'
_symmetry_cell_setting 'orthorhombic'
loop_
_space_group_symop_operation_xyz
x,y,z
1/2-x,1/2-y,z
1/2+x,-y,-z
-x,1/2+y,-z
-x,-y,-z
1/2+x,1/2+y,-z
1/2-x,y,z
x,1/2-y,z
loop_
_atom_site_type_symbol
_atom_site_label
_atom_site_fract_x
_atom_site_fract_y
_atom_site_fract_z
Si Si1 0.920203 0.953947 0.045629
Si Si2 0.573010 0.940428 0.864232
Si Si3 0.928473 0.250000 0.699686
Si Si4 0.429281 0.750000 0.197517
Si Si5 0.929296 0.048403 0.357205
Si Si6 0.584408 0.454495 0.455635
O O1 0.750000 0.008916 0.043782
O O2 0.924818 0.750000 0.050862
O O3 0.000032 0.032958 0.088051
O O4 0.000000 0.000000 0.000000
O O5 0.750000 0.957282 0.869580
O O6 0.541594 0.750000 0.847915
O O7 0.522163 0.083975 0.829859
O O8 0.750000 0.250000 0.696504
O O9 0.972820 0.250000 0.751391
O O10 0.994642 0.418242 0.676280
O O11 0.250000 0.750000 0.197238
O O12 0.750000 0.033897 0.355393
O O13 0.964121 0.250000 0.350014
O O14 0.976382 0.996213 0.407365
O O15 0.500000 0.500000 0.500000
O O16 0.750000 0.524115 0.459049
O O17 0.592569 0.250000 0.453567
#
# Coordination Sequence:
#
# PCOD9451515 Si02
#       6
#     8   8   4   4   8   8
#     4  11  23  37  55  83 118 155 193 233 281 337
#     4  10  20  37  62  86 111 149 192 233 285 344
#     4  11  23  37  61  93 119 151 197 251 304 353
#     4   9  20  39  59  85 119 151 187 239 298 345
#     4   9  20  40  60  80 115 159 198 239 293 357
#     4   9  19  34  52  77 109 145 187 232 282 343
#
# _framework density 18.629999999999999
#
# number of rings (size 3 to 8) (size 9 to 14) (size 15 to 20)
#    0.000    2.200    1.000    2.700    1.400    6.400 
#    0.000    6.000    0.000    0.000    0.000    0.000 
#    0.000    0.000    0.000    0.000    0.000    0.000 
#
# Total GULP energy -223206.672976 kJ/mol
# GULP energy per Si atom -5580.166824 kJ/mol
# Density = 1.858760 g / cm^3
# Si number density = 18.630000 Si / 1000 Ang^3
#
#
#
# Elastic Constant Matrix: (Units=GPa)
#
#
# Indices 1 2 3 4 5 6 
#
# 1 41.4900 46.5379 50.8197 0.0000 0.0000 0.0000
# 2 46.5379 118.3094 87.3990 0.0000 0.0000 0.0000
# 3 50.8197 87.3990 186.5941 0.0000 0.0000 0.0000
# 4 0.0000 0.0000 0.0000 31.9642 0.0000 0.0000
# 5 0.0000 0.0000 0.0000 0.0000 30.8088 0.0000
# 6 0.0000 0.0000 0.0000 0.0000 0.0000 26.6972
#
#
#
# Elastic Compliance Matrix: (Units=1/GPa)
#
#
# Indices 1 2 3 4 5 6 
#
# 1 0.047690 -0.014013 -0.006425 0.000000 0.000000 0.000000
# 2 -0.014013 0.017042 -0.004166 0.000000 0.000000 0.000000
# 3 -0.006425 -0.004166 0.009060 0.000000 0.000000 0.000000
# 4 0.000000 0.000000 0.000000 0.031285 0.000000 0.000000
# 5 0.000000 0.000000 0.000000 0.000000 0.032458 0.000000
# 6 0.000000 0.000000 0.000000 0.000000 0.000000 0.037457
#
#
# Mechanical properties :
#
#
# Convention : Reuss Voigt Hill
#
# Bulk Modulus (GPa) = 40.67576 79.54520 60.11048
# Shear Modulus (GPa) = 21.51518 28.66983 25.09250
#
# Velocity S-wave (km/s) = 3.40202 3.92715 3.67398
# Velocity P-wave (km/s) = 6.10840 7.95948 7.09457
#
# Compressibility (1/GPa) = 0.02458467
#
# Stress axis : x y z
#
# Youngs Moduli (GPa) = 20.96895 58.67916 110.37083
#
# Poissons Ratio (x) = 0.82225 0.70914
# Poissons Ratio (y) = 0.29383 0.45979
# Poissons Ratio (z) = 0.13473 0.24445
#
# Static dielectric constant tensor:
#      x y z
#    x 1.646640 0.000000 0.000000 
#    y 0.000000 1.680840 0.000000 
#    z 0.000000 0.000000 1.622760 
# 
# From -- ./inp_files/32446.got.cif
#   From: 2010.05.17/outbox.cif.g08.bks.cpg/sg59_17_cif.got.tgz:32446.got - 2010.06.03 14:40:33.
