data_PCOD9451021
_publ_section_title
;
Structure prediction by ZEFSAII (Michael W. Deem and Ramdas Pophale) SiO2 
 PCOD9451021
Probable space group: P M M N
;
_chemical_formula_sum "Si O2"
_cell_formula_units_Z 40
_cell_length_a 11.066853
_cell_length_b 24.883632
_cell_length_c 7.845597
_cell_angle_alpha 90.000000
_cell_angle_beta 90.000000
_cell_angle_gamma 90.000000
_cell_volume 2160.547941
_symmetry_space_group_name_H-M "P M M N"
_symmetry_group_IT_number 59
_space_group.IT_coordinate_system_code '2'
_symmetry_cell_setting 'orthorhombic'
loop_
_space_group_symop_operation_xyz
x,y,z
1/2-x,1/2-y,z
1/2+x,-y,-z
-x,1/2+y,-z
-x,-y,-z
1/2+x,1/2+y,-z
1/2-x,y,z
x,1/2-y,z
loop_
_atom_site_type_symbol
_atom_site_label
_atom_site_fract_x
_atom_site_fract_y
_atom_site_fract_z
Si Si1 0.889662 0.586164 0.031619
Si Si2 0.886667 0.188691 0.456619
Si Si3 0.386569 0.189242 0.199516
Si Si4 0.962528 0.418325 0.621770
Si Si5 0.613536 0.535224 0.690595
O O1 0.750000 0.571692 0.064566
O O2 0.895362 0.645053 0.946945
O O3 0.936969 0.547792 0.878982
O O4 0.958570 0.585232 0.208128
O O5 0.750000 0.184703 0.380712
O O6 0.895720 0.250000 0.527295
O O7 0.900007 0.138656 0.585137
O O8 0.999888 0.183198 0.326999
O O9 0.250000 0.183762 0.277459
O O10 0.393264 0.250000 0.131893
O O11 0.884951 0.472129 0.650708
O O12 0.040406 0.433984 0.454869
O O13 0.750000 0.556173 0.690743
#
# Coordination Sequence:
#
# PCOD9451021 Si02
#       5
#     8   8   8   8   8
#     4  10  20  35  57  85 115 147 192 246 292 342
#     4  10  21  38  59  85 119 155 193 238 289 347
#     4   9  18  35  59  85 116 153 193 240 292 343
#     4  11  21  35  59  83 113 154 196 232 292 350
#     4  10  21  37  55  81 117 151 192 245 292 339
#
# _framework density 18.513822000000001
#
# number of rings (size 3 to 8) (size 9 to 14) (size 15 to 20)
#    0.000    2.000    2.000    1.800    0.000    1.600 
#    0.000    2.000    0.000    2.400    0.000    0.000 
#    0.000    0.000    0.000    0.000    0.000    0.000 
#
# Total GULP energy -222724.843624 kJ/mol
# GULP energy per Si atom -5568.121091 kJ/mol
# Density = 1.847168 g / cm^3
# Si number density = 18.513822 Si / 1000 Ang^3
#
#
#
# Elastic Constant Matrix: (Units=GPa)
#
#
# Indices 1 2 3 4 5 6 
#
# 1 102.4461 29.0262 54.7893 0.0000 0.0000 0.0000
# 2 29.0262 131.1857 36.0151 0.0000 0.0000 0.0000
# 3 54.7893 36.0151 93.8858 0.0000 0.0000 0.0000
# 4 0.0000 0.0000 0.0000 17.2832 0.0000 0.0000
# 5 0.0000 0.0000 0.0000 0.0000 23.6714 0.0000
# 6 0.0000 0.0000 0.0000 0.0000 0.0000 24.1621
#
#
#
# Elastic Compliance Matrix: (Units=1/GPa)
#
#
# Indices 1 2 3 4 5 6 
#
# 1 0.014301 -0.000976 -0.007971 0.000000 0.000000 0.000000
# 2 -0.000976 0.008587 -0.002724 0.000000 0.000000 0.000000
# 3 -0.007971 -0.002724 0.016348 0.000000 0.000000 0.000000
# 4 0.000000 0.000000 0.000000 0.057860 0.000000 0.000000
# 5 0.000000 0.000000 0.000000 0.000000 0.042245 0.000000
# 6 0.000000 0.000000 0.000000 0.000000 0.000000 0.041387
#
#
# Mechanical properties :
#
#
# Convention : Reuss Voigt Hill
#
# Bulk Modulus (GPa) = 62.92224 63.01988 62.97106
# Shear Modulus (GPa) = 23.88141 26.86915 25.37528
#
# Velocity S-wave (km/s) = 3.59545 3.81373 3.70620
# Velocity P-wave (km/s) = 7.16217 7.31478 7.23888
#
# Compressibility (1/GPa) = 0.01589263
#
# Stress axis : x y z
#
# Youngs Moduli (GPa) = 69.92606 116.45997 61.16897
#
# Poissons Ratio (x) = 0.11364 0.48759
# Poissons Ratio (y) = 0.06823 0.16665
# Poissons Ratio (z) = 0.55740 0.31729
#
# Static dielectric constant tensor:
#      x y z
#    x 1.661480 0.000000 0.000000 
#    y 0.000000 1.668300 0.000000 
#    z 0.000000 0.000000 1.605350 
# 
# From -- ./inp_files/1408.got.cif
#   From: 2010.05.17/outbox.cif.g08.bks.cpg/sg59_1_cif.got.tgz:1408.got - 2010.06.03 14:40:33.
