data_PCOD9451557
_publ_section_title
;
Structure prediction by ZEFSAII (Michael W. Deem and Ramdas Pophale) SiO2 
 PCOD9451557
Probable space group: P M M N
;
_chemical_formula_sum "Si O2"
_cell_formula_units_Z 38
_cell_length_a 15.429499
_cell_length_b 10.266528
_cell_length_c 10.777481
_cell_angle_alpha 90.000000
_cell_angle_beta 90.000000
_cell_angle_gamma 90.000000
_cell_volume 1707.232566
_symmetry_space_group_name_H-M "P M M N"
_symmetry_group_IT_number 59
_space_group.IT_coordinate_system_code '2'
_symmetry_cell_setting 'orthorhombic'
loop_
_space_group_symop_operation_xyz
x,y,z
1/2-x,1/2-y,z
1/2+x,-y,-z
-x,1/2+y,-z
-x,-y,-z
1/2+x,1/2+y,-z
1/2-x,y,z
x,1/2-y,z
loop_
_atom_site_type_symbol
_atom_site_label
_atom_site_fract_x
_atom_site_fract_y
_atom_site_fract_z
Si Si1 0.422624 0.452670 0.209763
Si Si2 0.524076 0.250000 0.827264
Si Si3 0.349909 0.250000 0.687185
Si Si4 0.750000 0.995232 0.883836
Si Si5 0.941619 0.250000 0.119279
Si Si6 0.250000 0.606696 0.391770
Si Si7 0.250000 0.750000 0.940063
Si Si8 0.401377 0.040182 0.484361
O O1 0.437682 0.610359 0.220129
O O2 0.344766 0.428679 0.110705
O O3 0.509183 0.377684 0.169890
O O4 0.398496 0.399637 0.346069
O O5 0.422772 0.250000 0.792660
O O6 0.544265 0.250000 0.971862
O O7 0.250000 0.250000 0.728193
O O8 0.369384 0.129493 0.595513
O O9 0.750000 0.028677 0.736851
O O10 0.750000 0.121623 0.971699
O O11 0.838584 0.250000 0.138266
O O12 0.250000 0.750000 0.345438
O O13 0.165973 0.576983 0.472600
O O14 0.500000 0.000000 0.500000
#
# Coordination Sequence:
#
# PCOD9451557 Si02
#       8
#     8   4   4   4   4   4   2   8
#     4  11  24  45  69 103 137 170 236 283 337 402
#     4  12  24  44  73  93 134 187 222 284 334 412
#     4  12  25  47  63  99 143 179 224 269 350 414
#     4  10  20  37  70 100 121 173 233 287 323 386
#     4  12  27  47  66 104 137 181 229 286 341 395
#     4  10  22  37  62 102 129 162 230 276 325 397
#     4  12  22  40  72  92 138 184 226 288 328 394
#     4  11  23  40  71  96 131 178 214 281 335 398
#
# _framework density 22.258244000000001
#
# number of rings (size 3 to 8) (size 9 to 14) (size 15 to 20)
#    0.000    0.842    5.789    1.263    5.895    0.421 
#    3.789    1.053    0.000    0.000    0.000    0.000 
#    0.000    0.000    0.000    0.000    0.000    0.000 
#
# Total GULP energy -212099.312451 kJ/mol
# GULP energy per Si atom -5581.560854 kJ/mol
# Density = 2.220758 g / cm^3
# Si number density = 22.258244 Si / 1000 Ang^3
#
#
#
# Elastic Constant Matrix: (Units=GPa)
#
#
# Indices 1 2 3 4 5 6 
#
# 1 203.1802 29.4843 4.7101 0.0000 0.0000 0.0000
# 2 29.4843 74.9934 3.8736 0.0000 0.0000 0.0000
# 3 4.7101 3.8736 12.6598 0.0000 0.0000 0.0000
# 4 0.0000 0.0000 0.0000 17.2980 0.0000 0.0000
# 5 0.0000 0.0000 0.0000 0.0000 37.4314 0.0000
# 6 0.0000 0.0000 0.0000 0.0000 0.0000 32.2552
#
#
#
# Elastic Compliance Matrix: (Units=1/GPa)
#
#
# Indices 1 2 3 4 5 6 
#
# 1 0.005242 -0.001992 -0.001341 0.000000 0.000000 0.000000
# 2 -0.001992 0.014305 -0.003636 0.000000 0.000000 0.000000
# 3 -0.001341 -0.003636 0.080602 0.000000 0.000000 0.000000
# 4 0.000000 0.000000 0.000000 0.057810 0.000000 0.000000
# 5 0.000000 0.000000 0.000000 0.000000 0.026716 0.000000
# 6 0.000000 0.000000 0.000000 0.000000 0.000000 0.031003
#
#
# Mechanical properties :
#
#
# Convention : Reuss Voigt Hill
#
# Bulk Modulus (GPa) = 11.59938 40.77439 26.18688
# Shear Modulus (GPa) = 19.35347 34.24794 26.80071
#
# Velocity S-wave (km/s) = 2.95192 3.92684 3.47375
# Velocity P-wave (km/s) = 4.10378 6.23848 5.28013
#
# Compressibility (1/GPa) = 0.08621154
#
# Stress axis : x y z
#
# Youngs Moduli (GPa) = 190.77296 69.90399 12.40671
#
# Poissons Ratio (x) = 0.13922 0.01664
# Poissons Ratio (y) = 0.37995 0.04511
# Poissons Ratio (z) = 0.25580 0.25418
#
# Static dielectric constant tensor:
#      x y z
#    x 1.921270 0.000000 0.000000 
#    y 0.000000 1.877040 0.000000 
#    z 0.000000 0.000000 1.784260 
# 
# From -- ./inp_files/16664.got.cif
#   From: 2010.05.17/outbox.cif.g08.bks.cpg/sg59_9_cif.got.tgz:16664.got - 2010.06.03 14:40:33.
