data_PCOD9451302
_publ_section_title
;
Structure prediction by ZEFSAII (Michael W. Deem and Ramdas Pophale) SiO2 
 PCOD9451302
Probable space group: P M M N
;
_chemical_formula_sum "Si O2"
_cell_formula_units_Z 64
_cell_length_a 7.645317
_cell_length_b 31.877490
_cell_length_c 12.382422
_cell_angle_alpha 90.000000
_cell_angle_beta 90.000000
_cell_angle_gamma 90.000000
_cell_volume 3017.763605
_symmetry_space_group_name_H-M "P M M N"
_symmetry_group_IT_number 59
_space_group.IT_coordinate_system_code '2'
_symmetry_cell_setting 'orthorhombic'
loop_
_space_group_symop_operation_xyz
x,y,z
1/2-x,1/2-y,z
1/2+x,-y,-z
-x,1/2+y,-z
-x,-y,-z
1/2+x,1/2+y,-z
1/2-x,y,z
x,1/2-y,z
loop_
_atom_site_type_symbol
_atom_site_label
_atom_site_fract_x
_atom_site_fract_y
_atom_site_fract_z
Si Si1 0.963070 0.084989 0.249135
Si Si2 0.954809 0.204498 0.006960
Si Si3 0.459501 0.548058 0.977272
Si Si4 0.046781 0.182573 0.247418
Si Si5 0.541744 0.377536 0.628117
Si Si6 0.534919 0.376032 0.874179
Si Si7 0.461378 0.296083 0.485955
Si Si8 0.039961 0.548122 0.524226
O O1 0.750000 0.086451 0.248728
O O2 0.023179 0.062237 0.140462
O O3 0.022112 0.061563 0.357092
O O4 0.028017 0.132483 0.249958
O O5 0.750000 0.205942 0.978672
O O6 0.032652 0.250000 0.979375
O O7 0.965419 0.198125 0.135863
O O8 0.025921 0.164046 0.944080
O O9 0.250000 0.552056 0.975171
O O10 0.500000 0.500000 0.000000
O O11 0.522267 0.581188 0.066880
O O12 0.250000 0.194665 0.242414
O O13 0.975276 0.198496 0.362205
O O14 0.750000 0.383441 0.637515
O O15 0.475067 0.373929 0.750368
O O16 0.514314 0.335324 0.559102
O O17 0.472221 0.417969 0.562773
O O18 0.750000 0.375792 0.875204
O O19 0.250000 0.296841 0.482159
O O20 0.516373 0.250000 0.526405
O O21 0.250000 0.552214 0.525310
O O22 0.000000 0.500000 0.500000
#
# Coordination Sequence:
#
# PCOD9451302 Si02
#       8
#     8   8   8   8   8   8   8   8
#     4  10  20  38  60  82 112 150 189 233 280 334
#     4  10  20  36  59  83 111 149 186 223 278 342
#     4  10  21  37  58  81 112 147 182 229 278 328
#     4  11  21  35  58  86 116 147 184 236 285 332
#     4  10  21  38  60  85 111 145 192 237 273 326
#     4   9  19  37  58  82 113 146 182 230 280 324
#     4  10  22  39  57  81 115 151 184 227 288 343
#     4  10  22  37  57  84 114 146 186 232 278 331
#
# _framework density 21.207757000000001
#
# number of rings (size 3 to 8) (size 9 to 14) (size 15 to 20)
#    0.000    2.000    2.500    0.750    1.750    3.500 
#    0.000    2.500    0.000    0.000    0.000    0.000 
#    0.000    0.000    0.000    0.000    0.000    0.000 
#
# Total GULP energy -357509.016193 kJ/mol
# GULP energy per Si atom -5586.078378 kJ/mol
# Density = 2.115949 g / cm^3
# Si number density = 21.207757 Si / 1000 Ang^3
#
#
#
# Elastic Constant Matrix: (Units=GPa)
#
#
# Indices 1 2 3 4 5 6 
#
# 1 37.0936 -5.1459 4.5200 0.0000 0.0000 0.0000
# 2 -5.1459 205.6700 99.4045 0.0000 0.0000 0.0000
# 3 4.5200 99.4045 171.4161 0.0000 0.0000 0.0000
# 4 0.0000 0.0000 0.0000 42.7302 0.0000 0.0000
# 5 0.0000 0.0000 0.0000 0.0000 0.9746 0.0000
# 6 0.0000 0.0000 0.0000 0.0000 0.0000 15.7442
#
#
#
# Elastic Compliance Matrix: (Units=1/GPa)
#
#
# Indices 1 2 3 4 5 6 
#
# 1 0.027347 0.001435 -0.001553 0.000000 0.000000 0.000000
# 2 0.001435 0.006831 -0.003999 0.000000 0.000000 0.000000
# 3 -0.001553 -0.003999 0.008194 0.000000 0.000000 0.000000
# 4 0.000000 0.000000 0.000000 0.023403 0.000000 0.000000
# 5 0.000000 0.000000 0.000000 0.000000 1.026013 0.000000
# 6 0.000000 0.000000 0.000000 0.000000 0.000000 0.063515
#
#
# Mechanical properties :
#
#
# Convention : Reuss Voigt Hill
#
# Bulk Modulus (GPa) = 29.29367 67.97079 48.63223
# Shear Modulus (GPa) = 4.25562 32.91656 18.58609
#
# Velocity S-wave (km/s) = 1.41809 3.94394 2.96359
# Velocity P-wave (km/s) = 4.06498 7.27043 5.88996
#
# Compressibility (1/GPa) = 0.03413706
#
# Stress axis : x y z
#
# Youngs Moduli (GPa) = 36.56690 146.39348 122.04356
#
# Poissons Ratio (x) = -0.21006 0.18956
# Poissons Ratio (y) = -0.05247 0.48806
# Poissons Ratio (z) = 0.05680 0.58544
#
# Static dielectric constant tensor:
#      x y z
#    x 1.812300 0.000000 0.000000 
#    y 0.000000 1.739130 0.000000 
#    z 0.000000 0.000000 1.745220 
# 
# From -- ./inp_files/14879.got.cif
#   From: 2010.05.17/outbox.cif.g08.bks.cpg/sg59_8_cif.got.tgz:14879.got - 2010.06.03 14:40:33.
