data_PCOD9451807
_publ_section_title
;
Structure prediction by ZEFSAII (Michael W. Deem and Ramdas Pophale) SiO2 
 PCOD9451807
Probable space group: P M M N
;
_chemical_formula_sum "Si O2"
_cell_formula_units_Z 48
_cell_length_a 10.158674
_cell_length_b 8.757674
_cell_length_c 29.959810
_cell_angle_alpha 90.000000
_cell_angle_beta 90.000000
_cell_angle_gamma 90.000000
_cell_volume 2665.415097
_symmetry_space_group_name_H-M "P M M N"
_symmetry_group_IT_number 59
_space_group.IT_coordinate_system_code '2'
_symmetry_cell_setting 'orthorhombic'
loop_
_space_group_symop_operation_xyz
x,y,z
1/2-x,1/2-y,z
1/2+x,-y,-z
-x,1/2+y,-z
-x,-y,-z
1/2+x,1/2+y,-z
1/2-x,y,z
x,1/2-y,z
loop_
_atom_site_type_symbol
_atom_site_label
_atom_site_fract_x
_atom_site_fract_y
_atom_site_fract_z
Si Si1 0.401947 0.068175 0.770455
Si Si2 0.409634 0.925398 0.863696
Si Si3 0.096579 0.935040 0.962793
Si Si4 0.023362 0.433848 0.402811
Si Si5 0.250000 0.933013 0.465182
Si Si6 0.601198 0.566437 0.698938
Si Si7 0.250000 0.066732 0.564765
O O1 0.250000 0.014446 0.764697
O O2 0.401983 0.250000 0.767814
O O3 0.447750 0.017900 0.819863
O O4 0.495727 0.001391 0.732734
O O5 0.250000 0.924086 0.864924
O O6 0.453795 0.750000 0.858669
O O7 0.447766 0.983593 0.912810
O O8 0.250000 0.980465 0.969655
O O9 0.093545 0.750000 0.963142
O O10 0.000000 0.000000 0.000000
O O11 0.026179 0.250000 0.408299
O O12 0.123609 0.509822 0.437592
O O13 0.067849 0.470477 0.352427
O O14 0.879199 0.498796 0.411962
O O15 0.250000 0.750000 0.469333
O O16 0.250000 0.009355 0.513711
O O17 0.750000 0.514517 0.708992
O O18 0.597737 0.750000 0.702667
O O19 0.250000 0.250000 0.566419
#
# Coordination Sequence:
#
# PCOD9451807 Si02
#       7
#     8   8   8   8   4   8   4
#     4  10  21  35  55  86 116 142 179 231 282 331
#     4   8  15  31  53  75 103 143 187 229 273 326
#     4   9  18  32  51  77 108 142 184 230 276 329
#     4  11  23  43  65  89 119 154 195 239 283 338
#     4  12  24  42  66  92 120 158 194 232 287 342
#     4  10  22  41  62  83 110 149 189 226 275 336
#     4  12  26  42  62  92 124 154 192 240 285 334
#
# _framework density 18.008452999999999
#
# number of rings (size 3 to 8) (size 9 to 14) (size 15 to 20)
#    0.000    2.000    0.833    4.000    1.167    3.667 
#    0.000    2.500    0.000    1.000    0.000    0.000 
#    0.000    0.000    0.000    0.000    0.000    0.000 
#
# Total GULP energy -267964.080717 kJ/mol
# GULP energy per Si atom -5582.585015 kJ/mol
# Density = 1.796747 g / cm^3
# Si number density = 18.008453 Si / 1000 Ang^3
#
#
#
# Elastic Constant Matrix: (Units=GPa)
#
#
# Indices 1 2 3 4 5 6 
#
# 1 104.7762 27.1675 51.2254 0.0000 0.0000 0.0000
# 2 27.1675 44.8046 35.0707 0.0000 0.0000 0.0000
# 3 51.2254 35.0707 115.5232 0.0000 0.0000 0.0000
# 4 0.0000 0.0000 0.0000 33.3932 0.0000 0.0000
# 5 0.0000 0.0000 0.0000 0.0000 35.5462 0.0000
# 6 0.0000 0.0000 0.0000 0.0000 0.0000 30.9063
#
#
#
# Elastic Compliance Matrix: (Units=1/GPa)
#
#
# Indices 1 2 3 4 5 6 
#
# 1 0.012802 -0.004354 -0.004355 0.000000 0.000000 0.000000
# 2 -0.004354 0.030757 -0.007407 0.000000 0.000000 0.000000
# 3 -0.004355 -0.007407 0.012836 0.000000 0.000000 0.000000
# 4 0.000000 0.000000 0.000000 0.029946 0.000000 0.000000
# 5 0.000000 0.000000 0.000000 0.000000 0.028132 0.000000
# 6 0.000000 0.000000 0.000000 0.000000 0.000000 0.032356
#
#
# Mechanical properties :
#
#
# Convention : Reuss Voigt Hill
#
# Bulk Modulus (GPa) = 41.38407 54.67012 48.02710
# Shear Modulus (GPa) = 26.72158 30.07849 28.40004
#
# Velocity S-wave (km/s) = 3.85624 4.09129 3.97550
# Velocity P-wave (km/s) = 6.54658 7.26238 6.91375
#
# Compressibility (1/GPa) = 0.02416389
#
# Stress axis : x y z
#
# Youngs Moduli (GPa) = 78.11129 32.51338 77.90663
#
# Poissons Ratio (x) = 0.14156 0.33929
# Poissons Ratio (y) = 0.34008 0.57702
# Poissons Ratio (z) = 0.34018 0.24081
#
# Static dielectric constant tensor:
#      x y z
#    x 1.586730 0.000000 0.000000 
#    y 0.000000 1.607920 0.000000 
#    z 0.000000 0.000000 1.605610 
# 
# From -- ./inp_files/32980.got.cif
#   From: 2010.05.17/outbox.cif.g08.bks.cpg/sg59_17_cif.got.tgz:32980.got - 2010.06.03 14:40:33.
