data_PCOD9451637
_publ_section_title
;
Structure prediction by ZEFSAII (Michael W. Deem and Ramdas Pophale) SiO2 
 PCOD9451637
Probable space group: P M M N
;
_chemical_formula_sum "Si O2"
_cell_formula_units_Z 64
_cell_length_a 26.305201
_cell_length_b 13.666512
_cell_length_c 8.949637
_cell_angle_alpha 90.000000
_cell_angle_beta 90.000000
_cell_angle_gamma 90.000000
_cell_volume 3217.397590
_symmetry_space_group_name_H-M "P M M N"
_symmetry_group_IT_number 59
_space_group.IT_coordinate_system_code '2'
_symmetry_cell_setting 'orthorhombic'
loop_
_space_group_symop_operation_xyz
x,y,z
1/2-x,1/2-y,z
1/2+x,-y,-z
-x,1/2+y,-z
-x,-y,-z
1/2+x,1/2+y,-z
1/2-x,y,z
x,1/2-y,z
loop_
_atom_site_type_symbol
_atom_site_label
_atom_site_fract_x
_atom_site_fract_y
_atom_site_fract_z
Si Si1 0.807831 0.941955 0.602726
Si Si2 0.165164 0.860153 0.237868
Si Si3 0.065603 0.636945 0.419339
Si Si4 0.522189 0.862462 0.908433
Si Si5 0.978855 0.554466 0.229204
Si Si6 0.689699 0.043510 0.068333
Si Si7 0.123713 0.504614 0.657573
Si Si8 0.856879 0.861926 0.897164
O O1 0.750000 0.910916 0.581642
O O2 0.835078 0.879671 0.731326
O O3 0.808688 0.053594 0.667544
O O4 0.839574 0.943873 0.450977
O O5 0.181391 0.750000 0.276927
O O6 0.105726 0.868928 0.281344
O O7 0.175394 0.882120 0.064718
O O8 0.058455 0.750000 0.457867
O O9 0.092596 0.578914 0.552309
O O10 0.013373 0.589784 0.365202
O O11 0.512032 0.750000 0.868162
O O12 0.582696 0.881935 0.893842
O O13 0.492651 0.942517 0.811679
O O14 0.508825 0.882752 0.081529
O O15 0.919390 0.560471 0.264292
O O16 0.750000 0.045896 0.093696
O O17 0.657652 0.058214 0.218351
O O18 0.672146 0.938277 0.002688
O O19 0.849349 0.750000 0.943504
#
# Coordination Sequence:
#
# PCOD9451637 Si02
#       8
#     8   8   8   8   8   8   8   8
#     4  10  21  38  60  83 114 157 202 242 291 352
#     4   9  19  36  60  87 114 148 195 246 290 349
#     4  10  22  39  61  88 120 159 201 239 294 363
#     4  10  21  36  61  94 121 153 196 248 308 363
#     4  11  21  38  62  85 123 160 195 248 298 364
#     4  11  22  37  59  87 119 155 197 247 304 355
#     4  11  23  39  57  84 123 159 194 243 301 350
#     4  10  20  39  63  89 117 151 201 251 295 352
#
# _framework density 19.891853999999999
#
# number of rings (size 3 to 8) (size 9 to 14) (size 15 to 20)
#    0.000    1.750    1.250    4.875    1.750    3.000 
#    0.000    3.125    0.000    4.500    0.000    0.000 
#    0.000    0.000    0.000    0.000    0.000    0.000 
#
# Total GULP energy -357568.587832 kJ/mol
# GULP energy per Si atom -5587.009185 kJ/mol
# Density = 1.984658 g / cm^3
# Si number density = 19.891854 Si / 1000 Ang^3
#
#
#
# Elastic Constant Matrix: (Units=GPa)
#
#
# Indices 1 2 3 4 5 6 
#
# 1 75.0928 -3.6417 22.3705 0.0000 0.0000 0.0000
# 2 -3.6417 38.7134 -11.9807 0.0000 0.0000 0.0000
# 3 22.3705 -11.9807 58.2328 0.0000 0.0000 0.0000
# 4 0.0000 0.0000 0.0000 6.9081 0.0000 0.0000
# 5 0.0000 0.0000 0.0000 0.0000 24.0382 0.0000
# 6 0.0000 0.0000 0.0000 0.0000 0.0000 13.8565
#
#
#
# Elastic Compliance Matrix: (Units=1/GPa)
#
#
# Indices 1 2 3 4 5 6 
#
# 1 0.015044 -0.000399 -0.005861 0.000000 0.000000 0.000000
# 2 -0.000399 0.027598 0.005831 0.000000 0.000000 0.000000
# 3 -0.005861 0.005831 0.020624 0.000000 0.000000 0.000000
# 4 0.000000 0.000000 0.000000 0.144758 0.000000 0.000000
# 5 0.000000 0.000000 0.000000 0.000000 0.041600 0.000000
# 6 0.000000 0.000000 0.000000 0.000000 0.000000 0.072168
#
#
# Mechanical properties :
#
#
# Convention : Reuss Voigt Hill
#
# Bulk Modulus (GPa) = 16.02366 20.61503 18.31934
# Shear Modulus (GPa) = 14.55807 19.97995 17.26901
#
# Velocity S-wave (km/s) = 2.70823 3.17271 2.94963
# Velocity P-wave (km/s) = 4.22519 4.87929 4.56397
#
# Compressibility (1/GPa) = 0.06240773
#
# Stress axis : x y z
#
# Youngs Moduli (GPa) = 66.47360 36.23462 48.48783
#
# Poissons Ratio (x) = 0.01445 0.28419
# Poissons Ratio (y) = 0.02651 -0.28274
# Poissons Ratio (z) = 0.38961 -0.21129
#
# Static dielectric constant tensor:
#      x y z
#    x 1.689020 0.000000 0.000000 
#    y 0.000000 1.688390 0.000000 
#    z 0.000000 0.000000 1.703790 
# 
# From -- ./inp_files/9770.got.cif
#   From: 2010.05.17/outbox.cif.g08.bks.cpg/sg59_5_cif.got.tgz:9770.got - 2010.06.03 14:40:33.
