data_PCOD9451950
_publ_section_title
;
Structure prediction by ZEFSAII (Michael W. Deem and Ramdas Pophale) SiO2 
 PCOD9451950
Probable space group: P M M N
;
_chemical_formula_sum "Si O2"
_cell_formula_units_Z 64
_cell_length_a 21.623895
_cell_length_b 8.895230
_cell_length_c 17.357001
_cell_angle_alpha 90.000000
_cell_angle_beta 90.000000
_cell_angle_gamma 90.000000
_cell_volume 3338.610803
_symmetry_space_group_name_H-M "P M M N"
_symmetry_group_IT_number 59
_space_group.IT_coordinate_system_code '2'
_symmetry_cell_setting 'orthorhombic'
loop_
_space_group_symop_operation_xyz
x,y,z
1/2-x,1/2-y,z
1/2+x,-y,-z
-x,1/2+y,-z
-x,-y,-z
1/2+x,1/2+y,-z
1/2-x,y,z
x,1/2-y,z
loop_
_atom_site_type_symbol
_atom_site_label
_atom_site_fract_x
_atom_site_fract_y
_atom_site_fract_z
Si Si1 0.105957 0.427347 0.348085
Si Si2 0.432391 0.430787 0.086641
Si Si3 0.991615 0.926064 0.415633
Si Si4 0.680198 0.420527 0.522215
Si Si5 0.150155 0.072651 0.631709
Si Si6 0.180921 0.067161 0.807058
Si Si7 0.562636 0.931129 0.094263
Si Si8 0.679135 0.933371 0.803782
O O1 0.096971 0.250000 0.340745
O O2 0.139565 0.467267 0.427821
O O3 0.149394 0.478806 0.278016
O O4 0.040241 0.506700 0.355342
O O5 0.436708 0.250000 0.093300
O O6 0.496401 0.500409 0.117778
O O7 0.370768 0.479644 0.131800
O O8 0.427959 0.468545 0.996047
O O9 0.002914 0.750000 0.425190
O O10 0.922936 0.945743 0.382793
O O11 0.000000 0.000000 0.500000
O O12 0.750000 0.424159 0.552136
O O13 0.656405 0.250000 0.528649
O O14 0.680353 0.473453 0.434432
O O15 0.165408 0.250000 0.621077
O O16 0.169563 0.029399 0.717624
O O17 0.250000 0.016733 0.830935
O O18 0.180933 0.250000 0.811750
O O19 0.122302 0.016236 0.857483
O O20 0.558702 0.750000 0.101011
O O21 0.750000 0.985366 0.813580
O O22 0.681203 0.750000 0.804685
#
# Coordination Sequence:
#
# PCOD9451950 Si02
#       8
#     8   8   8   8   8   8   8   8
#     4  11  22  36  55  78 105 142 183 225 276 328
#     4   9  18  34  56  83 112 144 180 219 268 322
#     4  11  22  36  55  80 106 138 181 228 278 328
#     4  11  23  37  54  76 104 139 179 226 277 326
#     4  10  21  36  55  77 104 141 181 222 271 326
#     4   9  18  33  54  82 111 140 180 226 268 315
#     4   9  18  33  56  84 113 144 178 219 268 322
#     4   9  19  35  55  81 111 143 185 232 273 320
#
# _framework density 19.169651000000002
#
# number of rings (size 3 to 8) (size 9 to 14) (size 15 to 20)
#    0.000    2.125    1.250    1.875    1.750    3.000 
#    0.000    3.750    0.000    3.000    0.000    3.500 
#    0.000    0.000    0.000    0.000    0.000    0.000 
#
# Total GULP energy -357137.174161 kJ/mol
# GULP energy per Si atom -5580.268346 kJ/mol
# Density = 1.912602 g / cm^3
# Si number density = 19.169651 Si / 1000 Ang^3
#
#
#
# Elastic Constant Matrix: (Units=GPa)
#
#
# Indices 1 2 3 4 5 6 
#
# 1 151.1095 30.3065 50.5846 0.0000 0.0000 0.0000
# 2 30.3065 23.2974 10.6846 0.0000 0.0000 0.0000
# 3 50.5846 10.6846 66.8873 0.0000 0.0000 0.0000
# 4 0.0000 0.0000 0.0000 11.6040 0.0000 0.0000
# 5 0.0000 0.0000 0.0000 0.0000 26.5557 0.0000
# 6 0.0000 0.0000 0.0000 0.0000 0.0000 21.6242
#
#
#
# Elastic Compliance Matrix: (Units=1/GPa)
#
#
# Indices 1 2 3 4 5 6 
#
# 1 0.011114 -0.011441 -0.006578 0.000000 0.000000 0.000000
# 2 -0.011441 0.058095 -0.000627 0.000000 0.000000 0.000000
# 3 -0.006578 -0.000627 0.020025 0.000000 0.000000 0.000000
# 4 0.000000 0.000000 0.000000 0.086177 0.000000 0.000000
# 5 0.000000 0.000000 0.000000 0.000000 0.037657 0.000000
# 6 0.000000 0.000000 0.000000 0.000000 0.000000 0.046244
#
#
# Mechanical properties :
#
#
# Convention : Reuss Voigt Hill
#
# Bulk Modulus (GPa) = 19.25253 47.16063 33.20658
# Shear Modulus (GPa) = 15.92765 21.93801 18.93283
#
# Velocity S-wave (km/s) = 2.88562 3.38659 3.14609
# Velocity P-wave (km/s) = 4.60081 6.32037 5.52786
#
# Compressibility (1/GPa) = 0.05194124
#
# Stress axis : x y z
#
# Youngs Moduli (GPa) = 89.97375 17.21330 49.93698
#
# Poissons Ratio (x) = 0.19695 0.32847
# Poissons Ratio (y) = 1.02943 0.03132
# Poissons Ratio (z) = 0.59182 0.01080
#
# Static dielectric constant tensor:
#      x y z
#    x 1.692480 0.000000 0.000000 
#    y 0.000000 1.651870 0.000000 
#    z 0.000000 0.000000 1.663260 
# 
# From -- ./inp_files/28296.got.cif
#   From: 2010.05.17/outbox.cif.g08.bks.cpg/sg59_15_cif.got.tgz:28296.got - 2010.06.03 14:40:33.
