data_PCOD9451351
_publ_section_title
;
Structure prediction by ZEFSAII (Michael W. Deem and Ramdas Pophale) SiO2 
 PCOD9451351
Probable space group: P M M N
;
_chemical_formula_sum "Si O2"
_cell_formula_units_Z 40
_cell_length_a 15.570717
_cell_length_b 17.496601
_cell_length_c 7.477744
_cell_angle_alpha 90.000000
_cell_angle_beta 90.000000
_cell_angle_gamma 90.000000
_cell_volume 2037.196365
_symmetry_space_group_name_H-M "P M M N"
_symmetry_group_IT_number 59
_space_group.IT_coordinate_system_code '2'
_symmetry_cell_setting 'orthorhombic'
loop_
_space_group_symop_operation_xyz
x,y,z
1/2-x,1/2-y,z
1/2+x,-y,-z
-x,1/2+y,-z
-x,-y,-z
1/2+x,1/2+y,-z
1/2-x,y,z
x,1/2-y,z
loop_
_atom_site_type_symbol
_atom_site_label
_atom_site_fract_x
_atom_site_fract_y
_atom_site_fract_z
Si Si1 0.064441 0.836502 0.411418
Si Si2 0.846792 0.491540 0.637581
Si Si3 0.585900 0.665989 0.119331
Si Si4 0.999092 0.903255 0.785674
Si Si5 0.156363 0.007446 0.791098
O O1 0.098535 0.750000 0.410715
O O2 0.129627 0.902142 0.348121
O O3 0.982390 0.839116 0.280899
O O4 0.079602 0.041595 0.270333
O O5 0.750000 0.507538 0.700876
O O6 0.850442 0.509448 0.424947
O O7 0.967132 0.360196 0.390734
O O8 0.626426 0.750000 0.123118
O O9 0.646945 0.593373 0.139619
O O10 0.533653 0.653609 0.936642
O O11 0.077291 0.955960 0.855438
O O12 0.250000 0.975528 0.837428
#
# Coordination Sequence:
#
# PCOD9451351 Si02
#       5
#     8   8   8   8   8
#     4  10  20  37  58  82 116 147 180 235 287 331
#     4  10  20  36  60  86 113 151 194 231 278 337
#     4  11  22  36  58  84 111 148 190 231 285 338
#     4  11  20  39  59  86 111 151 191 235 276 337
#     4  10  20  37  60  85 114 149 190 234 282 334
#
# _framework density 19.634829
#
# number of rings (size 3 to 8) (size 9 to 14) (size 15 to 20)
#    0.000    1.600    4.000    2.400    0.000    1.600 
#    0.000    0.000    0.000    4.800    0.000    0.000 
#    0.000    0.000    0.000    0.000    0.000    0.000 
#
# Total GULP energy -223443.064952 kJ/mol
# GULP energy per Si atom -5586.076624 kJ/mol
# Density = 1.959014 g / cm^3
# Si number density = 19.634829 Si / 1000 Ang^3
#
#
#
# Elastic Constant Matrix: (Units=GPa)
#
#
# Indices 1 2 3 4 5 6 
#
# 1 80.6907 11.2590 -8.2734 0.0000 0.0000 0.0000
# 2 11.2590 87.2167 2.2027 0.0000 0.0000 0.0000
# 3 -8.2734 2.2027 48.1518 0.0000 0.0000 0.0000
# 4 0.0000 0.0000 0.0000 12.4347 0.0000 0.0000
# 5 0.0000 0.0000 0.0000 0.0000 1.1434 0.0000
# 6 0.0000 0.0000 0.0000 0.0000 0.0000 4.4013
#
#
#
# Elastic Compliance Matrix: (Units=1/GPa)
#
#
# Indices 1 2 3 4 5 6 
#
# 1 0.012868 -0.001719 0.002290 0.000000 0.000000 0.000000
# 2 -0.001719 0.011709 -0.000831 0.000000 0.000000 0.000000
# 3 0.002290 -0.000831 0.021199 0.000000 0.000000 0.000000
# 4 0.000000 0.000000 0.000000 0.080420 0.000000 0.000000
# 5 0.000000 0.000000 0.000000 0.000000 0.874603 0.000000
# 6 0.000000 0.000000 0.000000 0.000000 0.000000 0.227204
#
#
# Mechanical properties :
#
#
# Convention : Reuss Voigt Hill
#
# Bulk Modulus (GPa) = 22.09722 25.15952 23.62837
# Shear Modulus (GPa) = 4.02056 17.65394 10.83725
#
# Velocity S-wave (km/s) = 1.43252 3.00178 2.35189
# Velocity P-wave (km/s) = 3.74362 4.98555 4.40854
#
# Compressibility (1/GPa) = 0.04525456
#
# Stress axis : x y z
#
# Youngs Moduli (GPa) = 77.71462 85.40743 47.17190
#
# Poissons Ratio (x) = 0.14681 -0.10800
# Poissons Ratio (y) = 0.13359 0.03920
# Poissons Ratio (z) = -0.17793 0.07097
#
# Static dielectric constant tensor:
#      x y z
#    x 1.690900 0.000000 0.000000 
#    y 0.000000 1.672360 0.000000 
#    z 0.000000 0.000000 1.697200 
# 
# From -- ./inp_files/10345.got.cif
#   From: 2010.05.17/outbox.cif.g08.bks.cpg/sg59_6_cif.got.tgz:10345.got - 2010.06.03 14:40:33.
