data_PCOD9451349
_publ_section_title
;
Structure prediction by ZEFSAII (Michael W. Deem and Ramdas Pophale) SiO2 
 PCOD9451349
Probable space group: P M M N
;
_chemical_formula_sum "Si O2"
_cell_formula_units_Z 56
_cell_length_a 14.673281
_cell_length_b 8.099970
_cell_length_c 23.053565
_cell_angle_alpha 90.000000
_cell_angle_beta 90.000000
_cell_angle_gamma 90.000000
_cell_volume 2739.988494
_symmetry_space_group_name_H-M "P M M N"
_symmetry_group_IT_number 59
_space_group.IT_coordinate_system_code '2'
_symmetry_cell_setting 'orthorhombic'
loop_
_space_group_symop_operation_xyz
x,y,z
1/2-x,1/2-y,z
1/2+x,-y,-z
-x,1/2+y,-z
-x,-y,-z
1/2+x,1/2+y,-z
1/2-x,y,z
x,1/2-y,z
loop_
_atom_site_type_symbol
_atom_site_label
_atom_site_fract_x
_atom_site_fract_y
_atom_site_fract_z
Si Si1 0.401940 0.558178 0.163241
Si Si2 0.547879 0.055567 0.711632
Si Si3 0.645438 0.449598 0.470177
Si Si4 0.750000 0.057351 0.046726
Si Si5 0.750000 0.565603 0.920865
Si Si6 0.459565 0.949588 0.414233
Si Si7 0.404647 0.944676 0.871185
Si Si8 0.349040 0.555494 0.739491
O O1 0.374150 0.750000 0.165673
O O2 0.408267 0.488032 0.229015
O O3 0.335312 0.465257 0.120515
O O4 0.502836 0.543255 0.137365
O O5 0.568949 0.250000 0.711974
O O6 0.572664 0.987478 0.648562
O O7 0.438768 0.034391 0.717271
O O8 0.750000 0.506267 0.460131
O O9 0.647732 0.250000 0.469872
O O10 0.604992 0.504840 0.532824
O O11 0.564724 0.501959 0.426526
O O12 0.750000 0.250000 0.064071
O O13 0.840557 0.990477 0.077603
O O14 0.750000 0.044901 0.978071
O O15 0.750000 0.750000 0.943896
O O16 0.456444 0.750000 0.413446
O O17 0.427316 0.750000 0.880226
O O18 0.353255 0.955073 0.809467
O O19 0.250000 0.495315 0.719160
O O20 0.356782 0.750000 0.724470
#
# Coordination Sequence:
#
# PCOD9451349 Si02
#       8
#     8   8   8   4   4   8   8   8
#     4  10  21  39  59  80 108 142 180 226 274 320
#     4   9  19  34  52  77 105 137 178 219 264 315
#     4   9  18  33  53  77 105 139 178 218 261 309
#     4  10  20  36  60  86 112 142 181 224 267 322
#     4  12  26  42  58  78 106 142 183 226 275 324
#     4   9  18  34  53  76 106 139 176 218 264 310
#     4   9  17  33  57  83 109 140 176 217 267 324
#     4   9  16  28  48  75 106 140 174 210 261 318
#
# _framework density 20.438040999999998
#
# number of rings (size 3 to 8) (size 9 to 14) (size 15 to 20)
#    0.000    2.571    0.714    1.071    0.000    3.429 
#    1.286    2.857    0.000    0.000    0.000    0.000 
#    0.000    0.000    0.000    0.000    0.000    0.000 
#
# Total GULP energy -312244.150606 kJ/mol
# GULP energy per Si atom -5575.788404 kJ/mol
# Density = 2.039152 g / cm^3
# Si number density = 20.438041 Si / 1000 Ang^3
#
#
#
# Elastic Constant Matrix: (Units=GPa)
#
#
# Indices 1 2 3 4 5 6 
#
# 1 40.5143 -0.2082 6.7056 0.0000 0.0000 0.0000
# 2 -0.2082 14.3264 -3.0960 0.0000 0.0000 0.0000
# 3 6.7056 -3.0960 107.2579 0.0000 0.0000 0.0000
# 4 0.0000 0.0000 0.0000 16.1756 0.0000 0.0000
# 5 0.0000 0.0000 0.0000 0.0000 6.6565 0.0000
# 6 0.0000 0.0000 0.0000 0.0000 0.0000 28.8851
#
#
#
# Elastic Compliance Matrix: (Units=1/GPa)
#
#
# Indices 1 2 3 4 5 6 
#
# 1 0.024941 0.000026 -0.001559 0.000000 0.000000 0.000000
# 2 0.000026 0.070240 0.002026 0.000000 0.000000 0.000000
# 3 -0.001559 0.002026 0.009479 0.000000 0.000000 0.000000
# 4 0.000000 0.000000 0.000000 0.061821 0.000000 0.000000
# 5 0.000000 0.000000 0.000000 0.000000 0.150228 0.000000
# 6 0.000000 0.000000 0.000000 0.000000 0.000000 0.034620
#
#
# Mechanical properties :
#
#
# Convention : Reuss Voigt Hill
#
# Bulk Modulus (GPa) = 9.46559 18.76680 14.11620
# Shear Modulus (GPa) = 12.96821 20.92326 16.94574
#
# Velocity S-wave (km/s) = 2.52169 3.20307 2.88258
# Velocity P-wave (km/s) = 3.62215 4.78349 4.24274
#
# Compressibility (1/GPa) = 0.10564581
#
# Stress axis : x y z
#
# Youngs Moduli (GPa) = 40.09503 14.23698 105.49374
#
# Poissons Ratio (x) = -0.00037 0.16441
# Poissons Ratio (y) = -0.00103 -0.21372
# Poissons Ratio (z) = 0.06249 -0.02884
#
# Static dielectric constant tensor:
#      x y z
#    x 1.725890 0.000000 0.000000 
#    y 0.000000 1.731620 0.000000 
#    z 0.000000 0.000000 1.740400 
# 
# From -- ./inp_files/30448.got.cif
#   From: 2010.05.17/outbox.cif.g08.bks.cpg/sg59_16_cif.got.tgz:30448.got - 2010.06.03 14:40:33.
