data_PCOD9451682
_publ_section_title
;
Structure prediction by ZEFSAII (Michael W. Deem and Ramdas Pophale) SiO2 
 PCOD9451682
Probable space group: P M M N
;
_chemical_formula_sum "Si O2"
_cell_formula_units_Z 64
_cell_length_a 15.378768
_cell_length_b 9.731544
_cell_length_c 20.735950
_cell_angle_alpha 90.000000
_cell_angle_beta 90.000000
_cell_angle_gamma 90.000000
_cell_volume 3103.324806
_symmetry_space_group_name_H-M "P M M N"
_symmetry_group_IT_number 59
_space_group.IT_coordinate_system_code '2'
_symmetry_cell_setting 'orthorhombic'
loop_
_space_group_symop_operation_xyz
x,y,z
1/2-x,1/2-y,z
1/2+x,-y,-z
-x,1/2+y,-z
-x,-y,-z
1/2+x,1/2+y,-z
1/2-x,y,z
x,1/2-y,z
loop_
_atom_site_type_symbol
_atom_site_label
_atom_site_fract_x
_atom_site_fract_y
_atom_site_fract_z
Si Si1 0.850626 0.104103 0.578894
Si Si2 0.105122 0.903109 0.202430
Si Si3 0.909356 0.412820 0.078072
Si Si4 0.585105 0.088274 0.937265
Si Si5 0.851946 0.587967 0.343833
Si Si6 0.853344 0.899862 0.682032
Si Si7 0.394382 0.407204 0.803290
Si Si8 0.937195 0.089332 0.453222
O O1 0.750000 0.111002 0.597650
O O2 0.893519 0.250000 0.596471
O O3 0.855405 0.091419 0.502503
O O4 0.889428 0.980768 0.620235
O O5 0.131888 0.750000 0.222825
O O6 0.136778 0.927984 0.129380
O O7 0.999883 0.906691 0.199333
O O8 0.133662 0.012326 0.254239
O O9 0.915113 0.250000 0.091218
O O10 0.868219 0.493011 0.138267
O O11 0.004814 0.482283 0.068802
O O12 0.869350 0.431183 0.006333
O O13 0.554313 0.250000 0.936932
O O14 0.750000 0.574295 0.360414
O O15 0.875834 0.750000 0.351401
O O16 0.863199 0.553581 0.268082
O O17 0.909309 0.491087 0.389354
O O18 0.750000 0.884851 0.672962
O O19 0.893295 0.750000 0.688142
O O20 0.366330 0.250000 0.816007
O O21 0.963146 0.250000 0.443794
O O22 0.000000 0.000000 0.500000
#
# Coordination Sequence:
#
# PCOD9451682 Si02
#       8
#     8   8   8   8   8   8   8   8
#     4   9  19  37  58  76  99 137 178 212 255 316
#     4   9  17  30  49  72 102 140 180 220 264 320
#     4   9  15  25  45  73 103 134 175 221 267 319
#     4   8  15  27  43  68 102 138 173 217 272 322
#     4  10  22  41  63  85 113 151 190 228 277 336
#     4  10  21  34  49  73 104 134 169 217 265 310
#     4   9  19  34  52  77 108 141 177 220 269 320
#     4  11  24  40  60  87 116 144 180 226 275 326
#
# _framework density 20.623042999999999
#
# number of rings (size 3 to 8) (size 9 to 14) (size 15 to 20)
#    0.000    2.625    0.000    2.250    1.750    5.500 
#    0.000    1.250    0.000    0.750    0.000    3.500 
#    0.000    0.000    0.000    0.000    0.000    0.000 
#
# Total GULP energy -356619.003259 kJ/mol
# GULP energy per Si atom -5572.171926 kJ/mol
# Density = 2.057610 g / cm^3
# Si number density = 20.623043 Si / 1000 Ang^3
#
#
#
# Elastic Constant Matrix: (Units=GPa)
#
#
# Indices 1 2 3 4 5 6 
#
# 1 39.4881 13.6619 10.4077 0.0000 0.0000 0.0000
# 2 13.6619 129.2406 90.0892 0.0000 0.0000 0.0000
# 3 10.4077 90.0892 151.5674 0.0000 0.0000 0.0000
# 4 0.0000 0.0000 0.0000 38.1082 0.0000 0.0000
# 5 0.0000 0.0000 0.0000 0.0000 4.6307 0.0000
# 6 0.0000 0.0000 0.0000 0.0000 0.0000 12.6817
#
#
#
# Elastic Compliance Matrix: (Units=1/GPa)
#
#
# Indices 1 2 3 4 5 6 
#
# 1 0.026291 -0.002597 -0.000262 0.000000 0.000000 0.000000
# 2 -0.002597 0.013468 -0.007827 0.000000 0.000000 0.000000
# 3 -0.000262 -0.007827 0.011268 0.000000 0.000000 0.000000
# 4 0.000000 0.000000 0.000000 0.026241 0.000000 0.000000
# 5 0.000000 0.000000 0.000000 0.000000 0.215951 0.000000
# 6 0.000000 0.000000 0.000000 0.000000 0.000000 0.078854
#
#
# Mechanical properties :
#
#
# Convention : Reuss Voigt Hill
#
# Bulk Modulus (GPa) = 33.71953 60.95707 47.33830
# Shear Modulus (GPa) = 12.39685 24.82661 18.61173
#
# Velocity S-wave (km/s) = 2.45443 3.47339 3.00738
# Velocity P-wave (km/s) = 4.94148 6.76076 5.92140
#
# Compressibility (1/GPa) = 0.02965640
#
# Stress axis : x y z
#
# Youngs Moduli (GPa) = 38.03513 74.25165 88.74865
#
# Poissons Ratio (x) = 0.19281 0.02325
# Poissons Ratio (y) = 0.09876 0.69461
# Poissons Ratio (z) = 0.00996 0.58114
#
# Static dielectric constant tensor:
#      x y z
#    x 1.800970 0.000000 0.000000 
#    y 0.000000 1.758970 0.000000 
#    z 0.000000 0.000000 1.754980 
# 
# From -- ./inp_files/30837.got.cif
#   From: 2010.05.17/outbox.cif.g08.bks.cpg/sg59_16_cif.got.tgz:30837.got - 2010.06.03 14:40:33.
