data_PCOD9451406
_publ_section_title
;
Structure prediction by ZEFSAII (Michael W. Deem and Ramdas Pophale) SiO2 
 PCOD9451406
Probable space group: P M M N
;
_chemical_formula_sum "Si O2"
_cell_formula_units_Z 34
_cell_length_a 9.535962
_cell_length_b 9.874433
_cell_length_c 17.986058
_cell_angle_alpha 90.000000
_cell_angle_beta 90.000000
_cell_angle_gamma 90.000000
_cell_volume 1693.607112
_symmetry_space_group_name_H-M "P M M N"
_symmetry_group_IT_number 59
_space_group.IT_coordinate_system_code '2'
_symmetry_cell_setting 'orthorhombic'
loop_
_space_group_symop_operation_xyz
x,y,z
1/2-x,1/2-y,z
1/2+x,-y,-z
-x,1/2+y,-z
-x,-y,-z
1/2+x,1/2+y,-z
1/2-x,y,z
x,1/2-y,z
loop_
_atom_site_type_symbol
_atom_site_label
_atom_site_fract_x
_atom_site_fract_y
_atom_site_fract_z
Si Si1 0.750000 0.410861 0.449573
Si Si2 0.953504 0.998489 0.323823
Si Si3 0.086202 0.901129 0.832160
Si Si4 0.580901 0.412517 0.936958
Si Si5 0.250000 0.250000 0.707626
Si Si6 0.250000 0.913505 0.379516
O O1 0.750000 0.250000 0.451990
O O2 0.617528 0.458318 0.401314
O O3 0.750000 0.460271 0.534179
O O4 0.929545 0.101324 0.256624
O O5 0.870863 0.866929 0.296798
O O6 0.113545 0.967545 0.338879
O O7 0.250000 0.930401 0.850578
O O8 0.054075 0.750000 0.862260
O O9 0.984420 0.016907 0.863705
O O10 0.750000 0.429527 0.941694
O O11 0.552511 0.250000 0.940241
O O12 0.500000 0.500000 0.000000
O O13 0.250000 0.750000 0.379044
#
# Coordination Sequence:
#
# PCOD9451406 Si02
#       6
#     4   8   8   8   2   4
#     4  10  21  41  63  83 123 170 219 267 336 395
#     4  11  22  39  62  90 129 166 223 270 333 394
#     4  11  24  42  68  95 131 175 220 268 322 382
#     4  11  26  46  70 103 139 172 214 260 314 377
#     4  10  20  36  62  88 124 170 216 264 334 390
#     4  11  23  37  60  92 126 162 214 282 337 389
#
# _framework density 20.075493999999999
#
# number of rings (size 3 to 8) (size 9 to 14) (size 15 to 20)
#    0.000    1.176    3.529    2.824    3.294    5.176 
#    0.000    1.765    2.588    0.000    0.000    0.000 
#    0.000    0.000    0.000    0.000    0.000    0.000 
#
# Total GULP energy -189300.922935 kJ/mol
# GULP energy per Si atom -5567.674204 kJ/mol
# Density = 2.002980 g / cm^3
# Si number density = 20.075494 Si / 1000 Ang^3
#
#
#
# Elastic Constant Matrix: (Units=GPa)
#
#
# Indices 1 2 3 4 5 6 
#
# 1 183.3919 69.3264 35.6371 0.0000 0.0000 0.0000
# 2 69.3264 146.3643 32.6444 0.0000 0.0000 0.0000
# 3 35.6371 32.6444 66.2093 0.0000 0.0000 0.0000
# 4 0.0000 0.0000 0.0000 -115.5181 0.0000 0.0000
# 5 0.0000 0.0000 0.0000 0.0000 48.7701 0.0000
# 6 0.0000 0.0000 0.0000 0.0000 0.0000 50.2997
#
#
#
# Elastic Compliance Matrix: (Units=1/GPa)
#
#
# Indices 1 2 3 4 5 6 
#
# 1 0.006961 -0.002766 -0.002383 0.000000 0.000000 0.000000
# 2 -0.002766 0.008775 -0.002838 0.000000 0.000000 0.000000
# 3 -0.002383 -0.002838 0.017786 0.000000 0.000000 0.000000
# 4 0.000000 0.000000 0.000000 -0.008657 0.000000 0.000000
# 5 0.000000 0.000000 0.000000 0.000000 0.020504 0.000000
# 6 0.000000 0.000000 0.000000 0.000000 0.000000 0.019881
#
#
# Mechanical properties :
#
#
# Convention : Reuss Voigt Hill
#
# Bulk Modulus (GPa) = 56.98562 74.57569 65.78065
# Shear Modulus (GPa) = 57.42206 13.93417 35.67812
#
# Velocity S-wave (km/s) = 5.35399 2.63741 4.22026
# Velocity P-wave (km/s) = 8.16502 6.81930 7.52231
#
# Compressibility (1/GPa) = 0.01754829
#
# Stress axis : x y z
#
# Youngs Moduli (GPa) = 143.64789 113.95673 56.22498
#
# Poissons Ratio (x) = 0.31518 0.13400
# Poissons Ratio (y) = 0.39730 0.15956
# Poissons Ratio (z) = 0.34236 0.32340
#
# Static dielectric constant tensor:
#      x y z
#    x 1.653500 0.000000 0.000000 
#    y 0.000000 1.692240 0.000000 
#    z 0.000000 0.000000 1.780610 
# 
# From -- ./inp_files/28645.got.cif
#   From: 2010.05.17/outbox.cif.g08.bks.cpg/sg59_15_cif.got.tgz:28645.got - 2010.06.03 14:40:33.
