data_PCOD9451516
_publ_section_title
;
Structure prediction by ZEFSAII (Michael W. Deem and Ramdas Pophale) SiO2 
 PCOD9451516
Probable space group: P M M N
;
_chemical_formula_sum "Si O2"
_cell_formula_units_Z 64
_cell_length_a 24.177375
_cell_length_b 8.298106
_cell_length_c 15.516640
_cell_angle_alpha 90.000000
_cell_angle_beta 90.000000
_cell_angle_gamma 90.000000
_cell_volume 3113.047942
_symmetry_space_group_name_H-M "P M M N"
_symmetry_group_IT_number 59
_space_group.IT_coordinate_system_code '2'
_symmetry_cell_setting 'orthorhombic'
loop_
_space_group_symop_operation_xyz
x,y,z
1/2-x,1/2-y,z
1/2+x,-y,-z
-x,1/2+y,-z
-x,-y,-z
1/2+x,1/2+y,-z
1/2-x,y,z
x,1/2-y,z
loop_
_atom_site_type_symbol
_atom_site_label
_atom_site_fract_x
_atom_site_fract_y
_atom_site_fract_z
Si Si1 0.311064 0.556501 0.454319
Si Si2 0.625315 0.943760 0.702533
Si Si3 0.518218 0.939028 0.130019
Si Si4 0.603503 0.942808 0.897342
Si Si5 0.001953 0.054147 0.322974
Si Si6 0.687049 0.558794 0.247613
Si Si7 0.608662 0.057191 0.399433
Si Si8 0.135518 0.562807 0.926053
O O1 0.250000 0.494951 0.476076
O O2 0.310243 0.750000 0.462987
O O3 0.327676 0.514851 0.357332
O O4 0.356776 0.490307 0.520381
O O5 0.629285 0.750000 0.701501
O O6 0.624297 0.995358 0.802605
O O7 0.565627 0.989959 0.661668
O O8 0.527791 0.750000 0.114754
O O9 0.458895 0.990240 0.092448
O O10 0.513613 0.977463 0.231326
O O11 0.570854 0.035586 0.096290
O O12 0.599497 0.750000 0.896754
O O13 0.640876 0.997275 0.977008
O O14 0.000069 0.250000 0.314054
O O15 0.954510 0.000605 0.388881
O O16 0.750000 0.501656 0.263329
O O17 0.685095 0.750000 0.261864
O O18 0.643453 0.479393 0.312906
O O19 0.669562 0.524008 0.149258
O O20 0.605786 0.250000 0.408564
O O21 0.149160 0.750000 0.923255
#
# Coordination Sequence:
#
# PCOD9451516 Si02
#       8
#     8   8   8   8   8   8   8   8
#     4  10  22  39  59  85 115 150 197 246 289 341
#     4   9  20  38  59  84 116 151 191 240 295 349
#     4  11  20  32  53  84 120 155 192 233 282 341
#     4  10  21  38  58  82 115 151 192 241 291 343
#     4   9  18  34  56  85 119 154 190 235 291 353
#     4  11  24  40  58  84 118 154 196 246 293 344
#     4  10  20  37  62  87 116 153 192 234 290 354
#     4  12  23  36  56  83 115 153 196 237 285 346
#
# _framework density 20.558630999999998
#
# number of rings (size 3 to 8) (size 9 to 14) (size 15 to 20)
#    0.000    1.750    1.250    4.500    0.000    5.250 
#    0.000    0.625    0.000    0.750    0.000    0.000 
#    0.000    0.000    0.000    0.000    0.000    0.000 
#
# Total GULP energy -357509.815148 kJ/mol
# GULP energy per Si atom -5586.090862 kJ/mol
# Density = 2.051184 g / cm^3
# Si number density = 20.558631 Si / 1000 Ang^3
#
#
#
# Elastic Constant Matrix: (Units=GPa)
#
#
# Indices 1 2 3 4 5 6 
#
# 1 14.5871 -8.2616 12.0606 0.0000 0.0000 0.0000
# 2 -8.2616 13.3418 -14.1577 0.0000 0.0000 0.0000
# 3 12.0606 -14.1577 52.3670 0.0000 0.0000 0.0000
# 4 0.0000 0.0000 0.0000 25.0633 0.0000 0.0000
# 5 0.0000 0.0000 0.0000 0.0000 20.1342 0.0000
# 6 0.0000 0.0000 0.0000 0.0000 0.0000 16.6314
#
#
#
# Elastic Compliance Matrix: (Units=1/GPa)
#
#
# Indices 1 2 3 4 5 6 
#
# 1 0.108923 0.057253 -0.009607 0.000000 0.000000 0.000000
# 2 0.057253 0.135200 0.023366 0.000000 0.000000 0.000000
# 3 -0.009607 0.023366 0.027626 0.000000 0.000000 0.000000
# 4 0.000000 0.000000 0.000000 0.039899 0.000000 0.000000
# 5 0.000000 0.000000 0.000000 0.000000 0.049667 0.000000
# 6 0.000000 0.000000 0.000000 0.000000 0.000000 0.060127
#
#
# Mechanical properties :
#
#
# Convention : Reuss Voigt Hill
#
# Bulk Modulus (GPa) = 2.41678 6.61985 4.51832
# Shear Modulus (GPa) = 11.98056 18.40941 15.19499
#
# Velocity S-wave (km/s) = 2.41664 2.99567 2.72160
# Velocity P-wave (km/s) = 2.99416 3.89774 3.47544
#
# Compressibility (1/GPa) = 0.41377299
#
# Stress axis : x y z
#
# Youngs Moduli (GPa) = 9.18077 7.39644 36.19804
#
# Poissons Ratio (x) = -0.42347 0.34777
# Poissons Ratio (y) = -0.52563 -0.84580
# Poissons Ratio (z) = 0.08820 -0.17283
#
# Static dielectric constant tensor:
#      x y z
#    x 1.735740 0.000000 0.000000 
#    y 0.000000 1.692730 0.000000 
#    z 0.000000 0.000000 1.750690 
# 
# From -- ./inp_files/24799.got.cif
#   From: 2010.05.17/outbox.cif.g08.bks.cpg/sg59_13_cif.got.tgz:24799.got - 2010.06.03 14:40:33.
