data_PCOD9451864
_publ_section_title
;
Structure prediction by ZEFSAII (Michael W. Deem and Ramdas Pophale) SiO2 
 PCOD9451864
Probable space group: P M M N
;
_chemical_formula_sum "Si O2"
_cell_formula_units_Z 48
_cell_length_a 10.033635
_cell_length_b 8.762164
_cell_length_c 31.460123
_cell_angle_alpha 90.000000
_cell_angle_beta 90.000000
_cell_angle_gamma 90.000000
_cell_volume 2765.859354
_symmetry_space_group_name_H-M "P M M N"
_symmetry_group_IT_number 59
_space_group.IT_coordinate_system_code '2'
_symmetry_cell_setting 'orthorhombic'
loop_
_space_group_symop_operation_xyz
x,y,z
1/2-x,1/2-y,z
1/2+x,-y,-z
-x,1/2+y,-z
-x,-y,-z
1/2+x,1/2+y,-z
1/2-x,y,z
x,1/2-y,z
loop_
_atom_site_type_symbol
_atom_site_label
_atom_site_fract_x
_atom_site_fract_y
_atom_site_fract_z
Si Si1 0.905429 0.932672 0.536083
Si Si2 0.903231 0.064097 0.868231
Si Si3 0.905569 0.432643 0.299377
Si Si4 0.405100 0.065909 0.792493
Si Si5 0.594705 0.432664 0.628469
Si Si6 0.904663 0.433933 0.964275
O O1 0.750000 0.972345 0.527825
O O2 0.916651 0.750000 0.536969
O O3 0.940201 0.998962 0.582402
O O4 0.000000 0.000000 0.500000
O O5 0.750000 0.017844 0.860452
O O6 0.904966 0.250000 0.868173
O O7 0.941332 0.016908 0.916140
O O8 0.001855 0.013383 0.831150
O O9 0.750000 0.475199 0.306519
O O10 0.915014 0.250000 0.300117
O O11 0.942920 0.493951 0.252677
O O12 0.999467 0.502639 0.335246
O O13 0.250000 0.028731 0.800810
O O14 0.415493 0.250000 0.789063
O O15 0.750000 0.472535 0.636989
O O16 0.584270 0.250000 0.626853
O O17 0.750000 0.477312 0.971331
O O18 0.911305 0.250000 0.965425
O O19 0.000000 0.500000 0.000000
#
# Coordination Sequence:
#
# PCOD9451864 Si02
#       6
#     8   8   8   8   8   8
#     4  10  21  37  57  81 109 141 176 214 257 305
#     4   8  15  29  48  69  94 124 160 203 248 295
#     4  10  21  36  53  75 105 139 171 205 250 303
#     4   9  17  30  49  72  96 124 162 206 248 293
#     4  10  21  37  57  80 105 135 173 216 259 302
#     4   9  18  32  49  71  99 130 165 205 249 298
#
# _framework density 17.354462000000002
#
# number of rings (size 3 to 8) (size 9 to 14) (size 15 to 20)
#    0.000    2.667    0.000    2.500    0.000    5.333 
#    0.000    4.167    0.000    3.000    0.000    0.000 
#    0.000    0.000    0.000    0.000    0.000    0.000 
#
# Total GULP energy -267736.803190 kJ/mol
# GULP energy per Si atom -5577.850066 kJ/mol
# Density = 1.731496 g / cm^3
# Si number density = 17.354462 Si / 1000 Ang^3
#
#
#
# Elastic Constant Matrix: (Units=GPa)
#
#
# Indices 1 2 3 4 5 6 
#
# 1 102.5938 39.6282 131.8634 0.0000 0.0000 0.0000
# 2 39.6282 27.9000 52.2022 0.0000 0.0000 0.0000
# 3 131.8634 52.2022 207.6236 0.0000 0.0000 0.0000
# 4 0.0000 0.0000 0.0000 31.9173 0.0000 0.0000
# 5 0.0000 0.0000 0.0000 0.0000 44.4708 0.0000
# 6 0.0000 0.0000 0.0000 0.0000 0.0000 24.8815
#
#
#
# Elastic Compliance Matrix: (Units=1/GPa)
#
#
# Indices 1 2 3 4 5 6 
#
# 1 0.062463 -0.027370 -0.032789 0.000000 0.000000 0.000000
# 2 -0.027370 0.079675 -0.002649 0.000000 0.000000 0.000000
# 3 -0.032789 -0.002649 0.026307 0.000000 0.000000 0.000000
# 4 0.000000 0.000000 0.000000 0.031331 0.000000 0.000000
# 5 0.000000 0.000000 0.000000 0.000000 0.022487 0.000000
# 6 0.000000 0.000000 0.000000 0.000000 0.000000 0.040190
#
#
# Mechanical properties :
#
#
# Convention : Reuss Voigt Hill
#
# Bulk Modulus (GPa) = 23.34936 87.27830 55.31383
# Shear Modulus (GPa) = 12.42707 27.88217 20.15462
#
# Velocity S-wave (km/s) = 2.67886 4.01262 3.41156
# Velocity P-wave (km/s) = 4.80125 8.47756 6.88916
#
# Compressibility (1/GPa) = 0.04282773
#
# Stress axis : x y z
#
# Youngs Moduli (GPa) = 16.00944 12.55096 38.01241
#
# Poissons Ratio (x) = 0.34352 1.24640
# Poissons Ratio (y) = 0.43818 0.10071
# Poissons Ratio (z) = 0.52494 0.03325
#
# Static dielectric constant tensor:
#      x y z
#    x 1.579430 0.000000 0.000000 
#    y 0.000000 1.586380 0.000000 
#    z 0.000000 0.000000 1.561000 
# 
# From -- ./inp_files/31252.got.cif
#   From: 2010.05.17/outbox.cif.g08.bks.cpg/sg59_16_cif.got.tgz:31252.got - 2010.06.03 14:40:33.
