data_PCOD9451528
_publ_section_title
;
Structure prediction by ZEFSAII (Michael W. Deem and Ramdas Pophale) SiO2 
 PCOD9451528
Probable space group: P M M N
;
_chemical_formula_sum "Si O2"
_cell_formula_units_Z 48
_cell_length_a 8.782688
_cell_length_b 15.418712
_cell_length_c 19.221619
_cell_angle_alpha 90.000000
_cell_angle_beta 90.000000
_cell_angle_gamma 90.000000
_cell_volume 2602.948144
_symmetry_space_group_name_H-M "P M M N"
_symmetry_group_IT_number 59
_space_group.IT_coordinate_system_code '2'
_symmetry_cell_setting 'orthorhombic'
loop_
_space_group_symop_operation_xyz
x,y,z
1/2-x,1/2-y,z
1/2+x,-y,-z
-x,1/2+y,-z
-x,-y,-z
1/2+x,1/2+y,-z
1/2-x,y,z
x,1/2-y,z
loop_
_atom_site_type_symbol
_atom_site_label
_atom_site_fract_x
_atom_site_fract_y
_atom_site_fract_z
Si Si1 0.422198 0.460137 0.306308
Si Si2 0.929514 0.518106 0.925062
Si Si3 0.431805 0.648798 0.811337
Si Si4 0.082325 0.611096 0.192889
Si Si5 0.570124 0.250000 0.584266
Si Si6 0.417899 0.250000 0.729025
Si Si7 0.432955 0.441616 0.562152
O O1 0.250000 0.437335 0.329756
O O2 0.501345 0.382862 0.263254
O O3 0.408880 0.532088 0.246432
O O4 0.512909 0.507381 0.368218
O O5 0.750000 0.537342 0.930707
O O6 0.946247 0.429115 0.881796
O O7 0.004094 0.591715 0.875676
O O8 0.000000 0.500000 0.000000
O O9 0.250000 0.637212 0.809272
O O10 0.467370 0.750000 0.821741
O O11 0.250000 0.653253 0.193712
O O12 0.949091 0.669522 0.221736
O O13 0.750000 0.250000 0.569280
O O14 0.539341 0.250000 0.667166
O O15 0.497631 0.342305 0.559974
O O16 0.250000 0.250000 0.697796
O O17 0.500000 0.500000 0.500000
O O18 0.250000 0.437955 0.559731
#
# Coordination Sequence:
#
# PCOD9451528 Si02
#       7
#     8   8   8   8   4   4   8
#     4  10  20  37  62  89 118 155 198 246 301 354
#     4  10  21  38  60  84 115 155 198 244 304 362
#     4  10  21  38  61  88 119 158 204 251 303 362
#     4   9  19  35  56  81 113 151 188 235 294 351
#     4  12  24  42  66  92 126 165 206 255 312 374
#     4  12  22  32  56  90 118 149 194 245 292 348
#     4  12  25  43  66  94 128 166 209 257 314 376
#
# _framework density 18.440626999999999
#
# number of rings (size 3 to 8) (size 9 to 14) (size 15 to 20)
#    0.000    1.500    1.667    5.500    0.000    4.667 
#    3.000    0.000    0.000    0.000    0.000    0.000 
#    0.000    0.000    0.000    0.000    0.000    0.000 
#
# Total GULP energy -267616.677583 kJ/mol
# GULP energy per Si atom -5575.347450 kJ/mol
# Density = 1.839866 g / cm^3
# Si number density = 18.440627 Si / 1000 Ang^3
#
#
#
# Elastic Constant Matrix: (Units=GPa)
#
#
# Indices 1 2 3 4 5 6 
#
# 1 125.6461 63.1069 47.2174 0.0000 0.0000 0.0000
# 2 63.1069 115.2104 50.5926 0.0000 0.0000 0.0000
# 3 47.2174 50.5926 120.9332 0.0000 0.0000 0.0000
# 4 0.0000 0.0000 0.0000 13.1992 0.0000 0.0000
# 5 0.0000 0.0000 0.0000 0.0000 28.9718 0.0000
# 6 0.0000 0.0000 0.0000 0.0000 0.0000 25.8425
#
#
#
# Elastic Compliance Matrix: (Units=1/GPa)
#
#
# Indices 1 2 3 4 5 6 
#
# 1 0.011465 -0.005285 -0.002265 0.000000 0.000000 0.000000
# 2 -0.005285 0.013070 -0.003404 0.000000 0.000000 0.000000
# 3 -0.002265 -0.003404 0.010578 0.000000 0.000000 0.000000
# 4 0.000000 0.000000 0.000000 0.075762 0.000000 0.000000
# 5 0.000000 0.000000 0.000000 0.000000 0.034516 0.000000
# 6 0.000000 0.000000 0.000000 0.000000 0.000000 0.038696
#
#
# Mechanical properties :
#
#
# Convention : Reuss Voigt Hill
#
# Bulk Modulus (GPa) = 75.74125 75.95820 75.84972
# Shear Modulus (GPa) = 23.76470 26.99423 25.37947
#
# Velocity S-wave (km/s) = 3.59376 3.83017 3.71385
# Velocity P-wave (km/s) = 7.64084 7.80003 7.72084
#
# Compressibility (1/GPa) = 0.01320285
#
# Stress axis : x y z
#
# Youngs Moduli (GPa) = 87.22511 76.51381 94.53927
#
# Poissons Ratio (x) = 0.40438 0.21416
# Poissons Ratio (y) = 0.46099 0.32183
# Poissons Ratio (z) = 0.19759 0.26047
#
# Static dielectric constant tensor:
#      x y z
#    x 1.663060 0.000000 0.000000 
#    y 0.000000 1.651830 0.000000 
#    z 0.000000 0.000000 1.621930 
# 
# From -- ./inp_files/25574.got.cif
#   From: 2010.05.17/outbox.cif.g08.bks.cpg/sg59_13_cif.got.tgz:25574.got - 2010.06.03 14:40:33.
