data_PCOD9451780
_publ_section_title
;
Structure prediction by ZEFSAII (Michael W. Deem and Ramdas Pophale) SiO2 
 PCOD9451780
Probable space group: P M M N
;
_chemical_formula_sum "Si O2"
_cell_formula_units_Z 64
_cell_length_a 19.864210
_cell_length_b 8.588810
_cell_length_c 21.102931
_cell_angle_alpha 90.000000
_cell_angle_beta 90.000000
_cell_angle_gamma 90.000000
_cell_volume 3600.369486
_symmetry_space_group_name_H-M "P M M N"
_symmetry_group_IT_number 59
_space_group.IT_coordinate_system_code '2'
_symmetry_cell_setting 'orthorhombic'
loop_
_space_group_symop_operation_xyz
x,y,z
1/2-x,1/2-y,z
1/2+x,-y,-z
-x,1/2+y,-z
-x,-y,-z
1/2+x,1/2+y,-z
1/2-x,y,z
x,1/2-y,z
loop_
_atom_site_type_symbol
_atom_site_label
_atom_site_fract_x
_atom_site_fract_y
_atom_site_fract_z
Si Si1 0.965993 0.436346 0.563202
Si Si2 0.537722 0.436529 0.061370
Si Si3 0.460917 0.062675 0.187883
Si Si4 0.327092 0.062568 0.741968
Si Si5 0.826428 0.937760 0.110283
Si Si6 0.325934 0.562449 0.236622
Si Si7 0.959476 0.436072 0.313797
Si Si8 0.674663 0.439524 0.615866
O O1 0.964777 0.250000 0.560234
O O2 0.888873 0.491938 0.574650
O O3 0.000000 0.500000 0.500000
O O4 0.008533 0.488333 0.624274
O O5 0.536505 0.250000 0.060328
O O6 0.498549 0.491902 0.124710
O O7 0.614508 0.492689 0.068130
O O8 0.500000 0.500000 0.000000
O O9 0.462408 0.250000 0.187703
O O10 0.500009 0.009530 0.251127
O O11 0.384556 0.006838 0.194150
O O12 0.250000 0.022810 0.725675
O O13 0.333781 0.250000 0.738480
O O14 0.337836 0.017247 0.815845
O O15 0.382551 0.983640 0.698409
O O16 0.750000 0.984898 0.093333
O O17 0.829251 0.750000 0.107577
O O18 0.250000 0.516167 0.218583
O O19 0.329562 0.750000 0.234742
O O20 0.336194 0.515401 0.310424
O O21 0.965248 0.250000 0.318583
O O22 0.750000 0.491036 0.596823
O O23 0.675202 0.250000 0.614890
#
# Coordination Sequence:
#
# PCOD9451780 Si02
#       8
#     8   8   8   8   8   8   8   8
#     4  11  22  37  57  81 111 148 185 230 282 333
#     4  11  23  39  56  81 113 150 190 232 279 331
#     4  10  21  35  53  80 113 142 177 224 275 326
#     4   9  18  33  55  84 114 144 183 230 279 330
#     4   9  18  34  57  84 112 144 183 228 281 339
#     4   9  17  31  54  83 109 136 179 228 271 323
#     4  11  21  35  55  82 113 144 182 227 273 331
#     4   8  15  30  53  79 104 134 176 222 268 320
#
# _framework density 17.775953000000001
#
# number of rings (size 3 to 8) (size 9 to 14) (size 15 to 20)
#    0.000    2.250    2.500    2.625    0.000    2.250 
#    0.000    2.500    0.000    4.500    0.000    0.000 
#    0.000    0.000    0.000    0.000    0.000    0.000 
#
# Total GULP energy -357070.997176 kJ/mol
# GULP energy per Si atom -5579.234331 kJ/mol
# Density = 1.773549 g / cm^3
# Si number density = 17.775953 Si / 1000 Ang^3
#
#
#
# Elastic Constant Matrix: (Units=GPa)
#
#
# Indices 1 2 3 4 5 6 
#
# 1 164.2495 28.4496 79.7116 0.0000 0.0000 0.0000
# 2 28.4496 21.9864 28.3628 0.0000 0.0000 0.0000
# 3 79.7116 28.3628 112.0665 0.0000 0.0000 0.0000
# 4 0.0000 0.0000 0.0000 23.5777 0.0000 0.0000
# 5 0.0000 0.0000 0.0000 0.0000 29.4280 0.0000
# 6 0.0000 0.0000 0.0000 0.0000 0.0000 28.3299
#
#
#
# Elastic Compliance Matrix: (Units=1/GPa)
#
#
# Indices 1 2 3 4 5 6 
#
# 1 0.009716 -0.005430 -0.005536 0.000000 0.000000 0.000000
# 2 -0.005430 0.070565 -0.013997 0.000000 0.000000 0.000000
# 3 -0.005536 -0.013997 0.016404 0.000000 0.000000 0.000000
# 4 0.000000 0.000000 0.000000 0.042413 0.000000 0.000000
# 5 0.000000 0.000000 0.000000 0.000000 0.033981 0.000000
# 6 0.000000 0.000000 0.000000 0.000000 0.000000 0.035298
#
#
# Mechanical properties :
#
#
# Convention : Reuss Voigt Hill
#
# Bulk Modulus (GPa) = 21.38678 63.48337 42.43508
# Shear Modulus (GPa) = 18.25555 27.05235 22.65395
#
# Velocity S-wave (km/s) = 3.20813 3.90532 3.57377
# Velocity P-wave (km/s) = 5.07742 7.49173 6.39946
#
# Compressibility (1/GPa) = 0.04675785
#
# Stress axis : x y z
#
# Youngs Moduli (GPa) = 102.92688 14.17137 60.96138
#
# Poissons Ratio (x) = 0.07694 0.33751
# Poissons Ratio (y) = 0.55885 0.85329
# Poissons Ratio (z) = 0.56985 0.19836
#
# Static dielectric constant tensor:
#      x y z
#    x 1.620950 0.000000 0.000000 
#    y 0.000000 1.604760 0.000000 
#    z 0.000000 0.000000 1.580600 
# 
# From -- ./inp_files/29390.got.cif
#   From: 2010.05.17/outbox.cif.g08.bks.cpg/sg59_15_cif.got.tgz:29390.got - 2010.06.03 14:40:33.
