data_PCOD9451255
_publ_section_title
;
Structure prediction by ZEFSAII (Michael W. Deem and Ramdas Pophale) SiO2 
 PCOD9451255
Probable space group: P M M N
;
_chemical_formula_sum "Si O2"
_cell_formula_units_Z 48
_cell_length_a 8.800887
_cell_length_b 20.838025
_cell_length_c 14.807519
_cell_angle_alpha 90.000000
_cell_angle_beta 90.000000
_cell_angle_gamma 90.000000
_cell_volume 2715.596862
_symmetry_space_group_name_H-M "P M M N"
_symmetry_group_IT_number 59
_space_group.IT_coordinate_system_code '2'
_symmetry_cell_setting 'orthorhombic'
loop_
_space_group_symop_operation_xyz
x,y,z
1/2-x,1/2-y,z
1/2+x,-y,-z
-x,1/2+y,-z
-x,-y,-z
1/2+x,1/2+y,-z
1/2-x,y,z
x,1/2-y,z
loop_
_atom_site_type_symbol
_atom_site_label
_atom_site_fract_x
_atom_site_fract_y
_atom_site_fract_z
Si Si1 0.068356 0.823599 0.941169
Si Si2 0.566675 0.441268 0.557328
Si Si3 0.430781 0.060671 0.946465
Si Si4 0.931944 0.476167 0.758558
Si Si5 0.066816 0.676882 0.566335
Si Si6 0.069026 0.129148 0.245351
O O1 0.250000 0.831381 0.944348
O O2 0.030941 0.750000 0.964180
O O3 0.010974 0.838662 0.840194
O O4 0.992011 0.874882 0.007230
O O5 0.500000 0.500000 0.500000
O O6 0.750000 0.446183 0.555102
O O7 0.520846 0.447814 0.661738
O O8 0.522001 0.374929 0.509285
O O9 0.250000 0.058050 0.953772
O O10 0.483780 0.054493 0.843255
O O11 0.500000 0.000000 0.000000
O O12 0.750000 0.467407 0.769515
O O13 0.960916 0.552691 0.757132
O O14 0.250000 0.673556 0.576227
O O15 0.026376 0.750000 0.543064
O O16 0.992694 0.657321 0.661188
O O17 0.250000 0.138654 0.239314
#
# Coordination Sequence:
#
# PCOD9451255 Si02
#       6
#     8   8   8   8   8   8
#     4  11  24  41  61  86 118 155 194 238 291 351
#     4  10  20  36  58  81 112 149 191 238 281 336
#     4  12  24  39  62  88 117 154 194 241 289 345
#     4  10  21  37  57  86 118 149 192 243 289 340
#     4  10  21  36  55  82 116 153 191 234 286 343
#     4  11  21  34  57  87 120 154 188 236 291 344
#
# _framework density 17.675671999999999
#
# number of rings (size 3 to 8) (size 9 to 14) (size 15 to 20)
#    0.000    1.333    3.333    3.000    0.000    5.000 
#    0.000    0.833    0.000    3.000    0.000    0.000 
#    0.000    0.000    0.000    0.000    0.000    0.000 
#
# Total GULP energy -268284.553037 kJ/mol
# GULP energy per Si atom -5589.261522 kJ/mol
# Density = 1.763544 g / cm^3
# Si number density = 17.675672 Si / 1000 Ang^3
#
#
#
# Elastic Constant Matrix: (Units=GPa)
#
#
# Indices 1 2 3 4 5 6 
#
# 1 61.7708 74.1206 59.8682 0.0000 0.0000 0.0000
# 2 74.1206 162.5409 98.1340 0.0000 0.0000 0.0000
# 3 59.8682 98.1340 163.1238 0.0000 0.0000 0.0000
# 4 0.0000 0.0000 0.0000 14.0705 0.0000 0.0000
# 5 0.0000 0.0000 0.0000 0.0000 25.3408 0.0000
# 6 0.0000 0.0000 0.0000 0.0000 0.0000 24.1789
#
#
#
# Elastic Compliance Matrix: (Units=1/GPa)
#
#
# Indices 1 2 3 4 5 6 
#
# 1 0.038804 -0.014285 -0.005647 0.000000 0.000000 0.000000
# 2 -0.014285 0.014920 -0.003733 0.000000 0.000000 0.000000
# 3 -0.005647 -0.003733 0.010449 0.000000 0.000000 0.000000
# 4 0.000000 0.000000 0.000000 0.071071 0.000000 0.000000
# 5 0.000000 0.000000 0.000000 0.000000 0.039462 0.000000
# 6 0.000000 0.000000 0.000000 0.000000 0.000000 0.041358
#
#
# Mechanical properties :
#
#
# Convention : Reuss Voigt Hill
#
# Bulk Modulus (GPa) = 59.37834 94.63122 77.00478
# Shear Modulus (GPa) = 18.58668 23.07223 20.82945
#
# Velocity S-wave (km/s) = 3.24626 3.61683 3.43654
# Velocity P-wave (km/s) = 6.90776 8.43183 7.70756
#
# Compressibility (1/GPa) = 0.01684116
#
# Stress axis : x y z
#
# Youngs Moduli (GPa) = 25.77068 67.02190 95.70442
#
# Poissons Ratio (x) = 0.95743 0.54049
# Poissons Ratio (y) = 0.36814 0.35728
# Poissons Ratio (z) = 0.14554 0.25020
#
# Static dielectric constant tensor:
#      x y z
#    x 1.592030 0.000000 0.000000 
#    y 0.000000 1.589830 0.000000 
#    z 0.000000 0.000000 1.575640 
# 
# From -- ./inp_files/20479.got.cif
#   From: 2010.05.17/outbox.cif.g08.bks.cpg/sg59_11_cif.got.tgz:20479.got - 2010.06.03 14:40:33.
