data_PCOD9451486
_publ_section_title
;
Structure prediction by ZEFSAII (Michael W. Deem and Ramdas Pophale) SiO2 
 PCOD9451486
Probable space group: P M M N
;
_chemical_formula_sum "Si O2"
_cell_formula_units_Z 64
_cell_length_a 8.894260
_cell_length_b 28.904849
_cell_length_c 13.246146
_cell_angle_alpha 90.000000
_cell_angle_beta 90.000000
_cell_angle_gamma 90.000000
_cell_volume 3405.415146
_symmetry_space_group_name_H-M "P M M N"
_symmetry_group_IT_number 59
_space_group.IT_coordinate_system_code '2'
_symmetry_cell_setting 'orthorhombic'
loop_
_space_group_symop_operation_xyz
x,y,z
1/2-x,1/2-y,z
1/2+x,-y,-z
-x,1/2+y,-z
-x,-y,-z
1/2+x,1/2+y,-z
1/2-x,y,z
x,1/2-y,z
loop_
_atom_site_type_symbol
_atom_site_label
_atom_site_fract_x
_atom_site_fract_y
_atom_site_fract_z
Si Si1 0.431894 0.646239 0.962911
Si Si2 0.430995 0.696717 0.169960
Si Si3 0.071181 0.547782 0.034964
Si Si4 0.569555 0.029474 0.408108
Si Si5 0.068526 0.303678 0.230844
Si Si6 0.428069 0.143227 0.643974
Si Si7 0.572802 0.547098 0.249952
Si Si8 0.567919 0.631392 0.581708
O O1 0.250000 0.648542 0.956976
O O2 0.500917 0.672807 0.868625
O O3 0.478868 0.669799 0.068755
O O4 0.476889 0.592357 0.969709
O O5 0.250000 0.695271 0.172193
O O6 0.479230 0.750000 0.164029
O O7 0.491496 0.673089 0.270920
O O8 0.250000 0.544639 0.028279
O O9 0.022561 0.555695 0.150352
O O10 0.000000 0.500000 0.000000
O O11 0.750000 0.031022 0.419693
O O12 0.502708 0.080755 0.404236
O O13 0.500000 0.000000 0.500000
O O14 0.535939 0.000560 0.306347
O O15 0.250000 0.304664 0.224301
O O16 0.021890 0.250000 0.238940
O O17 0.025320 0.333788 0.328810
O O18 0.250000 0.152657 0.649976
O O19 0.450309 0.089336 0.672645
O O20 0.477520 0.150178 0.528785
O O21 0.750000 0.546489 0.222916
O O22 0.750000 0.626668 0.580810
#
# Coordination Sequence:
#
# PCOD9451486 Si02
#       8
#     8   8   8   8   8   8   8   8
#     4  10  22  41  63  86 117 157 197 241 298 359
#     4  10  21  38  60  87 117 148 190 245 299 354
#     4  11  24  40  60  88 122 159 196 239 298 359
#     4  11  22  37  59  88 121 156 197 243 290 349
#     4  10  23  42  64  89 118 157 206 258 305 355
#     4  10  20  37  60  86 119 155 193 240 294 353
#     4  10  21  38  58  84 120 157 196 241 289 352
#     4  10  22  41  61  88 123 160 203 248 299 356
#
# _framework density 18.793597999999999
#
# number of rings (size 3 to 8) (size 9 to 14) (size 15 to 20)
#    0.000    1.750    2.500    1.125    1.750    5.000 
#    0.000    1.250    0.000    0.000    0.000    0.000 
#    0.000    0.000    0.000    0.000    0.000    0.000 
#
# Total GULP energy -357497.590252 kJ/mol
# GULP energy per Si atom -5585.899848 kJ/mol
# Density = 1.875082 g / cm^3
# Si number density = 18.793598 Si / 1000 Ang^3
#
#
#
# Elastic Constant Matrix: (Units=GPa)
#
#
# Indices 1 2 3 4 5 6 
#
# 1 20.6032 42.8628 35.8259 0.0000 0.0000 0.0000
# 2 42.8628 165.2861 89.8103 0.0000 0.0000 0.0000
# 3 35.8259 89.8103 136.3872 0.0000 0.0000 0.0000
# 4 0.0000 0.0000 0.0000 29.3171 0.0000 0.0000
# 5 0.0000 0.0000 0.0000 0.0000 30.4240 0.0000
# 6 0.0000 0.0000 0.0000 0.0000 0.0000 29.9223
#
#
#
# Elastic Compliance Matrix: (Units=1/GPa)
#
#
# Indices 1 2 3 4 5 6 
#
# 1 0.129978 -0.023598 -0.018603 0.000000 0.000000 0.000000
# 2 -0.023598 0.013705 -0.002826 0.000000 0.000000 0.000000
# 3 -0.018603 -0.002826 0.014080 0.000000 0.000000 0.000000
# 4 0.000000 0.000000 0.000000 0.034110 0.000000 0.000000
# 5 0.000000 0.000000 0.000000 0.000000 0.032869 0.000000
# 6 0.000000 0.000000 0.000000 0.000000 0.000000 0.033420
#
#
# Mechanical properties :
#
#
# Convention : Reuss Voigt Hill
#
# Bulk Modulus (GPa) = 14.76929 73.25272 44.01101
# Shear Modulus (GPa) = 13.48489 28.18451 20.83470
#
# Velocity S-wave (km/s) = 2.68157 3.87678 3.33319
# Velocity P-wave (km/s) = 4.17894 7.68774 6.18728
#
# Compressibility (1/GPa) = 0.06770804
#
# Stress axis : x y z
#
# Youngs Moduli (GPa) = 7.69362 72.96391 71.02461
#
# Poissons Ratio (x) = 1.72183 1.32126
# Poissons Ratio (y) = 0.18156 0.20073
# Poissons Ratio (z) = 0.14312 0.20621
#
# Static dielectric constant tensor:
#      x y z
#    x 1.630010 0.000000 0.000000 
#    y 0.000000 1.646520 0.000000 
#    z 0.000000 0.000000 1.636040 
# 
# From -- ./inp_files/14997.got.cif
#   From: 2010.05.17/outbox.cif.g08.bks.cpg/sg59_8_cif.got.tgz:14997.got - 2010.06.03 14:40:33.
