data_PCOD9451460
_publ_section_title
;
Structure prediction by ZEFSAII (Michael W. Deem and Ramdas Pophale) SiO2 
 PCOD9451460
Probable space group: P M M N
;
_chemical_formula_sum "Si O2"
_cell_formula_units_Z 48
_cell_length_a 8.997288
_cell_length_b 19.412759
_cell_length_c 15.395370
_cell_angle_alpha 90.000000
_cell_angle_beta 90.000000
_cell_angle_gamma 90.000000
_cell_volume 2688.988941
_symmetry_space_group_name_H-M "P M M N"
_symmetry_group_IT_number 59
_space_group.IT_coordinate_system_code '2'
_symmetry_cell_setting 'orthorhombic'
loop_
_space_group_symop_operation_xyz
x,y,z
1/2-x,1/2-y,z
1/2+x,-y,-z
-x,1/2+y,-z
-x,-y,-z
1/2+x,1/2+y,-z
1/2-x,y,z
x,1/2-y,z
loop_
_atom_site_type_symbol
_atom_site_label
_atom_site_fract_x
_atom_site_fract_y
_atom_site_fract_z
Si Si1 0.571995 0.831043 0.899428
Si Si2 0.427319 0.830936 0.561803
Si Si3 0.072712 0.169289 0.622899
Si Si4 0.071535 0.409734 0.278483
Si Si5 0.928346 0.068406 0.761128
Si Si6 0.928091 0.069969 0.963589
O O1 0.750000 0.839986 0.911033
O O2 0.540148 0.750000 0.894566
O O3 0.531437 0.868539 0.809265
O O4 0.488238 0.867943 0.977967
O O5 0.250000 0.838205 0.556669
O O6 0.461948 0.750000 0.578243
O O7 0.499568 0.849558 0.469421
O O8 0.492354 0.876428 0.639127
O O9 0.250000 0.162127 0.616915
O O10 0.038055 0.250000 0.639089
O O11 0.008708 0.121920 0.698622
O O12 0.250000 0.403923 0.289203
O O13 0.034787 0.489954 0.265402
O O14 0.750000 0.076514 0.752859
O O15 0.967346 0.078370 0.862263
O O16 0.750000 0.064724 0.969615
O O17 0.000000 0.000000 0.000000
#
# Coordination Sequence:
#
# PCOD9451460 Si02
#       6
#     8   8   8   8   8   8
#     4  10  21  38  60  87 120 156 195 241 292 346
#     4  10  21  37  58  85 117 152 191 237 289 341
#     4  10  22  40  61  85 113 149 194 239 287 345
#     4  10  20  37  59  84 116 154 194 234 284 346
#     4  10  22  39  60  85 114 151 193 237 288 344
#     4  11  22  39  61  84 116 155 197 241 290 348
#
# _framework density 17.850574999999999
#
# number of rings (size 3 to 8) (size 9 to 14) (size 15 to 20)
#    0.000    1.833    1.667    2.000    0.000    7.000 
#    0.000    3.333    0.000    0.000    0.000    0.000 
#    0.000    0.000    0.000    0.000    0.000    0.000 
#
# Total GULP energy -268182.668537 kJ/mol
# GULP energy per Si atom -5587.138928 kJ/mol
# Density = 1.780995 g / cm^3
# Si number density = 17.850575 Si / 1000 Ang^3
#
#
#
# Elastic Constant Matrix: (Units=GPa)
#
#
# Indices 1 2 3 4 5 6 
#
# 1 50.7035 63.3761 81.2746 0.0000 0.0000 0.0000
# 2 63.3761 117.7651 112.3116 0.0000 0.0000 0.0000
# 3 81.2746 112.3116 201.7241 0.0000 0.0000 0.0000
# 4 0.0000 0.0000 0.0000 40.6297 0.0000 0.0000
# 5 0.0000 0.0000 0.0000 0.0000 38.8873 0.0000
# 6 0.0000 0.0000 0.0000 0.0000 0.0000 33.1549
#
#
#
# Elastic Compliance Matrix: (Units=1/GPa)
#
#
# Indices 1 2 3 4 5 6 
#
# 1 0.083265 -0.027324 -0.018334 0.000000 0.000000 0.000000
# 2 -0.027324 0.027071 -0.004063 0.000000 0.000000 0.000000
# 3 -0.018334 -0.004063 0.014606 0.000000 0.000000 0.000000
# 4 0.000000 0.000000 0.000000 0.024613 0.000000 0.000000
# 5 0.000000 0.000000 0.000000 0.000000 0.025715 0.000000
# 6 0.000000 0.000000 0.000000 0.000000 0.000000 0.030161
#
#
# Mechanical properties :
#
#
# Convention : Reuss Voigt Hill
#
# Bulk Modulus (GPa) = 39.21734 98.23527 68.72630
# Shear Modulus (GPa) = 15.95527 30.08307 23.01917
#
# Velocity S-wave (km/s) = 2.99293 4.10966 3.59492
# Velocity P-wave (km/s) = 5.82761 8.81309 7.47100
#
# Compressibility (1/GPa) = 0.02549892
#
# Stress axis : x y z
#
# Youngs Moduli (GPa) = 12.00982 36.93945 68.46294
#
# Poissons Ratio (x) = 1.00935 1.25523
# Poissons Ratio (y) = 0.32816 0.27818
# Poissons Ratio (z) = 0.22019 0.15009
#
# Static dielectric constant tensor:
#      x y z
#    x 1.595910 0.000000 0.000000 
#    y 0.000000 1.591560 0.000000 
#    z 0.000000 0.000000 1.574760 
# 
# From -- ./inp_files/20312.got.cif
#   From: 2010.05.17/outbox.cif.g08.bks.cpg/sg59_11_cif.got.tgz:20312.got - 2010.06.03 14:40:33.
