data_PCOD9451854
_publ_section_title
;
Structure prediction by ZEFSAII (Michael W. Deem and Ramdas Pophale) SiO2 
 PCOD9451854
Probable space group: P M M N
;
_chemical_formula_sum "Si O2"
_cell_formula_units_Z 56
_cell_length_a 13.543797
_cell_length_b 8.755210
_cell_length_c 21.936149
_cell_angle_alpha 90.000000
_cell_angle_beta 90.000000
_cell_angle_gamma 90.000000
_cell_volume 2601.161938
_symmetry_space_group_name_H-M "P M M N"
_symmetry_group_IT_number 59
_space_group.IT_coordinate_system_code '2'
_symmetry_cell_setting 'orthorhombic'
loop_
_space_group_symop_operation_xyz
x,y,z
1/2-x,1/2-y,z
1/2+x,-y,-z
-x,1/2+y,-z
-x,-y,-z
1/2+x,1/2+y,-z
1/2-x,y,z
x,1/2-y,z
loop_
_atom_site_type_symbol
_atom_site_label
_atom_site_fract_x
_atom_site_fract_y
_atom_site_fract_z
Si Si1 0.368419 0.077810 0.162668
Si Si2 0.369825 0.930117 0.904892
Si Si3 0.643488 0.566415 0.460307
Si Si4 0.571546 0.065556 0.584479
Si Si5 0.870723 0.071171 0.963057
Si Si6 0.137025 0.565466 0.770154
Si Si7 0.950482 0.431571 0.716936
O O1 0.250000 0.081188 0.158220
O O2 0.405113 0.250000 0.171800
O O3 0.404997 0.014895 0.097570
O O4 0.395072 0.982178 0.222116
O O5 0.250000 0.937514 0.903553
O O6 0.394422 0.750000 0.907403
O O7 0.397503 0.989225 0.837937
O O8 0.399972 0.996255 0.970684
O O9 0.750000 0.512725 0.436001
O O10 0.643584 0.750000 0.459590
O O11 0.543469 0.519669 0.425952
O O12 0.631156 0.509715 0.529704
O O13 0.579332 0.250000 0.578740
O O14 0.599274 0.020822 0.653236
O O15 0.750000 0.067355 0.962406
O O16 0.897948 0.250000 0.959113
O O17 0.250000 0.516788 0.759884
O O18 0.136099 0.750000 0.770952
O O19 0.059475 0.502292 0.722490
O O20 0.958970 0.250000 0.715609
#
# Coordination Sequence:
#
# PCOD9451854 Si02
#       7
#     8   8   8   8   8   8   8
#     4  10  21  36  53  74 102 137 178 225 275 323
#     4   7  11  23  46  73  98 128 167 213 268 323
#     4   9  18  35  60  86 110 137 169 207 253 303
#     4   9  20  37  55  79 111 143 174 211 253 298
#     4   8  13  25  48  74  98 127 167 216 270 326
#     4   9  18  34  55  78 106 140 178 221 269 319
#     4  11  23  37  54  77 108 146 183 217 255 305
#
# _framework density 21.528839999999999
#
# number of rings (size 3 to 8) (size 9 to 14) (size 15 to 20)
#    0.000    3.000    0.000    2.571    0.000    3.714 
#    0.000    5.714    0.000    2.571    0.000    0.000 
#    0.000    0.000    0.000    0.000    0.000    0.000 
#
# Total GULP energy -312470.272937 kJ/mol
# GULP energy per Si atom -5579.826302 kJ/mol
# Density = 2.147984 g / cm^3
# Si number density = 21.528840 Si / 1000 Ang^3
#
#
#
# Elastic Constant Matrix: (Units=GPa)
#
#
# Indices 1 2 3 4 5 6 
#
# 1 51.5721 -2.9994 -12.4416 0.0000 0.0000 0.0000
# 2 -2.9994 16.3881 4.9246 0.0000 0.0000 0.0000
# 3 -12.4416 4.9246 83.9551 0.0000 0.0000 0.0000
# 4 0.0000 0.0000 0.0000 25.3270 0.0000 0.0000
# 5 0.0000 0.0000 0.0000 0.0000 12.9279 0.0000
# 6 0.0000 0.0000 0.0000 0.0000 0.0000 19.2859
#
#
#
# Elastic Compliance Matrix: (Units=1/GPa)
#
#
# Indices 1 2 3 4 5 6 
#
# 1 0.020239 0.002853 0.002832 0.000000 0.000000 0.000000
# 2 0.002853 0.062517 -0.003244 0.000000 0.000000 0.000000
# 3 0.002832 -0.003244 0.012521 0.000000 0.000000 0.000000
# 4 0.000000 0.000000 0.000000 0.039484 0.000000 0.000000
# 5 0.000000 0.000000 0.000000 0.000000 0.077352 0.000000
# 6 0.000000 0.000000 0.000000 0.000000 0.000000 0.051851
#
#
# Mechanical properties :
#
#
# Convention : Reuss Voigt Hill
#
# Bulk Modulus (GPa) = 9.98405 14.54250 12.26327
# Shear Modulus (GPa) = 17.09582 22.33694 19.71638
#
# Velocity S-wave (km/s) = 2.82102 3.22457 3.02952
# Velocity P-wave (km/s) = 3.90620 4.54240 4.23626
#
# Compressibility (1/GPa) = 0.10015976
#
# Stress axis : x y z
#
# Youngs Moduli (GPa) = 49.40837 15.99564 79.86517
#
# Poissons Ratio (x) = -0.04564 -0.22618
# Poissons Ratio (y) = -0.14098 0.25910
# Poissons Ratio (z) = -0.13992 0.05189
#
# Static dielectric constant tensor:
#      x y z
#    x 1.852080 0.000000 0.000000 
#    y 0.000000 1.720900 0.000000 
#    z 0.000000 0.000000 1.788300 
# 
# From -- ./inp_files/30396.got.cif
#   From: 2010.05.17/outbox.cif.g08.bks.cpg/sg59_16_cif.got.tgz:30396.got - 2010.06.03 14:40:33.
