data_PCOD9451439
_publ_section_title
;
Structure prediction by ZEFSAII (Michael W. Deem and Ramdas Pophale) SiO2 
 PCOD9451439
Probable space group: P M M N
;
_chemical_formula_sum "Si O2"
_cell_formula_units_Z 64
_cell_length_a 8.825821
_cell_length_b 24.797849
_cell_length_c 15.656013
_cell_angle_alpha 90.000000
_cell_angle_beta 90.000000
_cell_angle_gamma 90.000000
_cell_volume 3426.496555
_symmetry_space_group_name_H-M "P M M N"
_symmetry_group_IT_number 59
_space_group.IT_coordinate_system_code '2'
_symmetry_cell_setting 'orthorhombic'
loop_
_space_group_symop_operation_xyz
x,y,z
1/2-x,1/2-y,z
1/2+x,-y,-z
-x,1/2+y,-z
-x,-y,-z
1/2+x,1/2+y,-z
1/2-x,y,z
x,1/2-y,z
loop_
_atom_site_type_symbol
_atom_site_label
_atom_site_fract_x
_atom_site_fract_y
_atom_site_fract_z
Si Si1 0.429750 0.814507 0.302226
Si Si2 0.074383 0.021820 0.415937
Si Si3 0.930313 0.438774 0.008969
Si Si4 0.075217 0.113143 0.845186
Si Si5 0.423261 0.401107 0.182330
Si Si6 0.075485 0.185153 0.516789
Si Si7 0.570801 0.369132 0.352440
Si Si8 0.915547 0.024832 0.756313
O O1 0.250000 0.824239 0.303018
O O2 0.455298 0.750000 0.295090
O O3 0.503252 0.844241 0.220901
O O4 0.498222 0.832644 0.393914
O O5 0.250000 0.039209 0.425798
O O6 0.973165 0.070895 0.383033
O O7 0.075035 0.975177 0.345058
O O8 0.000000 0.000000 0.500000
O O9 0.750000 0.444975 0.006364
O O10 0.982606 0.409545 0.096064
O O11 0.000000 0.500000 0.000000
O O12 0.988147 0.400161 0.932704
O O13 0.250000 0.125608 0.861368
O O14 0.052974 0.056345 0.796507
O O15 0.250000 0.384163 0.164852
O O16 0.494699 0.365281 0.258334
O O17 0.415812 0.462512 0.217608
O O18 0.250000 0.166691 0.515609
O O19 0.073402 0.250000 0.518438
O O20 0.994664 0.166868 0.429543
O O21 0.750000 0.361990 0.345169
O O22 0.750000 0.047251 0.783580
#
# Coordination Sequence:
#
# PCOD9451439 Si02
#       8
#     8   8   8   8   8   8   8   8
#     4  10  22  41  63  86 115 150 190 240 294 347
#     4  10  21  35  50  71 106 148 190 231 276 332
#     4  12  23  37  58  85 118 155 196 239 286 342
#     4  12  24  36  57  85 115 153 193 238 289 344
#     4  10  20  37  58  81 115 152 190 237 283 333
#     4  10  21  39  63  89 116 149 193 243 292 345
#     4  11  22  36  56  82 114 151 188 230 284 343
#     4   9  19  34  51  73 107 147 188 233 277 330
#
# _framework density 18.677969999999998
#
# number of rings (size 3 to 8) (size 9 to 14) (size 15 to 20)
#    0.000    1.500    1.250    5.625    1.750    4.000 
#    0.000    0.000    0.000    0.750    0.000    0.000 
#    0.000    0.000    0.000    0.000    0.000    0.000 
#
# Total GULP energy -357035.739848 kJ/mol
# GULP energy per Si atom -5578.683435 kJ/mol
# Density = 1.863546 g / cm^3
# Si number density = 18.677970 Si / 1000 Ang^3
#
#
#
# Elastic Constant Matrix: (Units=GPa)
#
#
# Indices 1 2 3 4 5 6 
#
# 1 163.2183 28.2433 82.6642 0.0000 0.0000 0.0000
# 2 28.2433 29.9155 31.9343 0.0000 0.0000 0.0000
# 3 82.6642 31.9343 169.8696 0.0000 0.0000 0.0000
# 4 0.0000 0.0000 0.0000 30.0175 0.0000 0.0000
# 5 0.0000 0.0000 0.0000 0.0000 33.4845 0.0000
# 6 0.0000 0.0000 0.0000 0.0000 0.0000 19.7850
#
#
#
# Elastic Compliance Matrix: (Units=1/GPa)
#
#
# Indices 1 2 3 4 5 6 
#
# 1 0.008603 -0.004570 -0.003327 0.000000 0.000000 0.000000
# 2 -0.004570 0.044248 -0.006094 0.000000 0.000000 0.000000
# 3 -0.003327 -0.006094 0.008652 0.000000 0.000000 0.000000
# 4 0.000000 0.000000 0.000000 0.033314 0.000000 0.000000
# 5 0.000000 0.000000 0.000000 0.000000 0.029865 0.000000
# 6 0.000000 0.000000 0.000000 0.000000 0.000000 0.050543
#
#
# Mechanical properties :
#
#
# Convention : Reuss Voigt Hill
#
# Bulk Modulus (GPa) = 29.83399 72.07634 50.95517
# Shear Modulus (GPa) = 23.32309 31.33484 27.32897
#
# Velocity S-wave (km/s) = 3.53752 4.10034 3.82928
# Velocity P-wave (km/s) = 5.71777 7.81599 6.84773
#
# Compressibility (1/GPa) = 0.03351882
#
# Stress axis : x y z
#
# Youngs Moduli (GPa) = 116.24290 22.60011 115.58437
#
# Poissons Ratio (x) = 0.10328 0.38457
# Poissons Ratio (y) = 0.53124 0.70441
# Poissons Ratio (z) = 0.38676 0.13773
#
# Static dielectric constant tensor:
#      x y z
#    x 1.659800 0.000000 0.000000 
#    y 0.000000 1.638710 0.000000 
#    z 0.000000 0.000000 1.671670 
# 
# From -- ./inp_files/21512.got.cif
#   From: 2010.05.17/outbox.cif.g08.bks.cpg/sg59_11_cif.got.tgz:21512.got - 2010.06.03 14:40:33.
