data_PCOD9451729
_publ_section_title
;
Structure prediction by ZEFSAII (Michael W. Deem and Ramdas Pophale) SiO2 
 PCOD9451729
Probable space group: P M M N
;
_chemical_formula_sum "Si O2"
_cell_formula_units_Z 48
_cell_length_a 14.784534
_cell_length_b 7.836256
_cell_length_c 20.025372
_cell_angle_alpha 90.000000
_cell_angle_beta 90.000000
_cell_angle_gamma 90.000000
_cell_volume 2320.047348
_symmetry_space_group_name_H-M "P M M N"
_symmetry_group_IT_number 59
_space_group.IT_coordinate_system_code '2'
_symmetry_cell_setting 'orthorhombic'
loop_
_space_group_symop_operation_xyz
x,y,z
1/2-x,1/2-y,z
1/2+x,-y,-z
-x,1/2+y,-z
-x,-y,-z
1/2+x,1/2+y,-z
1/2-x,y,z
x,1/2-y,z
loop_
_atom_site_type_symbol
_atom_site_label
_atom_site_fract_x
_atom_site_fract_y
_atom_site_fract_z
Si Si1 0.647230 0.541642 0.319497
Si Si2 0.360981 0.750000 0.078060
Si Si3 0.853969 0.043164 0.682281
Si Si4 0.139396 0.054571 0.829426
Si Si5 0.360849 0.750000 0.924976
Si Si6 0.139504 0.061012 0.170224
Si Si7 0.500454 0.044881 0.577279
O O1 0.750000 0.482201 0.326857
O O2 0.648466 0.750000 0.319774
O O3 0.612769 0.497437 0.245370
O O4 0.585237 0.482474 0.380018
O O5 0.250000 0.750000 0.077634
O O6 0.390454 0.584425 0.119516
O O7 0.390987 0.750000 0.001555
O O8 0.750000 0.990807 0.674348
O O9 0.856655 0.250000 0.686142
O O10 0.912888 0.985963 0.619583
O O11 0.888087 0.976860 0.753655
O O12 0.250000 0.057521 0.828449
O O13 0.109882 0.250000 0.841257
O O14 0.110916 0.918568 0.884478
O O15 0.250000 0.750000 0.925309
O O16 0.250000 0.055380 0.170997
O O17 0.111476 0.250000 0.149924
O O18 0.499789 0.250000 0.580887
O O19 0.500000 0.000000 0.500000
#
# Coordination Sequence:
#
# PCOD9451729 Si02
#       7
#     8   4   8   8   4   8   8
#     4   8  15  31  53  72  97 136 177 216 262 313
#     4   9  16  26  40  68 109 139 166 217 269 309
#     4   9  17  32  52  71 100 139 176 218 266 313
#     4   8  14  26  44  66  95 131 172 215 255 308
#     4   9  16  24  40  70 105 137 170 211 265 317
#     4   9  16  27  46  70  97 135 180 218 257 313
#     4  10  21  35  51  75 106 134 169 217 267 321
#
# _framework density 20.689233000000002
#
# number of rings (size 3 to 8) (size 9 to 14) (size 15 to 20)
#    0.000    3.167    0.833    1.000    0.000    2.000 
#    1.500    3.333    0.000    0.000    0.000    1.167 
#    0.000    0.000    0.000    0.000    0.000    0.000 
#
# Total GULP energy -267955.416261 kJ/mol
# GULP energy per Si atom -5582.404505 kJ/mol
# Density = 2.064214 g / cm^3
# Si number density = 20.689233 Si / 1000 Ang^3
#
#
#
# Elastic Constant Matrix: (Units=GPa)
#
#
# Indices 1 2 3 4 5 6 
#
# 1 66.7660 30.3291 57.6356 0.0000 0.0000 0.0000
# 2 30.3291 88.6400 87.2132 0.0000 0.0000 0.0000
# 3 57.6356 87.2132 231.5942 0.0000 0.0000 0.0000
# 4 0.0000 0.0000 0.0000 23.4985 0.0000 0.0000
# 5 0.0000 0.0000 0.0000 0.0000 60.4470 0.0000
# 6 0.0000 0.0000 0.0000 0.0000 0.0000 4.1891
#
#
#
# Elastic Compliance Matrix: (Units=1/GPa)
#
#
# Indices 1 2 3 4 5 6 
#
# 1 0.019574 -0.003026 -0.003732 0.000000 0.000000 0.000000
# 2 -0.003026 0.018390 -0.006172 0.000000 0.000000 0.000000
# 3 -0.003732 -0.006172 0.007571 0.000000 0.000000 0.000000
# 4 0.000000 0.000000 0.000000 0.042556 0.000000 0.000000
# 5 0.000000 0.000000 0.000000 0.000000 0.016543 0.000000
# 6 0.000000 0.000000 0.000000 0.000000 0.000000 0.238714
#
#
# Mechanical properties :
#
#
# Convention : Reuss Voigt Hill
#
# Bulk Modulus (GPa) = 50.82586 81.92843 66.37715
# Shear Modulus (GPa) = 13.30618 31.74841 22.52729
#
# Velocity S-wave (km/s) = 2.53878 3.92157 3.30334
# Velocity P-wave (km/s) = 5.76312 7.75825 6.83389
#
# Compressibility (1/GPa) = 0.01967502
#
# Stress axis : x y z
#
# Youngs Moduli (GPa) = 51.08931 54.37843 132.08448
#
# Poissons Ratio (x) = 0.16453 0.49291
# Poissons Ratio (y) = 0.15457 0.81525
# Poissons Ratio (z) = 0.19066 0.33563
#
# Static dielectric constant tensor:
#      x y z
#    x 1.797380 0.000000 0.000000 
#    y 0.000000 1.718580 0.000000 
#    z 0.000000 0.000000 1.689890 
# 
# From -- ./inp_files/27482.got.cif
#   From: 2010.05.17/outbox.cif.g08.bks.cpg/sg59_14_cif.got.tgz:27482.got - 2010.06.03 14:40:33.
