data_PCOD9451110
_publ_section_title
;
Structure prediction by ZEFSAII (Michael W. Deem and Ramdas Pophale) SiO2 
 PCOD9451110
Probable space group: P M M N
;
_chemical_formula_sum "Si O2"
_cell_formula_units_Z 64
_cell_length_a 8.834647
_cell_length_b 14.346924
_cell_length_c 27.023045
_cell_angle_alpha 90.000000
_cell_angle_beta 90.000000
_cell_angle_gamma 90.000000
_cell_volume 3425.171199
_symmetry_space_group_name_H-M "P M M N"
_symmetry_group_IT_number 59
_space_group.IT_coordinate_system_code '2'
_symmetry_cell_setting 'orthorhombic'
loop_
_space_group_symop_operation_xyz
x,y,z
1/2-x,1/2-y,z
1/2+x,-y,-z
-x,1/2+y,-z
-x,-y,-z
1/2+x,1/2+y,-z
1/2-x,y,z
x,1/2-y,z
loop_
_atom_site_type_symbol
_atom_site_label
_atom_site_fract_x
_atom_site_fract_y
_atom_site_fract_z
Si Si1 0.071111 0.523652 0.947230
Si Si2 0.069658 0.357585 0.326904
Si Si3 0.932706 0.540551 0.574191
Si Si4 0.071332 0.854118 0.231114
Si Si5 0.930995 0.640975 0.862720
Si Si6 0.423723 0.146919 0.873777
Si Si7 0.929113 0.048132 0.234396
Si Si8 0.567292 0.144040 0.519943
O O1 0.250000 0.541800 0.952189
O O2 0.049878 0.432390 0.913209
O O3 0.993735 0.605247 0.915311
O O4 0.000000 0.500000 0.000000
O O5 0.250000 0.370536 0.318642
O O6 0.045713 0.250000 0.341138
O O7 0.020708 0.423862 0.371930
O O8 0.984611 0.381778 0.276644
O O9 0.750000 0.547488 0.571774
O O10 0.975718 0.434438 0.560364
O O11 0.001049 0.606649 0.531754
O O12 0.250000 0.862830 0.240046
O O13 0.022724 0.750000 0.248072
O O14 0.035441 0.857211 0.172466
O O15 0.986942 0.945466 0.250280
O O16 0.750000 0.630386 0.861664
O O17 0.967961 0.750000 0.855139
O O18 0.000920 0.580171 0.818094
O O19 0.250000 0.136404 0.854701
O O20 0.435012 0.250000 0.896290
O O21 0.750000 0.047999 0.229600
O O22 0.750000 0.143639 0.516738
O O23 0.518329 0.250000 0.530264
#
# Coordination Sequence:
#
# PCOD9451110 Si02
#       8
#     8   8   8   8   8   8   8   8
#     4  11  23  38  58  85 117 153 186 225 277 332
#     4  10  21  37  56  79 110 149 193 241 289 337
#     4   9  18  33  53  78 110 149 193 239 286 337
#     4  10  20  35  59  87 111 139 178 221 266 322
#     4  11  24  42  63  85 113 150 191 236 284 336
#     4   9  18  34  56  81 108 139 176 218 267 321
#     4  12  24  38  59  86 116 150 187 232 285 342
#     4   9  17  30  51  80 113 148 187 234 289 345
#
# _framework density 18.685198
#
# number of rings (size 3 to 8) (size 9 to 14) (size 15 to 20)
#    0.000    1.875    1.250    3.000    0.000    5.750 
#    0.000    1.875    0.000    2.250    0.000    0.000 
#    0.000    0.000    0.000    0.000    0.000    0.000 
#
# Total GULP energy -357202.743482 kJ/mol
# GULP energy per Si atom -5581.292867 kJ/mol
# Density = 1.864267 g / cm^3
# Si number density = 18.685198 Si / 1000 Ang^3
#
#
#
# Elastic Constant Matrix: (Units=GPa)
#
#
# Indices 1 2 3 4 5 6 
#
# 1 42.4421 36.4387 18.5644 0.0000 0.0000 0.0000
# 2 36.4387 115.8772 27.1377 0.0000 0.0000 0.0000
# 3 18.5644 27.1377 72.7789 0.0000 0.0000 0.0000
# 4 0.0000 0.0000 0.0000 19.9581 0.0000 0.0000
# 5 0.0000 0.0000 0.0000 0.0000 26.7736 0.0000
# 6 0.0000 0.0000 0.0000 0.0000 0.0000 25.0281
#
#
#
# Elastic Compliance Matrix: (Units=1/GPa)
#
#
# Indices 1 2 3 4 5 6 
#
# 1 0.033934 -0.009471 -0.005124 0.000000 0.000000 0.000000
# 2 -0.009471 0.012099 -0.002096 0.000000 0.000000 0.000000
# 3 -0.005124 -0.002096 0.015829 0.000000 0.000000 0.000000
# 4 0.000000 0.000000 0.000000 0.050105 0.000000 0.000000
# 5 0.000000 0.000000 0.000000 0.000000 0.037350 0.000000
# 6 0.000000 0.000000 0.000000 0.000000 0.000000 0.039955
#
#
# Mechanical properties :
#
#
# Convention : Reuss Voigt Hill
#
# Bulk Modulus (GPa) = 35.11227 43.93107 39.52167
# Shear Modulus (GPa) = 21.53810 24.28246 22.91028
#
# Velocity S-wave (km/s) = 3.39880 3.60885 3.50540
# Velocity P-wave (km/s) = 5.85105 6.39744 6.13033
#
# Compressibility (1/GPa) = 0.02848007
#
# Stress axis : x y z
#
# Youngs Moduli (GPa) = 29.46890 82.65302 63.17615
#
# Poissons Ratio (x) = 0.78279 0.32374
# Poissons Ratio (y) = 0.27909 0.13239
# Poissons Ratio (z) = 0.15101 0.17321
#
# Static dielectric constant tensor:
#      x y z
#    x 1.631360 0.000000 0.000000 
#    y 0.000000 1.683690 0.000000 
#    z 0.000000 0.000000 1.612220 
# 
# From -- ./inp_files/31600.got.cif
#   From: 2010.05.17/outbox.cif.g08.bks.cpg/sg59_16_cif.got.tgz:31600.got - 2010.06.03 14:40:33.
