data_PCOD9451979
_publ_section_title
;
Structure prediction by ZEFSAII (Michael W. Deem and Ramdas Pophale) SiO2 
 PCOD9451979
Probable space group: P M M N
;
_chemical_formula_sum "Si O2"
_cell_formula_units_Z 48
_cell_length_a 8.941405
_cell_length_b 9.237471
_cell_length_c 31.655795
_cell_angle_alpha 90.000000
_cell_angle_beta 90.000000
_cell_angle_gamma 90.000000
_cell_volume 2614.641075
_symmetry_space_group_name_H-M "P M M N"
_symmetry_group_IT_number 59
_space_group.IT_coordinate_system_code '2'
_symmetry_cell_setting 'orthorhombic'
loop_
_space_group_symop_operation_xyz
x,y,z
1/2-x,1/2-y,z
1/2+x,-y,-z
-x,1/2+y,-z
-x,-y,-z
1/2+x,1/2+y,-z
1/2-x,y,z
x,1/2-y,z
loop_
_atom_site_type_symbol
_atom_site_label
_atom_site_fract_x
_atom_site_fract_y
_atom_site_fract_z
Si Si1 0.430450 0.418651 0.460169
Si Si2 0.430102 0.581108 0.374283
Si Si3 0.929122 0.079698 0.040178
Si Si4 0.571495 0.079984 0.295106
Si Si5 0.429101 0.080068 0.206101
Si Si6 0.569893 0.420094 0.879946
O O1 0.500000 0.500000 0.500000
O O2 0.250000 0.426991 0.462844
O O3 0.473485 0.250000 0.459965
O O4 0.476125 0.495298 0.416464
O O5 0.250000 0.570093 0.370767
O O6 0.469193 0.750000 0.378200
O O7 0.502356 0.511353 0.332993
O O8 0.750000 0.066384 0.038590
O O9 0.967361 0.250000 0.039462
O O10 0.991540 0.006147 0.082463
O O11 0.000000 0.000000 0.000000
O O12 0.750000 0.067884 0.295213
O O13 0.531405 0.250000 0.300836
O O14 0.507861 0.035047 0.249478
O O15 0.250000 0.067665 0.211603
O O16 0.463566 0.250000 0.198442
O O17 0.472605 0.986997 0.165382
O O18 0.750000 0.435663 0.884264
O O19 0.534323 0.250000 0.882060
#
# Coordination Sequence:
#
# PCOD9451979 Si02
#       6
#     8   8   8   8   8   8
#     4  10  21  37  58  83 110 142 180 222 270 324
#     4  10  21  37  57  80 107 142 184 227 271 322
#     4  11  24  40  59  84 113 146 185 228 274 325
#     4  10  21  36  55  81 112 145 182 226 275 325
#     4   9  18  34  56  80 109 148 189 227 270 322
#     4  10  21  37  58  85 115 146 183 226 272 325
#
# _framework density 18.358162
#
# number of rings (size 3 to 8) (size 9 to 14) (size 15 to 20)
#    0.000    2.000    0.000    3.000    0.000    9.333 
#    0.000    3.333    0.000    0.000    0.000    0.000 
#    0.000    0.000    0.000    0.000    0.000    0.000 
#
# Total GULP energy -268193.884384 kJ/mol
# GULP energy per Si atom -5587.372591 kJ/mol
# Density = 1.831638 g / cm^3
# Si number density = 18.358162 Si / 1000 Ang^3
#
#
#
# Elastic Constant Matrix: (Units=GPa)
#
#
# Indices 1 2 3 4 5 6 
#
# 1 28.0545 62.3467 62.1596 0.0000 0.0000 0.0000
# 2 62.3467 164.7509 133.2735 0.0000 0.0000 0.0000
# 3 62.1596 133.2735 210.2380 0.0000 0.0000 0.0000
# 4 0.0000 0.0000 0.0000 42.4275 0.0000 0.0000
# 5 0.0000 0.0000 0.0000 0.0000 37.8167 0.0000
# 6 0.0000 0.0000 0.0000 0.0000 0.0000 27.5354
#
#
#
# Elastic Compliance Matrix: (Units=1/GPa)
#
#
# Indices 1 2 3 4 5 6 
#
# 1 0.320674 -0.091659 -0.036707 0.000000 0.000000 0.000000
# 2 -0.091659 0.038657 0.002594 0.000000 0.000000 0.000000
# 3 -0.036707 0.002594 0.013965 0.000000 0.000000 0.000000
# 4 0.000000 0.000000 0.000000 0.023570 0.000000 0.000000
# 5 0.000000 0.000000 0.000000 0.000000 0.026443 0.000000
# 6 0.000000 0.000000 0.000000 0.000000 0.000000 0.036317
#
#
# Mechanical properties :
#
#
# Convention : Reuss Voigt Hill
#
# Bulk Modulus (GPa) = 8.21334 102.06701 55.14018
# Shear Modulus (GPa) = 6.65111 31.24015 18.94563
#
# Velocity S-wave (km/s) = 1.90548 4.12965 3.21596
# Velocity P-wave (km/s) = 3.05365 8.85759 6.62502
#
# Compressibility (1/GPa) = 0.12175310
#
# Stress axis : x y z
#
# Youngs Moduli (GPa) = 3.11843 25.86823 71.60835
#
# Poissons Ratio (x) = 2.37105 2.62856
# Poissons Ratio (y) = 0.28583 -0.18579
# Poissons Ratio (z) = 0.11447 -0.06711
#
# Static dielectric constant tensor:
#      x y z
#    x 1.617740 0.000000 0.000000 
#    y 0.000000 1.617130 0.000000 
#    z 0.000000 0.000000 1.589970 
# 
# From -- ./inp_files/32803.got.cif
#   From: 2010.05.17/outbox.cif.g08.bks.cpg/sg59_17_cif.got.tgz:32803.got - 2010.06.03 14:40:33.
