data_PCOD9451748
_publ_section_title
;
Structure prediction by ZEFSAII (Michael W. Deem and Ramdas Pophale) SiO2 
 PCOD9451748
Probable space group: P M M N
;
_chemical_formula_sum "Si O2"
_cell_formula_units_Z 64
_cell_length_a 9.500132
_cell_length_b 14.435478
_cell_length_c 24.653027
_cell_angle_alpha 90.000000
_cell_angle_beta 90.000000
_cell_angle_gamma 90.000000
_cell_volume 3380.890150
_symmetry_space_group_name_H-M "P M M N"
_symmetry_group_IT_number 59
_space_group.IT_coordinate_system_code '2'
_symmetry_cell_setting 'orthorhombic'
loop_
_space_group_symop_operation_xyz
x,y,z
1/2-x,1/2-y,z
1/2+x,-y,-z
-x,1/2+y,-z
-x,-y,-z
1/2+x,1/2+y,-z
1/2-x,y,z
x,1/2-y,z
loop_
_atom_site_type_symbol
_atom_site_label
_atom_site_fract_x
_atom_site_fract_y
_atom_site_fract_z
Si Si1 0.578834 0.856190 0.962374
Si Si2 0.089743 0.137179 0.572810
Si Si3 0.081615 0.359627 0.696368
Si Si4 0.582099 0.974706 0.741431
Si Si5 0.086986 0.863029 0.529777
Si Si6 0.581806 0.984632 0.863297
Si Si7 0.583485 0.639770 0.084569
Si Si8 0.416614 0.638451 0.651192
O O1 0.750000 0.856457 0.962919
O O2 0.533998 0.750000 0.954561
O O3 0.532996 0.918574 0.912296
O O4 0.536066 0.885577 0.023054
O O5 0.250000 0.105898 0.566274
O O6 0.090277 0.250000 0.571413
O O7 0.044312 0.114500 0.633921
O O8 0.999104 0.104221 0.522219
O O9 0.250000 0.375348 0.703069
O O10 0.057460 0.250000 0.703969
O O11 0.988267 0.424591 0.733699
O O12 0.750000 0.977743 0.732891
O O13 0.554741 0.944956 0.803516
O O14 0.507004 0.909463 0.697598
O O15 0.250000 0.887895 0.523726
O O16 0.080321 0.750000 0.529850
O O17 0.039617 0.891499 0.590127
O O18 0.750000 0.997246 0.867992
O O19 0.503835 0.081201 0.872832
O O20 0.750000 0.620124 0.089539
O O21 0.565540 0.750000 0.090376
O O22 0.250000 0.616262 0.657110
O O23 0.429724 0.750000 0.654274
#
# Coordination Sequence:
#
# PCOD9451748 Si02
#       8
#     8   8   8   8   8   8   8   8
#     4   8  15  31  55  80 106 136 169 206 252 307
#     4   8  14  26  47  75 101 125 160 208 262 318
#     4   9  19  37  58  76  99 137 180 220 266 318
#     4  11  24  37  51  77 108 139 181 225 261 305
#     4   8  14  26  47  75 102 128 161 203 257 318
#     4  10  21  35  52  76 106 140 174 212 259 303
#     4   9  18  33  55  82 107 134 171 210 250 303
#     4   9  19  37  58  77 102 139 178 216 261 313
#
# _framework density 18.929925999999998
#
# number of rings (size 3 to 8) (size 9 to 14) (size 15 to 20)
#    0.000    3.000    0.000    3.000    0.000    3.750 
#    0.000    6.875    0.000    1.125    0.000    0.000 
#    0.000    0.000    0.000    0.000    0.000    0.000 
#
# Total GULP energy -356964.100802 kJ/mol
# GULP energy per Si atom -5577.564075 kJ/mol
# Density = 1.888684 g / cm^3
# Si number density = 18.929926 Si / 1000 Ang^3
#
#
#
# Elastic Constant Matrix: (Units=GPa)
#
#
# Indices 1 2 3 4 5 6 
#
# 1 27.5425 11.6088 35.1369 0.0000 0.0000 0.0000
# 2 11.6088 34.5581 13.0128 0.0000 0.0000 0.0000
# 3 35.1369 13.0128 83.5977 0.0000 0.0000 0.0000
# 4 0.0000 0.0000 0.0000 25.6345 0.0000 0.0000
# 5 0.0000 0.0000 0.0000 0.0000 30.0486 0.0000
# 6 0.0000 0.0000 0.0000 0.0000 0.0000 21.7062
#
#
#
# Elastic Compliance Matrix: (Units=1/GPa)
#
#
# Indices 1 2 3 4 5 6 
#
# 1 0.086092 -0.016247 -0.033656 0.000000 0.000000 0.000000
# 2 -0.016247 0.033804 0.001567 0.000000 0.000000 0.000000
# 3 -0.033656 0.001567 0.025864 0.000000 0.000000 0.000000
# 4 0.000000 0.000000 0.000000 0.039010 0.000000 0.000000
# 5 0.000000 0.000000 0.000000 0.000000 0.033279 0.000000
# 6 0.000000 0.000000 0.000000 0.000000 0.000000 0.046070
#
#
# Mechanical properties :
#
#
# Convention : Reuss Voigt Hill
#
# Bulk Modulus (GPa) = 20.37165 29.46834 24.92000
# Shear Modulus (GPa) = 13.25717 21.20719 17.23218
#
# Velocity S-wave (km/s) = 2.64924 3.35072 3.02041
# Velocity P-wave (km/s) = 4.48809 5.52907 5.03555
#
# Compressibility (1/GPa) = 0.04908782
#
# Stress axis : x y z
#
# Youngs Moduli (GPa) = 11.61554 29.58186 38.66354
#
# Poissons Ratio (x) = 0.48061 1.30126
# Poissons Ratio (y) = 0.18871 -0.06057
# Poissons Ratio (z) = 0.39093 -0.04635
#
# Static dielectric constant tensor:
#      x y z
#    x 1.618740 0.000000 0.000000 
#    y 0.000000 1.687530 0.000000 
#    z 0.000000 0.000000 1.662970 
# 
# From -- ./inp_files/31604.got.cif
#   From: 2010.05.17/outbox.cif.g08.bks.cpg/sg59_16_cif.got.tgz:31604.got - 2010.06.03 14:40:33.
