data_PCOD9451223
_publ_section_title
;
Structure prediction by ZEFSAII (Michael W. Deem and Ramdas Pophale) SiO2 
 PCOD9451223
Probable space group: P M M N
;
_chemical_formula_sum "Si O2"
_cell_formula_units_Z 64
_cell_length_a 25.304657
_cell_length_b 15.376860
_cell_length_c 8.549496
_cell_angle_alpha 90.000000
_cell_angle_beta 90.000000
_cell_angle_gamma 90.000000
_cell_volume 3326.661627
_symmetry_space_group_name_H-M "P M M N"
_symmetry_group_IT_number 59
_space_group.IT_coordinate_system_code '2'
_symmetry_cell_setting 'orthorhombic'
loop_
_space_group_symop_operation_xyz
x,y,z
1/2-x,1/2-y,z
1/2+x,-y,-z
-x,1/2+y,-z
-x,-y,-z
1/2+x,1/2+y,-z
1/2-x,y,z
x,1/2-y,z
loop_
_atom_site_type_symbol
_atom_site_label
_atom_site_fract_x
_atom_site_fract_y
_atom_site_fract_z
Si Si1 0.503348 0.396313 0.496519
Si Si2 0.602389 0.847255 0.347479
Si Si3 0.940809 0.845772 0.995937
Si Si4 0.689645 0.978976 0.240382
Si Si5 0.948823 0.347904 0.160610
Si Si6 0.309189 0.653273 0.566768
Si Si7 0.382139 0.983043 0.025914
Si Si8 0.897193 0.151362 0.700600
O O1 0.500000 0.500000 0.500000
O O2 0.444193 0.363142 0.528782
O O3 0.526732 0.364007 0.331822
O O4 0.544892 0.366729 0.629344
O O5 0.623993 0.750000 0.367102
O O6 0.573097 0.851204 0.178831
O O7 0.648764 0.917832 0.334547
O O8 0.922534 0.750000 0.939459
O O9 0.002692 0.849906 0.961418
O O10 0.913933 0.930809 0.923781
O O11 0.750000 0.948323 0.252913
O O12 0.686919 0.075650 0.311328
O O13 0.670579 0.984646 0.060565
O O14 0.925611 0.250000 0.157573
O O15 0.912251 0.427537 0.109062
O O16 0.250000 0.647690 0.495147
O O17 0.313513 0.750000 0.637804
O O18 0.355204 0.645275 0.440262
O O19 0.380164 0.917347 0.169316
O O20 0.896139 0.250000 0.762658
#
# Coordination Sequence:
#
# PCOD9451223 Si02
#       8
#     8   8   8   8   8   8   8   8
#     4  12  22  34  54  82 116 153 188 224 268 325
#     4  10  20  36  57  81 111 146 185 229 279 335
#     4   9  19  35  53  74 104 141 177 217 264 316
#     4  10  22  39  58  80 105 138 184 237 287 333
#     4  11  21  33  52  80 115 148 178 214 261 323
#     4   9  19  37  58  78 105 144 186 227 275 332
#     4  11  21  35  54  79 108 142 181 223 271 328
#     4  11  22  35  54  82 117 151 183 223 274 332
#
# _framework density 19.238506999999998
#
# number of rings (size 3 to 8) (size 9 to 14) (size 15 to 20)
#    0.000    1.625    0.000    6.375    0.000    3.750 
#    0.000    0.000    0.000    0.000    0.000    0.000 
#    0.000    3.000    0.000    0.000    0.000    0.000 
#
# Total GULP energy -357371.443103 kJ/mol
# GULP energy per Si atom -5583.928798 kJ/mol
# Density = 1.919472 g / cm^3
# Si number density = 19.238507 Si / 1000 Ang^3
#
#
#
# Elastic Constant Matrix: (Units=GPa)
#
#
# Indices 1 2 3 4 5 6 
#
# 1 107.8566 32.4202 20.3865 0.0000 0.0000 0.0000
# 2 32.4202 115.2249 2.8218 0.0000 0.0000 0.0000
# 3 20.3865 2.8218 25.4108 0.0000 0.0000 0.0000
# 4 0.0000 0.0000 0.0000 30.1081 0.0000 0.0000
# 5 0.0000 0.0000 0.0000 0.0000 21.2834 0.0000
# 6 0.0000 0.0000 0.0000 0.0000 0.0000 24.8856
#
#
#
# Elastic Compliance Matrix: (Units=1/GPa)
#
#
# Indices 1 2 3 4 5 6 
#
# 1 0.011964 -0.003140 -0.009250 0.000000 0.000000 0.000000
# 2 -0.003140 0.009526 0.001461 0.000000 0.000000 0.000000
# 3 -0.009250 0.001461 0.046612 0.000000 0.000000 0.000000
# 4 0.000000 0.000000 0.000000 0.033214 0.000000 0.000000
# 5 0.000000 0.000000 0.000000 0.000000 0.046985 0.000000
# 6 0.000000 0.000000 0.000000 0.000000 0.000000 0.040184
#
#
# Mechanical properties :
#
#
# Convention : Reuss Voigt Hill
#
# Bulk Modulus (GPa) = 21.62374 39.97215 30.79794
# Shear Modulus (GPa) = 22.14784 28.11301 25.13043
#
# Velocity S-wave (km/s) = 3.39665 3.82683 3.61814
# Velocity P-wave (km/s) = 5.16209 6.35204 5.78773
#
# Compressibility (1/GPa) = 0.04624547
#
# Stress axis : x y z
#
# Youngs Moduli (GPa) = 83.58690 104.97282 21.45377
#
# Poissons Ratio (x) = 0.32957 0.19844
# Poissons Ratio (y) = 0.26243 -0.03134
# Poissons Ratio (z) = 0.77314 -0.15337
#
# Static dielectric constant tensor:
#      x y z
#    x 1.677380 0.000000 0.000000 
#    y 0.000000 1.682710 0.000000 
#    z 0.000000 0.000000 1.671440 
# 
# From -- ./inp_files/12208.got.cif
#   From: 2010.05.17/outbox.cif.g08.bks.cpg/sg59_7_cif.got.tgz:12208.got - 2010.06.03 14:40:33.
