data_PCOD9451565
_publ_section_title
;
Structure prediction by ZEFSAII (Michael W. Deem and Ramdas Pophale) SiO2 
 PCOD9451565
Probable space group: P M M N
;
_chemical_formula_sum "Si O2"
_cell_formula_units_Z 38
_cell_length_a 11.365502
_cell_length_b 14.542459
_cell_length_c 13.090615
_cell_angle_alpha 90.000000
_cell_angle_beta 90.000000
_cell_angle_gamma 90.000000
_cell_volume 2163.647569
_symmetry_space_group_name_H-M "P M M N"
_symmetry_group_IT_number 59
_space_group.IT_coordinate_system_code '2'
_symmetry_cell_setting 'orthorhombic'
loop_
_space_group_symop_operation_xyz
x,y,z
1/2-x,1/2-y,z
1/2+x,-y,-z
-x,1/2+y,-z
-x,-y,-z
1/2+x,1/2+y,-z
1/2-x,y,z
x,1/2-y,z
loop_
_atom_site_type_symbol
_atom_site_label
_atom_site_fract_x
_atom_site_fract_y
_atom_site_fract_z
Si Si1 0.001693 0.451243 0.802282
Si Si2 0.496229 0.250000 0.705937
Si Si3 0.111588 0.250000 0.480289
Si Si4 0.250000 0.541762 0.868802
Si Si5 0.250000 0.642775 0.661597
Si Si6 0.750000 0.250000 0.749135
Si Si7 0.504946 0.065419 0.403019
Si Si8 0.250000 0.926209 0.104083
O O1 0.126396 0.486318 0.849857
O O2 0.975407 0.507870 0.698398
O O3 0.021862 0.343879 0.770638
O O4 0.881270 0.465863 0.867910
O O5 0.429257 0.250000 0.598806
O O6 0.634792 0.250000 0.681157
O O7 0.250000 0.250000 0.479839
O O8 0.067554 0.342170 0.424386
O O9 0.250000 0.619365 0.781686
O O10 0.250000 0.582114 0.982323
O O11 0.250000 0.750000 0.644548
O O12 0.362664 0.597530 0.612463
O O13 0.750000 0.163971 0.825192
O O14 0.500000 0.000000 0.500000
#
# Coordination Sequence:
#
# PCOD9451565 Si02
#       8
#     8   4   4   4   4   2   8   4
#     4  10  22  37  62  88 119 154 196 247 294 352
#     4  10  20  38  58  88 116 152 195 246 292 338
#     4  12  26  36  57  84 127 162 194 234 295 353
#     4  10  22  37  61  85 115 156 198 242 302 357
#     4  10  22  40  59  83 116 156 200 244 292 346
#     4   8  20  36  58  90 108 142 202 258 288 340
#     4  11  23  39  59  88 118 160 197 237 289 355
#     4  10  20  39  61  84 118 150 199 249 304 338
#
# _framework density 17.562933999999998
#
# number of rings (size 3 to 8) (size 9 to 14) (size 15 to 20)
#    0.000    1.684    3.158    0.632    5.158    0.842 
#    0.000    0.000    0.000    1.263    0.000    0.000 
#    0.000    0.000    0.000    0.000    0.000    0.000 
#
# Total GULP energy -211703.054129 kJ/mol
# GULP energy per Si atom -5571.133003 kJ/mol
# Density = 1.752296 g / cm^3
# Si number density = 17.562934 Si / 1000 Ang^3
#
#
#
# Elastic Constant Matrix: (Units=GPa)
#
#
# Indices 1 2 3 4 5 6 
#
# 1 116.9056 13.7940 62.1291 0.0000 0.0000 0.0000
# 2 13.7940 81.9166 34.8888 0.0000 0.0000 0.0000
# 3 62.1291 34.8888 101.0204 0.0000 0.0000 0.0000
# 4 0.0000 0.0000 0.0000 -3.9255 0.0000 0.0000
# 5 0.0000 0.0000 0.0000 0.0000 24.3361 0.0000
# 6 0.0000 0.0000 0.0000 0.0000 0.0000 2.0858
#
#
#
# Elastic Compliance Matrix: (Units=1/GPa)
#
#
# Indices 1 2 3 4 5 6 
#
# 1 0.012844 0.001409 -0.008386 0.000000 0.000000 0.000000
# 2 0.001409 0.014467 -0.005863 0.000000 0.000000 0.000000
# 3 -0.008386 -0.005863 0.017081 0.000000 0.000000 0.000000
# 4 0.000000 0.000000 0.000000 -0.254746 0.000000 0.000000
# 5 0.000000 0.000000 0.000000 0.000000 0.041091 0.000000
# 6 0.000000 0.000000 0.000000 0.000000 0.000000 0.479434
#
#
# Mechanical properties :
#
#
# Convention : Reuss Voigt Hill
#
# Bulk Modulus (GPa) = 53.43943 57.94072 55.69008
# Shear Modulus (GPa) = 14.61602 17.10133 15.85867
#
# Velocity S-wave (km/s) = 2.88793 3.12383 3.00819
# Velocity P-wave (km/s) = 6.45086 6.78771 6.62143
#
# Compressibility (1/GPa) = 0.01871277
#
# Stress axis : x y z
#
# Youngs Moduli (GPa) = 77.85484 69.12104 58.54324
#
# Poissons Ratio (x) = -0.09738 0.49095
# Poissons Ratio (y) = -0.10968 0.34324
# Poissons Ratio (z) = 0.65290 0.40525
#
# Static dielectric constant tensor:
#      x y z
#    x 1.611830 0.000000 0.000000 
#    y 0.000000 1.661500 0.000000 
#    z 0.000000 0.000000 1.567980 
# 
# From -- ./inp_files/15600.got.cif
#   From: 2010.05.17/outbox.cif.g08.bks.cpg/sg59_8_cif.got.tgz:15600.got - 2010.06.03 14:40:33.
