data_PCOD9451644
_publ_section_title
;
Structure prediction by ZEFSAII (Michael W. Deem and Ramdas Pophale) SiO2 
 PCOD9451644
Probable space group: P M M N
;
_chemical_formula_sum "Si O2"
_cell_formula_units_Z 48
_cell_length_a 16.108151
_cell_length_b 7.713328
_cell_length_c 19.209620
_cell_angle_alpha 90.000000
_cell_angle_beta 90.000000
_cell_angle_gamma 90.000000
_cell_volume 2386.746342
_symmetry_space_group_name_H-M "P M M N"
_symmetry_group_IT_number 59
_space_group.IT_coordinate_system_code '2'
_symmetry_cell_setting 'orthorhombic'
loop_
_space_group_symop_operation_xyz
x,y,z
1/2-x,1/2-y,z
1/2+x,-y,-z
-x,1/2+y,-z
-x,-y,-z
1/2+x,1/2+y,-z
1/2-x,y,z
x,1/2-y,z
loop_
_atom_site_type_symbol
_atom_site_label
_atom_site_fract_x
_atom_site_fract_y
_atom_site_fract_z
Si Si1 0.847518 0.539546 0.173287
Si Si2 0.750000 0.455323 0.415632
Si Si3 0.092518 0.947845 0.978199
Si Si4 0.149257 0.250000 0.222262
Si Si5 0.096976 0.960106 0.327949
Si Si6 0.342806 0.250000 0.069783
Si Si7 0.750000 0.460203 0.572621
Si Si8 0.090491 0.457004 0.677005
O O1 0.750000 0.491953 0.173332
O O2 0.851707 0.750000 0.171091
O O3 0.890477 0.471932 0.103504
O O4 0.889087 0.477250 0.245063
O O5 0.750000 0.250000 0.422094
O O6 0.750000 0.528598 0.493917
O O7 0.666944 0.501347 0.373331
O O8 0.109035 0.750000 0.997362
O O9 0.145041 0.083513 0.022101
O O10 0.000000 0.000000 0.000000
O O11 0.250000 0.250000 0.229284
O O12 0.118572 0.423798 0.261071
O O13 0.111513 0.250000 0.143849
O O14 0.101710 0.750000 0.315950
O O15 0.166545 0.007105 0.385273
O O16 0.001876 0.006625 0.347591
O O17 0.250000 0.250000 0.094148
O O18 0.750000 0.250000 0.570339
O O19 0.089048 0.250000 0.682797
#
# Coordination Sequence:
#
# PCOD9451644 Si02
#       8
#     8   4   8   4   8   4   4   8
#     4  10  20  39  65  89 127 170 212 273 325 381
#     4  11  23  39  61  95 137 172 211 272 323 391
#     4  12  25  42  66  94 128 173 222 268 337 392
#     4  11  24  42  70  97 125 171 226 264 332 395
#     4  10  22  42  68  96 131 170 218 274 328 390
#     4  11  26  46  62  94 138 166 211 284 318 390
#     4   9  20  42  66  92 133 172 211 271 336 382
#     4  10  22  40  63  94 129 172 220 265 327 390
#
# _framework density 20.111059999999998
#
# number of rings (size 3 to 8) (size 9 to 14) (size 15 to 20)
#    0.000    1.500    3.333    0.750    3.500    3.333 
#    3.000    1.667    0.000    0.000    0.000    0.000 
#    0.000    0.000    0.000    0.000    0.000    0.000 
#
# Total GULP energy -267917.419477 kJ/mol
# GULP energy per Si atom -5581.612906 kJ/mol
# Density = 2.006529 g / cm^3
# Si number density = 20.111060 Si / 1000 Ang^3
#
#
#
# Elastic Constant Matrix: (Units=GPa)
#
#
# Indices 1 2 3 4 5 6 
#
# 1 154.6365 26.9524 73.8451 0.0000 0.0000 0.0000
# 2 26.9524 83.8702 41.5008 0.0000 0.0000 0.0000
# 3 73.8451 41.5008 174.0494 0.0000 0.0000 0.0000
# 4 0.0000 0.0000 0.0000 40.1653 0.0000 0.0000
# 5 0.0000 0.0000 0.0000 0.0000 12.3925 0.0000
# 6 0.0000 0.0000 0.0000 0.0000 0.0000 8.3028
#
#
#
# Elastic Compliance Matrix: (Units=1/GPa)
#
#
# Indices 1 2 3 4 5 6 
#
# 1 0.008188 -0.001034 -0.003227 0.000000 0.000000 0.000000
# 2 -0.001034 0.013649 -0.002816 0.000000 0.000000 0.000000
# 3 -0.003227 -0.002816 0.007786 0.000000 0.000000 0.000000
# 4 0.000000 0.000000 0.000000 0.024897 0.000000 0.000000
# 5 0.000000 0.000000 0.000000 0.000000 0.080694 0.000000
# 6 0.000000 0.000000 0.000000 0.000000 0.000000 0.120441
#
#
# Mechanical properties :
#
#
# Convention : Reuss Voigt Hill
#
# Bulk Modulus (GPa) = 64.64776 77.46141 71.05459
# Shear Modulus (GPa) = 18.18405 30.18931 24.18668
#
# Velocity S-wave (km/s) = 3.01022 3.87864 3.47169
# Velocity P-wave (km/s) = 6.65561 7.65891 7.17482
#
# Compressibility (1/GPa) = 0.01546844
#
# Stress axis : x y z
#
# Youngs Moduli (GPa) = 122.12537 73.26647 128.43242
#
# Poissons Ratio (x) = 0.07578 0.41451
# Poissons Ratio (y) = 0.12632 0.36161
# Poissons Ratio (z) = 0.39416 0.20629
#
# Static dielectric constant tensor:
#      x y z
#    x 1.919890 0.000000 0.000000 
#    y 0.000000 1.720730 0.000000 
#    z 0.000000 0.000000 1.927850 
# 
# From -- ./inp_files/27518.got.cif
#   From: 2010.05.17/outbox.cif.g08.bks.cpg/sg59_14_cif.got.tgz:27518.got - 2010.06.03 14:40:33.
