data_PCOD9451949
_publ_section_title
;
Structure prediction by ZEFSAII (Michael W. Deem and Ramdas Pophale) SiO2 
 PCOD9451949
Probable space group: P M M N
;
_chemical_formula_sum "Si O2"
_cell_formula_units_Z 56
_cell_length_a 8.929050
_cell_length_b 23.440927
_cell_length_c 15.865390
_cell_angle_alpha 90.000000
_cell_angle_beta 90.000000
_cell_angle_gamma 90.000000
_cell_volume 3320.708773
_symmetry_space_group_name_H-M "P M M N"
_symmetry_group_IT_number 59
_space_group.IT_coordinate_system_code '2'
_symmetry_cell_setting 'orthorhombic'
loop_
_space_group_symop_operation_xyz
x,y,z
1/2-x,1/2-y,z
1/2+x,-y,-z
-x,1/2+y,-z
-x,-y,-z
1/2+x,1/2+y,-z
1/2-x,y,z
x,1/2-y,z
loop_
_atom_site_type_symbol
_atom_site_label
_atom_site_fract_x
_atom_site_fract_y
_atom_site_fract_z
Si Si1 0.431371 0.817314 0.308093
Si Si2 0.571351 0.888484 0.156585
Si Si3 0.923095 0.180766 0.503875
Si Si4 0.070307 0.183720 0.330993
Si Si5 0.429497 0.129683 0.155421
Si Si6 0.573599 0.317195 0.993423
Si Si7 0.071223 0.498185 0.093201
O O1 0.250000 0.821845 0.302963
O O2 0.467337 0.750000 0.296537
O O3 0.507558 0.855118 0.237114
O O4 0.477690 0.835688 0.402827
O O5 0.750000 0.891628 0.158799
O O6 0.500596 0.951057 0.146976
O O7 0.518004 0.853590 0.074257
O O8 0.750000 0.163701 0.496399
O O9 0.927755 0.250000 0.504612
O O10 0.009625 0.162139 0.420573
O O11 0.250000 0.183305 0.334591
O O12 0.022448 0.250000 0.319894
O O13 0.024092 0.147814 0.249355
O O14 0.250000 0.139759 0.147531
O O15 0.514609 0.166781 0.085765
O O16 0.457017 0.063556 0.134166
O O17 0.750000 0.330760 0.985759
O O18 0.554224 0.250000 0.977529
O O19 0.250000 0.506217 0.086468
O O20 0.000000 0.500000 0.000000
#
# Coordination Sequence:
#
# PCOD9451949 Si02
#       7
#     8   8   8   8   8   8   8
#     4   9  18  34  55  79 108 140 174 215 263 314
#     4  12  24  36  53  77 105 139 176 219 266 314
#     4   8  15  29  50  76 106 139 172 207 253 311
#     4   9  17  30  50  78 110 139 167 205 256 313
#     4  10  21  36  55  77 103 138 177 218 263 312
#     4  11  23  36  52  76 106 139 172 212 263 315
#     4  11  22  38  58  77 100 136 183 227 266 311
#
# _framework density 16.863868
#
# number of rings (size 3 to 8) (size 9 to 14) (size 15 to 20)
#    0.000    2.000    1.429    3.857    0.000    5.429 
#    0.000    2.857    0.000    0.857    0.000    0.000 
#    0.000    0.000    0.000    0.000    0.000    0.000 
#
# Total GULP energy -312518.653002 kJ/mol
# GULP energy per Si atom -5580.690232 kJ/mol
# Density = 1.682549 g / cm^3
# Si number density = 16.863868 Si / 1000 Ang^3
#
#
#
# Elastic Constant Matrix: (Units=GPa)
#
#
# Indices 1 2 3 4 5 6 
#
# 1 49.0948 31.3776 31.7836 0.0000 0.0000 0.0000
# 2 31.3776 50.9563 25.3932 0.0000 0.0000 0.0000
# 3 31.7836 25.3932 118.3904 0.0000 0.0000 0.0000
# 4 0.0000 0.0000 0.0000 3.1054 0.0000 0.0000
# 5 0.0000 0.0000 0.0000 0.0000 33.6987 0.0000
# 6 0.0000 0.0000 0.0000 0.0000 0.0000 20.1183
#
#
#
# Elastic Compliance Matrix: (Units=1/GPa)
#
#
# Indices 1 2 3 4 5 6 
#
# 1 0.036620 -0.019763 -0.005592 0.000000 0.000000 0.000000
# 2 -0.019763 0.032639 -0.001695 0.000000 0.000000 0.000000
# 3 -0.005592 -0.001695 0.010312 0.000000 0.000000 0.000000
# 4 0.000000 0.000000 0.000000 0.322024 0.000000 0.000000
# 5 0.000000 0.000000 0.000000 0.000000 0.029675 0.000000
# 6 0.000000 0.000000 0.000000 0.000000 0.000000 0.049706
#
#
# Mechanical properties :
#
#
# Convention : Reuss Voigt Hill
#
# Bulk Modulus (GPa) = 39.26178 43.95005 41.60592
# Shear Modulus (GPa) = 9.19852 20.04361 14.62106
#
# Velocity S-wave (km/s) = 2.33804 3.45128 2.94769
# Velocity P-wave (km/s) = 5.53360 6.48074 6.02581
#
# Compressibility (1/GPa) = 0.02547006
#
# Stress axis : x y z
#
# Youngs Moduli (GPa) = 27.30742 30.63841 96.97894
#
# Poissons Ratio (x) = 0.60550 0.54234
# Poissons Ratio (y) = 0.53967 0.16438
# Poissons Ratio (z) = 0.15271 0.05193
#
# Static dielectric constant tensor:
#      x y z
#    x 1.565700 0.000000 0.000000 
#    y 0.000000 1.553300 0.000000 
#    z 0.000000 0.000000 1.565740 
# 
# From -- ./inp_files/21052.got.cif
#   From: 2010.05.17/outbox.cif.g08.bks.cpg/sg59_11_cif.got.tgz:21052.got - 2010.06.03 14:40:33.
