data_PCOD9451915
_publ_section_title
;
Structure prediction by ZEFSAII (Michael W. Deem and Ramdas Pophale) SiO2 
 PCOD9451915
Probable space group: P M M N
;
_chemical_formula_sum "Si O2"
_cell_formula_units_Z 48
_cell_length_a 9.073613
_cell_length_b 9.675871
_cell_length_c 31.429130
_cell_angle_alpha 90.000000
_cell_angle_beta 90.000000
_cell_angle_gamma 90.000000
_cell_volume 2759.323891
_symmetry_space_group_name_H-M "P M M N"
_symmetry_group_IT_number 59
_space_group.IT_coordinate_system_code '2'
_symmetry_cell_setting 'orthorhombic'
loop_
_space_group_symop_operation_xyz
x,y,z
1/2-x,1/2-y,z
1/2+x,-y,-z
-x,1/2+y,-z
-x,-y,-z
1/2+x,1/2+y,-z
1/2-x,y,z
x,1/2-y,z
loop_
_atom_site_type_symbol
_atom_site_label
_atom_site_fract_x
_atom_site_fract_y
_atom_site_fract_z
Si Si1 0.575386 0.086299 0.707664
Si Si2 0.075193 0.414323 0.127649
Si Si3 0.075095 0.414523 0.797315
Si Si4 0.427114 0.911466 0.536802
Si Si5 0.075210 0.914480 0.962461
Si Si6 0.925867 0.085267 0.366732
O O1 0.750000 0.064204 0.712319
O O2 0.550247 0.250000 0.700303
O O3 0.493939 0.048771 0.751577
O O4 0.511693 0.999369 0.668687
O O5 0.250000 0.440407 0.125280
O O6 0.053394 0.250000 0.134859
O O7 0.002709 0.500429 0.165498
O O8 0.998907 0.449240 0.082752
O O9 0.250000 0.440284 0.797220
O O10 0.051423 0.250000 0.803656
O O11 0.250000 0.922194 0.534258
O O12 0.465751 0.750000 0.531804
O O13 0.469378 0.953840 0.584930
O O14 0.500000 0.000000 0.500000
O O15 0.250000 0.941460 0.960901
O O16 0.053874 0.750000 0.969469
O O17 0.000000 0.000000 0.000000
O O18 0.750000 0.061830 0.362359
O O19 0.950329 0.250000 0.362166
#
# Coordination Sequence:
#
# PCOD9451915 Si02
#       6
#     8   8   8   8   8   8
#     4  10  21  36  54  78 107 137 171 214 262 310
#     4  10  21  37  57  81 109 141 177 218 264 313
#     4  10  21  37  57  80 106 139 178 217 259 310
#     4   9  19  35  53  75 104 136 172 214 258 307
#     4  10  21  37  57  81 109 142 180 221 265 313
#     4   9  19  36  55  75 102 137 175 214 257 307
#
# _framework density 17.395567
#
# number of rings (size 3 to 8) (size 9 to 14) (size 15 to 20)
#    0.000    2.333    0.000    3.000    0.000    7.333 
#    0.000    5.000    0.000    0.000    0.000    0.000 
#    0.000    0.000    0.000    0.000    0.000    0.000 
#
# Total GULP energy -267964.601378 kJ/mol
# GULP energy per Si atom -5582.595862 kJ/mol
# Density = 1.735597 g / cm^3
# Si number density = 17.395567 Si / 1000 Ang^3
#
#
#
# Elastic Constant Matrix: (Units=GPa)
#
#
# Indices 1 2 3 4 5 6 
#
# 1 101.2790 66.9903 107.0536 0.0000 0.0000 0.0000
# 2 66.9903 57.4322 98.0935 0.0000 0.0000 0.0000
# 3 107.0536 98.0935 206.9014 0.0000 0.0000 0.0000
# 4 0.0000 0.0000 0.0000 43.2564 0.0000 0.0000
# 5 0.0000 0.0000 0.0000 0.0000 41.5355 0.0000
# 6 0.0000 0.0000 0.0000 0.0000 0.0000 33.3540
#
#
#
# Elastic Compliance Matrix: (Units=1/GPa)
#
#
# Indices 1 2 3 4 5 6 
#
# 1 0.045952 -0.068287 0.008599 0.000000 0.000000 0.000000
# 2 -0.068287 0.193006 -0.056173 0.000000 0.000000 0.000000
# 3 0.008599 -0.056173 0.027016 0.000000 0.000000 0.000000
# 4 0.000000 0.000000 0.000000 0.023118 0.000000 0.000000
# 5 0.000000 0.000000 0.000000 0.000000 0.024076 0.000000
# 6 0.000000 0.000000 0.000000 0.000000 0.000000 0.029981
#
#
# Mechanical properties :
#
#
# Convention : Reuss Voigt Hill
#
# Bulk Modulus (GPa) = 29.19478 101.09861 65.14669
# Shear Modulus (GPa) = 8.52820 29.86086 19.19453
#
# Velocity S-wave (km/s) = 2.21656 4.14766 3.32537
# Velocity P-wave (km/s) = 4.83427 9.01005 7.23019
#
# Compressibility (1/GPa) = 0.03425270
#
# Stress axis : x y z
#
# Youngs Moduli (GPa) = 21.76167 5.18117 37.01474
#
# Poissons Ratio (x) = 0.35381 -0.31828
# Poissons Ratio (y) = 1.48603 2.07924
# Poissons Ratio (z) = -0.18713 0.29104
#
# Static dielectric constant tensor:
#      x y z
#    x 1.576450 0.000000 0.000000 
#    y 0.000000 1.573550 0.000000 
#    z 0.000000 0.000000 1.558100 
# 
# From -- ./inp_files/31869.got.cif
#   From: 2010.05.17/outbox.cif.g08.bks.cpg/sg59_16_cif.got.tgz:31869.got - 2010.06.03 14:40:33.
