data_PCOD9451034
_publ_section_title
;
Structure prediction by ZEFSAII (Michael W. Deem and Ramdas Pophale) SiO2 
 PCOD9451034
Probable space group: P M M N
;
_chemical_formula_sum "Si O2"
_cell_formula_units_Z 64
_cell_length_a 8.605949
_cell_length_b 19.138638
_cell_length_c 21.579325
_cell_angle_alpha 90.000000
_cell_angle_beta 90.000000
_cell_angle_gamma 90.000000
_cell_volume 3554.247380
_symmetry_space_group_name_H-M "P M M N"
_symmetry_group_IT_number 59
_space_group.IT_coordinate_system_code '2'
_symmetry_cell_setting 'orthorhombic'
loop_
_space_group_symop_operation_xyz
x,y,z
1/2-x,1/2-y,z
1/2+x,-y,-z
-x,1/2+y,-z
-x,-y,-z
1/2+x,1/2+y,-z
1/2-x,y,z
x,1/2-y,z
loop_
_atom_site_type_symbol
_atom_site_label
_atom_site_fract_x
_atom_site_fract_y
_atom_site_fract_z
Si Si1 0.936454 0.963505 0.561236
Si Si2 0.436570 0.668657 0.880085
Si Si3 0.936862 0.608464 0.751304
Si Si4 0.937117 0.578015 0.994291
Si Si5 0.936205 0.170099 0.376520
Si Si6 0.937372 0.829292 0.249762
Si Si7 0.938919 0.829035 0.108730
Si Si8 0.563441 0.465896 0.690404
O O1 0.750000 0.960598 0.559291
O O2 0.001107 0.886060 0.574325
O O3 0.983198 0.007901 0.622191
O O4 0.000000 0.000000 0.500000
O O5 0.250000 0.666171 0.882234
O O6 0.485231 0.750000 0.887640
O O7 0.492626 0.639966 0.813633
O O8 0.503789 0.619994 0.934349
O O9 0.750000 0.611539 0.754461
O O10 0.983760 0.527679 0.738128
O O11 0.992720 0.650204 0.690429
O O12 0.750000 0.577064 0.992823
O O13 0.991225 0.618878 0.055869
O O14 0.000000 0.500000 0.000000
O O15 0.750000 0.164221 0.372480
O O16 0.976401 0.250000 0.391926
O O17 0.750000 0.829496 0.250437
O O18 0.987511 0.750000 0.265560
O O19 0.988790 0.844441 0.178908
O O20 0.997157 0.890981 0.292489
O O21 0.750000 0.830144 0.109186
O O22 0.986800 0.750000 0.093479
O O23 0.750000 0.462568 0.691843
#
# Coordination Sequence:
#
# PCOD9451034 Si02
#       8
#     8   8   8   8   8   8   8   8
#     4  10  21  38  59  83 114 151 192 234 277 329
#     4  11  24  40  57  80 111 146 187 234 283 338
#     4  10  21  36  56  84 115 148 186 230 281 339
#     4  11  23  38  56  79 108 144 185 231 282 337
#     4  10  20  35  57  86 118 151 189 232 279 333
#     4   9  18  33  55  82 107 136 180 228 271 323
#     4   8  16  33  55  76  99 133 178 224 272 326
#     4   9  20  36  54  81 113 143 177 221 273 327
#
# _framework density 18.006623999999999
#
# number of rings (size 3 to 8) (size 9 to 14) (size 15 to 20)
#    0.000    2.250    0.000    4.125    1.750    7.250 
#    0.000    1.250    0.000    2.250    0.000    0.000 
#    0.000    0.000    0.000    0.000    0.000    0.000 
#
# Total GULP energy -357203.250268 kJ/mol
# GULP energy per Si atom -5581.300785 kJ/mol
# Density = 1.796564 g / cm^3
# Si number density = 18.006624 Si / 1000 Ang^3
#
#
#
# Elastic Constant Matrix: (Units=GPa)
#
#
# Indices 1 2 3 4 5 6 
#
# 1 40.5583 44.1404 30.8769 0.0000 0.0000 0.0000
# 2 44.1404 175.4826 99.4784 0.0000 0.0000 0.0000
# 3 30.8769 99.4784 94.4476 0.0000 0.0000 0.0000
# 4 0.0000 0.0000 0.0000 28.9310 0.0000 0.0000
# 5 0.0000 0.0000 0.0000 0.0000 29.0572 0.0000
# 6 0.0000 0.0000 0.0000 0.0000 0.0000 32.9367
#
#
#
# Elastic Compliance Matrix: (Units=1/GPa)
#
#
# Indices 1 2 3 4 5 6 
#
# 1 0.035020 -0.005755 -0.005388 0.000000 0.000000 0.000000
# 2 -0.005755 0.015089 -0.014011 0.000000 0.000000 0.000000
# 3 -0.005388 -0.014011 0.027107 0.000000 0.000000 0.000000
# 4 0.000000 0.000000 0.000000 0.034565 0.000000 0.000000
# 5 0.000000 0.000000 0.000000 0.000000 0.034415 0.000000
# 6 0.000000 0.000000 0.000000 0.000000 0.000000 0.030361
#
#
# Mechanical properties :
#
#
# Convention : Reuss Voigt Hill
#
# Bulk Modulus (GPa) = 37.16250 73.27555 55.21902
# Shear Modulus (GPa) = 21.20134 27.25116 24.22625
#
# Velocity S-wave (km/s) = 3.43508 3.89446 3.67196
# Velocity P-wave (km/s) = 6.03457 7.81053 6.97927
#
# Compressibility (1/GPa) = 0.02690885
#
# Stress axis : x y z
#
# Youngs Moduli (GPa) = 28.55474 66.27395 36.89118
#
# Poissons Ratio (x) = 0.38139 0.19875
# Poissons Ratio (y) = 0.16433 0.51689
# Poissons Ratio (z) = 0.15384 0.92858
#
# Static dielectric constant tensor:
#      x y z
#    x 1.614410 0.000000 0.000000 
#    y 0.000000 1.600510 0.000000 
#    z 0.000000 0.000000 1.594220 
# 
# From -- ./inp_files/29464.got.cif
#   From: 2010.05.17/outbox.cif.g08.bks.cpg/sg59_15_cif.got.tgz:29464.got - 2010.06.03 14:40:33.
