data_PCOD9451527
_publ_section_title
;
Structure prediction by ZEFSAII (Michael W. Deem and Ramdas Pophale) SiO2 
 PCOD9451527
Probable space group: P M M N
;
_chemical_formula_sum "Si O2"
_cell_formula_units_Z 48
_cell_length_a 8.662773
_cell_length_b 10.303769
_cell_length_c 29.574398
_cell_angle_alpha 90.000000
_cell_angle_beta 90.000000
_cell_angle_gamma 90.000000
_cell_volume 2639.787458
_symmetry_space_group_name_H-M "P M M N"
_symmetry_group_IT_number 59
_space_group.IT_coordinate_system_code '2'
_symmetry_cell_setting 'orthorhombic'
loop_
_space_group_symop_operation_xyz
x,y,z
1/2-x,1/2-y,z
1/2+x,-y,-z
-x,1/2+y,-z
-x,-y,-z
1/2+x,1/2+y,-z
1/2-x,y,z
x,1/2-y,z
loop_
_atom_site_type_symbol
_atom_site_label
_atom_site_fract_x
_atom_site_fract_y
_atom_site_fract_z
Si Si1 0.067098 0.250000 0.550078
Si Si2 0.434384 0.750000 0.550229
Si Si3 0.065031 0.099193 0.209624
Si Si4 0.934971 0.399840 0.963626
Si Si5 0.064912 0.099966 0.863559
Si Si6 0.066429 0.502180 0.399652
Si Si7 0.566604 0.096019 0.308618
O O1 0.250000 0.250000 0.541623
O O2 0.978614 0.250000 0.502379
O O3 0.017268 0.375342 0.578380
O O4 0.250000 0.750000 0.556270
O O5 0.506688 0.624239 0.573844
O O6 0.250000 0.091787 0.212559
O O7 0.023457 0.250000 0.199474
O O8 0.992666 0.066255 0.258380
O O9 0.004298 0.001228 0.171859
O O10 0.750000 0.409350 0.961906
O O11 0.975665 0.250000 0.975133
O O12 0.002825 0.426759 0.913932
O O13 0.000000 0.500000 0.000000
O O14 0.250000 0.090487 0.863409
O O15 0.022766 0.250000 0.852528
O O16 0.250000 0.514668 0.404280
O O17 0.019781 0.482608 0.347489
O O18 0.750000 0.074612 0.311795
O O19 0.537688 0.250000 0.316317
#
# Coordination Sequence:
#
# PCOD9451527 Si02
#       7
#     4   4   8   8   8   8   8
#     4  12  26  44  62  88 124 158 196 246 297 350
#     4  12  24  42  66  92 120 158 202 240 291 354
#     4  10  21  37  59  87 117 150 193 243 293 346
#     4  10  21  37  58  84 115 153 196 241 291 346
#     4  10  21  38  59  84 116 154 196 241 294 351
#     4  12  24  41  64  91 122 157 197 244 297 353
#     4  10  20  37  62  89 118 153 196 242 293 350
#
# _framework density 18.183282999999999
#
# number of rings (size 3 to 8) (size 9 to 14) (size 15 to 20)
#    0.000    1.333    0.833    5.500    0.000    4.333 
#    1.500    0.000    0.000    0.000    0.000    0.000 
#    0.000    0.000    0.000    0.000    0.000    0.000 
#
# Total GULP energy -268383.967578 kJ/mol
# GULP energy per Si atom -5591.332658 kJ/mol
# Density = 1.814190 g / cm^3
# Si number density = 18.183283 Si / 1000 Ang^3
#
#
#
# Elastic Constant Matrix: (Units=GPa)
#
#
# Indices 1 2 3 4 5 6 
#
# 1 48.4336 7.0958 8.5096 0.0000 0.0000 0.0000
# 2 7.0958 91.1898 57.4459 0.0000 0.0000 0.0000
# 3 8.5096 57.4459 105.0864 0.0000 0.0000 0.0000
# 4 0.0000 0.0000 0.0000 27.5286 0.0000 0.0000
# 5 0.0000 0.0000 0.0000 0.0000 41.4201 0.0000
# 6 0.0000 0.0000 0.0000 0.0000 0.0000 31.0541
#
#
#
# Elastic Compliance Matrix: (Units=1/GPa)
#
#
# Indices 1 2 3 4 5 6 
#
# 1 0.020989 -0.000858 -0.001231 0.000000 0.000000 0.000000
# 2 -0.000858 0.016761 -0.009093 0.000000 0.000000 0.000000
# 3 -0.001231 -0.009093 0.014586 0.000000 0.000000 0.000000
# 4 0.000000 0.000000 0.000000 0.036326 0.000000 0.000000
# 5 0.000000 0.000000 0.000000 0.000000 0.024143 0.000000
# 6 0.000000 0.000000 0.000000 0.000000 0.000000 0.032202
#
#
# Mechanical properties :
#
#
# Convention : Reuss Voigt Hill
#
# Bulk Modulus (GPa) = 33.36338 43.42361 38.39350
# Shear Modulus (GPa) = 28.19106 31.44447 29.81777
#
# Velocity S-wave (km/s) = 3.94176 4.16300 4.05389
# Velocity P-wave (km/s) = 6.25339 6.85860 6.56297
#
# Compressibility (1/GPa) = 0.02997298
#
# Stress axis : x y z
#
# Youngs Moduli (GPa) = 47.64464 59.66167 68.55700
#
# Poissons Ratio (x) = 0.05119 0.08437
# Poissons Ratio (y) = 0.04088 0.62340
# Poissons Ratio (z) = 0.05863 0.54251
#
# Static dielectric constant tensor:
#      x y z
#    x 1.604590 0.000000 0.000000 
#    y 0.000000 1.598310 0.000000 
#    z 0.000000 0.000000 1.590810 
# 
# From -- ./inp_files/32969.got.cif
#   From: 2010.05.17/outbox.cif.g08.bks.cpg/sg59_17_cif.got.tgz:32969.got - 2010.06.03 14:40:33.
