data_PCOD9451262
_publ_section_title
;
Structure prediction by ZEFSAII (Michael W. Deem and Ramdas Pophale) SiO2 
 PCOD9451262
Probable space group: P M M N
;
_chemical_formula_sum "Si O2"
_cell_formula_units_Z 64
_cell_length_a 8.480861
_cell_length_b 19.174216
_cell_length_c 21.707609
_cell_angle_alpha 90.000000
_cell_angle_beta 90.000000
_cell_angle_gamma 90.000000
_cell_volume 3529.958106
_symmetry_space_group_name_H-M "P M M N"
_symmetry_group_IT_number 59
_space_group.IT_coordinate_system_code '2'
_symmetry_cell_setting 'orthorhombic'
loop_
_space_group_symop_operation_xyz
x,y,z
1/2-x,1/2-y,z
1/2+x,-y,-z
-x,1/2+y,-z
-x,-y,-z
1/2+x,1/2+y,-z
1/2-x,y,z
x,1/2-y,z
loop_
_atom_site_type_symbol
_atom_site_label
_atom_site_fract_x
_atom_site_fract_y
_atom_site_fract_z
Si Si1 0.436718 0.533363 0.687805
Si Si2 0.440547 0.170045 0.251290
Si Si3 0.561648 0.032541 0.562828
Si Si4 0.439588 0.078643 0.996879
Si Si5 0.559497 0.399589 0.752357
Si Si6 0.058183 0.328796 0.110334
Si Si7 0.058975 0.668853 0.118280
Si Si8 0.442159 0.828047 0.375693
O O1 0.250000 0.528218 0.683793
O O2 0.487843 0.610644 0.706493
O O3 0.509792 0.511281 0.622474
O O4 0.497270 0.476956 0.738015
O O5 0.250000 0.165965 0.253840
O O6 0.484604 0.250000 0.266374
O O7 0.489895 0.156194 0.180373
O O8 0.750000 0.033666 0.560680
O O9 0.505984 0.111716 0.577223
O O10 0.500000 0.000000 0.500000
O O11 0.250000 0.078466 0.996211
O O12 0.498334 0.121942 0.937875
O O13 0.495734 0.118112 0.058634
O O14 0.500000 0.000000 0.000000
O O15 0.750000 0.402887 0.752833
O O16 0.508553 0.365228 0.816539
O O17 0.512913 0.352824 0.693194
O O18 0.250000 0.329460 0.110412
O O19 0.008767 0.250000 0.094664
O O20 0.250000 0.668312 0.117377
O O21 0.008399 0.750000 0.113566
O O22 0.250000 0.827025 0.376661
O O23 0.498094 0.750000 0.388667
#
# Coordination Sequence:
#
# PCOD9451262 Si02
#       8
#     8   8   8   8   8   8   8   8
#     4  11  22  35  54  82 115 146 179 222 270 325
#     4   9  18  35  59  82 103 134 181 232 280 330
#     4  10  20  36  58  82 111 149 187 225 270 322
#     4  11  23  37  53  76 107 143 185 230 278 334
#     4   9  18  33  55  80 108 143 181 221 269 327
#     4   8  16  33  56  76  95 130 178 225 275 331
#     4  10  21  37  57  81 109 143 183 228 279 334
#     4   8  14  28  53  82 106 133 176 225 267 309
#
# _framework density 18.130526
#
# number of rings (size 3 to 8) (size 9 to 14) (size 15 to 20)
#    0.000    2.500    0.000    4.125    1.750    3.000 
#    0.000    1.250    0.000   16.125    0.000    0.000 
#    0.000    0.000    0.000    0.000    0.000    0.000 
#
# Total GULP energy -357050.185958 kJ/mol
# GULP energy per Si atom -5578.909156 kJ/mol
# Density = 1.808926 g / cm^3
# Si number density = 18.130526 Si / 1000 Ang^3
#
#
#
# Elastic Constant Matrix: (Units=GPa)
#
#
# Indices 1 2 3 4 5 6 
#
# 1 28.9356 31.2925 24.2818 0.0000 0.0000 0.0000
# 2 31.2925 165.1472 97.6289 0.0000 0.0000 0.0000
# 3 24.2818 97.6289 99.1597 0.0000 0.0000 0.0000
# 4 0.0000 0.0000 0.0000 25.7583 0.0000 0.0000
# 5 0.0000 0.0000 0.0000 0.0000 27.4001 0.0000
# 6 0.0000 0.0000 0.0000 0.0000 0.0000 17.1364
#
#
#
# Elastic Compliance Matrix: (Units=1/GPa)
#
#
# Indices 1 2 3 4 5 6 
#
# 1 0.045046 -0.004820 -0.006285 0.000000 0.000000 0.000000
# 2 -0.004820 0.015003 -0.013591 0.000000 0.000000 0.000000
# 3 -0.006285 -0.013591 0.025005 0.000000 0.000000 0.000000
# 4 0.000000 0.000000 0.000000 0.038822 0.000000 0.000000
# 5 0.000000 0.000000 0.000000 0.000000 0.036496 0.000000
# 6 0.000000 0.000000 0.000000 0.000000 0.000000 0.058355
#
#
# Mechanical properties :
#
#
# Convention : Reuss Voigt Hill
#
# Bulk Modulus (GPa) = 28.04110 66.62766 47.33438
# Shear Modulus (GPa) = 17.85657 23.39492 20.62575
#
# Velocity S-wave (km/s) = 3.14170 3.59606 3.37653
# Velocity P-wave (km/s) = 5.35352 7.35329 6.43160
#
# Compressibility (1/GPa) = 0.03566194
#
# Stress axis : x y z
#
# Youngs Moduli (GPa) = 22.19936 66.65271 39.99143
#
# Poissons Ratio (x) = 0.32125 0.25136
# Poissons Ratio (y) = 0.10700 0.54353
# Poissons Ratio (z) = 0.13953 0.90590
#
# Static dielectric constant tensor:
#      x y z
#    x 1.622940 0.000000 0.000000 
#    y 0.000000 1.688140 0.000000 
#    z 0.000000 0.000000 1.604070 
# 
# From -- ./inp_files/29484.got.cif
#   From: 2010.05.17/outbox.cif.g08.bks.cpg/sg59_15_cif.got.tgz:29484.got - 2010.06.03 14:40:33.
