data_PCOD9451362
_publ_section_title
;
Structure prediction by ZEFSAII (Michael W. Deem and Ramdas Pophale) SiO2 
 PCOD9451362
Probable space group: P M M N
;
_chemical_formula_sum "Si O2"
_cell_formula_units_Z 56
_cell_length_a 19.195251
_cell_length_b 8.666405
_cell_length_c 16.820508
_cell_angle_alpha 90.000000
_cell_angle_beta 90.000000
_cell_angle_gamma 90.000000
_cell_volume 2798.155747
_symmetry_space_group_name_H-M "P M M N"
_symmetry_group_IT_number 59
_space_group.IT_coordinate_system_code '2'
_symmetry_cell_setting 'orthorhombic'
loop_
_space_group_symop_operation_xyz
x,y,z
1/2-x,1/2-y,z
1/2+x,-y,-z
-x,1/2+y,-z
-x,-y,-z
1/2+x,1/2+y,-z
1/2-x,y,z
x,1/2-y,z
loop_
_atom_site_type_symbol
_atom_site_label
_atom_site_fract_x
_atom_site_fract_y
_atom_site_fract_z
Si Si1 0.544586 0.934297 0.246463
Si Si2 0.921517 0.563778 0.502392
Si Si3 0.167234 0.071115 0.004631
Si Si4 0.829616 0.937784 0.351481
Si Si5 0.042230 0.569817 0.925919
Si Si6 0.833572 0.426031 0.828800
Si Si7 0.589738 0.566298 0.679162
O O1 0.537212 0.750000 0.252813
O O2 0.622058 0.977454 0.275926
O O3 0.527906 0.987096 0.157410
O O4 0.489337 0.014205 0.304539
O O5 0.926185 0.750000 0.497879
O O6 0.872211 0.511880 0.430112
O O7 0.890912 0.523508 0.589099
O O8 0.000000 0.500000 0.500000
O O9 0.250000 0.048000 0.996557
O O10 0.151197 0.250000 0.987586
O O11 0.147694 0.030887 0.095633
O O12 0.122536 0.963130 0.947993
O O13 0.750000 0.993429 0.348461
O O14 0.826895 0.750000 0.354239
O O15 0.027438 0.750000 0.918767
O O16 0.000000 0.500000 0.000000
O O17 0.750000 0.428344 0.822663
O O18 0.856102 0.250000 0.844785
O O19 0.865697 0.485234 0.747319
O O20 0.595804 0.750000 0.687915
#
# Coordination Sequence:
#
# PCOD9451362 Si02
#       7
#     8   8   8   8   8   8   8
#     4  11  22  38  61  86 116 157 199 247 302 358
#     4  10  20  36  60  87 116 154 197 244 293 349
#     4  10  21  39  62  86 115 152 195 242 296 358
#     4   9  19  37  61  89 119 155 200 247 295 351
#     4  12  25  41  61  87 121 155 199 252 301 359
#     4  10  21  37  57  83 117 155 195 241 295 352
#     4  11  22  35  57  87 119 155 196 242 294 354
#
# _framework density 20.013179999999998
#
# number of rings (size 3 to 8) (size 9 to 14) (size 15 to 20)
#    0.000    1.571    1.429    3.857    0.000    3.429 
#    0.000    2.857    0.000    3.429    0.000    0.000 
#    0.000    0.000    0.000    0.000    0.000    0.000 
#
# Total GULP energy -312950.919721 kJ/mol
# GULP energy per Si atom -5588.409281 kJ/mol
# Density = 1.996763 g / cm^3
# Si number density = 20.013180 Si / 1000 Ang^3
#
#
#
# Elastic Constant Matrix: (Units=GPa)
#
#
# Indices 1 2 3 4 5 6 
#
# 1 57.6416 0.1704 13.6125 0.0000 0.0000 0.0000
# 2 0.1704 20.3060 -5.5845 0.0000 0.0000 0.0000
# 3 13.6125 -5.5845 75.0309 0.0000 0.0000 0.0000
# 4 0.0000 0.0000 0.0000 22.1741 0.0000 0.0000
# 5 0.0000 0.0000 0.0000 0.0000 35.2002 0.0000
# 6 0.0000 0.0000 0.0000 0.0000 0.0000 27.6871
#
#
#
# Elastic Compliance Matrix: (Units=1/GPa)
#
#
# Indices 1 2 3 4 5 6 
#
# 1 0.018148 -0.001080 -0.003373 0.000000 0.000000 0.000000
# 2 -0.001080 0.050340 0.003943 0.000000 0.000000 0.000000
# 3 -0.003373 0.003943 0.014233 0.000000 0.000000 0.000000
# 4 0.000000 0.000000 0.000000 0.045098 0.000000 0.000000
# 5 0.000000 0.000000 0.000000 0.000000 0.028409 0.000000
# 6 0.000000 0.000000 0.000000 0.000000 0.000000 0.036118
#
#
# Mechanical properties :
#
#
# Convention : Reuss Voigt Hill
#
# Bulk Modulus (GPa) = 12.23973 18.81947 15.52960
# Shear Modulus (GPa) = 22.66546 26.66428 24.66487
#
# Velocity S-wave (km/s) = 3.36895 3.65408 3.51441
# Velocity P-wave (km/s) = 4.61110 5.21795 4.92388
#
# Compressibility (1/GPa) = 0.08170114
#
# Stress axis : x y z
#
# Youngs Moduli (GPa) = 55.10154 19.86495 70.25813
#
# Poissons Ratio (x) = 0.02145 0.23698
# Poissons Ratio (y) = 0.05950 -0.27700
# Poissons Ratio (z) = 0.18585 -0.07832
#
# Static dielectric constant tensor:
#      x y z
#    x 1.731970 0.000000 0.000000 
#    y 0.000000 1.688290 0.000000 
#    z 0.000000 0.000000 1.705430 
# 
# From -- ./inp_files/24249.got.cif
#   From: 2010.05.17/outbox.cif.g08.bks.cpg/sg59_13_cif.got.tgz:24249.got - 2010.06.03 14:40:33.
