data_PCOD9451429
_publ_section_title
;
Structure prediction by ZEFSAII (Michael W. Deem and Ramdas Pophale) SiO2 
 PCOD9451429
Probable space group: P M M N
;
_chemical_formula_sum "Si O2"
_cell_formula_units_Z 56
_cell_length_a 7.792722
_cell_length_b 16.324804
_cell_length_c 20.505581
_cell_angle_alpha 90.000000
_cell_angle_beta 90.000000
_cell_angle_gamma 90.000000
_cell_volume 2608.610500
_symmetry_space_group_name_H-M "P M M N"
_symmetry_group_IT_number 59
_space_group.IT_coordinate_system_code '2'
_symmetry_cell_setting 'orthorhombic'
loop_
_space_group_symop_operation_xyz
x,y,z
1/2-x,1/2-y,z
1/2+x,-y,-z
-x,1/2+y,-z
-x,-y,-z
1/2+x,1/2+y,-z
1/2-x,y,z
x,1/2-y,z
loop_
_atom_site_type_symbol
_atom_site_label
_atom_site_fract_x
_atom_site_fract_y
_atom_site_fract_z
Si Si1 0.455743 0.157896 0.328489
Si Si2 0.542922 0.929734 0.945989
Si Si3 0.540637 0.941276 0.795797
Si Si4 0.053026 0.163646 0.619893
Si Si5 0.454750 0.508999 0.575797
Si Si6 0.959364 0.750000 0.992437
Si Si7 0.451063 0.879257 0.244381
Si Si8 0.044432 0.250000 0.858551
O O1 0.250000 0.162563 0.323745
O O2 0.520019 0.250000 0.343251
O O3 0.517279 0.126451 0.256979
O O4 0.488992 0.089372 0.384102
O O5 0.750000 0.928771 0.944537
O O6 0.482497 0.942513 0.871134
O O7 0.483753 0.837539 0.964033
O O8 0.500000 0.000000 0.000000
O O9 0.750000 0.937344 0.798006
O O10 0.492383 0.027980 0.764618
O O11 0.250000 0.162727 0.595879
O O12 0.974253 0.250000 0.597117
O O13 0.052208 0.163022 0.697822
O O14 0.971534 0.076380 0.603837
O O15 0.500000 0.500000 0.500000
O O16 0.250000 0.508349 0.583063
O O17 0.750000 0.750000 0.987854
O O18 0.010654 0.750000 0.067431
O O19 0.250000 0.876825 0.261122
O O20 0.477304 0.829475 0.178513
O O21 0.250000 0.250000 0.856058
#
# Coordination Sequence:
#
# PCOD9451429 Si02
#       8
#     8   8   8   8   8   4   8   4
#     4  10  21  39  64  92 121 158 203 251 301 356
#     4  10  20  37  57  81 113 153 200 248 298 355
#     4   9  19  34  57  86 115 147 193 250 300 347
#     4  10  21  38  59  85 116 151 190 232 282 341
#     4  11  24  42  65  92 125 162 196 239 291 348
#     4   9  20  35  55  79 109 152 199 240 287 353
#     4  11  20  32  53  83 113 145 187 238 294 346
#     4  11  21  33  49  77 115 152 193 238 291 355
#
# _framework density 21.467369000000001
#
# number of rings (size 3 to 8) (size 9 to 14) (size 15 to 20)
#    0.000    1.857    2.143    1.929    1.000    1.429 
#    0.000    3.929    0.000    0.000    0.000    0.000 
#    0.000    0.000    0.000    0.000    0.000    0.000 
#
# Total GULP energy -312303.084005 kJ/mol
# GULP energy per Si atom -5576.840786 kJ/mol
# Density = 2.141851 g / cm^3
# Si number density = 21.467369 Si / 1000 Ang^3
#
#
#
# Elastic Constant Matrix: (Units=GPa)
#
#
# Indices 1 2 3 4 5 6 
#
# 1 39.3193 12.6388 -0.2741 0.0000 0.0000 0.0000
# 2 12.6388 213.3756 81.3584 0.0000 0.0000 0.0000
# 3 -0.2741 81.3584 125.8823 0.0000 0.0000 0.0000
# 4 0.0000 0.0000 0.0000 27.9602 0.0000 0.0000
# 5 0.0000 0.0000 0.0000 0.0000 19.9055 0.0000
# 6 0.0000 0.0000 0.0000 0.0000 0.0000 20.2658
#
#
#
# Elastic Compliance Matrix: (Units=1/GPa)
#
#
# Indices 1 2 3 4 5 6 
#
# 1 0.026112 -0.002081 0.001402 0.000000 0.000000 0.000000
# 2 -0.002081 0.006385 -0.004131 0.000000 0.000000 0.000000
# 3 0.001402 -0.004131 0.010617 0.000000 0.000000 0.000000
# 4 0.000000 0.000000 0.000000 0.035765 0.000000 0.000000
# 5 0.000000 0.000000 0.000000 0.000000 0.050237 0.000000
# 6 0.000000 0.000000 0.000000 0.000000 0.000000 0.049344
#
#
# Mechanical properties :
#
#
# Convention : Reuss Voigt Hill
#
# Bulk Modulus (GPa) = 29.85727 62.89149 46.37438
# Shear Modulus (GPa) = 25.09466 32.61657 28.85562
#
# Velocity S-wave (km/s) = 3.42273 3.90212 3.67026
# Velocity P-wave (km/s) = 5.43677 7.04713 6.29367
#
# Compressibility (1/GPa) = 0.03349268
#
# Stress axis : x y z
#
# Youngs Moduli (GPa) = 38.29717 156.61587 94.18851
#
# Poissons Ratio (x) = 0.32595 -0.13205
# Poissons Ratio (y) = 0.07970 0.38911
# Poissons Ratio (z) = -0.05369 0.64701
#
# Static dielectric constant tensor:
#      x y z
#    x 1.804070 0.000000 0.000000 
#    y 0.000000 1.821960 0.000000 
#    z 0.000000 0.000000 1.830400 
# 
# From -- ./inp_files/29256.got.cif
#   From: 2010.05.17/outbox.cif.g08.bks.cpg/sg59_15_cif.got.tgz:29256.got - 2010.06.03 14:40:33.
