data_PCOD9451190
_publ_section_title
;
Structure prediction by ZEFSAII (Michael W. Deem and Ramdas Pophale) SiO2 
 PCOD9451190
Probable space group: P M M N
;
_chemical_formula_sum "Si O2"
_cell_formula_units_Z 48
_cell_length_a 8.742668
_cell_length_b 9.055177
_cell_length_c 32.644207
_cell_angle_alpha 90.000000
_cell_angle_beta 90.000000
_cell_angle_gamma 90.000000
_cell_volume 2584.324551
_symmetry_space_group_name_H-M "P M M N"
_symmetry_group_IT_number 59
_space_group.IT_coordinate_system_code '2'
_symmetry_cell_setting 'orthorhombic'
loop_
_space_group_symop_operation_xyz
x,y,z
1/2-x,1/2-y,z
1/2+x,-y,-z
-x,1/2+y,-z
-x,-y,-z
1/2+x,1/2+y,-z
1/2-x,y,z
x,1/2-y,z
loop_
_atom_site_type_symbol
_atom_site_label
_atom_site_fract_x
_atom_site_fract_y
_atom_site_fract_z
Si Si1 0.567232 0.960438 0.902241
Si Si2 0.571416 0.574321 0.539984
Si Si3 0.432054 0.750000 0.836458
Si Si4 0.934781 0.750000 0.974755
Si Si5 0.927739 0.579055 0.382409
Si Si6 0.931875 0.750000 0.067736
Si Si7 0.932581 0.073163 0.707068
Si Si8 0.934604 0.250000 0.259957
O O1 0.750000 0.956415 0.900765
O O2 0.502674 0.884278 0.862002
O O3 0.519557 0.883847 0.945319
O O4 0.494879 0.116091 0.906941
O O5 0.500000 0.500000 0.500000
O O6 0.750000 0.534184 0.542912
O O7 0.558992 0.750000 0.536178
O O8 0.487701 0.520711 0.580939
O O9 0.250000 0.750000 0.841195
O O10 0.467543 0.750000 0.788716
O O11 0.750000 0.750000 0.977307
O O12 0.994097 0.750000 0.020815
O O13 0.750000 0.546760 0.373078
O O14 0.937550 0.750000 0.395941
O O15 0.024136 0.564528 0.340895
O O16 0.750000 0.750000 0.065455
O O17 0.750000 0.066715 0.713595
O O18 0.978458 0.250000 0.719037
O O19 0.002370 0.914347 0.724642
O O20 0.750000 0.250000 0.266875
#
# Coordination Sequence:
#
# PCOD9451190 Si02
#       8
#     8   8   4   4   8   4   8   4
#     4  10  20  36  56  80 112 150 193 242 293 350
#     4  11  24  39  56  81 114 154 201 249 298 355
#     4  10  22  42  62  84 112 152 196 240 299 361
#     4   8  17  32  52  78 110 148 192 240 291 345
#     4  10  21  38  61  88 120 156 195 243 298 357
#     4  11  20  32  52  82 116 152 194 241 291 348
#     4  10  22  41  66  97 130 164 204 253 308 370
#     4  11  24  42  68  96 126 164 204 255 315 376
#
# _framework density 18.573516999999999
#
# number of rings (size 3 to 8) (size 9 to 14) (size 15 to 20)
#    0.000    1.833    0.000    4.250    1.167    6.667 
#    1.500    4.167    0.000    0.000    0.000    0.000 
#    0.000    0.000    0.000    0.000    0.000    0.000 
#
# Total GULP energy -267265.420692 kJ/mol
# GULP energy per Si atom -5568.029598 kJ/mol
# Density = 1.853124 g / cm^3
# Si number density = 18.573517 Si / 1000 Ang^3
#
#
#
# Elastic Constant Matrix: (Units=GPa)
#
#
# Indices 1 2 3 4 5 6 
#
# 1 59.7144 47.6229 36.9284 0.0000 0.0000 0.0000
# 2 47.6229 137.9900 57.4107 0.0000 0.0000 0.0000
# 3 36.9284 57.4107 98.1795 0.0000 0.0000 0.0000
# 4 0.0000 0.0000 0.0000 148.9495 0.0000 0.0000
# 5 0.0000 0.0000 0.0000 0.0000 29.5537 0.0000
# 6 0.0000 0.0000 0.0000 0.0000 0.0000 69.6983
#
#
#
# Elastic Compliance Matrix: (Units=1/GPa)
#
#
# Indices 1 2 3 4 5 6 
#
# 1 0.025422 -0.006337 -0.005856 0.000000 0.000000 0.000000
# 2 -0.006337 0.011156 -0.004140 0.000000 0.000000 0.000000
# 3 -0.005856 -0.004140 0.014809 0.000000 0.000000 0.000000
# 4 0.000000 0.000000 0.000000 0.006714 0.000000 0.000000
# 5 0.000000 0.000000 0.000000 0.000000 0.033837 0.000000
# 6 0.000000 0.000000 0.000000 0.000000 0.000000 0.014348
#
#
# Mechanical properties :
#
#
# Convention : Reuss Voigt Hill
#
# Bulk Modulus (GPa) = 53.41791 64.42310 58.92050
# Shear Modulus (GPa) = 34.43695 59.90177 47.16936
#
# Velocity S-wave (km/s) = 4.31058 5.68517 5.04491
# Velocity P-wave (km/s) = 7.32103 8.82359 8.10719
#
# Compressibility (1/GPa) = 0.01872031
#
# Stress axis : x y z
#
# Youngs Moduli (GPa) = 39.33614 89.63411 67.52565
#
# Poissons Ratio (x) = 0.56801 0.39546
# Poissons Ratio (y) = 0.24927 0.27957
# Poissons Ratio (z) = 0.23037 0.37110
#
# Static dielectric constant tensor:
#      x y z
#    x 1.633550 0.000000 0.000000 
#    y 0.000000 1.672330 0.000000 
#    z 0.000000 0.000000 1.596800 
# 
# From -- ./inp_files/33112.got.cif
#   From: 2010.05.17/outbox.cif.g08.bks.cpg/sg59_17_cif.got.tgz:33112.got - 2010.06.03 14:40:33.
