data_PCOD9451060
_publ_section_title
;
Structure prediction by ZEFSAII (Michael W. Deem and Ramdas Pophale) SiO2 
 PCOD9451060
Probable space group: P M M N
;
_chemical_formula_sum "Si O2"
_cell_formula_units_Z 40
_cell_length_a 31.798719
_cell_length_b 7.600550
_cell_length_c 7.220850
_cell_angle_alpha 90.000000
_cell_angle_beta 90.000000
_cell_angle_gamma 90.000000
_cell_volume 1745.191016
_symmetry_space_group_name_H-M "P M M N"
_symmetry_group_IT_number 59
_space_group.IT_coordinate_system_code '2'
_symmetry_cell_setting 'orthorhombic'
loop_
_space_group_symop_operation_xyz
x,y,z
1/2-x,1/2-y,z
1/2+x,-y,-z
-x,1/2+y,-z
-x,-y,-z
1/2+x,1/2+y,-z
1/2-x,y,z
x,1/2-y,z
loop_
_atom_site_type_symbol
_atom_site_label
_atom_site_fract_x
_atom_site_fract_y
_atom_site_fract_z
Si Si1 0.453703 0.053874 0.940510
Si Si2 0.614135 0.042482 0.771653
Si Si3 0.204829 0.043507 0.697900
Si Si4 0.294940 0.536371 0.260477
Si Si5 0.613710 0.964768 0.336972
O O1 0.459501 0.250000 0.870337
O O2 0.422902 0.047867 0.116685
O O3 0.425732 0.965187 0.780105
O O4 0.500000 0.000000 0.000000
O O5 0.611502 0.250000 0.810887
O O6 0.661008 0.975938 0.824142
O O7 0.610158 0.015895 0.551372
O O8 0.250000 0.965000 0.758824
O O9 0.205381 0.250000 0.745653
O O10 0.158679 0.970131 0.744715
O O11 0.204922 0.025908 0.473668
O O12 0.250000 0.479424 0.179330
O O13 0.295915 0.750000 0.262179
O O14 0.615471 0.750000 0.329018
#
# Coordination Sequence:
#
# PCOD9451060 Si02
#       5
#     8   8   8   8   8
#     4  11  24  41  59  79 106 140 181 231 281 330
#     4  10  20  35  58  85 112 144 180 220 268 320
#     4   8  13  24  46  75 105 136 170 209 254 306
#     4   8  14  26  46  74 108 143 176 209 249 304
#     4   9  19  36  57  81 109 142 179 219 265 317
#
# _framework density 22.920128999999999
#
# number of rings (size 3 to 8) (size 9 to 14) (size 15 to 20)
#    0.000    2.800    0.000    1.200    0.000    3.200 
#    0.000    1.000    0.000    1.200    0.000    5.600 
#    0.000    0.000    0.000    0.000    0.000    0.000 
#
# Total GULP energy -223046.951636 kJ/mol
# GULP energy per Si atom -5576.173791 kJ/mol
# Density = 2.286796 g / cm^3
# Si number density = 22.920129 Si / 1000 Ang^3
#
#
#
# Elastic Constant Matrix: (Units=GPa)
#
#
# Indices 1 2 3 4 5 6 
#
# 1 185.7449 1.6721 19.4107 0.0000 0.0000 0.0000
# 2 1.6721 59.0359 -20.9420 0.0000 0.0000 0.0000
# 3 19.4107 -20.9420 79.1940 0.0000 0.0000 0.0000
# 4 0.0000 0.0000 0.0000 -5.1977 0.0000 0.0000
# 5 0.0000 0.0000 0.0000 0.0000 28.1587 0.0000
# 6 0.0000 0.0000 0.0000 0.0000 0.0000 -245.6855
#
#
#
# Elastic Compliance Matrix: (Units=1/GPa)
#
#
# Indices 1 2 3 4 5 6 
#
# 1 0.005552 -0.000706 -0.001548 0.000000 0.000000 0.000000
# 2 -0.000706 0.018782 0.005140 0.000000 0.000000 0.000000
# 3 -0.001548 0.005140 0.014366 0.000000 0.000000 0.000000
# 4 0.000000 0.000000 0.000000 -0.192392 0.000000 0.000000
# 5 0.000000 0.000000 0.000000 0.000000 0.035513 0.000000
# 6 0.000000 0.000000 0.000000 0.000000 0.000000 -0.004070
#
#
# Mechanical properties :
#
#
# Convention : Reuss Voigt Hill
#
# Bulk Modulus (GPa) = 22.48614 36.02848 29.25731
# Shear Modulus (GPa) = -44.17025 -22.95596 -33.56311
#
# Velocity S-wave (km/s) = -4.39468 -3.16818 -3.83083
# Velocity P-wave (km/s) = 3.98986 1.53951 2.60278
#
# Compressibility (1/GPa) = 0.04447185
#
# Stress axis : x y z
#
# Youngs Moduli (GPa) = 180.12161 53.24213 69.61026
#
# Poissons Ratio (x) = 0.03760 0.10772
# Poissons Ratio (y) = 0.12720 -0.35778
# Poissons Ratio (z) = 0.27874 -0.27366
#
# Static dielectric constant tensor:
#      x y z
#    x 1.938600 0.000000 0.000000 
#    y 0.000000 1.903330 0.000000 
#    z 0.000000 0.000000 1.877310 
# 
# From -- ./inp_files/6035.got.cif
#   From: 2010.05.17/outbox.cif.g08.bks.cpg/sg59_4_cif.got.tgz:6035.got - 2010.06.03 14:40:33.
