data_PCOD9451438
_publ_section_title
;
Structure prediction by ZEFSAII (Michael W. Deem and Ramdas Pophale) SiO2 
 PCOD9451438
Probable space group: P M M N
;
_chemical_formula_sum "Si O2"
_cell_formula_units_Z 48
_cell_length_a 8.379894
_cell_length_b 29.675486
_cell_length_c 10.252562
_cell_angle_alpha 90.000000
_cell_angle_beta 90.000000
_cell_angle_gamma 90.000000
_cell_volume 2549.580739
_symmetry_space_group_name_H-M "P M M N"
_symmetry_group_IT_number 59
_space_group.IT_coordinate_system_code '2'
_symmetry_cell_setting 'orthorhombic'
loop_
_space_group_symop_operation_xyz
x,y,z
1/2-x,1/2-y,z
1/2+x,-y,-z
-x,1/2+y,-z
-x,-y,-z
1/2+x,1/2+y,-z
1/2-x,y,z
x,1/2-y,z
loop_
_atom_site_type_symbol
_atom_site_label
_atom_site_fract_x
_atom_site_fract_y
_atom_site_fract_z
Si Si1 0.444885 0.372438 0.486949
Si Si2 0.941310 0.878060 0.212127
Si Si3 0.558539 0.476862 0.868380
Si Si4 0.557509 0.531253 0.616424
Si Si5 0.442923 0.198215 0.272584
Si Si6 0.059024 0.697815 0.013952
O O1 0.250000 0.371903 0.490076
O O2 0.498036 0.372247 0.637591
O O3 0.496253 0.418332 0.415643
O O4 0.496786 0.331538 0.394763
O O5 0.750000 0.878990 0.213788
O O6 0.999526 0.925979 0.155809
O O7 0.995796 0.836712 0.121775
O O8 0.750000 0.475886 0.867802
O O9 0.501428 0.508651 0.749809
O O10 0.500000 0.500000 0.000000
O O11 0.500000 0.500000 0.500000
O O12 0.750000 0.531876 0.618998
O O13 0.250000 0.196569 0.268306
O O14 0.492903 0.250000 0.289361
O O15 0.504553 0.183088 0.130948
O O16 0.250000 0.697848 0.018368
O O17 0.003641 0.750000 0.033110
#
# Coordination Sequence:
#
# PCOD9451438 Si02
#       6
#     8   8   8   8   8   8
#     4   9  19  35  57  85 114 146 187 237 286 336
#     4  11  22  38  61  86 116 152 193 240 288 343
#     4  11  24  39  58  86 119 156 196 239 287 341
#     4  10  20  37  58  81 113 152 191 232 281 337
#     4   9  18  35  60  87 113 145 188 236 286 343
#     4  10  22  40  59  83 118 154 190 237 289 343
#
# _framework density 18.826625
#
# number of rings (size 3 to 8) (size 9 to 14) (size 15 to 20)
#    0.000    2.000    1.667    1.500    2.333    2.333 
#    0.000    4.167    0.000    2.000    0.000    0.000 
#    0.000    0.000    0.000    0.000    0.000    0.000 
#
# Total GULP energy -267949.625174 kJ/mol
# GULP energy per Si atom -5582.283858 kJ/mol
# Density = 1.878377 g / cm^3
# Si number density = 18.826625 Si / 1000 Ang^3
#
#
#
# Elastic Constant Matrix: (Units=GPa)
#
#
# Indices 1 2 3 4 5 6 
#
# 1 23.1967 21.1543 25.5240 0.0000 0.0000 0.0000
# 2 21.1543 133.8907 113.4234 0.0000 0.0000 0.0000
# 3 25.5240 113.4234 198.4454 0.0000 0.0000 0.0000
# 4 0.0000 0.0000 0.0000 43.2394 0.0000 0.0000
# 5 0.0000 0.0000 0.0000 0.0000 15.9227 0.0000
# 6 0.0000 0.0000 0.0000 0.0000 0.0000 22.6847
#
#
#
# Elastic Compliance Matrix: (Units=1/GPa)
#
#
# Indices 1 2 3 4 5 6 
#
# 1 0.051841 -0.004929 -0.003851 0.000000 0.000000 0.000000
# 2 -0.004929 0.014948 -0.007910 0.000000 0.000000 0.000000
# 3 -0.003851 -0.007910 0.010055 0.000000 0.000000 0.000000
# 4 0.000000 0.000000 0.000000 0.023127 0.000000 0.000000
# 5 0.000000 0.000000 0.000000 0.000000 0.062803 0.000000
# 6 0.000000 0.000000 0.000000 0.000000 0.000000 0.044083
#
#
# Mechanical properties :
#
#
# Convention : Reuss Voigt Hill
#
# Bulk Modulus (GPa) = 23.00630 75.08181 49.04406
# Shear Modulus (GPa) = 19.62898 29.39810 24.51354
#
# Velocity S-wave (km/s) = 3.23246 3.95589 3.61233
# Velocity P-wave (km/s) = 5.11648 7.79953 6.59587
#
# Compressibility (1/GPa) = 0.04346635
#
# Stress axis : x y z
#
# Youngs Moduli (GPa) = 19.28963 66.89763 99.44883
#
# Poissons Ratio (x) = 0.32971 0.38296
# Poissons Ratio (y) = 0.09507 0.78663
# Poissons Ratio (z) = 0.07428 0.52915
#
# Static dielectric constant tensor:
#      x y z
#    x 1.644230 0.000000 0.000000 
#    y 0.000000 1.639550 0.000000 
#    z 0.000000 0.000000 1.612900 
# 
# From -- ./inp_files/6242.got.cif
#   From: 2010.05.17/outbox.cif.g08.bks.cpg/sg59_4_cif.got.tgz:6242.got - 2010.06.03 14:40:33.
