data_PCOD9451421
_publ_section_title
;
Structure prediction by ZEFSAII (Michael W. Deem and Ramdas Pophale) SiO2 
 PCOD9451421
Probable space group: P M M N
;
_chemical_formula_sum "Si O2"
_cell_formula_units_Z 56
_cell_length_a 26.212287
_cell_length_b 22.959780
_cell_length_c 5.074762
_cell_angle_alpha 90.000000
_cell_angle_beta 90.000000
_cell_angle_gamma 90.000000
_cell_volume 3054.135605
_symmetry_space_group_name_H-M "P M M N"
_symmetry_group_IT_number 59
_space_group.IT_coordinate_system_code '2'
_symmetry_cell_setting 'orthorhombic'
loop_
_space_group_symop_operation_xyz
x,y,z
1/2-x,1/2-y,z
1/2+x,-y,-z
-x,1/2+y,-z
-x,-y,-z
1/2+x,1/2+y,-z
1/2-x,y,z
x,1/2-y,z
loop_
_atom_site_type_symbol
_atom_site_label
_atom_site_fract_x
_atom_site_fract_y
_atom_site_fract_z
Si Si1 0.307771 0.957325 0.326699
Si Si2 0.408271 0.481333 0.497346
Si Si3 0.458773 0.904481 0.369971
Si Si4 0.192263 0.622291 0.827900
Si Si5 0.899842 0.314235 0.932822
Si Si6 0.007231 0.315680 0.243940
Si Si7 0.549452 0.918590 0.016419
O O1 0.250000 0.980965 0.341085
O O2 0.310249 0.904523 0.537450
O O3 0.351315 0.002210 0.410298
O O4 0.315534 0.930723 0.035898
O O5 0.437585 0.542780 0.543014
O O6 0.435954 0.451817 0.248929
O O7 0.413881 0.440917 0.751851
O O8 0.411611 0.866051 0.269518
O O9 0.495649 0.858966 0.515498
O O10 0.492409 0.929844 0.130361
O O11 0.250000 0.644666 0.872592
O O12 0.148444 0.668452 0.891724
O O13 0.893103 0.250000 0.812033
O O14 0.952264 0.312622 0.099258
O O15 0.021921 0.250000 0.315287
O O16 0.046816 0.350109 0.058666
#
# Coordination Sequence:
#
# PCOD9451421 Si02
#       7
#     8   8   8   8   8   8   8
#     4  10  21  37  58  80 107 145 181 221 282 340
#     4  12  22  35  58  82 116 140 181 231 279 330
#     4  11  21  35  56  77 114 150 187 226 278 330
#     4  10  20  37  55  76 104 142 191 238 283 322
#     4  10  21  34  52  78 105 148 200 239 278 321
#     4  10  22  39  56  77 113 152 189 226 269 332
#     4  11  24  36  54  86 110 146 181 226 276 327
#
# _framework density 18.335794
#
# number of rings (size 3 to 8) (size 9 to 14) (size 15 to 20)
#    0.000    1.429    2.857    3.000    4.000    0.857 
#    0.000    0.000    0.000    2.571    0.000    0.000 
#    0.000    3.429    0.000    0.000    0.000    0.000 
#
# Total GULP energy -312621.920853 kJ/mol
# GULP energy per Si atom -5582.534301 kJ/mol
# Density = 1.829406 g / cm^3
# Si number density = 18.335794 Si / 1000 Ang^3
#
#
#
# Elastic Constant Matrix: (Units=GPa)
#
#
# Indices 1 2 3 4 5 6 
#
# 1 57.5760 43.9051 -4.6037 0.0000 0.0000 0.0000
# 2 43.9051 87.0215 21.0273 0.0000 0.0000 0.0000
# 3 -4.6037 21.0273 65.0320 0.0000 0.0000 0.0000
# 4 0.0000 0.0000 0.0000 16.5513 0.0000 0.0000
# 5 0.0000 0.0000 0.0000 0.0000 20.4576 0.0000
# 6 0.0000 0.0000 0.0000 0.0000 0.0000 14.1229
#
#
#
# Elastic Compliance Matrix: (Units=1/GPa)
#
#
# Indices 1 2 3 4 5 6 
#
# 1 0.031681 -0.017927 0.008039 0.000000 0.000000 0.000000
# 2 -0.017927 0.022609 -0.008579 0.000000 0.000000 0.000000
# 3 0.008039 -0.008579 0.018720 0.000000 0.000000 0.000000
# 4 0.000000 0.000000 0.000000 0.060418 0.000000 0.000000
# 5 0.000000 0.000000 0.000000 0.000000 0.048882 0.000000
# 6 0.000000 0.000000 0.000000 0.000000 0.000000 0.070807
#
#
# Mechanical properties :
#
#
# Convention : Reuss Voigt Hill
#
# Bulk Modulus (GPa) = 27.71884 36.69854 32.20869
# Shear Modulus (GPa) = 16.55207 20.17975 18.36591
#
# Velocity S-wave (km/s) = 3.00779 3.32108 3.16831
# Velocity P-wave (km/s) = 5.21656 5.89612 5.56672
#
# Compressibility (1/GPa) = 0.03607655
#
# Stress axis : x y z
#
# Youngs Moduli (GPa) = 31.56437 44.23000 53.41826
#
# Poissons Ratio (x) = 0.79290 -0.42944
# Poissons Ratio (y) = 0.56585 0.45830
# Poissons Ratio (z) = -0.25375 0.37947
#
# Static dielectric constant tensor:
#      x y z
#    x 1.643190 0.000000 0.000000 
#    y 0.000000 1.652300 0.000000 
#    z 0.000000 0.000000 1.691150 
# 
# From -- ./inp_files/4296.got.cif
#   From: 2010.05.17/outbox.cif.g08.bks.cpg/sg59_3_cif.got.tgz:4296.got - 2010.06.03 14:40:33.
