data_PCOD9451454
_publ_section_title
;
Structure prediction by ZEFSAII (Michael W. Deem and Ramdas Pophale) SiO2 
 PCOD9451454
Probable space group: P M M N
;
_chemical_formula_sum "Si O2"
_cell_formula_units_Z 56
_cell_length_a 8.379891
_cell_length_b 14.829551
_cell_length_c 24.430027
_cell_angle_alpha 90.000000
_cell_angle_beta 90.000000
_cell_angle_gamma 90.000000
_cell_volume 3035.919967
_symmetry_space_group_name_H-M "P M M N"
_symmetry_group_IT_number 59
_space_group.IT_coordinate_system_code '2'
_symmetry_cell_setting 'orthorhombic'
loop_
_space_group_symop_operation_xyz
x,y,z
1/2-x,1/2-y,z
1/2+x,-y,-z
-x,1/2+y,-z
-x,-y,-z
1/2+x,1/2+y,-z
1/2-x,y,z
x,1/2-y,z
loop_
_atom_site_type_symbol
_atom_site_label
_atom_site_fract_x
_atom_site_fract_y
_atom_site_fract_z
Si Si1 0.941725 0.750000 0.030925
Si Si2 0.443898 0.147312 0.474079
Si Si3 0.057298 0.352101 0.599514
Si Si4 0.942870 0.930565 0.845354
Si Si5 0.558808 0.053145 0.945296
Si Si6 0.556181 0.750000 0.905574
Si Si7 0.940982 0.538700 0.630110
Si Si8 0.940564 0.354083 0.265070
O O1 0.750000 0.750000 0.032502
O O2 0.003655 0.843663 0.054766
O O3 0.996439 0.750000 0.967792
O O4 0.250000 0.143410 0.475087
O O5 0.487293 0.250000 0.458703
O O6 0.497475 0.132165 0.536456
O O7 0.501296 0.078492 0.428094
O O8 0.250000 0.353470 0.599818
O O9 0.007907 0.250000 0.615097
O O10 0.995809 0.435303 0.634888
O O11 0.750000 0.933134 0.842980
O O12 0.996368 0.838402 0.874488
O O13 0.004396 0.919801 0.783954
O O14 0.995050 0.006890 0.888343
O O15 0.750000 0.047995 0.947055
O O16 0.500000 0.000000 0.000000
O O17 0.750000 0.750000 0.906013
O O18 0.750000 0.541326 0.629832
O O19 0.001185 0.602966 0.678294
O O20 0.750000 0.350609 0.264951
O O21 0.000333 0.250000 0.257861
#
# Coordination Sequence:
#
# PCOD9451454 Si02
#       8
#     4   8   8   8   8   4   8   8
#     4  11  21  37  57  85 121 155 189 230 277 330
#     4   8  15  29  50  78 110 143 179 216 264 326
#     4   9  18  34  55  77 106 144 182 226 274 320
#     4  10  20  37  59  81 111 148 186 226 273 329
#     4  11  22  36  57  87 119 153 189 230 280 335
#     4   9  16  31  55  83 113 147 183 220 265 322
#     4  11  21  33  54  81 110 145 182 223 271 326
#     4  11  24  39  56  82 112 142 181 228 275 325
#
# _framework density 18.445809000000001
#
# number of rings (size 3 to 8) (size 9 to 14) (size 15 to 20)
#    0.000    2.000    2.143    3.214    0.000    2.857 
#    0.000    0.714    1.571    1.714    0.000    0.000 
#    0.000    0.000    0.000    0.000    0.000    0.000 
#
# Total GULP energy -312386.685647 kJ/mol
# GULP energy per Si atom -5578.333672 kJ/mol
# Density = 1.840383 g / cm^3
# Si number density = 18.445809 Si / 1000 Ang^3
#
#
#
# Elastic Constant Matrix: (Units=GPa)
#
#
# Indices 1 2 3 4 5 6 
#
# 1 29.0911 16.3773 12.7117 0.0000 0.0000 0.0000
# 2 16.3773 115.5368 40.3960 0.0000 0.0000 0.0000
# 3 12.7117 40.3960 58.3341 0.0000 0.0000 0.0000
# 4 0.0000 0.0000 0.0000 31.7155 0.0000 0.0000
# 5 0.0000 0.0000 0.0000 0.0000 21.0201 0.0000
# 6 0.0000 0.0000 0.0000 0.0000 0.0000 18.6271
#
#
#
# Elastic Compliance Matrix: (Units=1/GPa)
#
#
# Indices 1 2 3 4 5 6 
#
# 1 0.038962 -0.003370 -0.006156 0.000000 0.000000 0.000000
# 2 -0.003370 0.011712 -0.007376 0.000000 0.000000 0.000000
# 3 -0.006156 -0.007376 0.023592 0.000000 0.000000 0.000000
# 4 0.000000 0.000000 0.000000 0.031530 0.000000 0.000000
# 5 0.000000 0.000000 0.000000 0.000000 0.047574 0.000000
# 6 0.000000 0.000000 0.000000 0.000000 0.000000 0.053685
#
#
# Mechanical properties :
#
#
# Convention : Reuss Voigt Hill
#
# Bulk Modulus (GPa) = 24.71530 37.99244 31.35387
# Shear Modulus (GPa) = 19.65812 23.17100 21.41456
#
# Velocity S-wave (km/s) = 3.26808 3.54809 3.41096
# Velocity P-wave (km/s) = 5.26008 6.11774 5.70505
#
# Compressibility (1/GPa) = 0.04046077
#
# Stress axis : x y z
#
# Youngs Moduli (GPa) = 25.66582 85.38301 42.38722
#
# Poissons Ratio (x) = 0.28778 0.26095
# Poissons Ratio (y) = 0.08650 0.31265
# Poissons Ratio (z) = 0.15801 0.62978
#
# Static dielectric constant tensor:
#      x y z
#    x 1.638670 0.000000 0.000000 
#    y 0.000000 1.650500 0.000000 
#    z 0.000000 0.000000 1.640530 
# 
# From -- ./inp_files/29193.got.cif
#   From: 2010.05.17/outbox.cif.g08.bks.cpg/sg59_15_cif.got.tgz:29193.got - 2010.06.03 14:40:33.
