data_PCOD9451453
_publ_section_title
;
Structure prediction by ZEFSAII (Michael W. Deem and Ramdas Pophale) SiO2 
 PCOD9451453
Probable space group: P M M N
;
_chemical_formula_sum "Si O2"
_cell_formula_units_Z 36
_cell_length_a 14.089417
_cell_length_b 9.631836
_cell_length_c 15.655409
_cell_angle_alpha 90.000000
_cell_angle_beta 90.000000
_cell_angle_gamma 90.000000
_cell_volume 2124.547867
_symmetry_space_group_name_H-M "P M M N"
_symmetry_group_IT_number 59
_space_group.IT_coordinate_system_code '2'
_symmetry_cell_setting 'orthorhombic'
loop_
_space_group_symop_operation_xyz
x,y,z
1/2-x,1/2-y,z
1/2+x,-y,-z
-x,1/2+y,-z
-x,-y,-z
1/2+x,1/2+y,-z
1/2-x,y,z
x,1/2-y,z
loop_
_atom_site_type_symbol
_atom_site_label
_atom_site_fract_x
_atom_site_fract_y
_atom_site_fract_z
Si Si1 0.637080 0.250000 0.602205
Si Si2 0.512261 0.085052 0.135489
Si Si3 0.139058 0.412629 0.989176
Si Si4 0.363111 0.250000 0.603587
Si Si5 0.000890 0.978499 0.327293
Si Si6 0.498986 0.250000 0.444912
O O1 0.750000 0.250000 0.600802
O O2 0.591527 0.116467 0.649069
O O3 0.589833 0.250000 0.507965
O O4 0.528875 0.250000 0.141412
O O5 0.419853 0.062306 0.075899
O O6 0.499754 0.022491 0.229089
O O7 0.596156 0.008753 0.084476
O O8 0.250000 0.437071 0.001617
O O9 0.124887 0.250000 0.966471
O O10 0.250000 0.250000 0.604005
O O11 0.409676 0.116373 0.649724
O O12 0.408543 0.250000 0.508561
O O13 0.000982 0.113679 0.386906
#
# Coordination Sequence:
#
# PCOD9451453 Si02
#       6
#     4   8   8   4   8   4
#     4  10  22  38  56  81 114 150 186 225 276 330
#     4  10  20  37  59  81 111 145 180 226 275 317
#     4   9  20  37  58  81 109 144 180 221 274 332
#     4  10  22  38  56  81 112 150 188 223 276 334
#     4  10  21  37  59  83 111 146 187 230 273 324
#     4  10  20  38  60  82 110 146 184 232 280 324
#
# _framework density 16.944782
#
# number of rings (size 3 to 8) (size 9 to 14) (size 15 to 20)
#    0.000    2.444    1.111    2.667    3.111    5.778 
#    0.000    0.000    0.000    0.000    0.000    0.000 
#    0.000    0.000    0.000    0.000    0.000    0.000 
#
# Total GULP energy -200855.915791 kJ/mol
# GULP energy per Si atom -5579.330994 kJ/mol
# Density = 1.690622 g / cm^3
# Si number density = 16.944782 Si / 1000 Ang^3
#
#
#
# Elastic Constant Matrix: (Units=GPa)
#
#
# Indices 1 2 3 4 5 6 
#
# 1 159.8802 73.3414 63.4824 0.0000 0.0000 0.0000
# 2 73.3414 134.6732 90.7385 0.0000 0.0000 0.0000
# 3 63.4824 90.7385 160.2621 0.0000 0.0000 0.0000
# 4 0.0000 0.0000 0.0000 -52.8153 0.0000 0.0000
# 5 0.0000 0.0000 0.0000 0.0000 2.7231 0.0000
# 6 0.0000 0.0000 0.0000 0.0000 0.0000 14.4740
#
#
#
# Elastic Compliance Matrix: (Units=1/GPa)
#
#
# Indices 1 2 3 4 5 6 
#
# 1 0.008479 -0.003807 -0.001203 0.000000 0.000000 0.000000
# 2 -0.003807 0.013714 -0.006257 0.000000 0.000000 0.000000
# 3 -0.001203 -0.006257 0.010259 0.000000 0.000000 0.000000
# 4 0.000000 0.000000 0.000000 -0.018934 0.000000 0.000000
# 5 0.000000 0.000000 0.000000 0.000000 0.367234 0.000000
# 6 0.000000 0.000000 0.000000 0.000000 0.000000 0.069090
#
#
# Mechanical properties :
#
#
# Convention : Reuss Voigt Hill
#
# Bulk Modulus (GPa) = 100.82512 101.10447 100.96479
# Shear Modulus (GPa) = 10.51125 8.02656 9.26891
#
# Velocity S-wave (km/s) = 2.49333 2.17880 2.34135
# Velocity P-wave (km/s) = 8.24138 8.13180 8.18677
#
# Compressibility (1/GPa) = 0.00991816
#
# Stress axis : x y z
#
# Youngs Moduli (GPa) = 117.94304 72.91728 97.47538
#
# Poissons Ratio (x) = 0.27757 0.11729
# Poissons Ratio (y) = 0.44897 0.60990
# Poissons Ratio (z) = 0.14191 0.45624
#
# Static dielectric constant tensor:
#      x y z
#    x 1.544860 0.000000 0.000000 
#    y 0.000000 1.572850 0.000000 
#    z 0.000000 0.000000 1.548750 
# 
# From -- ./inp_files/19804.got.cif
#   From: 2010.05.17/outbox.cif.g08.bks.cpg/sg59_10_cif.got.tgz:19804.got - 2010.06.03 14:40:33.
