data_PCOD9451877
_publ_section_title
;
Structure prediction by ZEFSAII (Michael W. Deem and Ramdas Pophale) SiO2 
 PCOD9451877
Probable space group: P M M N
;
_chemical_formula_sum "Si O2"
_cell_formula_units_Z 48
_cell_length_a 9.342093
_cell_length_b 16.046334
_cell_length_c 17.288014
_cell_angle_alpha 90.000000
_cell_angle_beta 90.000000
_cell_angle_gamma 90.000000
_cell_volume 2591.582983
_symmetry_space_group_name_H-M "P M M N"
_symmetry_group_IT_number 59
_space_group.IT_coordinate_system_code '2'
_symmetry_cell_setting 'orthorhombic'
loop_
_space_group_symop_operation_xyz
x,y,z
1/2-x,1/2-y,z
1/2+x,-y,-z
-x,1/2+y,-z
-x,-y,-z
1/2+x,1/2+y,-z
1/2-x,y,z
x,1/2-y,z
loop_
_atom_site_type_symbol
_atom_site_label
_atom_site_fract_x
_atom_site_fract_y
_atom_site_fract_z
Si Si1 0.420999 0.155641 0.192333
Si Si2 0.921409 0.342138 0.814706
Si Si3 0.583854 0.849513 0.509514
Si Si4 0.083334 0.105793 0.663604
Si Si5 0.083747 0.907512 0.658502
Si Si6 0.577325 0.501092 0.917991
O O1 0.250000 0.148887 0.205699
O O2 0.451231 0.250000 0.165401
O O3 0.501136 0.138638 0.272685
O O4 0.460282 0.083811 0.131188
O O5 0.750000 0.347229 0.805927
O O6 0.956813 0.250000 0.846108
O O7 0.964750 0.418839 0.869288
O O8 0.993291 0.352887 0.731324
O O9 0.750000 0.877334 0.516844
O O10 0.580586 0.750000 0.518223
O O11 0.534582 0.872002 0.423021
O O12 0.489452 0.888935 0.576606
O O13 0.250000 0.131652 0.669448
O O14 0.075269 0.006350 0.673425
O O15 0.250000 0.882907 0.657017
O O16 0.750000 0.500179 0.927711
O O17 0.500000 0.500000 0.000000
#
# Coordination Sequence:
#
# PCOD9451877 Si02
#       6
#     8   8   8   8   8   8
#     4  10  21  39  62  85 113 154 196 231 278 340
#     4  10  21  38  61  88 117 151 189 232 287 342
#     4  10  21  36  53  76 110 153 197 238 284 338
#     4  10  21  37  57  82 113 152 196 238 283 337
#     4  11  22  35  55  84 115 149 193 242 289 334
#     4  10  22  40  61  87 118 149 185 232 281 341
#
# _framework density 18.521498000000001
#
# number of rings (size 3 to 8) (size 9 to 14) (size 15 to 20)
#    0.000    1.833    1.667    2.000    0.000    7.000 
#    0.000    0.000    0.000    0.000    0.000    0.000 
#    0.000    0.000    0.000    0.000    0.000    0.000 
#
# Total GULP energy -268094.366463 kJ/mol
# GULP energy per Si atom -5585.299301 kJ/mol
# Density = 1.847934 g / cm^3
# Si number density = 18.521498 Si / 1000 Ang^3
#
#
#
# Elastic Constant Matrix: (Units=GPa)
#
#
# Indices 1 2 3 4 5 6 
#
# 1 33.4584 40.9756 48.3509 0.0000 0.0000 0.0000
# 2 40.9756 118.9434 63.2454 0.0000 0.0000 0.0000
# 3 48.3509 63.2454 132.9037 0.0000 0.0000 0.0000
# 4 0.0000 0.0000 0.0000 5.7023 0.0000 0.0000
# 5 0.0000 0.0000 0.0000 0.0000 35.9303 0.0000
# 6 0.0000 0.0000 0.0000 0.0000 0.0000 8.8130
#
#
#
# Elastic Compliance Matrix: (Units=1/GPa)
#
#
# Indices 1 2 3 4 5 6 
#
# 1 0.081734 -0.016528 -0.021870 0.000000 0.000000 0.000000
# 2 -0.016528 0.014598 -0.000934 0.000000 0.000000 0.000000
# 3 -0.021870 -0.000934 0.015925 0.000000 0.000000 0.000000
# 4 0.000000 0.000000 0.000000 0.175366 0.000000 0.000000
# 5 0.000000 0.000000 0.000000 0.000000 0.027832 0.000000
# 6 0.000000 0.000000 0.000000 0.000000 0.000000 0.113469
#
#
# Mechanical properties :
#
#
# Convention : Reuss Voigt Hill
#
# Bulk Modulus (GPa) = 29.76811 65.60548 47.68680
# Shear Modulus (GPa) = 9.63793 18.93803 14.28798
#
# Velocity S-wave (km/s) = 2.28362 3.20111 2.78047
# Velocity P-wave (km/s) = 4.80212 7.01149 6.00921
#
# Compressibility (1/GPa) = 0.03359300
#
# Stress axis : x y z
#
# Youngs Moduli (GPa) = 12.23488 68.50373 62.79513
#
# Poissons Ratio (x) = 1.13225 1.37331
# Poissons Ratio (y) = 0.20222 0.05863
# Poissons Ratio (z) = 0.26757 0.06396
#
# Static dielectric constant tensor:
#      x y z
#    x 1.616960 0.000000 0.000000 
#    y 0.000000 1.660660 0.000000 
#    z 0.000000 0.000000 1.591470 
# 
# From -- ./inp_files/25430.got.cif
#   From: 2010.05.17/outbox.cif.g08.bks.cpg/sg59_13_cif.got.tgz:25430.got - 2010.06.03 14:40:33.
