data_PCOD9451797
_publ_section_title
;
Structure prediction by ZEFSAII (Michael W. Deem and Ramdas Pophale) SiO2 
 PCOD9451797
Probable space group: P M M N
;
_chemical_formula_sum "Si O2"
_cell_formula_units_Z 56
_cell_length_a 16.514254
_cell_length_b 7.794437
_cell_length_c 20.473883
_cell_angle_alpha 90.000000
_cell_angle_beta 90.000000
_cell_angle_gamma 90.000000
_cell_volume 2635.384142
_symmetry_space_group_name_H-M "P M M N"
_symmetry_group_IT_number 59
_space_group.IT_coordinate_system_code '2'
_symmetry_cell_setting 'orthorhombic'
loop_
_space_group_symop_operation_xyz
x,y,z
1/2-x,1/2-y,z
1/2+x,-y,-z
-x,1/2+y,-z
-x,-y,-z
1/2+x,1/2+y,-z
1/2-x,y,z
x,1/2-y,z
loop_
_atom_site_type_symbol
_atom_site_label
_atom_site_fract_x
_atom_site_fract_y
_atom_site_fract_z
Si Si1 0.409277 0.548358 0.980538
Si Si2 0.654477 0.958803 0.421189
Si Si3 0.250000 0.961057 0.058663
Si Si4 0.250000 0.955141 0.210114
Si Si5 0.583556 0.951106 0.286758
Si Si6 0.654869 0.958684 0.563995
Si Si7 0.159669 0.457167 0.845056
Si Si8 0.594827 0.545991 0.703040
O O1 0.403406 0.750000 0.989205
O O2 0.396775 0.505410 0.904801
O O3 0.500000 0.500000 0.000000
O O4 0.332106 0.477611 0.021843
O O5 0.750000 0.000255 0.414631
O O6 0.649405 0.750000 0.422923
O O7 0.606853 0.023505 0.357846
O O8 0.625368 0.018743 0.492770
O O9 0.250000 0.750000 0.057782
O O10 0.250000 0.014637 0.134774
O O11 0.250000 0.750000 0.208938
O O12 0.329216 0.011865 0.250246
O O13 0.605245 0.750000 0.290233
O O14 0.631433 0.024522 0.225157
O O15 0.488779 0.967346 0.273084
O O16 0.750000 0.002443 0.568667
O O17 0.650621 0.750000 0.564699
O O18 0.612153 0.020785 0.629566
O O19 0.250000 0.518492 0.860178
O O20 0.160739 0.250000 0.841684
O O21 0.583719 0.750000 0.699296
#
# Coordination Sequence:
#
# PCOD9451797 Si02
#       8
#     8   8   4   4   8   8   8   8
#     4  11  23  42  65  93 123 156 195 241 293 357
#     4   8  14  28  53  81 106 144 194 237 280 334
#     4   9  22  43  65  87 118 153 190 238 297 345
#     4  11  23  41  63  83 108 147 188 234 287 337
#     4  10  21  35  54  84 117 147 190 242 285 331
#     4   8  14  28  51  76 106 145 188 233 283 334
#     4  10  21  39  62  87 118 156 195 240 288 340
#     4  11  22  37  55  82 116 151 189 232 286 348
#
# _framework density 21.249274
#
# number of rings (size 3 to 8) (size 9 to 14) (size 15 to 20)
#    0.000    2.286    1.429    2.357    2.000    2.857 
#    0.000    2.143    0.000    2.143    0.000    0.000 
#    0.000    0.000    0.000    0.000    0.000    0.000 
#
# Total GULP energy -312594.108530 kJ/mol
# GULP energy per Si atom -5582.037652 kJ/mol
# Density = 2.120091 g / cm^3
# Si number density = 21.249274 Si / 1000 Ang^3
#
#
#
# Elastic Constant Matrix: (Units=GPa)
#
#
# Indices 1 2 3 4 5 6 
#
# 1 69.2267 1.4116 36.7328 0.0000 0.0000 0.0000
# 2 1.4116 28.5235 10.0867 0.0000 0.0000 0.0000
# 3 36.7328 10.0867 128.7371 0.0000 0.0000 0.0000
# 4 0.0000 0.0000 0.0000 10.2898 0.0000 0.0000
# 5 0.0000 0.0000 0.0000 0.0000 2.6784 0.0000
# 6 0.0000 0.0000 0.0000 0.0000 0.0000 12.0952
#
#
#
# Elastic Compliance Matrix: (Units=1/GPa)
#
#
# Indices 1 2 3 4 5 6 
#
# 1 0.017045 0.000901 -0.004934 0.000000 0.000000 0.000000
# 2 0.000901 0.036105 -0.003086 0.000000 0.000000 0.000000
# 3 -0.004934 -0.003086 0.009417 0.000000 0.000000 0.000000
# 4 0.000000 0.000000 0.000000 0.097184 0.000000 0.000000
# 5 0.000000 0.000000 0.000000 0.000000 0.373353 0.000000
# 6 0.000000 0.000000 0.000000 0.000000 0.000000 0.082677
#
#
# Mechanical properties :
#
#
# Convention : Reuss Voigt Hill
#
# Bulk Modulus (GPa) = 20.69100 35.88327 28.28714
# Shear Modulus (GPa) = 7.73839 16.89644 12.31741
#
# Velocity S-wave (km/s) = 1.91040 2.82291 2.41023
# Velocity P-wave (km/s) = 3.82421 5.24867 4.59201
#
# Compressibility (1/GPa) = 0.04833019
#
# Stress axis : x y z
#
# Youngs Moduli (GPa) = 58.66808 27.69663 106.18613
#
# Poissons Ratio (x) = -0.02496 0.52393
# Poissons Ratio (y) = -0.05288 0.32770
# Poissons Ratio (z) = 0.28947 0.08547
#
# Static dielectric constant tensor:
#      x y z
#    x 1.711070 0.000000 0.000000 
#    y 0.000000 1.825450 0.000000 
#    z 0.000000 0.000000 1.770220 
# 
# From -- ./inp_files/30506.got.cif
#   From: 2010.05.17/outbox.cif.g08.bks.cpg/sg59_16_cif.got.tgz:30506.got - 2010.06.03 14:40:33.
