data_PCOD9451192
_publ_section_title
;
Structure prediction by ZEFSAII (Michael W. Deem and Ramdas Pophale) SiO2 
 PCOD9451192
Probable space group: P M M N
;
_chemical_formula_sum "Si O2"
_cell_formula_units_Z 64
_cell_length_a 8.859759
_cell_length_b 34.297427
_cell_length_c 11.057643
_cell_angle_alpha 90.000000
_cell_angle_beta 90.000000
_cell_angle_gamma 90.000000
_cell_volume 3360.052115
_symmetry_space_group_name_H-M "P M M N"
_symmetry_group_IT_number 59
_space_group.IT_coordinate_system_code '2'
_symmetry_cell_setting 'orthorhombic'
loop_
_space_group_symop_operation_xyz
x,y,z
1/2-x,1/2-y,z
1/2+x,-y,-z
-x,1/2+y,-z
-x,-y,-z
1/2+x,1/2+y,-z
1/2-x,y,z
x,1/2-y,z
loop_
_atom_site_type_symbol
_atom_site_label
_atom_site_fract_x
_atom_site_fract_y
_atom_site_fract_z
Si Si1 0.573980 0.364504 0.817260
Si Si2 0.427387 0.945607 0.058755
Si Si3 0.568708 0.793716 0.046543
Si Si4 0.931825 0.705083 0.765415
Si Si5 0.070648 0.443211 0.199650
Si Si6 0.070919 0.871979 0.675204
Si Si7 0.430687 0.912076 0.417831
Si Si8 0.429710 0.483739 0.701899
O O1 0.750000 0.354980 0.801386
O O2 0.563094 0.399399 0.914589
O O3 0.490206 0.326860 0.865514
O O4 0.519391 0.383589 0.691655
O O5 0.250000 0.956629 0.058581
O O6 0.511150 0.965440 0.171358
O O7 0.504381 0.954092 0.931533
O O8 0.750000 0.793812 0.048538
O O9 0.517007 0.750000 0.079167
O O10 0.524812 0.800984 0.906555
O O11 0.750000 0.701097 0.756633
O O12 0.969281 0.750000 0.733904
O O13 0.011920 0.671927 0.687787
O O14 0.250000 0.445963 0.199352
O O15 0.016000 0.399891 0.231586
O O16 0.000639 0.473265 0.296689
O O17 0.250000 0.873652 0.698592
O O18 0.042217 0.890684 0.543743
O O19 0.250000 0.918453 0.403368
O O20 0.510467 0.953602 0.398413
O O21 0.250000 0.486224 0.699158
#
# Coordination Sequence:
#
# PCOD9451192 Si02
#       8
#     8   8   8   8   8   8   8   8
#     4   9  18  33  54  77 102 136 175 218 267 318
#     4  10  20  36  56  81 113 144 180 226 277 332
#     4   9  18  32  51  78 111 142 171 210 264 325
#     4   9  19  37  59  83 114 148 179 218 273 333
#     4  12  24  37  55  81 114 148 183 227 279 332
#     4  11  23  39  59  82 109 144 189 236 279 327
#     4   9  21  41  58  75 106 146 186 229 276 327
#     4  11  22  37  58  83 110 144 186 228 276 330
#
# _framework density 19.047322000000001
#
# number of rings (size 3 to 8) (size 9 to 14) (size 15 to 20)
#    0.000    2.000    0.000    5.625    0.000    7.000 
#    0.000    1.875    0.000    3.750    0.000    0.000 
#    0.000    0.000    0.000    0.000    0.000    0.000 
#
# Total GULP energy -357532.716573 kJ/mol
# GULP energy per Si atom -5586.448696 kJ/mol
# Density = 1.900397 g / cm^3
# Si number density = 19.047322 Si / 1000 Ang^3
#
#
#
# Elastic Constant Matrix: (Units=GPa)
#
#
# Indices 1 2 3 4 5 6 
#
# 1 66.4008 28.2037 20.2374 0.0000 0.0000 0.0000
# 2 28.2037 90.3158 17.2608 0.0000 0.0000 0.0000
# 3 20.2374 17.2608 45.5101 0.0000 0.0000 0.0000
# 4 0.0000 0.0000 0.0000 23.3174 0.0000 0.0000
# 5 0.0000 0.0000 0.0000 0.0000 23.9685 0.0000
# 6 0.0000 0.0000 0.0000 0.0000 0.0000 37.3967
#
#
#
# Elastic Compliance Matrix: (Units=1/GPa)
#
#
# Indices 1 2 3 4 5 6 
#
# 1 0.019094 -0.004679 -0.006716 0.000000 0.000000 0.000000
# 2 -0.004679 0.013084 -0.002882 0.000000 0.000000 0.000000
# 3 -0.006716 -0.002882 0.026053 0.000000 0.000000 0.000000
# 4 0.000000 0.000000 0.000000 0.042886 0.000000 0.000000
# 5 0.000000 0.000000 0.000000 0.000000 0.041721 0.000000
# 6 0.000000 0.000000 0.000000 0.000000 0.000000 0.026740
#
#
# Mechanical properties :
#
#
# Convention : Reuss Voigt Hill
#
# Bulk Modulus (GPa) = 33.69611 37.07005 35.38308
# Shear Modulus (GPa) = 24.03543 26.03818 25.03681
#
# Velocity S-wave (km/s) = 3.55615 3.70134 3.62947
# Velocity P-wave (km/s) = 5.88139 6.14580 6.01505
#
# Compressibility (1/GPa) = 0.02967702
#
# Stress axis : x y z
#
# Youngs Moduli (GPa) = 52.37116 76.42788 38.38383
#
# Poissons Ratio (x) = 0.35762 0.25779
# Poissons Ratio (y) = 0.24506 0.11061
# Poissons Ratio (z) = 0.35173 0.22025
#
# Static dielectric constant tensor:
#      x y z
#    x 1.636510 0.000000 0.000000 
#    y 0.000000 1.673950 0.000000 
#    z 0.000000 0.000000 1.666300 
# 
# From -- ./inp_files/14887.got.cif
#   From: 2010.05.17/outbox.cif.g08.bks.cpg/sg59_8_cif.got.tgz:14887.got - 2010.06.03 14:40:33.
