data_PCOD9451806
_publ_section_title
;
Structure prediction by ZEFSAII (Michael W. Deem and Ramdas Pophale) SiO2 
 PCOD9451806
Probable space group: P M M N
;
_chemical_formula_sum "Si O2"
_cell_formula_units_Z 48
_cell_length_a 7.825695
_cell_length_b 13.315202
_cell_length_c 20.151529
_cell_angle_alpha 90.000000
_cell_angle_beta 90.000000
_cell_angle_gamma 90.000000
_cell_volume 2099.803624
_symmetry_space_group_name_H-M "P M M N"
_symmetry_group_IT_number 59
_space_group.IT_coordinate_system_code '2'
_symmetry_cell_setting 'orthorhombic'
loop_
_space_group_symop_operation_xyz
x,y,z
1/2-x,1/2-y,z
1/2+x,-y,-z
-x,1/2+y,-z
-x,-y,-z
1/2+x,1/2+y,-z
1/2-x,y,z
x,1/2-y,z
loop_
_atom_site_type_symbol
_atom_site_label
_atom_site_fract_x
_atom_site_fract_y
_atom_site_fract_z
Si Si1 0.550769 0.643174 0.557726
Si Si2 0.054728 0.370209 0.868302
Si Si3 0.055020 0.366171 0.212646
Si Si4 0.547417 0.079111 0.582505
Si Si5 0.750000 0.373082 0.961580
Si Si6 0.045736 0.057413 0.722943
Si Si7 0.250000 0.628303 0.886529
O O1 0.750000 0.643079 0.577244
O O2 0.474742 0.750000 0.579820
O O3 0.538374 0.637495 0.477605
O O4 0.477892 0.535942 0.579758
O O5 0.250000 0.406950 0.877299
O O6 0.060888 0.250000 0.875089
O O7 0.997293 0.393143 0.793104
O O8 0.917692 0.407352 0.921583
O O9 0.250000 0.373292 0.188761
O O10 0.023686 0.250000 0.231490
O O11 0.028674 0.444637 0.271856
O O12 0.918391 0.396284 0.156398
O O13 0.750000 0.078734 0.568885
O O14 0.517152 0.113134 0.657430
O O15 0.750000 0.250000 0.109956
O O16 0.750000 0.406009 0.037727
O O17 0.250000 0.053069 0.720603
O O18 0.250000 0.750000 0.039233
#
# Coordination Sequence:
#
# PCOD9451806 Si02
#       7
#     8   8   8   8   4   8   4
#     4   9  19  38  59  79 113 151 188 232 279 337
#     4   9  20  37  56  81 113 149 191 238 289 345
#     4  10  21  37  58  82 113 152 191 239 293 343
#     4  10  21  35  55  86 113 147 190 233 285 339
#     4   9  18  34  60  84 109 148 189 238 293 344
#     4  11  22  37  59  82 116 153 190 237 286 340
#     4   9  18  36  58  84 113 144 191 240 289 350
#
# _framework density 22.859279999999998
#
# number of rings (size 3 to 8) (size 9 to 14) (size 15 to 20)
#    0.000    2.333    0.833    1.000    2.333    3.000 
#    0.000    7.500    0.000    0.000    0.000    0.000 
#    0.000    0.000    0.000    0.000    0.000    0.000 
#
# Total GULP energy -268183.585633 kJ/mol
# GULP energy per Si atom -5587.158034 kJ/mol
# Density = 2.280725 g / cm^3
# Si number density = 22.859280 Si / 1000 Ang^3
#
#
#
# Elastic Constant Matrix: (Units=GPa)
#
#
# Indices 1 2 3 4 5 6 
#
# 1 66.7826 2.7817 17.0246 0.0000 0.0000 0.0000
# 2 2.7817 55.3895 -12.8290 0.0000 0.0000 0.0000
# 3 17.0246 -12.8290 103.3559 0.0000 0.0000 0.0000
# 4 0.0000 0.0000 0.0000 7.2372 0.0000 0.0000
# 5 0.0000 0.0000 0.0000 0.0000 21.0356 0.0000
# 6 0.0000 0.0000 0.0000 0.0000 0.0000 16.9518
#
#
#
# Elastic Compliance Matrix: (Units=1/GPa)
#
#
# Indices 1 2 3 4 5 6 
#
# 1 0.015740 -0.001432 -0.002770 0.000000 0.000000 0.000000
# 2 -0.001432 0.018719 0.002559 0.000000 0.000000 0.000000
# 3 -0.002770 0.002559 0.010449 0.000000 0.000000 0.000000
# 4 0.000000 0.000000 0.000000 0.138176 0.000000 0.000000
# 5 0.000000 0.000000 0.000000 0.000000 0.047538 0.000000
# 6 0.000000 0.000000 0.000000 0.000000 0.000000 0.058991
#
#
# Mechanical properties :
#
#
# Convention : Reuss Voigt Hill
#
# Bulk Modulus (GPa) = 24.02608 26.60919 25.31764
# Shear Modulus (GPa) = 16.29869 23.61495 19.95682
#
# Velocity S-wave (km/s) = 2.67310 3.21761 2.95791
# Velocity P-wave (km/s) = 4.47890 5.04675 4.77128
#
# Compressibility (1/GPa) = 0.04162143
#
# Stress axis : x y z
#
# Youngs Moduli (GPa) = 63.53296 53.42263 95.70004
#
# Poissons Ratio (x) = 0.07651 0.26513
# Poissons Ratio (y) = 0.09099 -0.24493
# Poissons Ratio (z) = 0.17601 -0.13673
#
# Static dielectric constant tensor:
#      x y z
#    x 1.820100 0.000000 0.000000 
#    y 0.000000 1.915430 0.000000 
#    z 0.000000 0.000000 1.813450 
# 
# From -- ./inp_files/25524.got.cif
#   From: 2010.05.17/outbox.cif.g08.bks.cpg/sg59_13_cif.got.tgz:25524.got - 2010.06.03 14:40:33.
