data_PCOD9451514
_publ_section_title
;
Structure prediction by ZEFSAII (Michael W. Deem and Ramdas Pophale) SiO2 
 PCOD9451514
Probable space group: P M M N
;
_chemical_formula_sum "Si O2"
_cell_formula_units_Z 44
_cell_length_a 11.041245
_cell_length_b 14.662975
_cell_length_c 14.081785
_cell_angle_alpha 90.000000
_cell_angle_beta 90.000000
_cell_angle_gamma 90.000000
_cell_volume 2279.805779
_symmetry_space_group_name_H-M "P M M N"
_symmetry_group_IT_number 59
_space_group.IT_coordinate_system_code '2'
_symmetry_cell_setting 'orthorhombic'
loop_
_space_group_symop_operation_xyz
x,y,z
1/2-x,1/2-y,z
1/2+x,-y,-z
-x,1/2+y,-z
-x,-y,-z
1/2+x,1/2+y,-z
1/2-x,y,z
x,1/2-y,z
loop_
_atom_site_type_symbol
_atom_site_label
_atom_site_fract_x
_atom_site_fract_y
_atom_site_fract_z
Si Si1 0.394374 0.078407 0.135803
Si Si2 0.485142 0.423586 0.747545
Si Si3 0.395855 0.750000 0.351091
Si Si4 0.894737 0.750000 0.743395
Si Si5 0.889549 0.463717 0.430870
Si Si6 0.450546 0.750000 0.564550
Si Si7 0.392322 0.350642 0.939240
O O1 0.250000 0.083230 0.134298
O O2 0.440326 0.162621 0.199092
O O3 0.428506 0.989358 0.192811
O O4 0.439825 0.090063 0.027797
O O5 0.560142 0.340837 0.701829
O O6 0.416183 0.482045 0.667130
O O7 0.403473 0.384826 0.832266
O O8 0.250000 0.750000 0.365523
O O9 0.464148 0.750000 0.451821
O O10 0.750000 0.750000 0.746416
O O11 0.936703 0.750000 0.635304
O O12 0.750000 0.484297 0.463514
O O13 0.894724 0.352630 0.418514
O O14 0.000000 0.500000 0.500000
O O15 0.250000 0.342550 0.957424
O O16 0.448670 0.250000 0.945877
#
# Coordination Sequence:
#
# PCOD9451514 Si02
#       7
#     8   8   4   4   8   4   8
#     4  10  20  37  64  93 124 163 209 265 326 392
#     4  12  23  41  62  94 127 169 219 270 326 391
#     4  12  26  43  63  90 127 174 221 274 338 396
#     4  10  20  37  63  99 127 157 213 271 321 381
#     4  12  27  45  69  98 133 174 223 274 331 394
#     4  12  24  46  66  95 131 173 215 269 332 387
#     4  10  20  37  61  90 126 165 208 262 325 390
#
# _framework density 19.299889
#
# number of rings (size 3 to 8) (size 9 to 14) (size 15 to 20)
#    0.000    0.909    5.455    2.455    0.000    1.455 
#    0.000    0.000    0.000    0.000    0.000    0.000 
#    0.000    0.000    0.000    0.000    0.000    0.000 
#
# Total GULP energy -244995.678401 kJ/mol
# GULP energy per Si atom -5568.083600 kJ/mol
# Density = 1.925596 g / cm^3
# Si number density = 19.299889 Si / 1000 Ang^3
#
#
#
# Elastic Constant Matrix: (Units=GPa)
#
#
# Indices 1 2 3 4 5 6 
#
# 1 62.2441 26.5134 35.8270 0.0000 0.0000 0.0000
# 2 26.5134 139.6255 55.5958 0.0000 0.0000 0.0000
# 3 35.8270 55.5958 132.1124 0.0000 0.0000 0.0000
# 4 0.0000 0.0000 0.0000 52.2432 0.0000 0.0000
# 5 0.0000 0.0000 0.0000 0.0000 24.9363 0.0000
# 6 0.0000 0.0000 0.0000 0.0000 0.0000 24.4201
#
#
#
# Elastic Compliance Matrix: (Units=1/GPa)
#
#
# Indices 1 2 3 4 5 6 
#
# 1 0.019454 -0.001914 -0.004470 0.000000 0.000000 0.000000
# 2 -0.001914 0.008792 -0.003181 0.000000 0.000000 0.000000
# 3 -0.004470 -0.003181 0.010120 0.000000 0.000000 0.000000
# 4 0.000000 0.000000 0.000000 0.019141 0.000000 0.000000
# 5 0.000000 0.000000 0.000000 0.000000 0.040102 0.000000
# 6 0.000000 0.000000 0.000000 0.000000 0.000000 0.040950
#
#
# Mechanical properties :
#
#
# Convention : Reuss Voigt Hill
#
# Bulk Modulus (GPa) = 51.98589 63.31716 57.65153
# Shear Modulus (GPa) = 30.46890 34.72297 32.59593
#
# Velocity S-wave (km/s) = 3.97761 4.24621 4.11410
# Velocity P-wave (km/s) = 6.93466 7.54445 7.24597
#
# Compressibility (1/GPa) = 0.01923599
#
# Stress axis : x y z
#
# Youngs Moduli (GPa) = 51.40297 113.73958 98.81337
#
# Poissons Ratio (x) = 0.21772 0.44171
# Poissons Ratio (y) = 0.09840 0.31430
# Poissons Ratio (z) = 0.22978 0.36178
#
# Static dielectric constant tensor:
#      x y z
#    x 1.666060 0.000000 0.000000 
#    y 0.000000 1.757280 0.000000 
#    z 0.000000 0.000000 1.676450 
# 
# From -- ./inp_files/22321.got.cif
#   From: 2010.05.17/outbox.cif.g08.bks.cpg/sg59_12_cif.got.tgz:22321.got - 2010.06.03 14:40:33.
