data_PCOD9451698
_publ_section_title
;
Structure prediction by ZEFSAII (Michael W. Deem and Ramdas Pophale) SiO2 
 PCOD9451698
Probable space group: P M M N
;
_chemical_formula_sum "Si O2"
_cell_formula_units_Z 40
_cell_length_a 13.836841
_cell_length_b 17.900671
_cell_length_c 7.758328
_cell_angle_alpha 90.000000
_cell_angle_beta 90.000000
_cell_angle_gamma 90.000000
_cell_volume 1921.650475
_symmetry_space_group_name_H-M "P M M N"
_symmetry_group_IT_number 59
_space_group.IT_coordinate_system_code '2'
_symmetry_cell_setting 'orthorhombic'
loop_
_space_group_symop_operation_xyz
x,y,z
1/2-x,1/2-y,z
1/2+x,-y,-z
-x,1/2+y,-z
-x,-y,-z
1/2+x,1/2+y,-z
1/2-x,y,z
x,1/2-y,z
loop_
_atom_site_type_symbol
_atom_site_label
_atom_site_fract_x
_atom_site_fract_y
_atom_site_fract_z
Si Si1 0.502627 0.611889 0.722338
Si Si2 0.359591 0.008373 0.886053
Si Si3 0.640842 0.491314 0.699512
Si Si4 0.864021 0.169177 0.555315
Si Si5 0.634660 0.666958 0.028453
O O1 0.430768 0.553119 0.814038
O O2 0.573753 0.555324 0.620641
O O3 0.436095 0.663039 0.604919
O O4 0.567829 0.656116 0.860092
O O5 0.250000 0.994446 0.827049
O O6 0.361625 0.002410 0.094182
O O7 0.386226 0.094979 0.852331
O O8 0.750000 0.503194 0.639205
O O9 0.615663 0.405673 0.662419
O O10 0.750000 0.165497 0.505328
O O11 0.877460 0.250000 0.643159
O O12 0.750000 0.660754 0.984751
O O13 0.619230 0.750000 0.101008
#
# Coordination Sequence:
#
# PCOD9451698 Si02
#       5
#     8   8   8   8   8
#     4  11  18  31  52  76  96 121 160 205 240 276
#     4   9  18  32  51  74  98 126 160 196 235 283
#     4   9  18  33  51  70  95 128 162 192 232 290
#     4  10  21  35  49  68  97 130 161 197 242 285
#     4   9  17  29  46  70  99 127 154 190 239 290
#
# _framework density 20.815439000000001
#
# number of rings (size 3 to 8) (size 9 to 14) (size 15 to 20)
#    0.000    2.400    0.000    6.000    0.000    0.000 
#    0.000    5.000    0.000    4.800    0.000    0.000 
#    0.000    3.200    0.000    0.000    0.000    0.000 
#
# Total GULP energy -223067.767726 kJ/mol
# GULP energy per Si atom -5576.694193 kJ/mol
# Density = 2.076806 g / cm^3
# Si number density = 20.815439 Si / 1000 Ang^3
#
#
#
# Elastic Constant Matrix: (Units=GPa)
#
#
# Indices 1 2 3 4 5 6 
#
# 1 80.1704 32.4200 6.1838 0.0000 0.0000 0.0000
# 2 32.4200 133.6591 11.0417 0.0000 0.0000 0.0000
# 3 6.1838 11.0417 10.0508 0.0000 0.0000 0.0000
# 4 0.0000 0.0000 0.0000 20.2744 0.0000 0.0000
# 5 0.0000 0.0000 0.0000 0.0000 17.4221 0.0000
# 6 0.0000 0.0000 0.0000 0.0000 0.0000 20.6338
#
#
#
# Elastic Compliance Matrix: (Units=1/GPa)
#
#
# Indices 1 2 3 4 5 6 
#
# 1 0.014092 -0.002972 -0.005406 0.000000 0.000000 0.000000
# 2 -0.002972 0.008855 -0.007900 0.000000 0.000000 0.000000
# 3 -0.005406 -0.007900 0.111500 0.000000 0.000000 0.000000
# 4 0.000000 0.000000 0.000000 0.049323 0.000000 0.000000
# 5 0.000000 0.000000 0.000000 0.000000 0.057398 0.000000
# 6 0.000000 0.000000 0.000000 0.000000 0.000000 0.048464
#
#
# Mechanical properties :
#
#
# Convention : Reuss Voigt Hill
#
# Bulk Modulus (GPa) = 9.81427 35.90792 22.86109
# Shear Modulus (GPa) = 14.03899 23.28171 18.66035
#
# Velocity S-wave (km/s) = 2.59984 3.34800 2.99735
# Velocity P-wave (km/s) = 3.70639 5.67746 4.79431
#
# Compressibility (1/GPa) = 0.10189248
#
# Stress axis : x y z
#
# Youngs Moduli (GPa) = 70.96194 112.92921 8.96864
#
# Poissons Ratio (x) = 0.33558 0.04848
# Poissons Ratio (y) = 0.21087 0.07085
# Poissons Ratio (z) = 0.38360 0.89212
#
# Static dielectric constant tensor:
#      x y z
#    x 1.807950 0.000000 0.000000 
#    y 0.000000 1.770960 0.000000 
#    z 0.000000 0.000000 1.741150 
# 
# From -- ./inp_files/8796.got.cif
#   From: 2010.05.17/outbox.cif.g08.bks.cpg/sg59_5_cif.got.tgz:8796.got - 2010.06.03 14:40:33.
