data_PCOD9451906
_publ_section_title
;
Structure prediction by ZEFSAII (Michael W. Deem and Ramdas Pophale) SiO2 
 PCOD9451906
Probable space group: P M M N
;
_chemical_formula_sum "Si O2"
_cell_formula_units_Z 40
_cell_length_a 9.401283
_cell_length_b 8.144172
_cell_length_c 26.586705
_cell_angle_alpha 90.000000
_cell_angle_beta 90.000000
_cell_angle_gamma 90.000000
_cell_volume 2035.628769
_symmetry_space_group_name_H-M "P M M N"
_symmetry_group_IT_number 59
_space_group.IT_coordinate_system_code '2'
_symmetry_cell_setting 'orthorhombic'
loop_
_space_group_symop_operation_xyz
x,y,z
1/2-x,1/2-y,z
1/2+x,-y,-z
-x,1/2+y,-z
-x,-y,-z
1/2+x,1/2+y,-z
1/2-x,y,z
x,1/2-y,z
loop_
_atom_site_type_symbol
_atom_site_label
_atom_site_fract_x
_atom_site_fract_y
_atom_site_fract_z
Si Si1 0.912449 0.448412 0.853210
Si Si2 0.586451 0.448042 0.354278
Si Si3 0.087148 0.946428 0.950990
Si Si4 0.912347 0.948556 0.548863
Si Si5 0.086330 0.052012 0.756484
O O1 0.750000 0.507703 0.857596
O O2 0.908245 0.250000 0.851280
O O3 0.005680 0.496183 0.901192
O O4 0.988108 0.507095 0.802019
O O5 0.750000 0.505667 0.360415
O O6 0.588098 0.250000 0.355587
O O7 0.490054 0.506750 0.400295
O O8 0.536809 0.500582 0.298959
O O9 0.250000 0.008947 0.952224
O O10 0.092281 0.750000 0.950610
O O11 0.000000 0.000000 0.000000
O O12 0.750000 0.007361 0.546034
O O13 0.910122 0.750000 0.550447
O O14 0.000000 0.000000 0.500000
O O15 0.250000 0.994063 0.762758
O O16 0.088553 0.250000 0.758169
#
# Coordination Sequence:
#
# PCOD9451906 Si02
#       5
#     8   8   8   8   8
#     4  10  21  37  57  82 112 145 182 223 266 314
#     4   9  18  33  52  74 103 138 175 217 264 314
#     4  11  24  40  59  84 112 143 181 223 268 320
#     4  10  21  36  54  77 105 138 177 220 267 320
#     4   9  18  33  53  77 106 141 179 218 262 312
#
# _framework density 19.649948999999999
#
# number of rings (size 3 to 8) (size 9 to 14) (size 15 to 20)
#    0.000    2.200    0.000    2.400    0.000    8.800 
#    0.000    4.000    0.000    0.000    0.000    0.000 
#    0.000    0.000    0.000    0.000    0.000    0.000 
#
# Total GULP energy -223402.332518 kJ/mol
# GULP energy per Si atom -5585.058313 kJ/mol
# Density = 1.960522 g / cm^3
# Si number density = 19.649949 Si / 1000 Ang^3
#
#
#
# Elastic Constant Matrix: (Units=GPa)
#
#
# Indices 1 2 3 4 5 6 
#
# 1 176.2232 15.6666 139.2815 0.0000 0.0000 0.0000
# 2 15.6666 9.2582 10.9261 0.0000 0.0000 0.0000
# 3 139.2815 10.9261 223.6648 0.0000 0.0000 0.0000
# 4 0.0000 0.0000 0.0000 34.4418 0.0000 0.0000
# 5 0.0000 0.0000 0.0000 0.0000 43.3011 0.0000
# 6 0.0000 0.0000 0.0000 0.0000 0.0000 21.2480
#
#
#
# Elastic Compliance Matrix: (Units=1/GPa)
#
#
# Indices 1 2 3 4 5 6 
#
# 1 0.012424 -0.012621 -0.007120 0.000000 0.000000 0.000000
# 2 -0.012621 0.127442 0.001634 0.000000 0.000000 0.000000
# 3 -0.007120 0.001634 0.008825 0.000000 0.000000 0.000000
# 4 0.000000 0.000000 0.000000 0.029034 0.000000 0.000000
# 5 0.000000 0.000000 0.000000 0.000000 0.023094 0.000000
# 6 0.000000 0.000000 0.000000 0.000000 0.000000 0.047063
#
#
# Mechanical properties :
#
#
# Convention : Reuss Voigt Hill
#
# Bulk Modulus (GPa) = 8.89078 82.32160 45.60619
# Shear Modulus (GPa) = 15.54770 36.01631 25.78201
#
# Velocity S-wave (km/s) = 2.81594 4.28588 3.62617
# Velocity P-wave (km/s) = 3.88678 8.15332 6.38685
#
# Compressibility (1/GPa) = 0.11247602
#
# Stress axis : x y z
#
# Youngs Moduli (GPa) = 80.48631 7.84672 113.31132
#
# Poissons Ratio (x) = 0.09904 0.80683
# Poissons Ratio (y) = 1.01584 -0.18515
# Poissons Ratio (z) = 0.57310 -0.01282
#
# Static dielectric constant tensor:
#      x y z
#    x 1.688540 0.000000 0.000000 
#    y 0.000000 1.698740 0.000000 
#    z 0.000000 0.000000 1.650220 
# 
# From -- ./inp_files/31109.got.cif
#   From: 2010.05.17/outbox.cif.g08.bks.cpg/sg59_16_cif.got.tgz:31109.got - 2010.06.03 14:40:33.
