data_PCOD9451033
_publ_section_title
;
Structure prediction by ZEFSAII (Michael W. Deem and Ramdas Pophale) SiO2 
 PCOD9451033
Probable space group: P M M N
;
_chemical_formula_sum "Si O2"
_cell_formula_units_Z 56
_cell_length_a 8.353565
_cell_length_b 23.288338
_cell_length_c 15.245091
_cell_angle_alpha 90.000000
_cell_angle_beta 90.000000
_cell_angle_gamma 90.000000
_cell_volume 2965.789840
_symmetry_space_group_name_H-M "P M M N"
_symmetry_group_IT_number 59
_space_group.IT_coordinate_system_code '2'
_symmetry_cell_setting 'orthorhombic'
loop_
_space_group_symop_operation_xyz
x,y,z
1/2-x,1/2-y,z
1/2+x,-y,-z
-x,1/2+y,-z
-x,-y,-z
1/2+x,1/2+y,-z
1/2-x,y,z
x,1/2-y,z
loop_
_atom_site_type_symbol
_atom_site_label
_atom_site_fract_x
_atom_site_fract_y
_atom_site_fract_z
Si Si1 0.060844 0.649575 0.614807
Si Si2 0.057770 0.186629 0.574710
Si Si3 0.442768 0.450914 0.887460
Si Si4 0.556541 0.186102 0.193074
Si Si5 0.939607 0.522734 0.593828
Si Si6 0.558340 0.577011 0.917247
Si Si7 0.555625 0.915457 0.299027
O O1 0.250000 0.660266 0.608523
O O2 0.002149 0.676390 0.706207
O O3 0.983274 0.672868 0.525880
O O4 0.026516 0.581769 0.617247
O O5 0.250000 0.187098 0.582246
O O6 0.996422 0.250000 0.597188
O O7 0.999582 0.137145 0.640404
O O8 0.250000 0.453288 0.890642
O O9 0.502471 0.516327 0.876609
O O10 0.487979 0.413179 0.803327
O O11 0.498847 0.426578 0.981224
O O12 0.750000 0.184977 0.193948
O O13 0.505423 0.250000 0.163601
O O14 0.501065 0.133008 0.133779
O O15 0.750000 0.533029 0.589782
O O16 0.000000 0.500000 0.500000
O O17 0.982532 0.473472 0.662347
O O18 0.750000 0.577952 0.916468
O O19 0.750000 0.918940 0.305541
#
# Coordination Sequence:
#
# PCOD9451033 Si02
#       7
#     8   8   8   8   8   8   8
#     4  11  22  37  57  80 108 145 186 229 276 329
#     4  10  21  36  54  76 104 141 184 226 267 318
#     4   9  19  36  58  83 112 146 180 221 280 340
#     4  10  22  39  57  79 111 152 191 227 277 337
#     4  12  23  35  53  81 113 145 180 225 275 324
#     4  10  20  35  57  86 113 140 180 232 280 327
#     4  10  20  36  56  79 110 145 181 223 271 328
#
# _framework density 18.881985
#
# number of rings (size 3 to 8) (size 9 to 14) (size 15 to 20)
#    0.000    1.714    1.429    3.429    0.000    6.857 
#    0.000    0.714    0.000    2.571    0.000    0.000 
#    0.000    0.000    0.000    0.000    0.000    0.000 
#
# Total GULP energy -312741.512991 kJ/mol
# GULP energy per Si atom -5584.669875 kJ/mol
# Density = 1.883901 g / cm^3
# Si number density = 18.881985 Si / 1000 Ang^3
#
#
#
# Elastic Constant Matrix: (Units=GPa)
#
#
# Indices 1 2 3 4 5 6 
#
# 1 7.1063 -3.3048 10.0011 0.0000 0.0000 0.0000
# 2 -3.3048 106.9773 56.1137 0.0000 0.0000 0.0000
# 3 10.0011 56.1137 118.3241 0.0000 0.0000 0.0000
# 4 0.0000 0.0000 0.0000 18.0131 0.0000 0.0000
# 5 0.0000 0.0000 0.0000 0.0000 23.9082 0.0000
# 6 0.0000 0.0000 0.0000 0.0000 0.0000 17.1905
#
#
#
# Elastic Compliance Matrix: (Units=1/GPa)
#
#
# Indices 1 2 3 4 5 6 
#
# 1 0.183316 0.018357 -0.024200 0.000000 0.000000 0.000000
# 2 0.018357 0.014281 -0.008324 0.000000 0.000000 0.000000
# 3 -0.024200 -0.008324 0.014444 0.000000 0.000000 0.000000
# 4 0.000000 0.000000 0.000000 0.055515 0.000000 0.000000
# 5 0.000000 0.000000 0.000000 0.000000 0.041827 0.000000
# 6 0.000000 0.000000 0.000000 0.000000 0.000000 0.058172
#
#
# Mechanical properties :
#
#
# Convention : Reuss Voigt Hill
#
# Bulk Modulus (GPa) = 5.44345 39.78082 22.61213
# Shear Modulus (GPa) = 10.93793 23.12887 17.03340
#
# Velocity S-wave (km/s) = 2.40943 3.50368 3.00675
# Velocity P-wave (km/s) = 3.26031 6.12222 4.90465
#
# Compressibility (1/GPa) = 0.18370704
#
# Stress axis : x y z
#
# Youngs Moduli (GPa) = 5.45507 70.02173 69.23061
#
# Poissons Ratio (x) = -1.28538 1.67537
# Poissons Ratio (y) = -0.10014 0.57630
# Poissons Ratio (z) = 0.13201 0.58288
#
# Static dielectric constant tensor:
#      x y z
#    x 1.653650 0.000000 0.000000 
#    y 0.000000 1.642960 0.000000 
#    z 0.000000 0.000000 1.623310 
# 
# From -- ./inp_files/20999.got.cif
#   From: 2010.05.17/outbox.cif.g08.bks.cpg/sg59_11_cif.got.tgz:20999.got - 2010.06.03 14:40:33.
