data_PCOD9451381
_publ_section_title
;
Structure prediction by ZEFSAII (Michael W. Deem and Ramdas Pophale) SiO2 
 PCOD9451381
Probable space group: P M M N
;
_chemical_formula_sum "Si O2"
_cell_formula_units_Z 56
_cell_length_a 16.070348
_cell_length_b 14.020017
_cell_length_c 12.238193
_cell_angle_alpha 90.000000
_cell_angle_beta 90.000000
_cell_angle_gamma 90.000000
_cell_volume 2757.345069
_symmetry_space_group_name_H-M "P M M N"
_symmetry_group_IT_number 59
_space_group.IT_coordinate_system_code '2'
_symmetry_cell_setting 'orthorhombic'
loop_
_space_group_symop_operation_xyz
x,y,z
1/2-x,1/2-y,z
1/2+x,-y,-z
-x,1/2+y,-z
-x,-y,-z
1/2+x,1/2+y,-z
1/2-x,y,z
x,1/2-y,z
loop_
_atom_site_type_symbol
_atom_site_label
_atom_site_fract_x
_atom_site_fract_y
_atom_site_fract_z
Si Si1 0.841387 0.136042 0.233709
Si Si2 0.511962 0.447282 0.829135
Si Si3 0.423043 0.636105 0.544722
Si Si4 0.527815 0.359838 0.062972
Si Si5 0.155060 0.136264 0.724943
Si Si6 0.883519 0.637457 0.526001
Si Si7 0.342564 0.961449 0.342698
O O1 0.750000 0.094559 0.244864
O O2 0.835609 0.250000 0.248396
O O3 0.899528 0.104095 0.333304
O O4 0.881003 0.124422 0.115150
O O5 0.520716 0.556079 0.873838
O O6 0.420080 0.420594 0.782950
O O7 0.583402 0.434095 0.739245
O O8 0.524881 0.381206 0.935287
O O9 0.416219 0.750000 0.538275
O O10 0.518521 0.612777 0.520251
O O11 0.361994 0.591738 0.456417
O O12 0.503205 0.250000 0.086669
O O13 0.250000 0.119325 0.764080
O O14 0.137975 0.250000 0.738514
O O15 0.152319 0.117964 0.594411
O O16 0.874118 0.750000 0.548163
O O17 0.847337 0.572063 0.621184
O O18 0.250000 0.938637 0.302193
#
# Coordination Sequence:
#
# PCOD9451381 Si02
#       7
#     8   8   8   8   8   8   8
#     4   9  18  33  55  85 118 156 206 255 302 365
#     4  11  24  42  65  91 125 165 211 268 322 384
#     4  10  20  36  60  90 127 167 207 257 314 372
#     4  10  23  43  65  87 117 163 216 270 328 378
#     4  10  21  39  65  95 126 163 210 263 316 372
#     4  10  21  39  61  87 126 170 213 259 309 369
#     4  12  25  38  59  94 134 172 207 247 311 389
#
# _framework density 20.309391000000002
#
# number of rings (size 3 to 8) (size 9 to 14) (size 15 to 20)
#    0.000    1.714    1.429    2.571    2.000    5.143 
#    0.000    2.143    0.000    0.857    0.000    0.000 
#    0.000    0.000    0.000    0.000    0.000    0.000 
#
# Total GULP energy -312662.601204 kJ/mol
# GULP energy per Si atom -5583.260736 kJ/mol
# Density = 2.026317 g / cm^3
# Si number density = 20.309391 Si / 1000 Ang^3
#
#
#
# Elastic Constant Matrix: (Units=GPa)
#
#
# Indices 1 2 3 4 5 6 
#
# 1 128.6680 28.9888 57.8638 0.0000 0.0000 0.0000
# 2 28.9888 85.8206 14.1581 0.0000 0.0000 0.0000
# 3 57.8638 14.1581 99.0988 0.0000 0.0000 0.0000
# 4 0.0000 0.0000 0.0000 18.0483 0.0000 0.0000
# 5 0.0000 0.0000 0.0000 0.0000 11.9329 0.0000
# 6 0.0000 0.0000 0.0000 0.0000 0.0000 5.5815
#
#
#
# Elastic Compliance Matrix: (Units=1/GPa)
#
#
# Indices 1 2 3 4 5 6 
#
# 1 0.011141 -0.002755 -0.006112 0.000000 0.000000 0.000000
# 2 -0.002755 0.012615 -0.000194 0.000000 0.000000 0.000000
# 3 -0.006112 -0.000194 0.013687 0.000000 0.000000 0.000000
# 4 0.000000 0.000000 0.000000 0.055407 0.000000 0.000000
# 5 0.000000 0.000000 0.000000 0.000000 0.083802 0.000000
# 6 0.000000 0.000000 0.000000 0.000000 0.000000 0.179162
#
#
# Mechanical properties :
#
#
# Convention : Reuss Voigt Hill
#
# Bulk Modulus (GPa) = 51.75323 57.28988 54.52155
# Shear Modulus (GPa) = 13.14492 21.28433 17.21462
#
# Velocity S-wave (km/s) = 2.54684 3.24080 2.91455
# Velocity P-wave (km/s) = 5.84690 6.50181 6.18303
#
# Compressibility (1/GPa) = 0.01932247
#
# Stress axis : x y z
#
# Youngs Moduli (GPa) = 89.75714 79.27223 73.06081
#
# Poissons Ratio (x) = 0.21840 0.44653
# Poissons Ratio (y) = 0.24728 0.01414
# Poissons Ratio (z) = 0.54857 0.01535
#
# Static dielectric constant tensor:
#      x y z
#    x 1.740740 0.000000 0.000000 
#    y 0.000000 1.795220 0.000000 
#    z 0.000000 0.000000 1.668760 
# 
# From -- ./inp_files/16961.got.cif
#   From: 2010.05.17/outbox.cif.g08.bks.cpg/sg59_9_cif.got.tgz:16961.got - 2010.06.03 14:40:33.
