data_PCOD9451756
_publ_section_title
;
Structure prediction by ZEFSAII (Michael W. Deem and Ramdas Pophale) SiO2 
 PCOD9451756
Probable space group: P M M N
;
_chemical_formula_sum "Si O2"
_cell_formula_units_Z 48
_cell_length_a 9.123742
_cell_length_b 7.705087
_cell_length_c 35.586638
_cell_angle_alpha 90.000000
_cell_angle_beta 90.000000
_cell_angle_gamma 90.000000
_cell_volume 2501.713103
_symmetry_space_group_name_H-M "P M M N"
_symmetry_group_IT_number 59
_space_group.IT_coordinate_system_code '2'
_symmetry_cell_setting 'orthorhombic'
loop_
_space_group_symop_operation_xyz
x,y,z
1/2-x,1/2-y,z
1/2+x,-y,-z
-x,1/2+y,-z
-x,-y,-z
1/2+x,1/2+y,-z
1/2-x,y,z
x,1/2-y,z
loop_
_atom_site_type_symbol
_atom_site_label
_atom_site_fract_x
_atom_site_fract_y
_atom_site_fract_z
Si Si1 0.082714 0.956573 0.119421
Si Si2 0.424684 0.458030 0.804368
Si Si3 0.074127 0.250000 0.245686
Si Si4 0.074076 0.750000 0.673612
Si Si5 0.425051 0.047316 0.614113
Si Si6 0.085600 0.455558 0.037595
Si Si7 0.584706 0.458371 0.538094
O O1 0.250000 0.028401 0.121430
O O2 0.093872 0.750000 0.122700
O O3 0.984452 0.012124 0.154422
O O4 0.020554 0.992046 0.077907
O O5 0.250000 0.484497 0.801861
O O6 0.452129 0.250000 0.799087
O O7 0.508331 0.579800 0.774946
O O8 0.250000 0.250000 0.243519
O O9 0.016233 0.250000 0.288231
O O10 0.250000 0.750000 0.681407
O O11 0.040577 0.580485 0.648386
O O12 0.250000 0.040085 0.608075
O O13 0.463530 0.250000 0.621417
O O14 0.502788 0.985089 0.575951
O O15 0.250000 0.532091 0.035936
O O16 0.096813 0.250000 0.038617
O O17 0.000000 0.500000 0.000000
O O18 0.500000 0.500000 0.500000
O O19 0.750000 0.526803 0.536570
O O20 0.590677 0.250000 0.540501
#
# Coordination Sequence:
#
# PCOD9451756 Si02
#       7
#     8   8   4   4   8   8   8
#     4   9  18  34  56  82 113 149 189 237 297 357
#     4  10  22  41  65  93 125 159 199 250 307 365
#     4  12  26  42  64  94 128 162 204 252 302 370
#     4  10  22  40  62  88 118 156 202 248 300 364
#     4   9  19  37  59  83 115 154 196 244 298 353
#     4  10  21  35  52  77 110 149 194 239 285 340
#     4  10  21  35  53  80 114 152 195 244 297 351
#
# _framework density 19.186852999999999
#
# number of rings (size 3 to 8) (size 9 to 14) (size 15 to 20)
#    0.000    2.167    0.000    2.250    2.333    5.000 
#    0.000    3.333    0.000    0.000    0.000    0.000 
#    0.000    0.000    0.000    0.000    0.000    0.000 
#
# Total GULP energy -267879.713967 kJ/mol
# GULP energy per Si atom -5580.827374 kJ/mol
# Density = 1.914318 g / cm^3
# Si number density = 19.186853 Si / 1000 Ang^3
#
#
#
# Elastic Constant Matrix: (Units=GPa)
#
#
# Indices 1 2 3 4 5 6 
#
# 1 99.2797 50.9125 100.1332 0.0000 0.0000 0.0000
# 2 50.9125 75.9926 63.5195 0.0000 0.0000 0.0000
# 3 100.1332 63.5195 199.0459 0.0000 0.0000 0.0000
# 4 0.0000 0.0000 0.0000 34.2670 0.0000 0.0000
# 5 0.0000 0.0000 0.0000 0.0000 38.5021 0.0000
# 6 0.0000 0.0000 0.0000 0.0000 0.0000 19.8290
#
#
#
# Elastic Compliance Matrix: (Units=1/GPa)
#
#
# Indices 1 2 3 4 5 6 
#
# 1 0.023554 -0.008014 -0.009292 0.000000 0.000000 0.000000
# 2 -0.008014 0.020673 -0.002566 0.000000 0.000000 0.000000
# 3 -0.009292 -0.002566 0.010517 0.000000 0.000000 0.000000
# 4 0.000000 0.000000 0.000000 0.029183 0.000000 0.000000
# 5 0.000000 0.000000 0.000000 0.000000 0.025973 0.000000
# 6 0.000000 0.000000 0.000000 0.000000 0.000000 0.050431
#
#
# Mechanical properties :
#
#
# Convention : Reuss Voigt Hill
#
# Bulk Modulus (GPa) = 66.66067 89.27207 77.96637
# Shear Modulus (GPa) = 24.38166 29.16982 26.77574
#
# Velocity S-wave (km/s) = 3.56862 3.90334 3.73973
# Velocity P-wave (km/s) = 7.19711 8.18190 7.70525
#
# Compressibility (1/GPa) = 0.01500135
#
# Stress axis : x y z
#
# Youngs Moduli (GPa) = 42.45618 48.37340 95.08319
#
# Poissons Ratio (x) = 0.38764 0.88349
# Poissons Ratio (y) = 0.34022 0.24395
# Poissons Ratio (z) = 0.39449 0.12411
#
# Static dielectric constant tensor:
#      x y z
#    x 1.668870 0.000000 0.000000 
#    y 0.000000 1.678760 0.000000 
#    z 0.000000 0.000000 1.660310 
# 
# From -- ./inp_files/33068.got.cif
#   From: 2010.05.17/outbox.cif.g08.bks.cpg/sg59_17_cif.got.tgz:33068.got - 2010.06.03 14:40:33.
