data_PCOD9451061
_publ_section_title
;
Structure prediction by ZEFSAII (Michael W. Deem and Ramdas Pophale) SiO2 
 PCOD9451061
Probable space group: P M M N
;
_chemical_formula_sum "Si O2"
_cell_formula_units_Z 64
_cell_length_a 29.029677
_cell_length_b 8.990021
_cell_length_c 12.618313
_cell_angle_alpha 90.000000
_cell_angle_beta 90.000000
_cell_angle_gamma 90.000000
_cell_volume 3293.094593
_symmetry_space_group_name_H-M "P M M N"
_symmetry_group_IT_number 59
_space_group.IT_coordinate_system_code '2'
_symmetry_cell_setting 'orthorhombic'
loop_
_space_group_symop_operation_xyz
x,y,z
1/2-x,1/2-y,z
1/2+x,-y,-z
-x,1/2+y,-z
-x,-y,-z
1/2+x,1/2+y,-z
1/2-x,y,z
x,1/2-y,z
loop_
_atom_site_type_symbol
_atom_site_label
_atom_site_fract_x
_atom_site_fract_y
_atom_site_fract_z
Si Si1 0.132289 0.428246 0.614129
Si Si2 0.194632 0.419282 0.217183
Si Si3 0.571397 0.921193 0.004350
Si Si4 0.335893 0.924081 0.004336
Si Si5 0.301041 0.572005 0.777684
Si Si6 0.695887 0.427322 0.564120
Si Si7 0.487005 0.923762 0.168476
Si Si8 0.475198 0.429610 0.601417
O O1 0.133796 0.250000 0.613071
O O2 0.158377 0.488586 0.717631
O O3 0.162150 0.493550 0.517785
O O4 0.078692 0.473914 0.608224
O O5 0.250000 0.419372 0.209243
O O6 0.179125 0.250000 0.235350
O O7 0.182928 0.520827 0.317723
O O8 0.175717 0.482860 0.108062
O O9 0.587015 0.750000 0.998435
O O10 0.532868 0.930410 0.095757
O O11 0.612799 0.031234 0.029298
O O12 0.549138 0.973744 0.893335
O O13 0.332072 0.750000 0.028778
O O14 0.304354 0.956657 0.902969
O O15 0.250000 0.529364 0.738122
O O16 0.306166 0.750000 0.761851
O O17 0.750000 0.467757 0.546619
O O18 0.692282 0.250000 0.553335
O O19 0.471792 0.750000 0.168186
O O20 0.499453 0.968611 0.287990
O O21 0.500000 0.500000 0.500000
O O22 0.476593 0.250000 0.593114
#
# Coordination Sequence:
#
# PCOD9451061 Si02
#       8
#     8   8   8   8   8   8   8   8
#     4  11  23  39  60  87 118 151 192 243 296 348
#     4  10  21  37  57  81 110 145 186 232 280 330
#     4  10  20  35  58  85 112 144 184 233 283 334
#     4  11  22  36  56  83 117 154 190 230 280 339
#     4  10  22  39  59  86 120 157 197 239 284 342
#     4  10  21  38  60  85 115 153 196 239 286 345
#     4   9  19  38  59  80 110 145 183 229 284 343
#     4  10  23  41  60  83 113 149 189 237 291 348
#
# _framework density 19.434607
#
# number of rings (size 3 to 8) (size 9 to 14) (size 15 to 20)
#    0.000    1.875    0.000    3.375    0.000    8.750 
#    0.000    2.500    0.000    0.000    0.000    0.000 
#    0.000    0.000    0.000    0.000    0.000    0.000 
#
# Total GULP energy -357534.895358 kJ/mol
# GULP energy per Si atom -5586.482740 kJ/mol
# Density = 1.939037 g / cm^3
# Si number density = 19.434607 Si / 1000 Ang^3
#
#
#
# Elastic Constant Matrix: (Units=GPa)
#
#
# Indices 1 2 3 4 5 6 
#
# 1 65.8431 20.1164 27.3547 0.0000 0.0000 0.0000
# 2 20.1164 28.1366 27.8958 0.0000 0.0000 0.0000
# 3 27.3547 27.8958 101.6235 0.0000 0.0000 0.0000
# 4 0.0000 0.0000 0.0000 9.7045 0.0000 0.0000
# 5 0.0000 0.0000 0.0000 0.0000 69.8768 0.0000
# 6 0.0000 0.0000 0.0000 0.0000 0.0000 28.8413
#
#
#
# Elastic Compliance Matrix: (Units=1/GPa)
#
#
# Indices 1 2 3 4 5 6 
#
# 1 0.019717 -0.012138 -0.001975 0.000000 0.000000 0.000000
# 2 -0.012138 0.056303 -0.012188 0.000000 0.000000 0.000000
# 3 -0.001975 -0.012188 0.013718 0.000000 0.000000 0.000000
# 4 0.000000 0.000000 0.000000 0.103045 0.000000 0.000000
# 5 0.000000 0.000000 0.000000 0.000000 0.014311 0.000000
# 6 0.000000 0.000000 0.000000 0.000000 0.000000 0.034672
#
#
# Mechanical properties :
#
#
# Convention : Reuss Voigt Hill
#
# Bulk Modulus (GPa) = 26.92928 38.48187 32.70558
# Shear Modulus (GPa) = 16.30012 29.70027 23.00019
#
# Velocity S-wave (km/s) = 2.89920 3.91348 3.44389
# Velocity P-wave (km/s) = 5.00935 6.34540 5.71654
#
# Compressibility (1/GPa) = 0.03713430
#
# Stress axis : x y z
#
# Youngs Moduli (GPa) = 50.71844 17.76114 72.89924
#
# Poissons Ratio (x) = 0.21559 0.14400
# Poissons Ratio (y) = 0.61562 0.88849
# Poissons Ratio (z) = 0.10019 0.21647
#
# Static dielectric constant tensor:
#      x y z
#    x 1.694470 0.000000 0.000000 
#    y 0.000000 1.650820 0.000000 
#    z 0.000000 0.000000 1.670370 
# 
# From -- ./inp_files/19300.got.cif
#   From: 2010.05.17/outbox.cif.g08.bks.cpg/sg59_10_cif.got.tgz:19300.got - 2010.06.03 14:40:33.
