data_PCOD9451303
_publ_section_title
;
Structure prediction by ZEFSAII (Michael W. Deem and Ramdas Pophale) SiO2 
 PCOD9451303
Probable space group: P M M N
;
_chemical_formula_sum "Si O2"
_cell_formula_units_Z 64
_cell_length_a 15.331470
_cell_length_b 17.948964
_cell_length_c 12.282719
_cell_angle_alpha 90.000000
_cell_angle_beta 90.000000
_cell_angle_gamma 90.000000
_cell_volume 3380.007783
_symmetry_space_group_name_H-M "P M M N"
_symmetry_group_IT_number 59
_space_group.IT_coordinate_system_code '2'
_symmetry_cell_setting 'orthorhombic'
loop_
_space_group_symop_operation_xyz
x,y,z
1/2-x,1/2-y,z
1/2+x,-y,-z
-x,1/2+y,-z
-x,-y,-z
1/2+x,1/2+y,-z
1/2-x,y,z
x,1/2-y,z
loop_
_atom_site_type_symbol
_atom_site_label
_atom_site_fract_x
_atom_site_fract_y
_atom_site_fract_z
Si Si1 0.850845 0.917744 0.666874
Si Si2 0.474430 0.924358 0.559619
Si Si3 0.652599 0.162451 0.054988
Si Si4 0.353550 0.336502 0.101346
Si Si5 0.938382 0.945413 0.073886
Si Si6 0.150091 0.903766 0.370798
Si Si7 0.647691 0.055990 0.233409
Si Si8 0.058154 0.836316 0.171939
O O1 0.750000 0.900600 0.632606
O O2 0.863687 0.881576 0.785668
O O3 0.932949 0.889483 0.595636
O O4 0.858096 0.008399 0.664494
O O5 0.414271 0.884200 0.470162
O O6 0.414851 0.946453 0.662870
O O7 0.500000 0.000000 0.500000
O O8 0.750000 0.131268 0.039624
O O9 0.657678 0.250000 0.066272
O O10 0.618911 0.129256 0.166655
O O11 0.599904 0.148702 0.946216
O O12 0.250000 0.334523 0.079041
O O13 0.384143 0.250000 0.107874
O O14 0.399891 0.383859 0.007622
O O15 0.985056 0.899486 0.170935
O O16 0.868690 0.994229 0.140143
O O17 0.000000 0.000000 0.000000
O O18 0.250000 0.892865 0.403751
O O19 0.125447 0.854213 0.267131
O O20 0.750000 0.058126 0.264306
O O21 0.030002 0.750000 0.176844
#
# Coordination Sequence:
#
# PCOD9451303 Si02
#       8
#     8   8   8   8   8   8   8   8
#     4   9  19  35  59  86 112 150 195 245 301 352
#     4  10  20  38  58  84 116 149 196 252 298 342
#     4   9  19  35  54  82 119 153 186 228 284 351
#     4  10  21  37  56  81 116 153 190 237 295 359
#     4  12  21  35  54  85 117 152 191 242 288 352
#     4  10  20  36  59  83 113 155 203 247 289 343
#     4  11  22  36  59  88 116 154 196 241 297 353
#     4  11  22  36  55  81 116 158 194 234 292 353
#
# _framework density 18.934867000000001
#
# number of rings (size 3 to 8) (size 9 to 14) (size 15 to 20)
#    0.000    1.750    1.250    4.500    0.000    1.250 
#    0.000    1.250    0.000    1.500    0.000    0.000 
#    0.000    0.000    0.000    0.000    0.000    0.000 
#
# Total GULP energy -356655.349183 kJ/mol
# GULP energy per Si atom -5572.739831 kJ/mol
# Density = 1.889177 g / cm^3
# Si number density = 18.934867 Si / 1000 Ang^3
#
#
#
# Elastic Constant Matrix: (Units=GPa)
#
#
# Indices 1 2 3 4 5 6 
#
# 1 89.7074 23.2131 52.8845 0.0000 0.0000 0.0000
# 2 23.2131 22.0337 5.6393 0.0000 0.0000 0.0000
# 3 52.8845 5.6393 82.7187 0.0000 0.0000 0.0000
# 4 0.0000 0.0000 0.0000 9.5835 0.0000 0.0000
# 5 0.0000 0.0000 0.0000 0.0000 139.9806 0.0000
# 6 0.0000 0.0000 0.0000 0.0000 0.0000 20.4056
#
#
#
# Elastic Compliance Matrix: (Units=1/GPa)
#
#
# Indices 1 2 3 4 5 6 
#
# 1 0.026220 -0.023748 -0.015145 0.000000 0.000000 0.000000
# 2 -0.023748 0.067699 0.010567 0.000000 0.000000 0.000000
# 3 -0.015145 0.010567 0.021051 0.000000 0.000000 0.000000
# 4 0.000000 0.000000 0.000000 0.104346 0.000000 0.000000
# 5 0.000000 0.000000 0.000000 0.000000 0.007144 0.000000
# 6 0.000000 0.000000 0.000000 0.000000 0.000000 0.049006
#
#
# Mechanical properties :
#
#
# Convention : Reuss Voigt Hill
#
# Bulk Modulus (GPa) = 17.14652 39.77040 28.45846
# Shear Modulus (GPa) = 14.22243 41.50881 27.86562
#
# Velocity S-wave (km/s) = 2.74364 4.68716 3.84038
# Velocity P-wave (km/s) = 4.37172 7.09521 5.89296
#
# Compressibility (1/GPa) = 0.05832088
#
# Stress axis : x y z
#
# Youngs Moduli (GPa) = 38.13811 14.77118 47.50346
#
# Poissons Ratio (x) = 0.35078 0.71942
# Poissons Ratio (y) = 0.90570 -0.50199
# Poissons Ratio (z) = 0.57758 -0.15609
#
# Static dielectric constant tensor:
#      x y z
#    x 1.765910 0.000000 0.000000 
#    y 0.000000 1.657040 0.000000 
#    z 0.000000 0.000000 1.755240 
# 
# From -- ./inp_files/17222.got.cif
#   From: 2010.05.17/outbox.cif.g08.bks.cpg/sg59_9_cif.got.tgz:17222.got - 2010.06.03 14:40:33.
