data_PCOD9451660
_publ_section_title
;
Structure prediction by ZEFSAII (Michael W. Deem and Ramdas Pophale) SiO2 
 PCOD9451660
Probable space group: P M M N
;
_chemical_formula_sum "Si O2"
_cell_formula_units_Z 34
_cell_length_a 7.447569
_cell_length_b 9.992804
_cell_length_c 21.186953
_cell_angle_alpha 90.000000
_cell_angle_beta 90.000000
_cell_angle_gamma 90.000000
_cell_volume 1576.777478
_symmetry_space_group_name_H-M "P M M N"
_symmetry_group_IT_number 59
_space_group.IT_coordinate_system_code '2'
_symmetry_cell_setting 'orthorhombic'
loop_
_space_group_symop_operation_xyz
x,y,z
1/2-x,1/2-y,z
1/2+x,-y,-z
-x,1/2+y,-z
-x,-y,-z
1/2+x,1/2+y,-z
1/2-x,y,z
x,1/2-y,z
loop_
_atom_site_type_symbol
_atom_site_label
_atom_site_fract_x
_atom_site_fract_y
_atom_site_fract_z
Si Si1 0.466584 0.250000 0.908807
Si Si2 0.466186 0.475207 0.806699
Si Si3 0.964954 0.402617 0.441072
Si Si4 0.469361 0.398991 0.666573
Si Si5 0.750000 0.250000 0.024181
Si Si6 0.055028 0.250000 0.132799
O O1 0.250000 0.250000 0.922084
O O2 0.508652 0.376911 0.864454
O O3 0.591300 0.250000 0.969525
O O4 0.250000 0.481143 0.803881
O O5 0.526586 0.422244 0.738753
O O6 0.536299 0.620283 0.823690
O O7 0.750000 0.392585 0.435097
O O8 0.033419 0.250000 0.448022
O O9 0.030966 0.482964 0.379437
O O10 0.000000 0.500000 0.500000
O O11 0.250000 0.399962 0.666006
O O12 0.524498 0.250000 0.645240
O O13 0.595849 0.250000 0.079898
O O14 0.250000 0.250000 0.101699
#
# Coordination Sequence:
#
# PCOD9451660 Si02
#       6
#     4   8   8   8   2   4
#     4  10  23  43  71  98 126 164 217 274 325 409
#     4  10  20  42  67  95 127 164 213 273 333 396
#     4  10  21  36  58  92 130 174 221 267 321 383
#     4   9  17  33  63  94 123 163 215 266 327 390
#     4  12  26  48  68  96 132 180 212 266 348 386
#     4  12  27  45  63  96 134 172 219 274 325 399
#
# _framework density 21.562967
#
# number of rings (size 3 to 8) (size 9 to 14) (size 15 to 20)
#    0.000    1.882    2.353    1.059    3.294    2.353 
#    0.000    1.176    0.000    1.412    0.000    0.000 
#    0.000    0.000    0.000    0.000    0.000    0.000 
#
# Total GULP energy -189482.632606 kJ/mol
# GULP energy per Si atom -5573.018606 kJ/mol
# Density = 2.151389 g / cm^3
# Si number density = 21.562967 Si / 1000 Ang^3
#
#
#
# Elastic Constant Matrix: (Units=GPa)
#
#
# Indices 1 2 3 4 5 6 
#
# 1 83.6760 17.3906 23.3306 0.0000 0.0000 0.0000
# 2 17.3906 190.8113 56.9860 0.0000 0.0000 0.0000
# 3 23.3306 56.9860 111.2569 0.0000 0.0000 0.0000
# 4 0.0000 0.0000 0.0000 -18.5898 0.0000 0.0000
# 5 0.0000 0.0000 0.0000 0.0000 23.2794 0.0000
# 6 0.0000 0.0000 0.0000 0.0000 0.0000 -11.2053
#
#
#
# Elastic Compliance Matrix: (Units=1/GPa)
#
#
# Indices 1 2 3 4 5 6 
#
# 1 0.012723 -0.000428 -0.002449 0.000000 0.000000 0.000000
# 2 -0.000428 0.006202 -0.003087 0.000000 0.000000 0.000000
# 3 -0.002449 -0.003087 0.011083 0.000000 0.000000 0.000000
# 4 0.000000 0.000000 0.000000 -0.053793 0.000000 0.000000
# 5 0.000000 0.000000 0.000000 0.000000 0.042956 0.000000
# 6 0.000000 0.000000 0.000000 0.000000 0.000000 -0.089244
#
#
# Mechanical properties :
#
#
# Convention : Reuss Voigt Hill
#
# Bulk Modulus (GPa) = 55.31020 64.57319 59.94170
# Shear Modulus (GPa) = -95.93344 17.89933 -39.01706
#
# Velocity S-wave (km/s) = -6.67731 2.88426 -4.25837
# Velocity P-wave (km/s) = 5.80882 6.41119 1.91845
#
# Compressibility (1/GPa) = 0.01807985
#
# Stress axis : x y z
#
# Youngs Moduli (GPa) = 78.60044 161.24731 90.23094
#
# Poissons Ratio (x) = 0.06906 0.22094
# Poissons Ratio (y) = 0.03366 0.27851
# Poissons Ratio (z) = 0.19246 0.49772
#
# Static dielectric constant tensor:
#      x y z
#    x 1.825660 0.000000 0.000000 
#    y 0.000000 1.719090 0.000000 
#    z 0.000000 0.000000 1.723400 
# 
# From -- ./inp_files/28664.got.cif
#   From: 2010.05.17/outbox.cif.g08.bks.cpg/sg59_15_cif.got.tgz:28664.got - 2010.06.03 14:40:33.
