data_PCOD9451887
_publ_section_title
;
Structure prediction by ZEFSAII (Michael W. Deem and Ramdas Pophale) SiO2 
 PCOD9451887
Probable space group: P M M N
;
_chemical_formula_sum "Si O2"
_cell_formula_units_Z 48
_cell_length_a 14.422614
_cell_length_b 9.509762
_cell_length_c 17.977880
_cell_angle_alpha 90.000000
_cell_angle_beta 90.000000
_cell_angle_gamma 90.000000
_cell_volume 2465.767396
_symmetry_space_group_name_H-M "P M M N"
_symmetry_group_IT_number 59
_space_group.IT_coordinate_system_code '2'
_symmetry_cell_setting 'orthorhombic'
loop_
_space_group_symop_operation_xyz
x,y,z
1/2-x,1/2-y,z
1/2+x,-y,-z
-x,1/2+y,-z
-x,-y,-z
1/2+x,1/2+y,-z
1/2-x,y,z
x,1/2-y,z
loop_
_atom_site_type_symbol
_atom_site_label
_atom_site_fract_x
_atom_site_fract_y
_atom_site_fract_z
Si Si1 0.363238 0.589633 0.347493
Si Si2 0.001740 0.081962 0.076816
Si Si3 0.355869 0.578980 0.798300
Si Si4 0.639117 0.910804 0.795148
Si Si5 0.136677 0.911574 0.633831
Si Si6 0.136637 0.410516 0.490912
O O1 0.250000 0.592586 0.348550
O O2 0.395731 0.750000 0.352589
O O3 0.389572 0.514420 0.270706
O O4 0.391683 0.496734 0.417985
O O5 0.994656 0.250000 0.063777
O O6 0.919477 0.037820 0.132950
O O7 0.093353 0.055321 0.126031
O O8 0.000000 0.000000 0.000000
O O9 0.250000 0.531829 0.808138
O O10 0.355470 0.750000 0.795946
O O11 0.390276 0.536426 0.716144
O O12 0.750000 0.914040 0.800410
O O13 0.610635 0.750000 0.776011
O O14 0.250000 0.908525 0.634869
O O15 0.106148 0.750000 0.622974
O O16 0.108447 0.009184 0.565772
O O17 0.250000 0.407981 0.490657
O O18 0.104377 0.250000 0.488929
#
# Coordination Sequence:
#
# PCOD9451887 Si02
#       6
#     8   8   8   8   8   8
#     4   9  16  26  43  68  96 128 168 208 242 280
#     4  10  21  36  54  76 100 127 160 199 246 299
#     4   8  15  30  52  75  98 127 164 204 245 289
#     4   9  18  33  51  71  99 133 164 197 243 295
#     4   8  13  23  41  64  90 122 160 199 237 279
#     4   9  15  22  36  63  99 133 163 197 238 285
#
# _framework density 19.466556000000001
#
# number of rings (size 3 to 8) (size 9 to 14) (size 15 to 20)
#    0.000    3.167    0.000    2.000    0.000    5.333 
#    0.000    0.833    0.000    2.000    0.000    0.000 
#    0.000    0.000    0.000    0.000    0.000    0.000 
#
# Total GULP energy -267891.367843 kJ/mol
# GULP energy per Si atom -5581.070163 kJ/mol
# Density = 1.942225 g / cm^3
# Si number density = 19.466556 Si / 1000 Ang^3
#
#
#
# Elastic Constant Matrix: (Units=GPa)
#
#
# Indices 1 2 3 4 5 6 
#
# 1 50.7616 27.8768 31.5912 0.0000 0.0000 0.0000
# 2 27.8768 119.9301 113.2903 0.0000 0.0000 0.0000
# 3 31.5912 113.2903 213.3119 0.0000 0.0000 0.0000
# 4 0.0000 0.0000 0.0000 38.1534 0.0000 0.0000
# 5 0.0000 0.0000 0.0000 0.0000 49.3439 0.0000
# 6 0.0000 0.0000 0.0000 0.0000 0.0000 6.0273
#
#
#
# Elastic Compliance Matrix: (Units=1/GPa)
#
#
# Indices 1 2 3 4 5 6 
#
# 1 0.022716 -0.004219 -0.001124 0.000000 0.000000 0.000000
# 2 -0.004219 0.017517 -0.008678 0.000000 0.000000 0.000000
# 3 -0.001124 -0.008678 0.009463 0.000000 0.000000 0.000000
# 4 0.000000 0.000000 0.000000 0.026210 0.000000 0.000000
# 5 0.000000 0.000000 0.000000 0.000000 0.020266 0.000000
# 6 0.000000 0.000000 0.000000 0.000000 0.000000 0.165912
#
#
# Mechanical properties :
#
#
# Convention : Reuss Voigt Hill
#
# Bulk Modulus (GPa) = 46.17928 81.05782 63.61855
# Shear Modulus (GPa) = 16.81557 32.78794 24.80175
#
# Velocity S-wave (km/s) = 2.94227 4.10850 3.57328
# Velocity P-wave (km/s) = 5.94276 8.01475 7.05524
#
# Compressibility (1/GPa) = 0.02165474
#
# Stress axis : x y z
#
# Youngs Moduli (GPa) = 44.02174 57.08845 105.66956
#
# Poissons Ratio (x) = 0.24084 0.11873
# Poissons Ratio (y) = 0.18572 0.91704
# Poissons Ratio (z) = 0.04946 0.49543
#
# Static dielectric constant tensor:
#      x y z
#    x 1.749200 0.000000 0.000000 
#    y 0.000000 1.655150 0.000000 
#    z 0.000000 0.000000 1.642160 
# 
# From -- ./inp_files/27373.got.cif
#   From: 2010.05.17/outbox.cif.g08.bks.cpg/sg59_14_cif.got.tgz:27373.got - 2010.06.03 14:40:33.
