data_PCOD9451976
_publ_section_title
;
Structure prediction by ZEFSAII (Michael W. Deem and Ramdas Pophale) SiO2 
 PCOD9451976
Probable space group: P M M N
;
_chemical_formula_sum "Si O2"
_cell_formula_units_Z 48
_cell_length_a 9.135240
_cell_length_b 9.021203
_cell_length_c 31.788439
_cell_angle_alpha 90.000000
_cell_angle_beta 90.000000
_cell_angle_gamma 90.000000
_cell_volume 2619.712421
_symmetry_space_group_name_H-M "P M M N"
_symmetry_group_IT_number 59
_space_group.IT_coordinate_system_code '2'
_symmetry_cell_setting 'orthorhombic'
loop_
_space_group_symop_operation_xyz
x,y,z
1/2-x,1/2-y,z
1/2+x,-y,-z
-x,1/2+y,-z
-x,-y,-z
1/2+x,1/2+y,-z
1/2-x,y,z
x,1/2-y,z
loop_
_atom_site_type_symbol
_atom_site_label
_atom_site_fract_x
_atom_site_fract_y
_atom_site_fract_z
Si Si1 0.922922 0.071910 0.701084
Si Si2 0.575800 0.574014 0.960457
Si Si3 0.423615 0.927077 0.621111
Si Si4 0.424044 0.572695 0.459565
Si Si5 0.079855 0.071861 0.787905
Si Si6 0.577545 0.571297 0.866917
O O1 0.750000 0.040133 0.699440
O O2 0.941832 0.250000 0.696128
O O3 0.989321 0.029344 0.746307
O O4 0.007139 0.989722 0.663877
O O5 0.750000 0.549691 0.962725
O O6 0.550172 0.750000 0.962327
O O7 0.528265 0.522685 0.913764
O O8 0.500000 0.500000 0.000000
O O9 0.250000 0.958265 0.619779
O O10 0.443598 0.750000 0.618637
O O11 0.503618 0.004587 0.582046
O O12 0.500000 0.500000 0.500000
O O13 0.250000 0.543185 0.459998
O O14 0.444745 0.750000 0.460245
O O15 0.250000 0.031706 0.782656
O O16 0.070300 0.250000 0.791834
O O17 0.013126 0.999261 0.829419
O O18 0.750000 0.534189 0.862329
O O19 0.566461 0.750000 0.865402
#
# Coordination Sequence:
#
# PCOD9451976 Si02
#       6
#     8   8   8   8   8   8
#     4  10  21  38  60  84 110 144 186 228 272 325
#     4   9  19  35  53  75 104 137 175 219 266 319
#     4  11  24  40  59  86 118 151 189 231 276 329
#     4  11  24  41  62  89 119 152 192 235 280 331
#     4  10  21  36  55  81 111 142 178 222 272 324
#     4   9  19  36  55  75 103 140 179 219 266 320
#
# _framework density 18.322621000000002
#
# number of rings (size 3 to 8) (size 9 to 14) (size 15 to 20)
#    0.000    2.000    0.000    4.000    0.000   11.333 
#    0.000    5.000    0.000    0.000    0.000    0.000 
#    0.000    0.000    0.000    0.000    0.000    0.000 
#
# Total GULP energy -268133.018556 kJ/mol
# GULP energy per Si atom -5586.104553 kJ/mol
# Density = 1.828092 g / cm^3
# Si number density = 18.322621 Si / 1000 Ang^3
#
#
#
# Elastic Constant Matrix: (Units=GPa)
#
#
# Indices 1 2 3 4 5 6 
#
# 1 127.8493 75.6323 103.0754 0.0000 0.0000 0.0000
# 2 75.6323 52.3208 76.5330 0.0000 0.0000 0.0000
# 3 103.0754 76.5330 204.1878 0.0000 0.0000 0.0000
# 4 0.0000 0.0000 0.0000 41.3266 0.0000 0.0000
# 5 0.0000 0.0000 0.0000 0.0000 43.0743 0.0000
# 6 0.0000 0.0000 0.0000 0.0000 0.0000 32.1880
#
#
#
# Elastic Compliance Matrix: (Units=1/GPa)
#
#
# Indices 1 2 3 4 5 6 
#
# 1 0.055866 -0.087452 0.004577 0.000000 0.000000 0.000000
# 2 -0.087452 0.179206 -0.023023 0.000000 0.000000 0.000000
# 3 0.004577 -0.023023 0.011216 0.000000 0.000000 0.000000
# 4 0.000000 0.000000 0.000000 0.024198 0.000000 0.000000
# 5 0.000000 0.000000 0.000000 0.000000 0.023216 0.000000
# 6 0.000000 0.000000 0.000000 0.000000 0.000000 0.031067
#
#
# Mechanical properties :
#
#
# Convention : Reuss Voigt Hill
#
# Bulk Modulus (GPa) = 28.99197 99.42658 64.20928
# Shear Modulus (GPa) = 9.12306 31.92559 20.52432
#
# Velocity S-wave (km/s) = 2.23382 4.17875 3.35051
# Velocity P-wave (km/s) = 4.74454 8.81276 7.07727
#
# Compressibility (1/GPa) = 0.03449231
#
# Stress axis : x y z
#
# Youngs Moduli (GPa) = 17.90005 5.58018 89.15477
#
# Poissons Ratio (x) = 0.48800 -0.40805
# Poissons Ratio (y) = 1.56539 2.05262
# Poissons Ratio (z) = -0.08193 0.12847
#
# Static dielectric constant tensor:
#      x y z
#    x 1.610520 0.000000 0.000000 
#    y 0.000000 1.613490 0.000000 
#    z 0.000000 0.000000 1.604700 
# 
# From -- ./inp_files/32906.got.cif
#   From: 2010.05.17/outbox.cif.g08.bks.cpg/sg59_17_cif.got.tgz:32906.got - 2010.06.03 14:40:33.
