data_PCOD9451808
_publ_section_title
;
Structure prediction by ZEFSAII (Michael W. Deem and Ramdas Pophale) SiO2 
 PCOD9451808
Probable space group: P M M N
;
_chemical_formula_sum "Si O2"
_cell_formula_units_Z 64
_cell_length_a 14.685607
_cell_length_b 16.117582
_cell_length_c 12.714663
_cell_angle_alpha 90.000000
_cell_angle_beta 90.000000
_cell_angle_gamma 90.000000
_cell_volume 3009.515913
_symmetry_space_group_name_H-M "P M M N"
_symmetry_group_IT_number 59
_space_group.IT_coordinate_system_code '2'
_symmetry_cell_setting 'orthorhombic'
loop_
_space_group_symop_operation_xyz
x,y,z
1/2-x,1/2-y,z
1/2+x,-y,-z
-x,1/2+y,-z
-x,-y,-z
1/2+x,1/2+y,-z
1/2-x,y,z
x,1/2-y,z
loop_
_atom_site_type_symbol
_atom_site_label
_atom_site_fract_x
_atom_site_fract_y
_atom_site_fract_z
Si Si1 0.644271 0.071721 0.132307
Si Si2 0.952579 0.344296 0.941940
Si Si3 0.848601 0.873692 0.113899
Si Si4 0.353011 0.924686 0.480419
Si Si5 0.457546 0.848689 0.302079
Si Si6 0.148436 0.119905 0.652619
Si Si7 0.040222 0.847306 0.672762
Si Si8 0.648451 0.618388 0.580097
O O1 0.750000 0.098771 0.141081
O O2 0.582982 0.111087 0.223970
O O3 0.644296 0.972100 0.136142
O O4 0.599920 0.097890 0.022016
O O5 0.923432 0.250000 0.961968
O O6 0.935927 0.364601 0.819534
O O7 0.062582 0.348599 0.950030
O O8 0.750000 0.855702 0.065664
O O9 0.849123 0.837217 0.232576
O O10 0.250000 0.910739 0.515261
O O11 0.375864 0.871248 0.378059
O O12 0.418121 0.895045 0.572941
O O13 0.363205 0.021085 0.449826
O O14 0.479587 0.750000 0.313634
O O15 0.542329 0.907411 0.338038
O O16 0.250000 0.076184 0.651412
O O17 0.145606 0.159404 0.536580
O O18 0.064669 0.750000 0.669949
O O19 0.931626 0.854713 0.656781
O O20 0.750000 0.630857 0.623232
#
# Coordination Sequence:
#
# PCOD9451808 Si02
#       8
#     8   8   8   8   8   8   8   8
#     4  11  24  42  64  88 119 163 212 252 296 359
#     4  10  22  39  61  88 121 159 198 248 308 363
#     4   9  19  37  63  95 121 153 202 255 305 357
#     4  11  23  38  58  86 120 158 199 244 298 356
#     4  10  21  35  55  86 117 151 190 240 303 357
#     4   9  17  32  57  86 120 153 191 240 297 359
#     4  12  25  39  62  92 123 161 203 254 304 351
#     4  10  22  39  60  87 119 163 204 242 300 362
#
# _framework density 21.265879000000002
#
# number of rings (size 3 to 8) (size 9 to 14) (size 15 to 20)
#    0.000    1.750    1.250    2.625    3.500    5.750 
#    0.000    5.625    0.000    1.500    0.000    0.000 
#    0.000    0.000    0.000    0.000    0.000    0.000 
#
# Total GULP energy -356811.488233 kJ/mol
# GULP energy per Si atom -5575.179504 kJ/mol
# Density = 2.121748 g / cm^3
# Si number density = 21.265879 Si / 1000 Ang^3
#
#
#
# Elastic Constant Matrix: (Units=GPa)
#
#
# Indices 1 2 3 4 5 6 
#
# 1 116.1873 37.8213 49.7134 0.0000 0.0000 0.0000
# 2 37.8213 91.7748 43.4236 0.0000 0.0000 0.0000
# 3 49.7134 43.4236 90.0007 0.0000 0.0000 0.0000
# 4 0.0000 0.0000 0.0000 147.3920 0.0000 0.0000
# 5 0.0000 0.0000 0.0000 0.0000 34.8795 0.0000
# 6 0.0000 0.0000 0.0000 0.0000 0.0000 160.8169
#
#
#
# Elastic Compliance Matrix: (Units=1/GPa)
#
#
# Indices 1 2 3 4 5 6 
#
# 1 0.011625 -0.002271 -0.005325 0.000000 0.000000 0.000000
# 2 -0.002271 0.014563 -0.005772 0.000000 0.000000 0.000000
# 3 -0.005325 -0.005772 0.016838 0.000000 0.000000 0.000000
# 4 0.000000 0.000000 0.000000 0.006785 0.000000 0.000000
# 5 0.000000 0.000000 0.000000 0.000000 0.028670 0.000000
# 6 0.000000 0.000000 0.000000 0.000000 0.000000 0.006218
#
#
# Mechanical properties :
#
#
# Convention : Reuss Voigt Hill
#
# Bulk Modulus (GPa) = 61.39274 62.20881 61.80078
# Shear Modulus (GPa) = 42.78457 79.75131 61.26794
#
# Velocity S-wave (km/s) = 4.49027 6.13053 5.37336
# Velocity P-wave (km/s) = 7.47096 8.91222 8.22322
#
# Compressibility (1/GPa) = 0.01628857
#
# Stress axis : x y z
#
# Youngs Moduli (GPa) = 86.02449 68.66630 59.39118
#
# Poissons Ratio (x) = 0.15593 0.31628
# Poissons Ratio (y) = 0.19535 0.34281
# Poissons Ratio (z) = 0.45811 0.39635
#
# Static dielectric constant tensor:
#      x y z
#    x 1.811470 0.000000 0.000000 
#    y 0.000000 1.828960 0.000000 
#    z 0.000000 0.000000 1.734320 
# 
# From -- ./inp_files/17260.got.cif
#   From: 2010.05.17/outbox.cif.g08.bks.cpg/sg59_9_cif.got.tgz:17260.got - 2010.06.03 14:40:33.
