data_PCOD9451522
_publ_section_title
;
Structure prediction by ZEFSAII (Michael W. Deem and Ramdas Pophale) SiO2 
 PCOD9451522
Probable space group: P M M N
;
_chemical_formula_sum "Si O2"
_cell_formula_units_Z 64
_cell_length_a 31.869516
_cell_length_b 8.124447
_cell_length_c 12.240240
_cell_angle_alpha 90.000000
_cell_angle_beta 90.000000
_cell_angle_gamma 90.000000
_cell_volume 3169.269792
_symmetry_space_group_name_H-M "P M M N"
_symmetry_group_IT_number 59
_space_group.IT_coordinate_system_code '2'
_symmetry_cell_setting 'orthorhombic'
loop_
_space_group_symop_operation_xyz
x,y,z
1/2-x,1/2-y,z
1/2+x,-y,-z
-x,1/2+y,-z
-x,-y,-z
1/2+x,1/2+y,-z
1/2-x,y,z
x,1/2-y,z
loop_
_atom_site_type_symbol
_atom_site_label
_atom_site_fract_x
_atom_site_fract_y
_atom_site_fract_z
Si Si1 0.453576 0.555762 0.467857
Si Si2 0.047219 0.447971 0.022929
Si Si3 0.817983 0.440167 0.745254
Si Si4 0.623789 0.548681 0.126946
Si Si5 0.377988 0.049780 0.620083
Si Si6 0.704472 0.554393 0.507916
Si Si7 0.796138 0.947746 0.987718
Si Si8 0.088332 0.056520 0.248938
O O1 0.500000 0.500000 0.500000
O O2 0.453401 0.750000 0.447668
O O3 0.419689 0.514149 0.561218
O O4 0.438278 0.466620 0.358003
O O5 0.048188 0.250000 0.021311
O O6 0.062916 0.500050 0.142650
O O7 0.081501 0.506262 0.934604
O O8 0.000000 0.500000 0.000000
O O9 0.806054 0.250000 0.739968
O O10 0.800735 0.527108 0.637190
O O11 0.803016 0.511772 0.860519
O O12 0.868180 0.460692 0.741668
O O13 0.624104 0.750000 0.124431
O O14 0.624399 0.500251 0.253374
O O15 0.664702 0.491448 0.059644
O O16 0.379161 0.250000 0.614881
O O17 0.336614 0.990567 0.554731
O O18 0.750000 0.486725 0.473329
O O19 0.705044 0.750000 0.487581
O O20 0.750000 0.009087 0.021765
O O21 0.796031 0.750000 0.998291
O O22 0.099022 0.250000 0.235210
#
# Coordination Sequence:
#
# PCOD9451522 Si02
#       8
#     8   8   8   8   8   8   8   8
#     4  12  26  43  64  92 124 159 203 248 300 359
#     4  10  22  39  61  88 122 156 193 242 295 353
#     4  12  23  36  58  89 123 159 199 250 304 359
#     4   9  19  38  60  87 118 155 199 247 297 349
#     4  10  21  39  63  88 122 161 201 252 303 357
#     4  10  21  37  59  87 120 160 202 246 302 363
#     4  10  20  37  62  88 118 158 202 248 299 356
#     4  11  22  41  66  91 122 158 198 249 302 355
#
# _framework density 20.193926999999999
#
# number of rings (size 3 to 8) (size 9 to 14) (size 15 to 20)
#    0.000    1.500    2.500    3.000    1.750    3.500 
#    0.000    3.125    0.000    0.000    0.000    1.750 
#    0.000    0.000    0.000    0.000    0.000    0.000 
#
# Total GULP energy -357694.140893 kJ/mol
# GULP energy per Si atom -5588.970951 kJ/mol
# Density = 2.014796 g / cm^3
# Si number density = 20.193927 Si / 1000 Ang^3
#
#
#
# Elastic Constant Matrix: (Units=GPa)
#
#
# Indices 1 2 3 4 5 6 
#
# 1 192.6625 1.9280 74.5192 0.0000 0.0000 0.0000
# 2 1.9280 19.9948 -5.8929 0.0000 0.0000 0.0000
# 3 74.5192 -5.8929 132.6959 0.0000 0.0000 0.0000
# 4 0.0000 0.0000 0.0000 0.6046 0.0000 0.0000
# 5 0.0000 0.0000 0.0000 0.0000 -2.4096 0.0000
# 6 0.0000 0.0000 0.0000 0.0000 0.0000 21.0403
#
#
#
# Elastic Compliance Matrix: (Units=1/GPa)
#
#
# Indices 1 2 3 4 5 6 
#
# 1 0.006692 -0.001776 -0.003837 0.000000 0.000000 0.000000
# 2 -0.001776 0.051148 0.003269 0.000000 0.000000 0.000000
# 3 -0.003837 0.003269 0.009836 0.000000 0.000000 0.000000
# 4 0.000000 0.000000 0.000000 1.654087 0.000000 0.000000
# 5 0.000000 0.000000 0.000000 0.000000 -0.415004 0.000000
# 6 0.000000 0.000000 0.000000 0.000000 0.000000 0.047528
#
#
# Mechanical properties :
#
#
# Convention : Reuss Voigt Hill
#
# Bulk Modulus (GPa) = 15.87628 54.05132 34.96380
# Shear Modulus (GPa) = 3.62326 22.16698 12.89512
#
# Velocity S-wave (km/s) = 1.34094 3.31676 2.52972
# Velocity P-wave (km/s) = 3.20570 6.44143 5.08766
#
# Compressibility (1/GPa) = 0.06298704
#
# Stress axis : x y z
#
# Youngs Moduli (GPa) = 149.42405 19.55126 101.66662
#
# Poissons Ratio (x) = 0.03473 0.39011
# Poissons Ratio (y) = 0.26541 -0.33234
# Poissons Ratio (z) = 0.57337 -0.06391
#
# Static dielectric constant tensor:
#      x y z
#    x 1.712130 0.000000 0.000000 
#    y 0.000000 1.723870 0.000000 
#    z 0.000000 0.000000 1.686190 
# 
# From -- ./inp_files/19396.got.cif
#   From: 2010.05.17/outbox.cif.g08.bks.cpg/sg59_10_cif.got.tgz:19396.got - 2010.06.03 14:40:33.
