data_PCOD9451559
_publ_section_title
;
Structure prediction by ZEFSAII (Michael W. Deem and Ramdas Pophale) SiO2 
 PCOD9451559
Probable space group: P M M N
;
_chemical_formula_sum "Si O2"
_cell_formula_units_Z 34
_cell_length_a 15.642898
_cell_length_b 19.721093
_cell_length_c 4.919390
_cell_angle_alpha 90.000000
_cell_angle_beta 90.000000
_cell_angle_gamma 90.000000
_cell_volume 1517.607446
_symmetry_space_group_name_H-M "P M M N"
_symmetry_group_IT_number 59
_space_group.IT_coordinate_system_code '2'
_symmetry_cell_setting 'orthorhombic'
loop_
_space_group_symop_operation_xyz
x,y,z
1/2-x,1/2-y,z
1/2+x,-y,-z
-x,1/2+y,-z
-x,-y,-z
1/2+x,1/2+y,-z
1/2-x,y,z
x,1/2-y,z
loop_
_atom_site_type_symbol
_atom_site_label
_atom_site_fract_x
_atom_site_fract_y
_atom_site_fract_z
Si Si1 0.112659 0.632882 0.701141
Si Si2 0.493777 0.830488 0.181034
Si Si3 0.250000 0.425000 0.117630
Si Si4 0.250000 0.518614 0.619602
Si Si5 0.154703 0.326999 0.463564
Si Si6 0.750000 0.250000 0.174219
O O1 0.078842 0.655567 0.407230
O O2 0.166965 0.564555 0.674240
O O3 0.033938 0.630649 0.910288
O O4 0.175914 0.690770 0.812193
O O5 0.497274 0.750000 0.123099
O O6 0.581935 0.849035 0.330169
O O7 0.250000 0.490296 0.315496
O O8 0.170645 0.378154 0.215143
O O9 0.250000 0.454750 0.819810
O O10 0.250000 0.322935 0.592786
O O11 0.134105 0.250000 0.370790
#
# Coordination Sequence:
#
# PCOD9451559 Si02
#       6
#     8   8   4   4   8   2
#     4  11  23  37  59  90 125 161 205 244 296 358
#     4  11  20  38  61  95 122 150 199 263 304 350
#     4  10  21  44  62  85 118 172 196 252 294 365
#     4  11  24  41  59  84 127 168 208 232 299 368
#     4   8  19  41  69  93 117 153 203 255 313 358
#     4  10  20  38  56  86 116 170 186 246 294 338
#
# _framework density 22.403683000000001
#
# number of rings (size 3 to 8) (size 9 to 14) (size 15 to 20)
#    0.706    1.176    2.353    1.412    0.000    5.647 
#    0.000   11.765    0.000    0.000    0.000    0.000 
#    0.000    0.000    0.000    0.000    0.000    0.000 
#
# Total GULP energy -189505.993372 kJ/mol
# GULP energy per Si atom -5573.705687 kJ/mol
# Density = 2.235269 g / cm^3
# Si number density = 22.403683 Si / 1000 Ang^3
#
#
#
# Elastic Constant Matrix: (Units=GPa)
#
#
# Indices 1 2 3 4 5 6 
#
# 1 89.8765 26.8036 21.4963 0.0000 0.0000 0.0000
# 2 26.8036 82.6777 7.0952 0.0000 0.0000 0.0000
# 3 21.4963 7.0952 76.1383 0.0000 0.0000 0.0000
# 4 0.0000 0.0000 0.0000 -56.4694 0.0000 0.0000
# 5 0.0000 0.0000 0.0000 0.0000 417.5818 0.0000
# 6 0.0000 0.0000 0.0000 0.0000 0.0000 20.4073
#
#
#
# Elastic Compliance Matrix: (Units=1/GPa)
#
#
# Indices 1 2 3 4 5 6 
#
# 1 0.013105 -0.003963 -0.003331 0.000000 0.000000 0.000000
# 2 -0.003963 0.013391 -0.000129 0.000000 0.000000 0.000000
# 3 -0.003331 -0.000129 0.014086 0.000000 0.000000 0.000000
# 4 0.000000 0.000000 0.000000 -0.017709 0.000000 0.000000
# 5 0.000000 0.000000 0.000000 0.000000 0.002395 0.000000
# 6 0.000000 0.000000 0.000000 0.000000 0.000000 0.049002
#
#
# Mechanical properties :
#
#
# Convention : Reuss Voigt Hill
#
# Bulk Modulus (GPa) = 38.85412 39.94252 39.39832
# Shear Modulus (GPa) = 51.18029 89.19044 70.18537
#
# Velocity S-wave (km/s) = 4.78479 6.31641 5.60318
# Velocity P-wave (km/s) = 6.92141 8.42991 7.71263
#
# Compressibility (1/GPa) = 0.02573730
#
# Stress axis : x y z
#
# Youngs Moduli (GPa) = 76.30819 74.67759 70.99061
#
# Poissons Ratio (x) = 0.29592 0.23644
# Poissons Ratio (y) = 0.30238 0.00916
# Poissons Ratio (z) = 0.25415 0.00964
#
# Static dielectric constant tensor:
#      x y z
#    x 1.889090 0.000000 0.000000 
#    y 0.000000 1.814100 0.000000 
#    z 0.000000 0.000000 1.837600 
# 
# From -- ./inp_files/1952.got.cif
#   From: 2010.05.17/outbox.cif.g08.bks.cpg/sg59_1_cif.got.tgz:1952.got - 2010.06.03 14:40:33.
