data_PCOD9451981
_publ_section_title
;
Structure prediction by ZEFSAII (Michael W. Deem and Ramdas Pophale) SiO2 
 PCOD9451981
Probable space group: P M M N
;
_chemical_formula_sum "Si O2"
_cell_formula_units_Z 48
_cell_length_a 8.675267
_cell_length_b 31.395265
_cell_length_c 9.339670
_cell_angle_alpha 90.000000
_cell_angle_beta 90.000000
_cell_angle_gamma 90.000000
_cell_volume 2543.774062
_symmetry_space_group_name_H-M "P M M N"
_symmetry_group_IT_number 59
_space_group.IT_coordinate_system_code '2'
_symmetry_cell_setting 'orthorhombic'
loop_
_space_group_symop_operation_xyz
x,y,z
1/2-x,1/2-y,z
1/2+x,-y,-z
-x,1/2+y,-z
-x,-y,-z
1/2+x,1/2+y,-z
1/2-x,y,z
x,1/2-y,z
loop_
_atom_site_type_symbol
_atom_site_label
_atom_site_fract_x
_atom_site_fract_y
_atom_site_fract_z
Si Si1 0.434403 0.298629 0.587297
Si Si2 0.565947 0.960321 0.089191
Si Si3 0.935614 0.460448 0.590048
Si Si4 0.563381 0.380242 0.082373
Si Si5 0.064270 0.798278 0.097055
Si Si6 0.064288 0.876517 0.587107
O O1 0.250000 0.300193 0.588690
O O2 0.482734 0.250000 0.552614
O O3 0.495838 0.308120 0.746925
O O4 0.498423 0.333285 0.478411
O O5 0.750000 0.962766 0.093362
O O6 0.500393 0.961259 0.249769
O O7 0.511664 0.917400 0.010579
O O8 0.500000 0.000000 0.000000
O O9 0.750000 0.462410 0.593911
O O10 0.981504 0.416721 0.510179
O O11 0.000000 0.500000 0.500000
O O12 0.750000 0.384558 0.074201
O O13 0.517377 0.383189 0.248303
O O14 0.520623 0.334459 0.015836
O O15 0.250000 0.798814 0.108987
O O16 0.017178 0.750000 0.057499
O O17 0.250000 0.873913 0.584391
#
# Coordination Sequence:
#
# PCOD9451981 Si02
#       6
#     8   8   8   8   8   8
#     4  10  21  36  55  81 113 149 191 238 285 336
#     4  12  25  41  62  87 116 152 193 238 291 346
#     4  11  23  40  62  89 120 154 194 238 287 343
#     4  10  21  38  59  86 118 149 189 238 285 339
#     4   9  18  34  57  83 112 149 191 234 282 336
#     4  10  22  38  58  84 115 151 189 232 282 340
#
# _framework density 18.869602
#
# number of rings (size 3 to 8) (size 9 to 14) (size 15 to 20)
#    0.000    1.667    0.000    4.500    0.000    9.667 
#    0.000    1.667    0.000    2.000    0.000    0.000 
#    0.000    0.000    0.000    0.000    0.000    0.000 
#
# Total GULP energy -268315.881865 kJ/mol
# GULP energy per Si atom -5589.914206 kJ/mol
# Density = 1.882665 g / cm^3
# Si number density = 18.869602 Si / 1000 Ang^3
#
#
#
# Elastic Constant Matrix: (Units=GPa)
#
#
# Indices 1 2 3 4 5 6 
#
# 1 47.0857 48.5196 55.0448 0.0000 0.0000 0.0000
# 2 48.5196 138.6713 115.2826 0.0000 0.0000 0.0000
# 3 55.0448 115.2826 193.8070 0.0000 0.0000 0.0000
# 4 0.0000 0.0000 0.0000 42.6468 0.0000 0.0000
# 5 0.0000 0.0000 0.0000 0.0000 22.2837 0.0000
# 6 0.0000 0.0000 0.0000 0.0000 0.0000 33.2917
#
#
#
# Elastic Compliance Matrix: (Units=1/GPa)
#
#
# Indices 1 2 3 4 5 6 
#
# 1 0.035841 -0.008067 -0.005381 0.000000 0.000000 0.000000
# 2 -0.008067 0.016082 -0.007275 0.000000 0.000000 0.000000
# 3 -0.005381 -0.007275 0.011015 0.000000 0.000000 0.000000
# 4 0.000000 0.000000 0.000000 0.023448 0.000000 0.000000
# 5 0.000000 0.000000 0.000000 0.000000 0.044876 0.000000
# 6 0.000000 0.000000 0.000000 0.000000 0.000000 0.030037
#
#
# Mechanical properties :
#
#
# Convention : Reuss Voigt Hill
#
# Bulk Modulus (GPa) = 46.52757 90.80646 68.66702
# Shear Modulus (GPa) = 23.81980 30.35890 27.08935
#
# Velocity S-wave (km/s) = 3.55679 4.01543 3.79305
# Velocity P-wave (km/s) = 6.44815 8.35020 7.46005
#
# Compressibility (1/GPa) = 0.02149263
#
# Stress axis : x y z
#
# Youngs Moduli (GPa) = 27.90088 62.18322 90.78285
#
# Poissons Ratio (x) = 0.50163 0.48851
# Poissons Ratio (y) = 0.22507 0.66041
# Poissons Ratio (z) = 0.15014 0.45236
#
# Static dielectric constant tensor:
#      x y z
#    x 1.641000 0.000000 0.000000 
#    y 0.000000 1.641720 0.000000 
#    z 0.000000 0.000000 1.615650 
# 
# From -- ./inp_files/6200.got.cif
#   From: 2010.05.17/outbox.cif.g08.bks.cpg/sg59_4_cif.got.tgz:6200.got - 2010.06.03 14:40:33.
