data_PCOD9451693
_publ_section_title
;
Structure prediction by ZEFSAII (Michael W. Deem and Ramdas Pophale) SiO2 
 PCOD9451693
Probable space group: P M M N
;
_chemical_formula_sum "Si O2"
_cell_formula_units_Z 64
_cell_length_a 7.436059
_cell_length_b 29.169368
_cell_length_c 12.917756
_cell_angle_alpha 90.000000
_cell_angle_beta 90.000000
_cell_angle_gamma 90.000000
_cell_volume 2801.927692
_symmetry_space_group_name_H-M "P M M N"
_symmetry_group_IT_number 59
_space_group.IT_coordinate_system_code '2'
_symmetry_cell_setting 'orthorhombic'
loop_
_space_group_symop_operation_xyz
x,y,z
1/2-x,1/2-y,z
1/2+x,-y,-z
-x,1/2+y,-z
-x,-y,-z
1/2+x,1/2+y,-z
1/2-x,y,z
x,1/2-y,z
loop_
_atom_site_type_symbol
_atom_site_label
_atom_site_fract_x
_atom_site_fract_y
_atom_site_fract_z
Si Si1 0.545111 0.694345 0.654821
Si Si2 0.464715 0.947474 0.531635
Si Si3 0.040032 0.106256 0.033522
Si Si4 0.971115 0.802292 0.883705
Si Si5 0.545885 0.545018 0.145323
Si Si6 0.467207 0.197814 0.569264
Si Si7 0.531700 0.448990 0.235556
Si Si8 0.460782 0.893369 0.333151
O O1 0.750000 0.676838 0.656821
O O2 0.553007 0.750000 0.649970
O O3 0.464788 0.684970 0.767179
O O4 0.463387 0.681256 0.544226
O O5 0.250000 0.940661 0.535163
O O6 0.532770 0.939173 0.647968
O O7 0.534938 0.915948 0.438868
O O8 0.500000 0.000000 0.500000
O O9 0.250000 0.110156 0.004577
O O10 0.968706 0.158064 0.038467
O O11 0.026544 0.086708 0.149037
O O12 0.959679 0.069167 0.954477
O O13 0.750000 0.802558 0.880028
O O14 0.023943 0.750000 0.906797
O O15 0.750000 0.532012 0.115741
O O16 0.467899 0.498926 0.195354
O O17 0.548460 0.583244 0.234525
O O18 0.250000 0.198991 0.561848
O O19 0.527342 0.250000 0.588088
O O20 0.517576 0.160855 0.654535
O O21 0.750000 0.449523 0.239777
O O22 0.250000 0.904383 0.325330
#
# Coordination Sequence:
#
# PCOD9451693 Si02
#       8
#     8   8   8   8   8   8   8   8
#     4   7  11  22  42  68  98 131 164 200 250 310
#     4  10  21  37  56  81 110 143 182 222 275 339
#     4  10  21  34  55  86 108 135 187 234 271 325
#     4   8  14  27  47  74 108 137 165 213 270 316
#     4  10  21  39  57  76 108 148 188 231 278 331
#     4   9  18  33  54  80 109 145 187 226 270 329
#     4  10  21  37  56  77 110 149 178 221 286 340
#     4  11  23  36  55  82 111 145 187 232 277 330
#
# _framework density 22.841415999999999
#
# number of rings (size 3 to 8) (size 9 to 14) (size 15 to 20)
#    0.000    2.625    1.250    2.250    1.750    2.250 
#    0.000    0.625    0.000    2.625    0.000    0.000 
#    0.000    0.000    0.000    0.000    0.000    0.000 
#
# Total GULP energy -357287.525099 kJ/mol
# GULP energy per Si atom -5582.617580 kJ/mol
# Density = 2.278943 g / cm^3
# Si number density = 22.841416 Si / 1000 Ang^3
#
#
#
# Elastic Constant Matrix: (Units=GPa)
#
#
# Indices 1 2 3 4 5 6 
#
# 1 75.4864 -4.6990 -4.6523 0.0000 0.0000 0.0000
# 2 -4.6990 76.6062 24.5017 0.0000 0.0000 0.0000
# 3 -4.6523 24.5017 81.2541 0.0000 0.0000 0.0000
# 4 0.0000 0.0000 0.0000 21.6275 0.0000 0.0000
# 5 0.0000 0.0000 0.0000 0.0000 -25.6393 0.0000
# 6 0.0000 0.0000 0.0000 0.0000 0.0000 -9.7128
#
#
#
# Elastic Compliance Matrix: (Units=1/GPa)
#
#
# Indices 1 2 3 4 5 6 
#
# 1 0.013322 0.000634 0.000571 0.000000 0.000000 0.000000
# 2 0.000634 0.014477 -0.004329 0.000000 0.000000 0.000000
# 3 0.000571 -0.004329 0.013645 0.000000 0.000000 0.000000
# 4 0.000000 0.000000 0.000000 0.046238 0.000000 0.000000
# 5 0.000000 0.000000 0.000000 0.000000 -0.039003 0.000000
# 6 0.000000 0.000000 0.000000 0.000000 0.000000 -0.102957
#
#
# Mechanical properties :
#
#
# Convention : Reuss Voigt Hill
#
# Bulk Modulus (GPa) = 28.41070 29.29416 28.85243
# Shear Modulus (GPa) = -137.74858 11.80149 -62.97354
#
# Velocity S-wave (km/s) = -7.77415 2.27551 -5.25640
# Velocity P-wave (km/s) = 8.25336 4.44486 4.91738
#
# Compressibility (1/GPa) = 0.03519800
#
# Stress axis : x y z
#
# Youngs Moduli (GPa) = 75.06304 69.07347 73.28559
#
# Poissons Ratio (x) = -0.04382 -0.04188
# Poissons Ratio (y) = -0.04762 0.31727
# Poissons Ratio (z) = -0.04290 0.29904
#
# Static dielectric constant tensor:
#      x y z
#    x 1.918800 0.000000 0.000000 
#    y 0.000000 1.853740 0.000000 
#    z 0.000000 0.000000 1.860800 
# 
# From -- ./inp_files/14940.got.cif
#   From: 2010.05.17/outbox.cif.g08.bks.cpg/sg59_8_cif.got.tgz:14940.got - 2010.06.03 14:40:33.
