data_PCOD9451990
_publ_section_title
;
Structure prediction by ZEFSAII (Michael W. Deem and Ramdas Pophale) SiO2 
 PCOD9451990
Probable space group: P M M N
;
_chemical_formula_sum "Si O2"
_cell_formula_units_Z 48
_cell_length_a 13.623518
_cell_length_b 12.418712
_cell_length_c 15.326285
_cell_angle_alpha 90.000000
_cell_angle_beta 90.000000
_cell_angle_gamma 90.000000
_cell_volume 2593.001229
_symmetry_space_group_name_H-M "P M M N"
_symmetry_group_IT_number 59
_space_group.IT_coordinate_system_code '2'
_symmetry_cell_setting 'orthorhombic'
loop_
_space_group_symop_operation_xyz
x,y,z
1/2-x,1/2-y,z
1/2+x,-y,-z
-x,1/2+y,-z
-x,-y,-z
1/2+x,1/2+y,-z
1/2-x,y,z
x,1/2-y,z
loop_
_atom_site_type_symbol
_atom_site_label
_atom_site_fract_x
_atom_site_fract_y
_atom_site_fract_z
Si Si1 0.472939 0.539545 0.095766
Si Si2 0.868537 0.250000 0.170823
Si Si3 0.132143 0.750000 0.033756
Si Si4 0.367858 0.989142 0.772354
Si Si5 0.362945 0.380881 0.412642
Si Si6 0.131237 0.374551 0.221140
Si Si7 0.869445 0.625989 0.396980
O O1 0.411169 0.646864 0.082107
O O2 0.571943 0.550286 0.152512
O O3 0.409215 0.451639 0.147278
O O4 0.500000 0.500000 0.000000
O O5 0.750000 0.250000 0.169080
O O6 0.895067 0.137559 0.217486
O O7 0.899599 0.250000 0.068929
O O8 0.250000 0.750000 0.035078
O O9 0.250000 0.997744 0.784751
O O10 0.392845 0.044285 0.680366
O O11 0.250000 0.419328 0.413637
O O12 0.360508 0.250000 0.411473
O O13 0.403334 0.411548 0.317943
O O14 0.406739 0.408626 0.506977
O O15 0.250000 0.376718 0.222203
O O16 0.102263 0.250000 0.206897
O O17 0.750000 0.629092 0.402674
O O18 0.900640 0.750000 0.379205
#
# Coordination Sequence:
#
# PCOD9451990 Si02
#       7
#     8   4   4   8   8   8   8
#     4  12  25  37  60  82 111 149 198 237 282 344
#     4   9  18  36  56  72 104 154 193 223 279 343
#     4  11  24  44  61  78 112 158 194 231 292 353
#     4  10  21  36  55  82 115 149 188 236 283 336
#     4   7  11  25  51  81 110 142 176 220 283 341
#     4   9  19  36  60  88 113 139 186 246 290 327
#     4   8  14  27  51  81 113 145 177 220 282 344
#
# _framework density 18.511368999999998
#
# number of rings (size 3 to 8) (size 9 to 14) (size 15 to 20)
#    0.000    2.667    1.667    2.500    3.500    0.667 
#    0.000    0.833    0.000    1.000    0.000    4.667 
#    0.000    0.000    0.000    0.000    0.000    0.000 
#
# Total GULP energy -267529.757977 kJ/mol
# GULP energy per Si atom -5573.536625 kJ/mol
# Density = 1.846924 g / cm^3
# Si number density = 18.511369 Si / 1000 Ang^3
#
#
#
# Elastic Constant Matrix: (Units=GPa)
#
#
# Indices 1 2 3 4 5 6 
#
# 1 68.7407 46.9535 44.3540 0.0000 0.0000 0.0000
# 2 46.9535 124.5470 94.6823 0.0000 0.0000 0.0000
# 3 44.3540 94.6823 196.2741 0.0000 0.0000 0.0000
# 4 0.0000 0.0000 0.0000 31.0112 0.0000 0.0000
# 5 0.0000 0.0000 0.0000 0.0000 20.0214 0.0000
# 6 0.0000 0.0000 0.0000 0.0000 0.0000 26.4298
#
#
#
# Elastic Compliance Matrix: (Units=1/GPa)
#
#
# Indices 1 2 3 4 5 6 
#
# 1 0.019827 -0.006425 -0.001381 0.000000 0.000000 0.000000
# 2 -0.006425 0.014760 -0.005669 0.000000 0.000000 0.000000
# 3 -0.001381 -0.005669 0.008142 0.000000 0.000000 0.000000
# 4 0.000000 0.000000 0.000000 0.032246 0.000000 0.000000
# 5 0.000000 0.000000 0.000000 0.000000 0.049947 0.000000
# 6 0.000000 0.000000 0.000000 0.000000 0.000000 0.037836
#
#
# Mechanical properties :
#
#
# Convention : Reuss Voigt Hill
#
# Bulk Modulus (GPa) = 63.37092 84.61570 73.99331
# Shear Modulus (GPa) = 25.64537 29.06397 27.35467
#
# Velocity S-wave (km/s) = 3.72611 3.96670 3.84829
# Velocity P-wave (km/s) = 7.26772 8.17245 7.73333
#
# Compressibility (1/GPa) = 0.01578011
#
# Stress axis : x y z
#
# Youngs Moduli (GPa) = 50.43621 67.74853 122.82629
#
# Poissons Ratio (x) = 0.43526 0.16966
# Poissons Ratio (y) = 0.32403 0.69625
# Poissons Ratio (z) = 0.06967 0.38404
#
# Static dielectric constant tensor:
#      x y z
#    x 1.670660 0.000000 0.000000 
#    y 0.000000 1.631570 0.000000 
#    z 0.000000 0.000000 1.649950 
# 
# From -- ./inp_files/23193.got.cif
#   From: 2010.05.17/outbox.cif.g08.bks.cpg/sg59_12_cif.got.tgz:23193.got - 2010.06.03 14:40:33.
