data_PCOD9451200
_publ_section_title
;
Structure prediction by ZEFSAII (Michael W. Deem and Ramdas Pophale) SiO2 
 PCOD9451200
Probable space group: P M M N
;
_chemical_formula_sum "Si O2"
_cell_formula_units_Z 64
_cell_length_a 7.667589
_cell_length_b 29.426046
_cell_length_c 12.886240
_cell_angle_alpha 90.000000
_cell_angle_beta 90.000000
_cell_angle_gamma 90.000000
_cell_volume 2907.481438
_symmetry_space_group_name_H-M "P M M N"
_symmetry_group_IT_number 59
_space_group.IT_coordinate_system_code '2'
_symmetry_cell_setting 'orthorhombic'
loop_
_space_group_symop_operation_xyz
x,y,z
1/2-x,1/2-y,z
1/2+x,-y,-z
-x,1/2+y,-z
-x,-y,-z
1/2+x,1/2+y,-z
1/2-x,y,z
x,1/2-y,z
loop_
_atom_site_type_symbol
_atom_site_label
_atom_site_fract_x
_atom_site_fract_y
_atom_site_fract_z
Si Si1 0.450654 0.300747 0.428255
Si Si2 0.959469 0.698351 0.030148
Si Si3 0.958865 0.447965 0.028936
Si Si4 0.040064 0.397255 0.463899
Si Si5 0.464224 0.449015 0.664722
Si Si6 0.541289 0.048093 0.261673
Si Si7 0.451486 0.116879 0.843256
Si Si8 0.054825 0.695174 0.800857
O O1 0.250000 0.297448 0.462256
O O2 0.529428 0.250000 0.441057
O O3 0.528959 0.345880 0.479501
O O4 0.450992 0.311979 0.304803
O O5 0.750000 0.700110 0.039535
O O6 0.025845 0.750000 0.039061
O O7 0.030159 0.664090 0.116611
O O8 0.994610 0.679631 0.913946
O O9 0.750000 0.441015 0.024204
O O10 0.022255 0.439877 0.146555
O O11 0.000000 0.500000 0.000000
O O12 0.042754 0.415973 0.942942
O O13 0.250000 0.394784 0.472174
O O14 0.979661 0.432778 0.551025
O O15 0.997883 0.415811 0.350349
O O16 0.250000 0.450111 0.666697
O O17 0.524250 0.498790 0.699917
O O18 0.525525 0.411430 0.747559
O O19 0.750000 0.044204 0.252184
O O20 0.250000 0.126073 0.815509
O O21 0.250000 0.677869 0.782751
O O22 0.058175 0.750000 0.810820
#
# Coordination Sequence:
#
# PCOD9451200 Si02
#       8
#     8   8   8   8   8   8   8   8
#     4   9  18  33  50  72 104 137 171 215 265 314
#     4   9  18  32  51  77 107 141 181 221 263 316
#     4  11  22  37  57  83 112 143 178 218 269 328
#     4  10  21  35  56  81 103 137 183 222 261 316
#     4   9  18  37  57  76 105 141 178 220 271 315
#     4  10  21  37  56  78 110 142 171 219 273 317
#     4  10  20  36  57  78 110 150 182 220 270 322
#     4   9  17  29  47  70  98 135 173 212 262 314
#
# _framework density 22.012177999999999
#
# number of rings (size 3 to 8) (size 9 to 14) (size 15 to 20)
#    0.000    2.375    1.250    1.125    1.750    3.500 
#    0.000    1.250    0.000    3.750    0.000    0.000 
#    0.000    6.000    0.000    0.000    0.000    0.000 
#
# Total GULP energy -357184.046695 kJ/mol
# GULP energy per Si atom -5581.000730 kJ/mol
# Density = 2.196208 g / cm^3
# Si number density = 22.012178 Si / 1000 Ang^3
#
#
#
# Elastic Constant Matrix: (Units=GPa)
#
#
# Indices 1 2 3 4 5 6 
#
# 1 44.3103 -9.9930 -10.4908 0.0000 0.0000 0.0000
# 2 -9.9930 63.2558 4.4090 0.0000 0.0000 0.0000
# 3 -10.4908 4.4090 70.7123 0.0000 0.0000 0.0000
# 4 0.0000 0.0000 0.0000 23.7108 0.0000 0.0000
# 5 0.0000 0.0000 0.0000 0.0000 7.2550 0.0000
# 6 0.0000 0.0000 0.0000 0.0000 0.0000 9.7856
#
#
#
# Elastic Compliance Matrix: (Units=1/GPa)
#
#
# Indices 1 2 3 4 5 6 
#
# 1 0.024173 0.003584 0.003363 0.000000 0.000000 0.000000
# 2 0.003584 0.016409 -0.000491 0.000000 0.000000 0.000000
# 3 0.003363 -0.000491 0.014671 0.000000 0.000000 0.000000
# 4 0.000000 0.000000 0.000000 0.042175 0.000000 0.000000
# 5 0.000000 0.000000 0.000000 0.000000 0.137836 0.000000
# 6 0.000000 0.000000 0.000000 0.000000 0.000000 0.102191
#
#
# Mechanical properties :
#
#
# Convention : Reuss Voigt Hill
#
# Bulk Modulus (GPa) = 14.67034 16.23652 15.45343
# Shear Modulus (GPa) = 14.39819 21.10715 17.75267
#
# Velocity S-wave (km/s) = 2.56032 3.09995 2.84296
# Velocity P-wave (km/s) = 3.92675 4.49500 4.22045
#
# Compressibility (1/GPa) = 0.06816473
#
# Stress axis : x y z
#
# Youngs Moduli (GPa) = 41.36912 60.94099 68.16003
#
# Poissons Ratio (x) = -0.21843 -0.22921
# Poissons Ratio (y) = -0.14828 0.03349
# Poissons Ratio (z) = -0.13911 0.02994
#
# Static dielectric constant tensor:
#      x y z
#    x 1.821210 0.000000 0.000000 
#    y 0.000000 1.842440 0.000000 
#    z 0.000000 0.000000 1.783020 
# 
# From -- ./inp_files/14963.got.cif
#   From: 2010.05.17/outbox.cif.g08.bks.cpg/sg59_8_cif.got.tgz:14963.got - 2010.06.03 14:40:33.
