data_PCOD9451371
_publ_section_title
;
Structure prediction by ZEFSAII (Michael W. Deem and Ramdas Pophale) SiO2 
 PCOD9451371
Probable space group: P M M N
;
_chemical_formula_sum "Si O2"
_cell_formula_units_Z 48
_cell_length_a 8.078330
_cell_length_b 28.764841
_cell_length_c 10.126387
_cell_angle_alpha 90.000000
_cell_angle_beta 90.000000
_cell_angle_gamma 90.000000
_cell_volume 2353.087564
_symmetry_space_group_name_H-M "P M M N"
_symmetry_group_IT_number 59
_space_group.IT_coordinate_system_code '2'
_symmetry_cell_setting 'orthorhombic'
loop_
_space_group_symop_operation_xyz
x,y,z
1/2-x,1/2-y,z
1/2+x,-y,-z
-x,1/2+y,-z
-x,-y,-z
1/2+x,1/2+y,-z
1/2-x,y,z
x,1/2-y,z
loop_
_atom_site_type_symbol
_atom_site_label
_atom_site_fract_x
_atom_site_fract_y
_atom_site_fract_z
Si Si1 0.947481 0.458740 0.902725
Si Si2 0.448270 0.041728 0.596336
Si Si3 0.947825 0.195943 0.698987
Si Si4 0.948161 0.803104 0.772400
Si Si5 0.550113 0.143858 0.967688
Si Si6 0.442060 0.363656 0.464612
O O1 0.750000 0.456662 0.903473
O O2 0.009853 0.409344 0.960188
O O3 0.997502 0.464033 0.748828
O O4 0.000000 0.500000 0.000000
O O5 0.250000 0.044222 0.599741
O O6 0.514620 0.089568 0.529789
O O7 0.500000 0.000000 0.500000
O O8 0.750000 0.190212 0.675648
O O9 0.980854 0.250000 0.719013
O O10 0.992342 0.167375 0.828833
O O11 0.044569 0.175508 0.575940
O O12 0.750000 0.800463 0.751484
O O13 0.012433 0.750000 0.760832
O O14 0.017545 0.839738 0.665115
O O15 0.980729 0.825231 0.914526
O O16 0.750000 0.143947 0.979936
O O17 0.250000 0.374469 0.434518
#
# Coordination Sequence:
#
# PCOD9451371 Si02
#       6
#     8   8   8   8   8   8
#     4  11  24  43  66  93 124 161 204 257 314 373
#     4  11  24  42  65  94 125 163 206 255 312 371
#     4  10  20  36  60  88 118 154 197 247 301 358
#     4  10  22  39  59  87 123 162 204 250 300 356
#     4  10  22  40  61  87 121 159 199 248 304 361
#     4  10  22  40  61  87 121 159 200 249 303 359
#
# _framework density 20.398731000000002
#
# number of rings (size 3 to 8) (size 9 to 14) (size 15 to 20)
#    0.000    1.667    1.667    2.000    2.333    5.333 
#    0.000    0.000    0.000    0.000    0.000    0.000 
#    0.000    0.000    0.000    0.000    0.000    0.000 
#
# Total GULP energy -268056.288407 kJ/mol
# GULP energy per Si atom -5584.506008 kJ/mol
# Density = 2.035230 g / cm^3
# Si number density = 20.398731 Si / 1000 Ang^3
#
#
#
# Elastic Constant Matrix: (Units=GPa)
#
#
# Indices 1 2 3 4 5 6 
#
# 1 19.1138 5.0576 -1.7208 0.0000 0.0000 0.0000
# 2 5.0576 98.0992 6.4197 0.0000 0.0000 0.0000
# 3 -1.7208 6.4197 70.2841 0.0000 0.0000 0.0000
# 4 0.0000 0.0000 0.0000 33.7951 0.0000 0.0000
# 5 0.0000 0.0000 0.0000 0.0000 23.0449 0.0000
# 6 0.0000 0.0000 0.0000 0.0000 0.0000 32.6310
#
#
#
# Elastic Compliance Matrix: (Units=1/GPa)
#
#
# Indices 1 2 3 4 5 6 
#
# 1 0.053212 -0.002846 0.001563 0.000000 0.000000 0.000000
# 2 -0.002846 0.010407 -0.001020 0.000000 0.000000 0.000000
# 3 0.001563 -0.001020 0.014359 0.000000 0.000000 0.000000
# 4 0.000000 0.000000 0.000000 0.029590 0.000000 0.000000
# 5 0.000000 0.000000 0.000000 0.000000 0.043393 0.000000
# 6 0.000000 0.000000 0.000000 0.000000 0.000000 0.030646
#
#
# Mechanical properties :
#
#
# Convention : Reuss Voigt Hill
#
# Bulk Modulus (GPa) = 13.62917 23.00114 18.31515
# Shear Modulus (GPa) = 23.73363 29.74359 26.73861
#
# Velocity S-wave (km/s) = 3.41469 3.82266 3.62442
# Velocity P-wave (km/s) = 4.71622 5.54833 5.14911
#
# Compressibility (1/GPa) = 0.07337206
#
# Stress axis : x y z
#
# Youngs Moduli (GPa) = 18.79280 96.08694 69.64074
#
# Poissons Ratio (x) = 0.27343 -0.10883
# Poissons Ratio (y) = 0.05348 0.07105
# Poissons Ratio (z) = -0.02937 0.09803
#
# Static dielectric constant tensor:
#      x y z
#    x 1.740460 0.000000 0.000000 
#    y 0.000000 1.739820 0.000000 
#    z 0.000000 0.000000 1.547880 
# 
# From -- ./inp_files/6288.got.cif
#   From: 2010.05.17/outbox.cif.g08.bks.cpg/sg59_4_cif.got.tgz:6288.got - 2010.06.03 14:40:33.
