data_PCOD9451541
_publ_section_title
;
Structure prediction by ZEFSAII (Michael W. Deem and Ramdas Pophale) SiO2 
 PCOD9451541
Probable space group: P M M N
;
_chemical_formula_sum "Si O2"
_cell_formula_units_Z 64
_cell_length_a 28.781264
_cell_length_b 8.697941
_cell_length_c 13.196722
_cell_angle_alpha 90.000000
_cell_angle_beta 90.000000
_cell_angle_gamma 90.000000
_cell_volume 3303.637510
_symmetry_space_group_name_H-M "P M M N"
_symmetry_group_IT_number 59
_space_group.IT_coordinate_system_code '2'
_symmetry_cell_setting 'orthorhombic'
loop_
_space_group_symop_operation_xyz
x,y,z
1/2-x,1/2-y,z
1/2+x,-y,-z
-x,1/2+y,-z
-x,-y,-z
1/2+x,1/2+y,-z
1/2-x,y,z
x,1/2-y,z
loop_
_atom_site_type_symbol
_atom_site_label
_atom_site_fract_x
_atom_site_fract_y
_atom_site_fract_z
Si Si1 0.043732 0.432978 0.241440
Si Si2 0.632671 0.432363 0.081780
Si Si3 0.970924 0.933349 0.094785
Si Si4 0.859332 0.566287 0.866237
Si Si5 0.304022 0.064247 0.740200
Si Si6 0.548782 0.433182 0.537056
Si Si7 0.803349 0.937414 0.667089
Si Si8 0.358161 0.064186 0.535202
O O1 0.036792 0.250000 0.250403
O O2 0.087208 0.458977 0.166557
O O3 0.056522 0.501127 0.350186
O O4 0.998502 0.511725 0.194357
O O5 0.628538 0.250000 0.087786
O O6 0.581513 0.505606 0.094531
O O7 0.667076 0.493680 0.167839
O O8 0.650395 0.482224 0.970860
O O9 0.970537 0.750000 0.087766
O O10 0.000000 0.000000 0.000000
O O11 0.853101 0.750000 0.880107
O O12 0.828070 0.515284 0.771248
O O13 0.250000 0.017680 0.741021
O O14 0.305581 0.250000 0.748178
O O15 0.328583 0.022703 0.634072
O O16 0.500000 0.500000 0.500000
O O17 0.547284 0.250000 0.538609
O O18 0.590980 0.491130 0.467498
O O19 0.750000 0.987356 0.662595
O O20 0.803879 0.750000 0.666744
O O21 0.831454 0.985080 0.567218
O O22 0.362676 0.250000 0.532676
#
# Coordination Sequence:
#
# PCOD9451541 Si02
#       8
#     8   8   8   8   8   8   8   8
#     4  11  22  40  64  91 126 165 208 260 320 382
#     4  12  26  42  63  91 130 174 219 271 324 384
#     4  12  24  40  63  93 126 165 212 261 314 380
#     4  10  20  37  62  92 127 165 207 259 316 381
#     4  10  23  44  70  96 125 167 221 278 331 388
#     4  12  26  42  62  91 130 172 212 257 316 382
#     4   9  17  33  62  96 123 152 195 251 314 376
#     4  10  20  40  67  96 127 160 208 263 320 384
#
# _framework density 19.372585999999998
#
# number of rings (size 3 to 8) (size 9 to 14) (size 15 to 20)
#    0.000    1.250    2.500    4.125    1.750    3.250 
#    0.000    1.250    0.000    1.875    0.000    0.000 
#    0.000    0.000    0.000    0.000    0.000    0.000 
#
# Total GULP energy -357920.300347 kJ/mol
# GULP energy per Si atom -5592.504693 kJ/mol
# Density = 1.932849 g / cm^3
# Si number density = 19.372586 Si / 1000 Ang^3
#
#
#
# Elastic Constant Matrix: (Units=GPa)
#
#
# Indices 1 2 3 4 5 6 
#
# 1 164.9287 63.3849 84.8598 0.0000 0.0000 0.0000
# 2 63.3849 77.6415 66.1164 0.0000 0.0000 0.0000
# 3 84.8598 66.1164 137.3924 0.0000 0.0000 0.0000
# 4 0.0000 0.0000 0.0000 24.0500 0.0000 0.0000
# 5 0.0000 0.0000 0.0000 0.0000 29.8957 0.0000
# 6 0.0000 0.0000 0.0000 0.0000 0.0000 25.1938
#
#
#
# Elastic Compliance Matrix: (Units=1/GPa)
#
#
# Indices 1 2 3 4 5 6 
#
# 1 0.009860 -0.004852 -0.003755 0.000000 0.000000 0.000000
# 2 -0.004852 0.024210 -0.008654 0.000000 0.000000 0.000000
# 3 -0.003755 -0.008654 0.013762 0.000000 0.000000 0.000000
# 4 0.000000 0.000000 0.000000 0.041580 0.000000 0.000000
# 5 0.000000 0.000000 0.000000 0.000000 0.033450 0.000000
# 6 0.000000 0.000000 0.000000 0.000000 0.000000 0.039692
#
#
# Mechanical properties :
#
#
# Convention : Reuss Voigt Hill
#
# Bulk Modulus (GPa) = 75.12760 89.85388 82.49074
# Shear Modulus (GPa) = 24.81248 26.86800 25.84024
#
# Velocity S-wave (km/s) = 3.58271 3.72816 3.65616
# Velocity P-wave (km/s) = 7.48191 8.06318 7.77798
#
# Compressibility (1/GPa) = 0.01331069
#
# Stress axis : x y z
#
# Youngs Moduli (GPa) = 101.42036 41.30600 72.66314
#
# Poissons Ratio (x) = 0.20040 0.27287
# Poissons Ratio (y) = 0.49206 0.62880
# Poissons Ratio (z) = 0.38086 0.35745
#
# Static dielectric constant tensor:
#      x y z
#    x 1.660850 0.000000 0.000000 
#    y 0.000000 1.649580 0.000000 
#    z 0.000000 0.000000 1.664320 
# 
# From -- ./inp_files/19377.got.cif
#   From: 2010.05.17/outbox.cif.g08.bks.cpg/sg59_10_cif.got.tgz:19377.got - 2010.06.03 14:40:33.
