data_PCOD9451624
_publ_section_title
;
Structure prediction by ZEFSAII (Michael W. Deem and Ramdas Pophale) SiO2 
 PCOD9451624
Probable space group: P M M N
;
_chemical_formula_sum "Si O2"
_cell_formula_units_Z 40
_cell_length_a 8.643609
_cell_length_b 17.464616
_cell_length_c 14.742922
_cell_angle_alpha 90.000000
_cell_angle_beta 90.000000
_cell_angle_gamma 90.000000
_cell_volume 2225.551877
_symmetry_space_group_name_H-M "P M M N"
_symmetry_group_IT_number 59
_space_group.IT_coordinate_system_code '2'
_symmetry_cell_setting 'orthorhombic'
loop_
_space_group_symop_operation_xyz
x,y,z
1/2-x,1/2-y,z
1/2+x,-y,-z
-x,1/2+y,-z
-x,-y,-z
1/2+x,1/2+y,-z
1/2-x,y,z
x,1/2-y,z
loop_
_atom_site_type_symbol
_atom_site_label
_atom_site_fract_x
_atom_site_fract_y
_atom_site_fract_z
Si Si1 0.566634 0.164752 0.849875
Si Si2 0.561733 0.837633 0.465615
Si Si3 0.565639 0.750000 0.990438
Si Si4 0.935763 0.887472 0.667867
Si Si5 0.435411 0.055216 0.700885
Si Si6 0.065612 0.750000 0.788339
O O1 0.750000 0.151838 0.854675
O O2 0.540814 0.250000 0.806858
O O3 0.485605 0.100652 0.790729
O O4 0.497901 0.178154 0.950370
O O5 0.750000 0.836614 0.463941
O O6 0.509141 0.750000 0.453566
O O7 0.515431 0.868352 0.564464
O O8 0.511519 0.893359 0.384924
O O9 0.750000 0.750000 0.991166
O O10 0.501785 0.750000 0.889618
O O11 0.750000 0.882412 0.671989
O O12 0.006367 0.824078 0.734005
O O13 0.990495 0.971861 0.694266
O O14 0.250000 0.048587 0.697874
O O15 0.250000 0.750000 0.792062
#
# Coordination Sequence:
#
# PCOD9451624 Si02
#       6
#     8   8   4   8   8   4
#     4   9  19  36  58  87 120 152 190 236 286 344
#     4   9  18  34  57  85 118 158 200 240 284 339
#     4  10  20  38  65  90 113 150 191 234 294 354
#     4  11  22  39  60  82 117 159 201 243 289 344
#     4  11  21  34  57  89 123 158 195 241 293 341
#     4  12  24  42  63  86 113 148 195 244 294 350
#
# _framework density 17.973068999999999
#
# number of rings (size 3 to 8) (size 9 to 14) (size 15 to 20)
#    0.600    1.200    1.000    4.500    0.000    0.800 
#    0.000    4.000    0.000    0.000    0.000    0.000 
#    0.000    0.000    0.000    0.000    0.000    0.000 
#
# Total GULP energy -223222.497421 kJ/mol
# GULP energy per Si atom -5580.562436 kJ/mol
# Density = 1.793216 g / cm^3
# Si number density = 17.973069 Si / 1000 Ang^3
#
#
#
# Elastic Constant Matrix: (Units=GPa)
#
#
# Indices 1 2 3 4 5 6 
#
# 1 60.0670 32.8363 32.5578 0.0000 0.0000 0.0000
# 2 32.8363 130.8723 67.7086 0.0000 0.0000 0.0000
# 3 32.5578 67.7086 143.6740 0.0000 0.0000 0.0000
# 4 0.0000 0.0000 0.0000 -5.2032 0.0000 0.0000
# 5 0.0000 0.0000 0.0000 0.0000 14.3876 0.0000
# 6 0.0000 0.0000 0.0000 0.0000 0.0000 23.5656
#
#
#
# Elastic Compliance Matrix: (Units=1/GPa)
#
#
# Indices 1 2 3 4 5 6 
#
# 1 0.020162 -0.003564 -0.002889 0.000000 0.000000 0.000000
# 2 -0.003564 0.010735 -0.004251 0.000000 0.000000 0.000000
# 3 -0.002889 -0.004251 0.009618 0.000000 0.000000 0.000000
# 4 0.000000 0.000000 0.000000 -0.192191 0.000000 0.000000
# 5 0.000000 0.000000 0.000000 0.000000 0.069504 0.000000
# 6 0.000000 0.000000 0.000000 0.000000 0.000000 0.042435
#
#
# Mechanical properties :
#
#
# Convention : Reuss Voigt Hill
#
# Bulk Modulus (GPa) = 52.33865 66.75762 59.54814
# Shear Modulus (GPa) = -418.12212 19.98404 -199.06904
#
# Velocity S-wave (km/s) = -15.26903 3.33812 -10.53566
# Velocity P-wave (km/s) = 16.78314 7.21673 10.71430
#
# Compressibility (1/GPa) = 0.01910634
#
# Stress axis : x y z
#
# Youngs Moduli (GPa) = 49.59703 93.15581 103.96682
#
# Poissons Ratio (x) = 0.33200 0.30040
# Poissons Ratio (y) = 0.17676 0.44199
# Poissons Ratio (z) = 0.14331 0.39603
#
# Static dielectric constant tensor:
#      x y z
#    x 1.597900 0.000000 0.000000 
#    y 0.000000 1.591600 0.000000 
#    z 0.000000 0.000000 1.598270 
# 
# From -- ./inp_files/19965.got.cif
#   From: 2010.05.17/outbox.cif.g08.bks.cpg/sg59_10_cif.got.tgz:19965.got - 2010.06.03 14:40:33.
