data_PCOD9451744
_publ_section_title
;
Structure prediction by ZEFSAII (Michael W. Deem and Ramdas Pophale) SiO2 
 PCOD9451744
Probable space group: P M M N
;
_chemical_formula_sum "Si O2"
_cell_formula_units_Z 48
_cell_length_a 24.082942
_cell_length_b 7.442725
_cell_length_c 11.057653
_cell_angle_alpha 90.000000
_cell_angle_beta 90.000000
_cell_angle_gamma 90.000000
_cell_volume 1982.003740
_symmetry_space_group_name_H-M "P M M N"
_symmetry_group_IT_number 59
_space_group.IT_coordinate_system_code '2'
_symmetry_cell_setting 'orthorhombic'
loop_
_space_group_symop_operation_xyz
x,y,z
1/2-x,1/2-y,z
1/2+x,-y,-z
-x,1/2+y,-z
-x,-y,-z
1/2+x,1/2+y,-z
1/2-x,y,z
x,1/2-y,z
loop_
_atom_site_type_symbol
_atom_site_label
_atom_site_fract_x
_atom_site_fract_y
_atom_site_fract_z
Si Si1 0.187789 0.965645 0.209049
Si Si2 0.421386 0.968361 0.084553
Si Si3 0.878367 0.963815 0.544776
Si Si4 0.014354 0.456051 0.329744
Si Si5 0.312751 0.465079 0.687775
Si Si6 0.081225 0.964705 0.819264
O O1 0.250000 0.036897 0.196456
O O2 0.190611 0.750000 0.202240
O O3 0.142390 0.022000 0.110599
O O4 0.160836 0.009913 0.338619
O O5 0.425181 0.750000 0.089100
O O6 0.455697 0.040901 0.197916
O O7 0.437419 0.031335 0.950838
O O8 0.885012 0.750000 0.529430
O O9 0.939826 0.036534 0.579449
O O10 0.845593 0.037424 0.429654
O O11 0.006065 0.250000 0.366948
O O12 0.955130 0.538880 0.293024
O O13 0.250000 0.533530 0.698691
O O14 0.309117 0.250000 0.673895
O O15 0.354057 0.501908 0.797954
O O16 0.073096 0.750000 0.819203
#
# Coordination Sequence:
#
# PCOD9451744 Si02
#       6
#     8   8   8   8   8   8
#     4   9  17  29  47  72  99 127 164 209 251 294
#     4   9  18  32  50  74 104 137 169 203 249 301
#     4   9  18  34  54  74  99 130 164 207 257 302
#     4   9  18  33  54  80 105 129 164 210 255 301
#     4  10  22  38  53  71  98 134 174 211 249 298
#     4  10  21  35  52  76 105 136 169 205 249 302
#
# _framework density 24.217914
#
# number of rings (size 3 to 8) (size 9 to 14) (size 15 to 20)
#    0.000    2.667    0.000    1.000    0.000    4.667 
#    0.000    1.667    0.000    0.000    0.000    0.000 
#    0.000    0.000    0.000    0.000    0.000    0.000 
#
# Total GULP energy -268174.040779 kJ/mol
# GULP energy per Si atom -5586.959183 kJ/mol
# Density = 2.416279 g / cm^3
# Si number density = 24.217914 Si / 1000 Ang^3
#
#
#
# Elastic Constant Matrix: (Units=GPa)
#
#
# Indices 1 2 3 4 5 6 
#
# 1 158.1481 7.8022 28.2979 0.0000 0.0000 0.0000
# 2 7.8022 86.7461 -0.9175 0.0000 0.0000 0.0000
# 3 28.2979 -0.9175 82.1332 0.0000 0.0000 0.0000
# 4 0.0000 0.0000 0.0000 34.8555 0.0000 0.0000
# 5 0.0000 0.0000 0.0000 0.0000 29.1200 0.0000
# 6 0.0000 0.0000 0.0000 0.0000 0.0000 15.0919
#
#
#
# Elastic Compliance Matrix: (Units=1/GPa)
#
#
# Indices 1 2 3 4 5 6 
#
# 1 0.006773 -0.000634 -0.002341 0.000000 0.000000 0.000000
# 2 -0.000634 0.011589 0.000348 0.000000 0.000000 0.000000
# 3 -0.002341 0.000348 0.012986 0.000000 0.000000 0.000000
# 4 0.000000 0.000000 0.000000 0.028690 0.000000 0.000000
# 5 0.000000 0.000000 0.000000 0.000000 0.034341 0.000000
# 6 0.000000 0.000000 0.000000 0.000000 0.000000 0.066260
#
#
# Mechanical properties :
#
#
# Convention : Reuss Voigt Hill
#
# Bulk Modulus (GPa) = 38.32304 44.15472 41.23888
# Shear Modulus (GPa) = 28.63848 35.26981 31.95415
#
# Velocity S-wave (km/s) = 3.44253 3.82036 3.63635
# Velocity P-wave (km/s) = 5.62672 6.14264 5.89033
#
# Compressibility (1/GPa) = 0.02609396
#
# Stress axis : x y z
#
# Youngs Moduli (GPa) = 147.63862 86.29175 77.00776
#
# Poissons Ratio (x) = 0.05471 0.18025
# Poissons Ratio (y) = 0.09360 -0.02679
# Poissons Ratio (z) = 0.34558 -0.03002
#
# Static dielectric constant tensor:
#      x y z
#    x 1.971610 0.000000 0.000000 
#    y 0.000000 1.908810 0.000000 
#    z 0.000000 0.000000 1.916380 
# 
# From -- ./inp_files/14345.got.cif
#   From: 2010.05.17/outbox.cif.g08.bks.cpg/sg59_8_cif.got.tgz:14345.got - 2010.06.03 14:40:33.
