data_PCOD9451574
_publ_section_title
;
Structure prediction by ZEFSAII (Michael W. Deem and Ramdas Pophale) SiO2 
 PCOD9451574
Probable space group: P M M N
;
_chemical_formula_sum "Si O2"
_cell_formula_units_Z 52
_cell_length_a 19.002484
_cell_length_b 18.149113
_cell_length_c 7.640278
_cell_angle_alpha 90.000000
_cell_angle_beta 90.000000
_cell_angle_gamma 90.000000
_cell_volume 2634.965549
_symmetry_space_group_name_H-M "P M M N"
_symmetry_group_IT_number 59
_space_group.IT_coordinate_system_code '2'
_symmetry_cell_setting 'orthorhombic'
loop_
_space_group_symop_operation_xyz
x,y,z
1/2-x,1/2-y,z
1/2+x,-y,-z
-x,1/2+y,-z
-x,-y,-z
1/2+x,1/2+y,-z
1/2-x,y,z
x,1/2-y,z
loop_
_atom_site_type_symbol
_atom_site_label
_atom_site_fract_x
_atom_site_fract_y
_atom_site_fract_z
Si Si1 0.250000 0.585763 0.970122
Si Si2 0.024178 0.079748 0.648185
Si Si3 0.750000 0.509395 0.702669
Si Si4 0.530649 0.663889 0.718291
Si Si5 0.750000 0.919024 0.061185
Si Si6 0.893226 0.838199 0.066005
Si Si7 0.617478 0.461392 0.504275
Si Si8 0.633140 0.335978 0.243545
O O1 0.250000 0.504400 0.878879
O O2 0.181793 0.630122 0.907189
O O3 0.250000 0.564058 0.173943
O O4 0.035537 0.119084 0.460595
O O5 0.047776 0.132673 0.801787
O O6 0.942517 0.056950 0.647942
O O7 0.074520 0.008421 0.640564
O O8 0.680831 0.507000 0.585495
O O9 0.750000 0.573129 0.848615
O O10 0.543638 0.750000 0.679997
O O11 0.450599 0.658505 0.789220
O O12 0.583328 0.639704 0.870300
O O13 0.819874 0.876340 0.114662
O O14 0.887838 0.750000 0.072869
O O15 0.644891 0.386754 0.414581
O O16 0.649848 0.250000 0.271288
#
# Coordination Sequence:
#
# PCOD9451574 Si02
#       8
#     4   8   4   8   4   8   8   8
#     4  10  22  35  57  84 110 157 193 233 294 357
#     4  10  21  37  62  90 122 158 206 255 295 359
#     4  10  23  38  60  83 120 155 195 249 298 358
#     4   9  20  37  59  89 122 158 197 246 301 353
#     4  10  23  39  55  85 116 150 194 252 294 357
#     4  11  22  38  63  88 119 159 200 247 304 360
#     4  10  21  39  58  91 117 159 206 247 305 357
#     4  10  20  38  59  83 119 156 195 246 300 357
#
# _framework density 19.734603
#
# number of rings (size 3 to 8) (size 9 to 14) (size 15 to 20)
#    0.462    1.538    0.000    3.231    2.154    1.231 
#    0.000    6.154    0.000    1.846    0.000    0.000 
#    0.000    0.000    0.000    0.000    0.000    0.000 
#
# Total GULP energy -290232.871874 kJ/mol
# GULP energy per Si atom -5581.401382 kJ/mol
# Density = 1.968969 g / cm^3
# Si number density = 19.734603 Si / 1000 Ang^3
#
#
#
# Elastic Constant Matrix: (Units=GPa)
#
#
# Indices 1 2 3 4 5 6 
#
# 1 57.8099 1.9337 3.1818 0.0000 0.0000 0.0000
# 2 1.9337 67.3287 6.8436 0.0000 0.0000 0.0000
# 3 3.1818 6.8436 27.5788 0.0000 0.0000 0.0000
# 4 0.0000 0.0000 0.0000 34.1548 0.0000 0.0000
# 5 0.0000 0.0000 0.0000 0.0000 21.5429 0.0000
# 6 0.0000 0.0000 0.0000 0.0000 0.0000 23.6354
#
#
#
# Elastic Compliance Matrix: (Units=1/GPa)
#
#
# Indices 1 2 3 4 5 6 
#
# 1 0.017415 -0.000304 -0.001934 0.000000 0.000000 0.000000
# 2 -0.000304 0.015242 -0.003747 0.000000 0.000000 0.000000
# 3 -0.001934 -0.003747 0.037413 0.000000 0.000000 0.000000
# 4 0.000000 0.000000 0.000000 0.029278 0.000000 0.000000
# 5 0.000000 0.000000 0.000000 0.000000 0.046419 0.000000
# 6 0.000000 0.000000 0.000000 0.000000 0.000000 0.042309
#
#
# Mechanical properties :
#
#
# Convention : Reuss Voigt Hill
#
# Bulk Modulus (GPa) = 17.21166 19.62618 18.41892
# Shear Modulus (GPa) = 22.78813 25.25050 24.01932
#
# Velocity S-wave (km/s) = 3.40182 3.58090 3.49250
# Velocity P-wave (km/s) = 4.91633 5.20228 5.06133
#
# Compressibility (1/GPa) = 0.05810015
#
# Stress axis : x y z
#
# Youngs Moduli (GPa) = 57.42284 65.60770 26.72887
#
# Poissons Ratio (x) = 0.01992 0.05169
# Poissons Ratio (y) = 0.01743 0.10016
# Poissons Ratio (z) = 0.11104 0.24585
#
# Static dielectric constant tensor:
#      x y z
#    x 1.684020 0.000000 0.000000 
#    y 0.000000 1.703000 0.000000 
#    z 0.000000 0.000000 1.679940 
# 
# From -- ./inp_files/10486.got.cif
#   From: 2010.05.17/outbox.cif.g08.bks.cpg/sg59_6_cif.got.tgz:10486.got - 2010.06.03 14:40:33.
