data_PCOD9451900
_publ_section_title
;
Structure prediction by ZEFSAII (Michael W. Deem and Ramdas Pophale) SiO2 
 PCOD9451900
Probable space group: P M M N
;
_chemical_formula_sum "Si O2"
_cell_formula_units_Z 56
_cell_length_a 13.298590
_cell_length_b 13.795617
_cell_length_c 16.197061
_cell_angle_alpha 90.000000
_cell_angle_beta 90.000000
_cell_angle_gamma 90.000000
_cell_volume 2971.549324
_symmetry_space_group_name_H-M "P M M N"
_symmetry_group_IT_number 59
_space_group.IT_coordinate_system_code '2'
_symmetry_cell_setting 'orthorhombic'
loop_
_space_group_symop_operation_xyz
x,y,z
1/2-x,1/2-y,z
1/2+x,-y,-z
-x,1/2+y,-z
-x,-y,-z
1/2+x,1/2+y,-z
1/2-x,y,z
x,1/2-y,z
loop_
_atom_site_type_symbol
_atom_site_label
_atom_site_fract_x
_atom_site_fract_y
_atom_site_fract_z
Si Si1 0.362306 0.140093 0.181417
Si Si2 0.131669 0.510734 0.415418
Si Si3 0.372194 0.640056 0.258832
Si Si4 0.568981 0.137414 0.258633
Si Si5 0.370589 0.638367 0.917765
Si Si6 0.870997 0.452328 0.912766
Si Si7 0.548165 0.367061 0.437259
O O1 0.250000 0.116829 0.213016
O O2 0.361934 0.250000 0.150731
O O3 0.447792 0.135108 0.250288
O O4 0.386588 0.064365 0.109820
O O5 0.250000 0.487167 0.411620
O O6 0.100152 0.563910 0.329915
O O7 0.110685 0.589853 0.487100
O O8 0.060611 0.419666 0.436639
O O9 0.250000 0.640679 0.257300
O O10 0.405201 0.750000 0.276670
O O11 0.407280 0.606462 0.167958
O O12 0.602125 0.250000 0.255151
O O13 0.605136 0.093804 0.171996
O O14 0.597201 0.102442 0.349035
O O15 0.250000 0.642172 0.922491
O O16 0.408050 0.750000 0.920407
O O17 0.408420 0.582956 0.998801
O O18 0.750000 0.438064 0.914546
O O19 0.541007 0.250000 0.439545
#
# Coordination Sequence:
#
# PCOD9451900 Si02
#       7
#     8   8   8   8   8   8   8
#     4   9  17  29  44  63  90 123 159 203 251 295
#     4  10  21  36  54  77 104 135 171 210 258 313
#     4   9  16  27  45  69  97 128 162 204 254 305
#     4   9  18  31  47  69  96 126 160 197 241 293
#     4   9  17  29  44  65  95 126 156 194 238 287
#     4   9  16  26  43  67  92 123 162 199 243 296
#     4  10  21  36  54  78 106 134 169 213 256 304
#
# _framework density 18.845388
#
# number of rings (size 3 to 8) (size 9 to 14) (size 15 to 20)
#    0.000    2.714    0.000    1.714    0.000    5.714 
#    0.000    2.857    0.000    0.000    0.000    4.000 
#    0.000    4.571    0.000    0.000    0.000    0.429 
#
# Total GULP energy -311992.192970 kJ/mol
# GULP energy per Si atom -5571.289160 kJ/mol
# Density = 1.880249 g / cm^3
# Si number density = 18.845388 Si / 1000 Ang^3
#
#
#
# Elastic Constant Matrix: (Units=GPa)
#
#
# Indices 1 2 3 4 5 6 
#
# 1 24.4164 -2.0415 1.9143 0.0000 0.0000 0.0000
# 2 -2.0415 75.1596 25.5253 0.0000 0.0000 0.0000
# 3 1.9143 25.5253 125.7864 0.0000 0.0000 0.0000
# 4 0.0000 0.0000 0.0000 17.4980 0.0000 0.0000
# 5 0.0000 0.0000 0.0000 0.0000 16.0410 0.0000
# 6 0.0000 0.0000 0.0000 0.0000 0.0000 11.9150
#
#
#
# Elastic Compliance Matrix: (Units=1/GPa)
#
#
# Indices 1 2 3 4 5 6 
#
# 1 0.041147 0.001429 -0.000916 0.000000 0.000000 0.000000
# 2 0.001429 0.014339 -0.002932 0.000000 0.000000 0.000000
# 3 -0.000916 -0.002932 0.008559 0.000000 0.000000 0.000000
# 4 0.000000 0.000000 0.000000 0.057150 0.000000 0.000000
# 5 0.000000 0.000000 0.000000 0.000000 0.062340 0.000000
# 6 0.000000 0.000000 0.000000 0.000000 0.000000 0.083928
#
#
# Mechanical properties :
#
#
# Convention : Reuss Voigt Hill
#
# Bulk Modulus (GPa) = 16.88965 30.68428 23.78697
# Shear Modulus (GPa) = 17.12112 22.42175 19.77143
#
# Velocity S-wave (km/s) = 3.01741 3.45305 3.24256
# Velocity P-wave (km/s) = 4.59580 5.67587 5.16415
#
# Compressibility (1/GPa) = 0.05920785
#
# Stress axis : x y z
#
# Youngs Moduli (GPa) = 24.30284 69.73770 116.83855
#
# Poissons Ratio (x) = -0.09964 0.10704
# Poissons Ratio (y) = -0.03472 0.34252
# Poissons Ratio (z) = 0.02227 0.20444
#
# Static dielectric constant tensor:
#      x y z
#    x 1.687440 0.000000 0.000000 
#    y 0.000000 1.677150 0.000000 
#    z 0.000000 0.000000 1.684540 
# 
# From -- ./inp_files/23326.got.cif
#   From: 2010.05.17/outbox.cif.g08.bks.cpg/sg59_12_cif.got.tgz:23326.got - 2010.06.03 14:40:33.
