data_PCOD9451318
_publ_section_title
;
Structure prediction by ZEFSAII (Michael W. Deem and Ramdas Pophale) SiO2 
 PCOD9451318
Probable space group: P M M N
;
_chemical_formula_sum "Si O2"
_cell_formula_units_Z 56
_cell_length_a 22.981314
_cell_length_b 8.839091
_cell_length_c 15.041310
_cell_angle_alpha 90.000000
_cell_angle_beta 90.000000
_cell_angle_gamma 90.000000
_cell_volume 3055.400349
_symmetry_space_group_name_H-M "P M M N"
_symmetry_group_IT_number 59
_space_group.IT_coordinate_system_code '2'
_symmetry_cell_setting 'orthorhombic'
loop_
_space_group_symop_operation_xyz
x,y,z
1/2-x,1/2-y,z
1/2+x,-y,-z
-x,1/2+y,-z
-x,-y,-z
1/2+x,1/2+y,-z
1/2-x,y,z
x,1/2-y,z
loop_
_atom_site_type_symbol
_atom_site_label
_atom_site_fract_x
_atom_site_fract_y
_atom_site_fract_z
Si Si1 0.077349 0.068705 0.582177
Si Si2 0.409497 0.429562 0.210853
Si Si3 0.512361 0.929940 0.096762
Si Si4 0.636300 0.430524 0.117595
Si Si5 0.184737 0.931643 0.691220
Si Si6 0.818294 0.428958 0.920868
Si Si7 0.944353 0.431158 0.610534
O O1 0.081002 0.250000 0.576767
O O2 0.013328 0.030854 0.622253
O O3 0.131529 0.006003 0.638077
O O4 0.075749 0.997907 0.483678
O O5 0.414514 0.250000 0.214936
O O6 0.465827 0.500592 0.163562
O O7 0.355862 0.477929 0.148986
O O8 0.408080 0.498779 0.309085
O O9 0.506211 0.750000 0.093145
O O10 0.576770 0.977771 0.125007
O O11 0.500000 0.000000 0.000000
O O12 0.623469 0.250000 0.117207
O O13 0.675508 0.460914 0.203629
O O14 0.665034 0.466924 0.022667
O O15 0.250000 0.981037 0.664633
O O16 0.181356 0.750000 0.678841
O O17 0.750000 0.451806 0.908172
O O18 0.831415 0.250000 0.908926
O O19 0.939308 0.250000 0.609753
#
# Coordination Sequence:
#
# PCOD9451318 Si02
#       7
#     8   8   8   8   8   8   8
#     4  10  21  38  61  90 119 149 188 238 294 349
#     4  12  24  38  58  86 119 154 192 239 288 342
#     4  12  23  36  55  83 117 153 193 240 293 345
#     4  10  20  36  59  85 116 154 197 242 289 346
#     4  10  21  37  58  86 120 159 200 239 286 348
#     4  10  21  38  59  81 111 154 199 241 286 340
#     4  10  21  39  64  90 117 150 188 236 295 356
#
# _framework density 18.328202999999998
#
# number of rings (size 3 to 8) (size 9 to 14) (size 15 to 20)
#    0.000    1.429    1.429    4.714    0.000    6.857 
#    0.000    0.714    0.000    6.857    0.000    0.000 
#    0.000    0.000    0.000    0.000    0.000    0.000 
#
# Total GULP energy -312983.914281 kJ/mol
# GULP energy per Si atom -5588.998469 kJ/mol
# Density = 1.828649 g / cm^3
# Si number density = 18.328203 Si / 1000 Ang^3
#
#
#
# Elastic Constant Matrix: (Units=GPa)
#
#
# Indices 1 2 3 4 5 6 
#
# 1 84.6944 50.7117 42.7987 0.0000 0.0000 0.0000
# 2 50.7117 79.2894 50.0238 0.0000 0.0000 0.0000
# 3 42.7987 50.0238 106.1360 0.0000 0.0000 0.0000
# 4 0.0000 0.0000 0.0000 24.6243 0.0000 0.0000
# 5 0.0000 0.0000 0.0000 0.0000 18.7678 0.0000
# 6 0.0000 0.0000 0.0000 0.0000 0.0000 30.0906
#
#
#
# Elastic Compliance Matrix: (Units=1/GPa)
#
#
# Indices 1 2 3 4 5 6 
#
# 1 0.019726 -0.010813 -0.002858 0.000000 0.000000 0.000000
# 2 -0.010813 0.023877 -0.006893 0.000000 0.000000 0.000000
# 3 -0.002858 -0.006893 0.013823 0.000000 0.000000 0.000000
# 4 0.000000 0.000000 0.000000 0.040610 0.000000 0.000000
# 5 0.000000 0.000000 0.000000 0.000000 0.053283 0.000000
# 6 0.000000 0.000000 0.000000 0.000000 0.000000 0.033233
#
#
# Mechanical properties :
#
#
# Convention : Reuss Voigt Hill
#
# Bulk Modulus (GPa) = 61.35981 61.90978 61.63480
# Shear Modulus (GPa) = 21.63445 23.13557 22.38501
#
# Velocity S-wave (km/s) = 3.43941 3.55673 3.49856
# Velocity P-wave (km/s) = 7.02309 7.12172 7.07257
#
# Compressibility (1/GPa) = 0.01629731
#
# Stress axis : x y z
#
# Youngs Moduli (GPa) = 50.69500 41.88169 72.34213
#
# Poissons Ratio (x) = 0.45287 0.20675
# Poissons Ratio (y) = 0.54817 0.49867
# Poissons Ratio (z) = 0.14488 0.28870
#
# Static dielectric constant tensor:
#      x y z
#    x 1.605410 0.000000 0.000000 
#    y 0.000000 1.591100 0.000000 
#    z 0.000000 0.000000 1.617330 
# 
# From -- ./inp_files/24223.got.cif
#   From: 2010.05.17/outbox.cif.g08.bks.cpg/sg59_13_cif.got.tgz:24223.got - 2010.06.03 14:40:33.
