data_PCOD9451123
_publ_section_title
;
Structure prediction by ZEFSAII (Michael W. Deem and Ramdas Pophale) SiO2 
 PCOD9451123
Probable space group: P M M N
;
_chemical_formula_sum "Si O2"
_cell_formula_units_Z 56
_cell_length_a 11.039496
_cell_length_b 15.555405
_cell_length_c 16.490790
_cell_angle_alpha 90.000000
_cell_angle_beta 90.000000
_cell_angle_gamma 90.000000
_cell_volume 2831.861640
_symmetry_space_group_name_H-M "P M M N"
_symmetry_group_IT_number 59
_space_group.IT_coordinate_system_code '2'
_symmetry_cell_setting 'orthorhombic'
loop_
_space_group_symop_operation_xyz
x,y,z
1/2-x,1/2-y,z
1/2+x,-y,-z
-x,1/2+y,-z
-x,-y,-z
1/2+x,1/2+y,-z
1/2-x,y,z
x,1/2-y,z
loop_
_atom_site_type_symbol
_atom_site_label
_atom_site_fract_x
_atom_site_fract_y
_atom_site_fract_z
Si Si1 0.385294 0.090654 0.883039
Si Si2 0.034501 0.846705 0.663877
Si Si3 0.610370 0.480718 0.640598
Si Si4 0.385471 0.847540 0.211374
Si Si5 0.618376 0.108326 0.162425
Si Si6 0.115687 0.151160 0.059138
Si Si7 0.108499 0.843614 0.480622
O O1 0.250000 0.127017 0.864855
O O2 0.501313 0.139374 0.847827
O O3 0.387279 0.994741 0.847006
O O4 0.396019 0.091195 0.980485
O O5 0.981021 0.750000 0.669226
O O6 0.111815 0.861686 0.744670
O O7 0.101754 0.850970 0.577472
O O8 0.946507 0.928013 0.660365
O O9 0.750000 0.497727 0.620933
O O10 0.603614 0.417147 0.717486
O O11 0.554194 0.424646 0.566948
O O12 0.250000 0.858800 0.174216
O O13 0.389521 0.750000 0.243845
O O14 0.750000 0.135706 0.128193
O O15 0.497850 0.140927 0.117942
O O16 0.250000 0.135365 0.096480
O O17 0.115601 0.250000 0.029734
O O18 0.250000 0.840905 0.457024
O O19 0.054510 0.750000 0.458801
#
# Coordination Sequence:
#
# PCOD9451123 Si02
#       7
#     8   8   8   8   8   8   8
#     4  10  21  39  61  86 119 156 195 243 303 365
#     4  11  22  36  56  83 117 157 199 243 294 351
#     4  10  20  36  56  82 116 153 197 248 296 351
#     4  10  20  35  59  89 119 154 198 247 298 354
#     4  11  23  39  60  87 118 157 203 249 297 352
#     4  10  22  39  59  84 115 154 198 245 302 364
#     4   9  18  34  58  85 113 149 193 245 302 353
#
# _framework density 19.774978000000001
#
# number of rings (size 3 to 8) (size 9 to 14) (size 15 to 20)
#    0.000    1.857    1.429    2.571    0.000    6.286 
#    0.000    0.000    0.000    0.000    0.000    2.000 
#    0.000    0.000    0.000    0.000    0.000    0.000 
#
# Total GULP energy -312113.388350 kJ/mol
# GULP energy per Si atom -5573.453363 kJ/mol
# Density = 1.972997 g / cm^3
# Si number density = 19.774978 Si / 1000 Ang^3
#
#
#
# Elastic Constant Matrix: (Units=GPa)
#
#
# Indices 1 2 3 4 5 6 
#
# 1 117.7799 56.4092 48.2722 0.0000 0.0000 0.0000
# 2 56.4092 124.3371 22.9825 0.0000 0.0000 0.0000
# 3 48.2722 22.9825 65.9917 0.0000 0.0000 0.0000
# 4 0.0000 0.0000 0.0000 9.7614 0.0000 0.0000
# 5 0.0000 0.0000 0.0000 0.0000 12.2659 0.0000
# 6 0.0000 0.0000 0.0000 0.0000 0.0000 17.3725
#
#
#
# Elastic Compliance Matrix: (Units=1/GPa)
#
#
# Indices 1 2 3 4 5 6 
#
# 1 0.014495 -0.004934 -0.008884 0.000000 0.000000 0.000000
# 2 -0.004934 0.010275 0.000030 0.000000 0.000000 0.000000
# 3 -0.008884 0.000030 0.021642 0.000000 0.000000 0.000000
# 4 0.000000 0.000000 0.000000 0.102445 0.000000 0.000000
# 5 0.000000 0.000000 0.000000 0.000000 0.081527 0.000000
# 6 0.000000 0.000000 0.000000 0.000000 0.000000 0.057562
#
#
# Mechanical properties :
#
#
# Convention : Reuss Voigt Hill
#
# Bulk Modulus (GPa) = 53.08918 62.60407 57.84663
# Shear Modulus (GPa) = 15.53761 19.90962 17.72361
#
# Velocity S-wave (km/s) = 2.80611 3.17647 2.99702
# Velocity P-wave (km/s) = 6.11588 6.72162 6.42589
#
# Compressibility (1/GPa) = 0.01883623
#
# Stress axis : x y z
#
# Youngs Moduli (GPa) = 68.99098 97.32030 46.20712
#
# Poissons Ratio (x) = 0.48015 0.41052
# Poissons Ratio (y) = 0.34038 -0.00141
# Poissons Ratio (z) = 0.61295 -0.00296
#
# Static dielectric constant tensor:
#      x y z
#    x 1.709260 0.000000 0.000000 
#    y 0.000000 1.724620 0.000000 
#    z 0.000000 0.000000 1.694810 
# 
# From -- ./inp_files/22503.got.cif
#   From: 2010.05.17/outbox.cif.g08.bks.cpg/sg59_12_cif.got.tgz:22503.got - 2010.06.03 14:40:33.
