data_PCOD9451696
_publ_section_title
;
Structure prediction by ZEFSAII (Michael W. Deem and Ramdas Pophale) SiO2 
 PCOD9451696
Probable space group: P M M N
;
_chemical_formula_sum "Si O2"
_cell_formula_units_Z 32
_cell_length_a 15.719490
_cell_length_b 11.783638
_cell_length_c 9.335784
_cell_angle_alpha 90.000000
_cell_angle_beta 90.000000
_cell_angle_gamma 90.000000
_cell_volume 1729.293221
_symmetry_space_group_name_H-M "P M M N"
_symmetry_group_IT_number 59
_space_group.IT_coordinate_system_code '2'
_symmetry_cell_setting 'orthorhombic'
loop_
_space_group_symop_operation_xyz
x,y,z
1/2-x,1/2-y,z
1/2+x,-y,-z
-x,1/2+y,-z
-x,-y,-z
1/2+x,1/2+y,-z
1/2-x,y,z
x,1/2-y,z
loop_
_atom_site_type_symbol
_atom_site_label
_atom_site_fract_x
_atom_site_fract_y
_atom_site_fract_z
Si Si1 0.532516 0.535463 0.845219
Si Si2 0.917531 0.503713 0.398943
Si Si3 0.851952 0.750000 0.783025
Si Si4 0.850223 0.750000 0.435722
Si Si5 0.654831 0.116537 0.658508
O O1 0.449152 0.555204 0.745767
O O2 0.597179 0.641241 0.841690
O O3 0.585943 0.436794 0.765219
O O4 0.500000 0.500000 0.000000
O O5 0.890521 0.633994 0.376983
O O6 0.850957 0.440922 0.501556
O O7 0.000000 0.500000 0.500000
O O8 0.750000 0.750000 0.813054
O O9 0.861284 0.750000 0.609131
O O10 0.750000 0.750000 0.406313
O O11 0.750000 0.095893 0.715104
O O12 0.640359 0.250000 0.642977
#
# Coordination Sequence:
#
# PCOD9451696 Si02
#       5
#     8   8   4   4   8
#     4  11  25  38  60  90 126 157 198 242 301 362
#     4  10  21  34  61  86 117 148 200 253 299 349
#     4  11  22  41  67  89 118 162 205 246 299 363
#     4  11  20  37  63  91 116 154 209 258 301 347
#     4  10  21  38  61  85 117 155 198 247 301 358
#
# _framework density 18.504669
#
# number of rings (size 3 to 8) (size 9 to 14) (size 15 to 20)
#    0.000    1.500    5.000    1.500   10.500    0.000 
#    0.000    6.250    0.000    3.000    0.000    0.000 
#    0.000    0.000    0.000    0.000    0.000    0.000 
#
# Total GULP energy -178447.523162 kJ/mol
# GULP energy per Si atom -5576.485099 kJ/mol
# Density = 1.846255 g / cm^3
# Si number density = 18.504669 Si / 1000 Ang^3
#
#
#
# Elastic Constant Matrix: (Units=GPa)
#
#
# Indices 1 2 3 4 5 6 
#
# 1 94.7535 59.9926 36.9900 0.0000 0.0000 0.0000
# 2 59.9926 99.5418 26.5849 0.0000 0.0000 0.0000
# 3 36.9900 26.5849 108.5742 0.0000 0.0000 0.0000
# 4 0.0000 0.0000 0.0000 5.2456 0.0000 0.0000
# 5 0.0000 0.0000 0.0000 0.0000 23.3681 0.0000
# 6 0.0000 0.0000 0.0000 0.0000 0.0000 32.8930
#
#
#
# Elastic Compliance Matrix: (Units=1/GPa)
#
#
# Indices 1 2 3 4 5 6 
#
# 1 0.018428 -0.010090 -0.003808 0.000000 0.000000 0.000000
# 2 -0.010090 0.016273 -0.000547 0.000000 0.000000 0.000000
# 3 -0.003808 -0.000547 0.010642 0.000000 0.000000 0.000000
# 4 0.000000 0.000000 0.000000 0.190636 0.000000 0.000000
# 5 0.000000 0.000000 0.000000 0.000000 0.042793 0.000000
# 6 0.000000 0.000000 0.000000 0.000000 0.000000 0.030402
#
#
# Mechanical properties :
#
#
# Convention : Reuss Voigt Hill
#
# Bulk Modulus (GPa) = 60.77613 61.11162 60.94387
# Shear Modulus (GPa) = 14.55401 24.25482 19.40442
#
# Velocity S-wave (km/s) = 2.80751 3.62434 3.24176
# Velocity P-wave (km/s) = 6.58972 7.11415 6.85695
#
# Compressibility (1/GPa) = 0.01645383
#
# Stress axis : x y z
#
# Youngs Moduli (GPa) = 54.26422 61.45153 93.97125
#
# Poissons Ratio (x) = 0.62002 0.35783
# Poissons Ratio (y) = 0.54750 0.05141
# Poissons Ratio (z) = 0.20663 0.03362
#
# Static dielectric constant tensor:
#      x y z
#    x 1.684670 0.000000 0.000000 
#    y 0.000000 1.660880 0.000000 
#    z 0.000000 0.000000 1.639040 
# 
# From -- ./inp_files/6835.got.cif
#   From: 2010.05.17/outbox.cif.g08.bks.cpg/sg59_4_cif.got.tgz:6835.got - 2010.06.03 14:40:33.
