data_PCOD9451089
_publ_section_title
;
Structure prediction by ZEFSAII (Michael W. Deem and Ramdas Pophale) SiO2 
 PCOD9451089
Probable space group: P M M N
;
_chemical_formula_sum "Si O2"
_cell_formula_units_Z 56
_cell_length_a 28.113546
_cell_length_b 13.979007
_cell_length_c 7.420146
_cell_angle_alpha 90.000000
_cell_angle_beta 90.000000
_cell_angle_gamma 90.000000
_cell_volume 2916.113344
_symmetry_space_group_name_H-M "P M M N"
_symmetry_group_IT_number 59
_space_group.IT_coordinate_system_code '2'
_symmetry_cell_setting 'orthorhombic'
loop_
_space_group_symop_operation_xyz
x,y,z
1/2-x,1/2-y,z
1/2+x,-y,-z
-x,1/2+y,-z
-x,-y,-z
1/2+x,1/2+y,-z
1/2-x,y,z
x,1/2-y,z
loop_
_atom_site_type_symbol
_atom_site_label
_atom_site_fract_x
_atom_site_fract_y
_atom_site_fract_z
Si Si1 0.605442 0.864516 0.780070
Si Si2 0.949957 0.525103 0.092478
Si Si3 0.193353 0.855187 0.936180
Si Si4 0.933168 0.361841 0.348003
Si Si5 0.330504 0.859217 0.516915
Si Si6 0.032247 0.135554 0.538045
Si Si7 0.695173 0.990168 0.778358
O O1 0.604158 0.750000 0.804305
O O2 0.573454 0.888887 0.605096
O O3 0.658635 0.903782 0.755218
O O4 0.581748 0.917636 0.950066
O O5 0.927689 0.427507 0.172371
O O6 0.959026 0.588250 0.270192
O O7 0.000000 0.500000 0.000000
O O8 0.250000 0.850944 0.967391
O O9 0.173090 0.750000 0.984453
O O10 0.185140 0.869031 0.724383
O O11 0.177151 0.943332 0.056586
O O12 0.936798 0.250000 0.297752
O O13 0.887533 0.371479 0.476363
O O14 0.981399 0.390551 0.450499
O O15 0.318919 0.750000 0.459951
O O16 0.307646 0.938334 0.391498
O O17 0.032004 0.250000 0.559426
O O18 0.750000 0.960900 0.807176
#
# Coordination Sequence:
#
# PCOD9451089 Si02
#       7
#     8   8   8   8   8   8   8
#     4  11  25  44  63  86 119 161 209 256 307 359
#     4  12  23  36  66  90 119 163 204 244 301 367
#     4   9  18  34  56  85 121 157 194 243 303 366
#     4  10  21  37  57  89 130 161 196 244 298 365
#     4  10  20  35  58  87 123 160 191 235 296 367
#     4  10  22  41  61  88 126 162 198 247 299 355
#     4  11  23  38  61  88 116 157 208 257 302 354
#
# _framework density 19.203643
#
# number of rings (size 3 to 8) (size 9 to 14) (size 15 to 20)
#    0.000    1.571    1.429    3.429    2.000    2.286 
#    0.000    0.714    0.000    0.000    0.000    4.000 
#    0.000    0.000    0.000    0.000    0.000    0.000 
#
# Total GULP energy -312937.352549 kJ/mol
# GULP energy per Si atom -5588.167010 kJ/mol
# Density = 1.915993 g / cm^3
# Si number density = 19.203643 Si / 1000 Ang^3
#
#
#
# Elastic Constant Matrix: (Units=GPa)
#
#
# Indices 1 2 3 4 5 6 
#
# 1 94.2909 36.4998 29.4143 0.0000 0.0000 0.0000
# 2 36.4998 76.5090 44.5683 0.0000 0.0000 0.0000
# 3 29.4143 44.5683 101.7667 0.0000 0.0000 0.0000
# 4 0.0000 0.0000 0.0000 29.1125 0.0000 0.0000
# 5 0.0000 0.0000 0.0000 0.0000 21.1771 0.0000
# 6 0.0000 0.0000 0.0000 0.0000 0.0000 -712.4223
#
#
#
# Elastic Compliance Matrix: (Units=1/GPa)
#
#
# Indices 1 2 3 4 5 6 
#
# 1 0.013158 -0.005453 -0.001415 0.000000 0.000000 0.000000
# 2 -0.005453 0.019807 -0.007098 0.000000 0.000000 0.000000
# 3 -0.001415 -0.007098 0.013344 0.000000 0.000000 0.000000
# 4 0.000000 0.000000 0.000000 0.034350 0.000000 0.000000
# 5 0.000000 0.000000 0.000000 0.000000 0.047221 0.000000
# 6 0.000000 0.000000 0.000000 0.000000 0.000000 -0.001404
#
#
# Mechanical properties :
#
#
# Convention : Reuss Voigt Hill
#
# Bulk Modulus (GPa) = 54.41794 54.83684 54.62739
# Shear Modulus (GPa) = 31.14640 -121.62094 -45.23727
#
# Velocity S-wave (km/s) = 4.03165 -7.96679 -4.85878
# Velocity P-wave (km/s) = 7.07609 7.48391 1.72304
#
# Compressibility (1/GPa) = 0.01837629
#
# Stress axis : x y z
#
# Youngs Moduli (GPa) = 76.00137 50.48843 74.94013
#
# Poissons Ratio (x) = 0.27530 0.10604
# Poissons Ratio (y) = 0.41442 0.53194
# Poissons Ratio (z) = 0.10754 0.35837
#
# Static dielectric constant tensor:
#      x y z
#    x 1.693040 0.000000 0.000000 
#    y 0.000000 1.685440 0.000000 
#    z 0.000000 0.000000 1.643020 
# 
# From -- ./inp_files/4559.got.cif
#   From: 2010.05.17/outbox.cif.g08.bks.cpg/sg59_3_cif.got.tgz:4559.got - 2010.06.03 14:40:33.
