data_PCOD9451057
_publ_section_title
;
Structure prediction by ZEFSAII (Michael W. Deem and Ramdas Pophale) SiO2 
 PCOD9451057
Probable space group: P M M N
;
_chemical_formula_sum "Si O2"
_cell_formula_units_Z 48
_cell_length_a 9.270916
_cell_length_b 14.893417
_cell_length_c 17.606049
_cell_angle_alpha 90.000000
_cell_angle_beta 90.000000
_cell_angle_gamma 90.000000
_cell_volume 2430.966096
_symmetry_space_group_name_H-M "P M M N"
_symmetry_group_IT_number 59
_space_group.IT_coordinate_system_code '2'
_symmetry_cell_setting 'orthorhombic'
loop_
_space_group_symop_operation_xyz
x,y,z
1/2-x,1/2-y,z
1/2+x,-y,-z
-x,1/2+y,-z
-x,-y,-z
1/2+x,1/2+y,-z
1/2-x,y,z
x,1/2-y,z
loop_
_atom_site_type_symbol
_atom_site_label
_atom_site_fract_x
_atom_site_fract_y
_atom_site_fract_z
Si Si1 0.076408 0.250000 0.871675
Si Si2 0.577468 0.250000 0.708238
Si Si3 0.409497 0.645345 0.859963
Si Si4 0.420798 0.592576 0.410841
Si Si5 0.922933 0.596510 0.006342
Si Si6 0.581281 0.095918 0.416637
Si Si7 0.590911 0.854026 0.725331
O O1 0.250000 0.250000 0.862922
O O2 0.038928 0.161234 0.922297
O O3 0.002368 0.250000 0.789169
O O4 0.750000 0.250000 0.721509
O O5 0.545019 0.163561 0.655002
O O6 0.250000 0.606693 0.876176
O O7 0.388408 0.750000 0.842519
O O8 0.486297 0.601491 0.787309
O O9 0.516537 0.642109 0.930477
O O10 0.250000 0.567456 0.404111
O O11 0.436604 0.629241 0.496927
O O12 0.523984 0.506342 0.409893
O O13 0.750000 0.587835 0.004695
O O14 0.000000 0.500000 0.000000
O O15 0.750000 0.102243 0.397342
O O16 0.483690 0.145298 0.355840
O O17 0.750000 0.895591 0.724099
O O18 0.607650 0.750000 0.747290
#
# Coordination Sequence:
#
# PCOD9451057 Si02
#       7
#     4   4   8   8   8   8   8
#     4  10  24  44  64  89 126 163 202 259 314 373
#     4  10  22  40  64  89 116 159 208 255 306 363
#     4  10  20  36  59  86 116 150 191 240 295 356
#     4   9  20  38  58  82 115 155 199 246 302 358
#     4  11  23  41  64  91 123 162 205 251 311 373
#     4  10  20  35  58  84 117 156 197 248 299 353
#     4  10  21  35  54  83 117 152 190 233 288 351
#
# _framework density 19.745235999999998
#
# number of rings (size 3 to 8) (size 9 to 14) (size 15 to 20)
#    0.000    2.000    0.833    2.000    1.167    5.667 
#    0.000    3.333    0.000    0.000    0.000    0.000 
#    0.000    0.000    0.000    0.000    0.000    0.000 
#
# Total GULP energy -267537.076142 kJ/mol
# GULP energy per Si atom -5573.689086 kJ/mol
# Density = 1.970030 g / cm^3
# Si number density = 19.745236 Si / 1000 Ang^3
#
#
#
# Elastic Constant Matrix: (Units=GPa)
#
#
# Indices 1 2 3 4 5 6 
#
# 1 107.8190 35.1992 65.5615 0.0000 0.0000 0.0000
# 2 35.1992 62.9755 40.7142 0.0000 0.0000 0.0000
# 3 65.5615 40.7142 139.9800 0.0000 0.0000 0.0000
# 4 0.0000 0.0000 0.0000 -55.5691 0.0000 0.0000
# 5 0.0000 0.0000 0.0000 0.0000 32.5595 0.0000
# 6 0.0000 0.0000 0.0000 0.0000 0.0000 21.2962
#
#
#
# Elastic Compliance Matrix: (Units=1/GPa)
#
#
# Indices 1 2 3 4 5 6 
#
# 1 0.013884 -0.004380 -0.005229 0.000000 0.000000 0.000000
# 2 -0.004380 0.020938 -0.004039 0.000000 0.000000 0.000000
# 3 -0.005229 -0.004039 0.010768 0.000000 0.000000 0.000000
# 4 0.000000 0.000000 0.000000 -0.017996 0.000000 0.000000
# 5 0.000000 0.000000 0.000000 0.000000 0.030713 0.000000
# 6 0.000000 0.000000 0.000000 0.000000 0.000000 0.046957
#
#
# Mechanical properties :
#
#
# Convention : Reuss Voigt Hill
#
# Bulk Modulus (GPa) = 54.65924 65.96937 60.31430
# Shear Modulus (GPa) = 36.06003 10.94396 23.50199
#
# Velocity S-wave (km/s) = 4.27812 2.35682 3.45376
# Velocity P-wave (km/s) = 7.22118 6.39445 6.82035
#
# Compressibility (1/GPa) = 0.01829517
#
# Stress axis : x y z
#
# Youngs Moduli (GPa) = 72.02410 47.75936 92.87110
#
# Poissons Ratio (x) = 0.20918 0.48562
# Poissons Ratio (y) = 0.31545 0.37508
# Poissons Ratio (z) = 0.37661 0.19289
#
# Static dielectric constant tensor:
#      x y z
#    x 1.736210 0.000000 0.000000 
#    y 0.000000 1.513490 0.000000 
#    z 0.000000 0.000000 1.691980 
# 
# From -- ./inp_files/25621.got.cif
#   From: 2010.05.17/outbox.cif.g08.bks.cpg/sg59_13_cif.got.tgz:25621.got - 2010.06.03 14:40:33.
