data_PCOD9451844
_publ_section_title
;
Structure prediction by ZEFSAII (Michael W. Deem and Ramdas Pophale) SiO2 
 PCOD9451844
Probable space group: P M M N
;
_chemical_formula_sum "Si O2"
_cell_formula_units_Z 48
_cell_length_a 9.619550
_cell_length_b 7.547503
_cell_length_c 32.695588
_cell_angle_alpha 90.000000
_cell_angle_beta 90.000000
_cell_angle_gamma 90.000000
_cell_volume 2373.816820
_symmetry_space_group_name_H-M "P M M N"
_symmetry_group_IT_number 59
_space_group.IT_coordinate_system_code '2'
_symmetry_cell_setting 'orthorhombic'
loop_
_space_group_symop_operation_xyz
x,y,z
1/2-x,1/2-y,z
1/2+x,-y,-z
-x,1/2+y,-z
-x,-y,-z
1/2+x,1/2+y,-z
1/2-x,y,z
x,1/2-y,z
loop_
_atom_site_type_symbol
_atom_site_label
_atom_site_fract_x
_atom_site_fract_y
_atom_site_fract_z
Si Si1 0.588625 0.462934 0.295280
Si Si2 0.590885 0.539919 0.384981
Si Si3 0.592616 0.537856 0.960879
Si Si4 0.087829 0.966404 0.793745
Si Si5 0.091666 0.962899 0.460085
Si Si6 0.087956 0.034034 0.129119
O O1 0.750000 0.522491 0.295946
O O2 0.588003 0.250000 0.294680
O O3 0.530735 0.516147 0.339258
O O4 0.532308 0.522362 0.251125
O O5 0.750000 0.467597 0.386625
O O6 0.602461 0.750000 0.391650
O O7 0.491290 0.468421 0.420344
O O8 0.750000 0.470614 0.966610
O O9 0.600597 0.750000 0.957779
O O10 0.540338 0.475808 0.916245
O O11 0.500000 0.500000 0.000000
O O12 0.250000 0.016438 0.796949
O O13 0.084450 0.750000 0.794152
O O14 0.001501 0.029681 0.832636
O O15 0.250000 0.030133 0.463483
O O16 0.100735 0.750000 0.456248
O O17 0.000000 0.000000 0.500000
O O18 0.250000 0.985874 0.133249
O O19 0.081775 0.250000 0.129924
#
# Coordination Sequence:
#
# PCOD9451844 Si02
#       6
#     8   8   8   8   8   8
#     4   8  14  25  42  65  91 116 144 181 222 261
#     4   9  17  30  48  68  91 121 154 185 221 269
#     4   9  18  31  46  66  91 118 151 190 231 277
#     4   8  13  22  38  60  83 108 143 184 219 256
#     4  10  21  36  53  73  97 125 157 194 235 276
#     4   8  14  25  40  59  85 114 142 177 222 268
#
# _framework density 20.220599
#
# number of rings (size 3 to 8) (size 9 to 14) (size 15 to 20)
#    0.000    3.333    0.000    2.500    0.000    2.667 
#    0.000    4.167    0.000    2.000    0.000    2.333 
#    0.000    0.000    0.000    0.000    0.000    0.000 
#
# Total GULP energy -267399.501472 kJ/mol
# GULP energy per Si atom -5570.822947 kJ/mol
# Density = 2.017458 g / cm^3
# Si number density = 20.220599 Si / 1000 Ang^3
#
#
#
# Elastic Constant Matrix: (Units=GPa)
#
#
# Indices 1 2 3 4 5 6 
#
# 1 90.7321 4.5744 109.3237 0.0000 0.0000 0.0000
# 2 4.5744 45.0582 3.2469 0.0000 0.0000 0.0000
# 3 109.3237 3.2469 255.9029 0.0000 0.0000 0.0000
# 4 0.0000 0.0000 0.0000 19.0597 0.0000 0.0000
# 5 0.0000 0.0000 0.0000 0.0000 37.6639 0.0000
# 6 0.0000 0.0000 0.0000 0.0000 0.0000 8.1330
#
#
#
# Elastic Compliance Matrix: (Units=1/GPa)
#
#
# Indices 1 2 3 4 5 6 
#
# 1 0.022830 -0.001616 -0.009733 0.000000 0.000000 0.000000
# 2 -0.001616 0.022328 0.000407 0.000000 0.000000 0.000000
# 3 -0.009733 0.000407 0.008060 0.000000 0.000000 0.000000
# 4 0.000000 0.000000 0.000000 0.052467 0.000000 0.000000
# 5 0.000000 0.000000 0.000000 0.000000 0.026551 0.000000
# 6 0.000000 0.000000 0.000000 0.000000 0.000000 0.122955
#
#
# Mechanical properties :
#
#
# Convention : Reuss Voigt Hill
#
# Bulk Modulus (GPa) = 31.91320 69.55368 50.73344
# Shear Modulus (GPa) = 17.39015 31.27456 24.33235
#
# Velocity S-wave (km/s) = 2.93579 3.93704 3.47269
# Velocity P-wave (km/s) = 5.22577 7.42557 6.42058
#
# Compressibility (1/GPa) = 0.03133500
#
# Stress axis : x y z
#
# Youngs Moduli (GPa) = 43.80257 44.78631 124.06379
#
# Poissons Ratio (x) = 0.07239 1.20745
# Poissons Ratio (y) = 0.07080 -0.05052
# Poissons Ratio (z) = 0.42631 -0.01824
#
# Static dielectric constant tensor:
#      x y z
#    x 1.699410 0.000000 0.000000 
#    y 0.000000 1.788530 0.000000 
#    z 0.000000 0.000000 1.743830 
# 
# From -- ./inp_files/31249.got.cif
#   From: 2010.05.17/outbox.cif.g08.bks.cpg/sg59_16_cif.got.tgz:31249.got - 2010.06.03 14:40:33.
