data_PCOD9451214
_publ_section_title
;
Structure prediction by ZEFSAII (Michael W. Deem and Ramdas Pophale) SiO2 
 PCOD9451214
Probable space group: P M M N
;
_chemical_formula_sum "Si O2"
_cell_formula_units_Z 56
_cell_length_a 15.924686
_cell_length_b 8.174441
_cell_length_c 21.864880
_cell_angle_alpha 90.000000
_cell_angle_beta 90.000000
_cell_angle_gamma 90.000000
_cell_volume 2846.269634
_symmetry_space_group_name_H-M "P M M N"
_symmetry_group_IT_number 59
_space_group.IT_coordinate_system_code '2'
_symmetry_cell_setting 'orthorhombic'
loop_
_space_group_symop_operation_xyz
x,y,z
1/2-x,1/2-y,z
1/2+x,-y,-z
-x,1/2+y,-z
-x,-y,-z
1/2+x,1/2+y,-z
1/2-x,y,z
x,1/2-y,z
loop_
_atom_site_type_symbol
_atom_site_label
_atom_site_fract_x
_atom_site_fract_y
_atom_site_fract_z
Si Si1 0.342570 0.949616 0.128258
Si Si2 0.997013 0.450688 0.787410
Si Si3 0.342617 0.446492 0.863474
Si Si4 0.845211 0.442919 0.421058
Si Si5 0.009512 0.943456 0.352319
Si Si6 0.096568 0.946181 0.995570
Si Si7 0.154973 0.443387 0.442091
O O1 0.250000 0.001921 0.148320
O O2 0.344205 0.750000 0.128417
O O3 0.417580 0.003833 0.172119
O O4 0.359120 0.000581 0.058302
O O5 0.997820 0.250000 0.787706
O O6 0.082268 0.507097 0.820448
O O7 0.990471 0.504767 0.717430
O O8 0.250000 0.510220 0.847791
O O9 0.341272 0.250000 0.857390
O O10 0.363487 0.485588 0.933808
O O11 0.750000 0.504622 0.408845
O O12 0.846785 0.250000 0.408379
O O13 0.919122 0.524377 0.382740
O O14 0.861610 0.469612 0.493208
O O15 0.024340 0.750000 0.350937
O O16 0.083500 0.018415 0.393187
O O17 0.100896 0.750000 0.993005
O O18 0.000000 0.000000 0.000000
O O19 0.250000 0.489279 0.421907
O O20 0.154383 0.250000 0.454341
#
# Coordination Sequence:
#
# PCOD9451214 Si02
#       7
#     8   8   8   8   8   8   8
#     4   9  17  31  53  78 104 135 176 226 274 322
#     4   9  19  35  52  77 109 145 187 225 269 325
#     4  10  20  36  57  80 109 144 183 229 279 329
#     4  10  21  38  60  85 114 147 185 231 280 330
#     4  11  22  35  57  85 114 149 190 233 277 330
#     4  11  20  33  56  82 110 141 179 228 283 334
#     4  10  21  38  60  85 115 149 185 228 278 332
#
# _framework density 19.674875
#
# number of rings (size 3 to 8) (size 9 to 14) (size 15 to 20)
#    0.000    2.000    1.429    2.571    0.000    3.714 
#    0.000    4.286    0.000    0.000    0.000    0.000 
#    0.000    0.000    0.000    0.000    0.000    0.000 
#
# Total GULP energy -312746.550026 kJ/mol
# GULP energy per Si atom -5584.759822 kJ/mol
# Density = 1.963009 g / cm^3
# Si number density = 19.674875 Si / 1000 Ang^3
#
#
#
# Elastic Constant Matrix: (Units=GPa)
#
#
# Indices 1 2 3 4 5 6 
#
# 1 125.3348 -8.8640 39.1183 0.0000 0.0000 0.0000
# 2 -8.8640 11.4877 -13.0803 0.0000 0.0000 0.0000
# 3 39.1183 -13.0803 73.7615 0.0000 0.0000 0.0000
# 4 0.0000 0.0000 0.0000 22.9417 0.0000 0.0000
# 5 0.0000 0.0000 0.0000 0.0000 -2.6895 0.0000
# 6 0.0000 0.0000 0.0000 0.0000 0.0000 -1.8533
#
#
#
# Elastic Compliance Matrix: (Units=1/GPa)
#
#
# Indices 1 2 3 4 5 6 
#
# 1 0.009598 0.002017 -0.004733 0.000000 0.000000 0.000000
# 2 0.002017 0.109497 0.018348 0.000000 0.000000 0.000000
# 3 -0.004733 0.018348 0.019321 0.000000 0.000000 0.000000
# 4 0.000000 0.000000 0.000000 0.043589 0.000000 0.000000
# 5 0.000000 0.000000 0.000000 0.000000 -0.371819 0.000000
# 6 0.000000 0.000000 0.000000 0.000000 0.000000 -0.539587
#
#
# Mechanical properties :
#
#
# Convention : Reuss Voigt Hill
#
# Bulk Modulus (GPa) = 5.89340 27.21467 16.55403
# Shear Modulus (GPa) = -7.10121 16.57379 4.73629
#
# Velocity S-wave (km/s) = -1.90187 2.90553 1.55322
# Velocity P-wave (km/s) = 1.34942 5.01182 3.41302
#
# Compressibility (1/GPa) = 0.16968137
#
# Stress axis : x y z
#
# Youngs Moduli (GPa) = 104.18393 9.13264 51.75798
#
# Poissons Ratio (x) = -0.01843 0.24495
# Poissons Ratio (y) = -0.21019 -0.94963
# Poissons Ratio (z) = 0.49306 -0.16756
#
# Static dielectric constant tensor:
#      x y z
#    x 1.691130 0.000000 0.000000 
#    y 0.000000 1.692460 0.000000 
#    z 0.000000 0.000000 1.657960 
# 
# From -- ./inp_files/28972.got.cif
#   From: 2010.05.17/outbox.cif.g08.bks.cpg/sg59_15_cif.got.tgz:28972.got - 2010.06.03 14:40:33.
