data_PCOD9451917
_publ_section_title
;
Structure prediction by ZEFSAII (Michael W. Deem and Ramdas Pophale) SiO2 
 PCOD9451917
Probable space group: P M M N
;
_chemical_formula_sum "Si O2"
_cell_formula_units_Z 64
_cell_length_a 7.849830
_cell_length_b 15.582657
_cell_length_c 23.940535
_cell_angle_alpha 90.000000
_cell_angle_beta 90.000000
_cell_angle_gamma 90.000000
_cell_volume 2928.435171
_symmetry_space_group_name_H-M "P M M N"
_symmetry_group_IT_number 59
_space_group.IT_coordinate_system_code '2'
_symmetry_cell_setting 'orthorhombic'
loop_
_space_group_symop_operation_xyz
x,y,z
1/2-x,1/2-y,z
1/2+x,-y,-z
-x,1/2+y,-z
-x,-y,-z
1/2+x,1/2+y,-z
1/2-x,y,z
x,1/2-y,z
loop_
_atom_site_type_symbol
_atom_site_label
_atom_site_fract_x
_atom_site_fract_y
_atom_site_fract_z
Si Si1 0.950332 0.466054 0.254162
Si Si2 0.445773 0.848859 0.285312
Si Si3 0.451246 0.344836 0.906946
Si Si4 0.544472 0.152389 0.035106
Si Si5 0.953711 0.152022 0.354936
Si Si6 0.959868 0.474102 0.133021
Si Si7 0.047136 0.094016 0.478770
Si Si8 0.939601 0.650516 0.405305
O O1 0.750000 0.447212 0.253880
O O2 0.021263 0.413475 0.307377
O O3 0.018172 0.440389 0.193267
O O4 0.966111 0.569525 0.257569
O O5 0.250000 0.847475 0.268047
O O6 0.511826 0.750000 0.277286
O O7 0.455554 0.875004 0.351197
O O8 0.250000 0.340877 0.894673
O O9 0.524503 0.250000 0.894366
O O10 0.520202 0.428206 0.875917
O O11 0.472275 0.361014 0.973186
O O12 0.750000 0.146645 0.030695
O O13 0.501867 0.250000 0.052020
O O14 0.486337 0.084551 0.081134
O O15 0.750000 0.156646 0.348528
O O16 0.020551 0.250000 0.350059
O O17 0.982548 0.117492 0.417749
O O18 0.750000 0.474431 0.132683
O O19 0.250000 0.105979 0.475967
O O20 0.983745 0.145157 0.533068
O O21 0.000000 0.000000 0.500000
O O22 0.750000 0.607895 0.403713
O O23 0.914896 0.750000 0.395889
#
# Coordination Sequence:
#
# PCOD9451917 Si02
#       8
#     8   8   8   8   8   8   8   8
#     4  10  21  37  56  77 102 139 187 229 264 311
#     4  10  21  36  54  78 108 139 171 215 274 331
#     4   9  17  30  49  74 104 135 166 204 253 309
#     4   9  17  30  50  76 104 133 166 207 256 307
#     4  10  22  39  57  79 110 147 186 230 279 326
#     4   9  18  32  51  75 101 132 174 218 256 300
#     4  11  22  35  54  80 108 137 172 217 270 327
#     4   9  18  33  52  73  96 124 161 203 248 305
#
# _framework density 21.854676999999999
#
# number of rings (size 3 to 8) (size 9 to 14) (size 15 to 20)
#    0.000    2.375    0.000    2.250    0.000    7.000 
#    0.000    6.250    0.000    1.500    0.000    1.750 
#    0.000    0.000    0.000    0.000    0.000    0.000 
#
# Total GULP energy -356694.059636 kJ/mol
# GULP energy per Si atom -5573.344682 kJ/mol
# Density = 2.180493 g / cm^3
# Si number density = 21.854677 Si / 1000 Ang^3
#
#
#
# Elastic Constant Matrix: (Units=GPa)
#
#
# Indices 1 2 3 4 5 6 
#
# 1 17.6328 -1.6081 -7.1007 0.0000 0.0000 0.0000
# 2 -1.6081 90.6697 34.9503 0.0000 0.0000 0.0000
# 3 -7.1007 34.9503 57.2509 0.0000 0.0000 0.0000
# 4 0.0000 0.0000 0.0000 -0.7788 0.0000 0.0000
# 5 0.0000 0.0000 0.0000 0.0000 15.4554 0.0000
# 6 0.0000 0.0000 0.0000 0.0000 0.0000 11.2878
#
#
#
# Elastic Compliance Matrix: (Units=1/GPa)
#
#
# Indices 1 2 3 4 5 6 
#
# 1 0.060079 -0.002363 0.008894 0.000000 0.000000 0.000000
# 2 -0.002363 0.014516 -0.009155 0.000000 0.000000 0.000000
# 3 0.008894 -0.009155 0.024159 0.000000 0.000000 0.000000
# 4 0.000000 0.000000 0.000000 -1.283966 0.000000 0.000000
# 5 0.000000 0.000000 0.000000 0.000000 0.064702 0.000000
# 6 0.000000 0.000000 0.000000 0.000000 0.000000 0.088591
#
#
# Mechanical properties :
#
#
# Convention : Reuss Voigt Hill
#
# Bulk Modulus (GPa) = 10.69448 24.22627 17.46037
# Shear Modulus (GPa) = -5.02258 14.48034 4.72888
#
# Velocity S-wave (km/s) = -1.51762 2.57684 1.47258
# Velocity P-wave (km/s) = 1.35395 4.46797 3.30121
#
# Compressibility (1/GPa) = 0.09350620
#
# Stress axis : x y z
#
# Youngs Moduli (GPa) = 16.64485 68.88952 41.39276
#
# Poissons Ratio (x) = 0.16277 -0.36814
# Poissons Ratio (y) = 0.03933 0.37894
# Poissons Ratio (z) = -0.14804 0.63066
#
# Static dielectric constant tensor:
#      x y z
#    x 1.801230 0.000000 0.000000 
#    y 0.000000 1.770710 0.000000 
#    z 0.000000 0.000000 1.826910 
# 
# From -- ./inp_files/31511.got.cif
#   From: 2010.05.17/outbox.cif.g08.bks.cpg/sg59_16_cif.got.tgz:31511.got - 2010.06.03 14:40:33.
