data_PCOD9451975
_publ_section_title
;
Structure prediction by ZEFSAII (Michael W. Deem and Ramdas Pophale) SiO2 
 PCOD9451975
Probable space group: P M M N
;
_chemical_formula_sum "Si O2"
_cell_formula_units_Z 40
_cell_length_a 9.099757
_cell_length_b 9.276554
_cell_length_c 26.400978
_cell_angle_alpha 90.000000
_cell_angle_beta 90.000000
_cell_angle_gamma 90.000000
_cell_volume 2228.622379
_symmetry_space_group_name_H-M "P M M N"
_symmetry_group_IT_number 59
_space_group.IT_coordinate_system_code '2'
_symmetry_cell_setting 'orthorhombic'
loop_
_space_group_symop_operation_xyz
x,y,z
1/2-x,1/2-y,z
1/2+x,-y,-z
-x,1/2+y,-z
-x,-y,-z
1/2+x,1/2+y,-z
1/2-x,y,z
x,1/2-y,z
loop_
_atom_site_type_symbol
_atom_site_label
_atom_site_fract_x
_atom_site_fract_y
_atom_site_fract_z
Si Si1 0.425507 0.921423 0.452448
Si Si2 0.921944 0.922241 0.747420
Si Si3 0.424671 0.578064 0.641583
Si Si4 0.923686 0.923452 0.159685
Si Si5 0.926087 0.919709 0.046378
O O1 0.250000 0.944081 0.453519
O O2 0.453007 0.750000 0.454675
O O3 0.500000 0.000000 0.500000
O O4 0.493819 0.989314 0.401808
O O5 0.750000 0.955385 0.740348
O O6 0.936580 0.750000 0.754623
O O7 0.011231 0.960327 0.696666
O O8 0.986138 0.002324 0.796045
O O9 0.250000 0.552983 0.639740
O O10 0.449729 0.750000 0.633808
O O11 0.750000 0.956531 0.165378
O O12 0.938281 0.750000 0.162297
O O13 0.970769 0.969249 0.102921
O O14 0.750000 0.935651 0.043610
O O15 0.959629 0.750000 0.042928
O O16 0.000000 0.000000 0.000000
#
# Coordination Sequence:
#
# PCOD9451975 Si02
#       5
#     8   8   8   8   8
#     4  11  24  40  59  85 115 147 184 224 268 319
#     4  10  21  36  55  81 111 142 177 219 268 319
#     4  10  21  38  60  84 110 143 183 224 267 317
#     4   9  19  36  55  75 103 140 179 219 265 317
#     4   9  19  35  53  75 104 137 175 219 266 318
#
# _framework density 17.948308000000001
#
# number of rings (size 3 to 8) (size 9 to 14) (size 15 to 20)
#    0.000    2.200    0.000    3.600    0.000    9.600 
#    0.000    6.000    0.000    0.000    0.000    0.000 
#    0.000    0.000    0.000    0.000    0.000    0.000 
#
# Total GULP energy -223353.732595 kJ/mol
# GULP energy per Si atom -5583.843315 kJ/mol
# Density = 1.790746 g / cm^3
# Si number density = 17.948308 Si / 1000 Ang^3
#
#
#
# Elastic Constant Matrix: (Units=GPa)
#
#
# Indices 1 2 3 4 5 6 
#
# 1 93.3056 67.5271 88.6251 0.0000 0.0000 0.0000
# 2 67.5271 62.2759 86.3692 0.0000 0.0000 0.0000
# 3 88.6251 86.3692 190.4280 0.0000 0.0000 0.0000
# 4 0.0000 0.0000 0.0000 41.3910 0.0000 0.0000
# 5 0.0000 0.0000 0.0000 0.0000 42.0065 0.0000
# 6 0.0000 0.0000 0.0000 0.0000 0.0000 32.5108
#
#
#
# Elastic Compliance Matrix: (Units=1/GPa)
#
#
# Indices 1 2 3 4 5 6 
#
# 1 0.050692 -0.059969 0.003607 0.000000 0.000000 0.000000
# 2 -0.059969 0.114229 -0.023899 0.000000 0.000000 0.000000
# 3 0.003607 -0.023899 0.014412 0.000000 0.000000 0.000000
# 4 0.000000 0.000000 0.000000 0.024160 0.000000 0.000000
# 5 0.000000 0.000000 0.000000 0.000000 0.023806 0.000000
# 6 0.000000 0.000000 0.000000 0.000000 0.000000 0.030759
#
#
# Mechanical properties :
#
#
# Convention : Reuss Voigt Hill
#
# Bulk Modulus (GPa) = 53.16186 92.33914 72.75050
# Shear Modulus (GPa) = 11.76885 30.08087 20.92486
#
# Velocity S-wave (km/s) = 2.56346 4.09831 3.41814
# Velocity P-wave (km/s) = 6.20044 8.59964 7.49664
#
# Compressibility (1/GPa) = 0.01881048
#
# Stress axis : x y z
#
# Youngs Moduli (GPa) = 19.72688 8.75437 69.38612
#
# Poissons Ratio (x) = 0.52499 -0.25028
# Poissons Ratio (y) = 1.18301 1.65827
# Poissons Ratio (z) = -0.07116 0.20922
#
# Static dielectric constant tensor:
#      x y z
#    x 1.596370 0.000000 0.000000 
#    y 0.000000 1.596600 0.000000 
#    z 0.000000 0.000000 1.591120 
# 
# From -- ./inp_files/31117.got.cif
#   From: 2010.05.17/outbox.cif.g08.bks.cpg/sg59_16_cif.got.tgz:31117.got - 2010.06.03 14:40:33.
