data_PCOD9451199
_publ_section_title
;
Structure prediction by ZEFSAII (Michael W. Deem and Ramdas Pophale) SiO2 
 PCOD9451199
Probable space group: P M M N
;
_chemical_formula_sum "Si O2"
_cell_formula_units_Z 64
_cell_length_a 8.913542
_cell_length_b 25.606562
_cell_length_c 14.816289
_cell_angle_alpha 90.000000
_cell_angle_beta 90.000000
_cell_angle_gamma 90.000000
_cell_volume 3381.746340
_symmetry_space_group_name_H-M "P M M N"
_symmetry_group_IT_number 59
_space_group.IT_coordinate_system_code '2'
_symmetry_cell_setting 'orthorhombic'
loop_
_space_group_symop_operation_xyz
x,y,z
1/2-x,1/2-y,z
1/2+x,-y,-z
-x,1/2+y,-z
-x,-y,-z
1/2+x,1/2+y,-z
1/2-x,y,z
x,1/2-y,z
loop_
_atom_site_type_symbol
_atom_site_label
_atom_site_fract_x
_atom_site_fract_y
_atom_site_fract_z
Si Si1 0.923977 0.108809 0.653195
Si Si2 0.429207 0.691956 0.814615
Si Si3 0.430184 0.092054 0.283987
Si Si4 0.430299 0.190752 0.790335
Si Si5 0.432184 0.556749 0.525759
Si Si6 0.431805 0.165905 0.997494
Si Si7 0.577986 0.480443 0.790336
Si Si8 0.925421 0.550945 0.038826
O O1 0.750000 0.124860 0.650728
O O2 0.977425 0.098735 0.551607
O O3 0.928912 0.050889 0.697223
O O4 0.005714 0.149061 0.719538
O O5 0.250000 0.684236 0.814950
O O6 0.460877 0.750000 0.776334
O O7 0.506380 0.644749 0.760233
O O8 0.490300 0.691825 0.917298
O O9 0.250000 0.095555 0.294228
O O10 0.506623 0.077240 0.378810
O O11 0.458829 0.041136 0.221034
O O12 0.250000 0.186125 0.789902
O O13 0.471527 0.250000 0.764490
O O14 0.475499 0.182688 0.895747
O O15 0.500000 0.500000 0.500000
O O16 0.250000 0.552942 0.526651
O O17 0.250000 0.171767 0.004405
O O18 0.474646 0.104987 0.004064
O O19 0.750000 0.476136 0.823990
O O20 0.468047 0.450362 0.856610
O O21 0.750000 0.547676 0.026446
O O22 0.000000 0.500000 0.000000
#
# Coordination Sequence:
#
# PCOD9451199 Si02
#       8
#     8   8   8   8   8   8   8   8
#     4  10  21  38  59  86 122 156 191 238 294 351
#     4  11  25  43  62  88 120 156 203 254 300 352
#     4  11  23  41  64  92 122 156 199 247 302 364
#     4  10  21  38  60  87 119 156 203 252 294 346
#     4  11  22  39  63  93 125 159 197 244 300 359
#     4  10  21  38  59  84 116 157 202 245 294 350
#     4  10  20  36  56  83 120 154 188 237 293 354
#     4  11  22  34  51  80 116 157 198 239 292 351
#
# _framework density 18.925132999999999
#
# number of rings (size 3 to 8) (size 9 to 14) (size 15 to 20)
#    0.000    1.500    2.500    2.625    0.000    8.250 
#    0.000    0.625    0.000    0.750    0.000    0.000 
#    0.000    0.000    0.000    0.000    0.000    0.000 
#
# Total GULP energy -357239.281246 kJ/mol
# GULP energy per Si atom -5581.863769 kJ/mol
# Density = 1.888206 g / cm^3
# Si number density = 18.925133 Si / 1000 Ang^3
#
#
#
# Elastic Constant Matrix: (Units=GPa)
#
#
# Indices 1 2 3 4 5 6 
#
# 1 37.1490 49.6592 26.1690 0.0000 0.0000 0.0000
# 2 49.6592 140.4796 46.8924 0.0000 0.0000 0.0000
# 3 26.1690 46.8924 86.7659 0.0000 0.0000 0.0000
# 4 0.0000 0.0000 0.0000 16.0484 0.0000 0.0000
# 5 0.0000 0.0000 0.0000 0.0000 33.7044 0.0000
# 6 0.0000 0.0000 0.0000 0.0000 0.0000 25.3736
#
#
#
# Elastic Compliance Matrix: (Units=1/GPa)
#
#
# Indices 1 2 3 4 5 6 
#
# 1 0.054643 -0.016856 -0.007371 0.000000 0.000000 0.000000
# 2 -0.016856 0.013885 -0.002420 0.000000 0.000000 0.000000
# 3 -0.007371 -0.002420 0.015056 0.000000 0.000000 0.000000
# 4 0.000000 0.000000 0.000000 0.062312 0.000000 0.000000
# 5 0.000000 0.000000 0.000000 0.000000 0.029670 0.000000
# 6 0.000000 0.000000 0.000000 0.000000 0.000000 0.039411
#
#
# Mechanical properties :
#
#
# Convention : Reuss Voigt Hill
#
# Bulk Modulus (GPa) = 33.01378 56.64841 44.83110
# Shear Modulus (GPa) = 17.96186 24.47018 21.21602
#
# Velocity S-wave (km/s) = 3.08409 3.59973 3.35184
# Velocity P-wave (km/s) = 5.49222 6.87570 6.22253
#
# Compressibility (1/GPa) = 0.03029038
#
# Stress axis : x y z
#
# Youngs Moduli (GPa) = 18.30056 72.02100 66.41693
#
# Poissons Ratio (x) = 1.21397 0.48956
# Poissons Ratio (y) = 0.30847 0.16074
# Poissons Ratio (z) = 0.13489 0.17431
#
# Static dielectric constant tensor:
#      x y z
#    x 1.643180 0.000000 0.000000 
#    y 0.000000 2.573460 0.000000 
#    z 0.000000 0.000000 1.721840 
# 
# From -- ./inp_files/21427.got.cif
#   From: 2010.05.17/outbox.cif.g08.bks.cpg/sg59_11_cif.got.tgz:21427.got - 2010.06.03 14:40:33.
