data_PCOD9451402
_publ_section_title
;
Structure prediction by ZEFSAII (Michael W. Deem and Ramdas Pophale) SiO2 
 PCOD9451402
Probable space group: P M M N
;
_chemical_formula_sum "Si O2"
_cell_formula_units_Z 56
_cell_length_a 14.511577
_cell_length_b 15.010076
_cell_length_c 11.562417
_cell_angle_alpha 90.000000
_cell_angle_beta 90.000000
_cell_angle_gamma 90.000000
_cell_volume 2518.524210
_symmetry_space_group_name_H-M "P M M N"
_symmetry_group_IT_number 59
_space_group.IT_coordinate_system_code '2'
_symmetry_cell_setting 'orthorhombic'
loop_
_space_group_symop_operation_xyz
x,y,z
1/2-x,1/2-y,z
1/2+x,-y,-z
-x,1/2+y,-z
-x,-y,-z
1/2+x,1/2+y,-z
1/2-x,y,z
x,1/2-y,z
loop_
_atom_site_type_symbol
_atom_site_label
_atom_site_fract_x
_atom_site_fract_y
_atom_site_fract_z
Si Si1 0.491492 0.601244 0.544969
Si Si2 0.355263 0.854041 0.366051
Si Si3 0.883816 0.150567 0.065983
Si Si4 0.931674 0.456333 0.847004
Si Si5 0.851588 0.973300 0.164846
Si Si6 0.434467 0.150157 0.202927
Si Si7 0.351187 0.346256 0.621504
O O1 0.500000 0.500000 0.500000
O O2 0.394384 0.633836 0.495066
O O3 0.513451 0.623098 0.677414
O O4 0.570737 0.650064 0.472682
O O5 0.250000 0.884597 0.357332
O O6 0.360008 0.750000 0.335928
O O7 0.417748 0.908090 0.275841
O O8 0.846486 0.250000 0.063882
O O9 0.989761 0.159521 0.103232
O O10 0.845584 0.079759 0.157625
O O11 0.879244 0.101063 0.943212
O O12 0.888885 0.555780 0.833184
O O13 0.042028 0.457497 0.879326
O O14 0.750000 0.941382 0.116441
O O15 0.856724 0.927001 0.289320
O O16 0.391422 0.250000 0.216472
O O17 0.250000 0.350470 0.566099
O O18 0.358035 0.250000 0.684218
#
# Coordination Sequence:
#
# PCOD9451402 Si02
#       7
#     8   8   8   8   8   8   8
#     4  12  21  39  63  89 132 176 210 267 326 381
#     4  11  24  41  65  97 129 169 220 271 326 386
#     4  10  22  40  64  92 126 172 220 268 327 390
#     4  11  21  42  65  90 131 174 219 273 327 384
#     4  10  20  36  61  96 131 162 210 270 324 382
#     4  10  20  36  61  92 126 168 218 266 323 391
#     4  10  21  37  61  94 129 169 216 260 313 387
#
# _framework density 22.235243000000001
#
# number of rings (size 3 to 8) (size 9 to 14) (size 15 to 20)
#    0.000    1.429    2.857    4.286    0.000    2.000 
#    0.000    3.571    0.000    4.714    0.000    8.000 
#    0.000    0.000    0.000    0.000    0.000    0.000 
#
# Total GULP energy -311840.548151 kJ/mol
# GULP energy per Si atom -5568.581217 kJ/mol
# Density = 2.218463 g / cm^3
# Si number density = 22.235243 Si / 1000 Ang^3
#
#
#
# Elastic Constant Matrix: (Units=GPa)
#
#
# Indices 1 2 3 4 5 6 
#
# 1 88.7924 26.5632 2.3096 0.0000 0.0000 0.0000
# 2 26.5632 146.9809 54.2309 0.0000 0.0000 0.0000
# 3 2.3096 54.2309 83.1227 0.0000 0.0000 0.0000
# 4 0.0000 0.0000 0.0000 30.9542 0.0000 0.0000
# 5 0.0000 0.0000 0.0000 0.0000 -13.3263 0.0000
# 6 0.0000 0.0000 0.0000 0.0000 0.0000 21.2833
#
#
#
# Elastic Compliance Matrix: (Units=1/GPa)
#
#
# Indices 1 2 3 4 5 6 
#
# 1 0.012033 -0.002702 0.001428 0.000000 0.000000 0.000000
# 2 -0.002702 0.009567 -0.006167 0.000000 0.000000 0.000000
# 3 0.001428 -0.006167 0.016014 0.000000 0.000000 0.000000
# 4 0.000000 0.000000 0.000000 0.032306 0.000000 0.000000
# 5 0.000000 0.000000 0.000000 0.000000 -0.075040 0.000000
# 6 0.000000 0.000000 0.000000 0.000000 0.000000 0.046985
#
#
# Mechanical properties :
#
#
# Convention : Reuss Voigt Hill
#
# Bulk Modulus (GPa) = 43.98658 53.90037 48.94348
# Shear Modulus (GPa) = 77.73094 23.50172 50.61633
#
# Velocity S-wave (km/s) = 5.91898 3.25462 4.77634
# Velocity P-wave (km/s) = 8.15707 6.19814 7.24413
#
# Compressibility (1/GPa) = 0.02273421
#
# Stress axis : x y z
#
# Youngs Moduli (GPa) = 83.10256 104.52378 62.44517
#
# Poissons Ratio (x) = 0.28239 -0.08919
# Poissons Ratio (y) = 0.22452 0.38508
# Poissons Ratio (z) = -0.11870 0.64457
#
# Static dielectric constant tensor:
#      x y z
#    x 1.868330 0.000000 0.000000 
#    y 0.000000 2.032140 0.000000 
#    z 0.000000 0.000000 1.794350 
# 
# From -- ./inp_files/16914.got.cif
#   From: 2010.05.17/outbox.cif.g08.bks.cpg/sg59_9_cif.got.tgz:16914.got - 2010.06.03 14:40:33.
