data_PCOD9451305
_publ_section_title
;
Structure prediction by ZEFSAII (Michael W. Deem and Ramdas Pophale) SiO2 
 PCOD9451305
Probable space group: P M M N
;
_chemical_formula_sum "Si O2"
_cell_formula_units_Z 64
_cell_length_a 19.303264
_cell_length_b 9.235707
_cell_length_c 20.962908
_cell_angle_alpha 90.000000
_cell_angle_beta 90.000000
_cell_angle_gamma 90.000000
_cell_volume 3737.252364
_symmetry_space_group_name_H-M "P M M N"
_symmetry_group_IT_number 59
_space_group.IT_coordinate_system_code '2'
_symmetry_cell_setting 'orthorhombic'
loop_
_space_group_symop_operation_xyz
x,y,z
1/2-x,1/2-y,z
1/2+x,-y,-z
-x,1/2+y,-z
-x,-y,-z
1/2+x,1/2+y,-z
1/2-x,y,z
x,1/2-y,z
loop_
_atom_site_type_symbol
_atom_site_label
_atom_site_fract_x
_atom_site_fract_y
_atom_site_fract_z
Si Si1 0.168880 0.424764 0.273289
Si Si2 0.667703 0.922431 0.072060
Si Si3 0.334432 0.583907 0.541650
Si Si4 0.932564 0.076383 0.824665
Si Si5 0.430442 0.923287 0.025225
Si Si6 0.331884 0.423712 0.670780
Si Si7 0.165641 0.417105 0.415882
Si Si8 0.409840 0.074187 0.798113
O O1 0.250000 0.463164 0.265728
O O2 0.164340 0.250000 0.270388
O O3 0.122546 0.497425 0.219700
O O4 0.145569 0.468073 0.345034
O O5 0.750000 0.941716 0.074177
O O6 0.653438 0.750000 0.063450
O O7 0.633395 0.968119 0.139218
O O8 0.632164 0.011553 0.015722
O O9 0.250000 0.580379 0.540442
O O10 0.356270 0.750000 0.545194
O O11 0.354941 0.497652 0.605089
O O12 0.358139 0.510572 0.475856
O O13 0.927465 0.250000 0.815910
O O14 0.922179 0.046467 0.899603
O O15 0.010516 0.030313 0.805887
O O16 0.435988 0.750000 0.017237
O O17 0.500000 0.000000 0.000000
O O18 0.250000 0.454127 0.680568
O O19 0.338732 0.250000 0.664710
O O20 0.374459 0.474203 0.732481
O O21 0.250000 0.418065 0.415770
O O22 0.144480 0.250000 0.424157
O O23 0.408358 0.250000 0.797114
#
# Coordination Sequence:
#
# PCOD9451305 Si02
#       8
#     8   8   8   8   8   8   8   8
#     4   9  19  35  54  78 106 133 168 216 262 308
#     4  10  20  36  59  84 110 141 178 221 268 318
#     4   9  16  25  40  67 102 134 164 205 256 306
#     4  10  21  36  55  77 104 137 171 211 258 313
#     4  11  22  38  58  79 107 141 179 222 267 318
#     4   9  16  27  47  72  97 131 173 213 252 298
#     4   8  14  27  47  69  95 128 166 209 254 302
#     4   9  17  33  53  75 103 136 177 216 253 305
#
# _framework density 17.124880000000001
#
# number of rings (size 3 to 8) (size 9 to 14) (size 15 to 20)
#    0.000    2.625    1.250    1.875    0.000    5.500 
#    0.000    5.000    0.000    2.250    0.000    0.000 
#    0.000    0.000    0.000    0.000    0.000    0.000 
#
# Total GULP energy -356811.769214 kJ/mol
# GULP energy per Si atom -5575.183894 kJ/mol
# Density = 1.708590 g / cm^3
# Si number density = 17.124880 Si / 1000 Ang^3
#
#
#
# Elastic Constant Matrix: (Units=GPa)
#
#
# Indices 1 2 3 4 5 6 
#
# 1 76.2251 41.0567 81.2825 0.0000 0.0000 0.0000
# 2 41.0567 48.6576 75.4421 0.0000 0.0000 0.0000
# 3 81.2825 75.4421 196.0136 0.0000 0.0000 0.0000
# 4 0.0000 0.0000 0.0000 25.3268 0.0000 0.0000
# 5 0.0000 0.0000 0.0000 0.0000 15.6087 0.0000
# 6 0.0000 0.0000 0.0000 0.0000 0.0000 21.6539
#
#
#
# Elastic Compliance Matrix: (Units=1/GPa)
#
#
# Indices 1 2 3 4 5 6 
#
# 1 0.026559 -0.013228 -0.005922 0.000000 0.000000 0.000000
# 2 -0.013228 0.057553 -0.016666 0.000000 0.000000 0.000000
# 3 -0.005922 -0.016666 0.013972 0.000000 0.000000 0.000000
# 4 0.000000 0.000000 0.000000 0.039484 0.000000 0.000000
# 5 0.000000 0.000000 0.000000 0.000000 0.064067 0.000000
# 6 0.000000 0.000000 0.000000 0.000000 0.000000 0.046181
#
#
# Mechanical properties :
#
#
# Convention : Reuss Voigt Hill
#
# Bulk Modulus (GPa) = 37.80421 79.60652 58.70537
# Shear Modulus (GPa) = 15.23159 20.72555 17.97857
#
# Velocity S-wave (km/s) = 2.98559 3.48265 3.24366
# Velocity P-wave (km/s) = 5.83168 7.92203 6.95583
#
# Compressibility (1/GPa) = 0.02645208
#
# Stress axis : x y z
#
# Youngs Moduli (GPa) = 37.65183 17.37527 71.57220
#
# Poissons Ratio (x) = 0.22984 0.42387
# Poissons Ratio (y) = 0.49805 1.19281
# Poissons Ratio (z) = 0.22299 0.28957
#
# Static dielectric constant tensor:
#      x y z
#    x 1.568350 0.000000 0.000000 
#    y 0.000000 1.574210 0.000000 
#    z 0.000000 0.000000 1.572510 
# 
# From -- ./inp_files/30721.got.cif
#   From: 2010.05.17/outbox.cif.g08.bks.cpg/sg59_16_cif.got.tgz:30721.got - 2010.06.03 14:40:33.
