data_PCOD9451038
_publ_section_title
;
Structure prediction by ZEFSAII (Michael W. Deem and Ramdas Pophale) SiO2 
 PCOD9451038
Probable space group: P M M N
;
_chemical_formula_sum "Si O2"
_cell_formula_units_Z 56
_cell_length_a 8.784711
_cell_length_b 14.587683
_cell_length_c 23.244745
_cell_angle_alpha 90.000000
_cell_angle_beta 90.000000
_cell_angle_gamma 90.000000
_cell_volume 2978.781048
_symmetry_space_group_name_H-M "P M M N"
_symmetry_group_IT_number 59
_space_group.IT_coordinate_system_code '2'
_symmetry_cell_setting 'orthorhombic'
loop_
_space_group_symop_operation_xyz
x,y,z
1/2-x,1/2-y,z
1/2+x,-y,-z
-x,1/2+y,-z
-x,-y,-z
1/2+x,1/2+y,-z
1/2-x,y,z
x,1/2-y,z
loop_
_atom_site_type_symbol
_atom_site_label
_atom_site_fract_x
_atom_site_fract_y
_atom_site_fract_z
Si Si1 0.933093 0.348038 0.898088
Si Si2 0.567981 0.644324 0.404624
Si Si3 0.571123 0.141292 0.469185
Si Si4 0.931299 0.965501 0.638339
Si Si5 0.067624 0.401107 0.014702
Si Si6 0.566165 0.552032 0.859822
Si Si7 0.932361 0.142646 0.253838
O O1 0.750000 0.352772 0.900795
O O2 0.975055 0.250000 0.869713
O O3 0.981669 0.445130 0.869962
O O4 0.996225 0.344524 0.963019
O O5 0.750000 0.635029 0.404106
O O6 0.528991 0.750000 0.390506
O O7 0.506742 0.626246 0.469159
O O8 0.493384 0.569181 0.363658
O O9 0.750000 0.118088 0.472842
O O10 0.558518 0.250000 0.456126
O O11 0.493130 0.083958 0.419069
O O12 0.750000 0.965430 0.638363
O O13 0.994264 0.910319 0.692707
O O14 0.250000 0.399123 0.010076
O O15 0.030031 0.389886 0.082106
O O16 0.000000 0.500000 0.000000
O O17 0.750000 0.552781 0.853257
O O18 0.488735 0.596085 0.804833
O O19 0.750000 0.136864 0.258102
O O20 0.975546 0.250000 0.254892
#
# Coordination Sequence:
#
# PCOD9451038 Si02
#       7
#     8   8   8   8   8   8   8
#     4   9  18  33  54  82 116 150 183 222 271 328
#     4  10  21  38  60  86 117 151 187 228 274 327
#     4  10  20  35  57  86 120 154 189 231 277 327
#     4  12  24  38  59  84 113 149 187 230 280 333
#     4   9  17  30  50  77 109 144 182 224 271 321
#     4   9  19  36  56  79 109 146 185 227 277 331
#     4  11  25  43  61  81 106 140 185 235 283 332
#
# _framework density 18.799636
#
# number of rings (size 3 to 8) (size 9 to 14) (size 15 to 20)
#    0.000    2.000    0.000    4.714    0.000    8.286 
#    0.000    3.571    0.000    2.571    0.000    0.000 
#    0.000    0.000    0.000    0.000    0.000    0.000 
#
# Total GULP energy -312498.324993 kJ/mol
# GULP energy per Si atom -5580.327232 kJ/mol
# Density = 1.875685 g / cm^3
# Si number density = 18.799636 Si / 1000 Ang^3
#
#
#
# Elastic Constant Matrix: (Units=GPa)
#
#
# Indices 1 2 3 4 5 6 
#
# 1 64.1702 57.1796 43.3405 0.0000 0.0000 0.0000
# 2 57.1796 137.6077 87.2751 0.0000 0.0000 0.0000
# 3 43.3405 87.2751 82.9840 0.0000 0.0000 0.0000
# 4 0.0000 0.0000 0.0000 23.6107 0.0000 0.0000
# 5 0.0000 0.0000 0.0000 0.0000 34.0456 0.0000
# 6 0.0000 0.0000 0.0000 0.0000 0.0000 23.2927
#
#
#
# Elastic Compliance Matrix: (Units=1/GPa)
#
#
# Indices 1 2 3 4 5 6 
#
# 1 0.025908 -0.006558 -0.006634 0.000000 0.000000 0.000000
# 2 -0.006558 0.023485 -0.021274 0.000000 0.000000 0.000000
# 3 -0.006634 -0.021274 0.037889 0.000000 0.000000 0.000000
# 4 0.000000 0.000000 0.000000 0.042354 0.000000 0.000000
# 5 0.000000 0.000000 0.000000 0.000000 0.029372 0.000000
# 6 0.000000 0.000000 0.000000 0.000000 0.000000 0.042932
#
#
# Mechanical properties :
#
#
# Convention : Reuss Voigt Hill
#
# Bulk Modulus (GPa) = 54.49605 73.37249 63.93427
# Shear Modulus (GPa) = 18.05132 22.65425 20.35279
#
# Velocity S-wave (km/s) = 3.10206 3.47513 3.29388
# Velocity P-wave (km/s) = 6.47156 7.43071 6.96766
#
# Compressibility (1/GPa) = 0.01834995
#
# Stress axis : x y z
#
# Youngs Moduli (GPa) = 38.59884 42.58090 26.39254
#
# Poissons Ratio (x) = 0.27924 0.17509
# Poissons Ratio (y) = 0.25312 0.56148
# Poissons Ratio (z) = 0.25606 0.90587
#
# Static dielectric constant tensor:
#      x y z
#    x 1.624600 0.000000 0.000000 
#    y 0.000000 1.696260 0.000000 
#    z 0.000000 0.000000 1.624210 
# 
# From -- ./inp_files/28968.got.cif
#   From: 2010.05.17/outbox.cif.g08.bks.cpg/sg59_15_cif.got.tgz:28968.got - 2010.06.03 14:40:33.
