data_PCOD9451595
_publ_section_title
;
Structure prediction by ZEFSAII (Michael W. Deem and Ramdas Pophale) SiO2 
 PCOD9451595
Probable space group: P M M N
;
_chemical_formula_sum "Si O2"
_cell_formula_units_Z 48
_cell_length_a 8.402336
_cell_length_b 10.170908
_cell_length_c 28.741323
_cell_angle_alpha 90.000000
_cell_angle_beta 90.000000
_cell_angle_gamma 90.000000
_cell_volume 2456.215829
_symmetry_space_group_name_H-M "P M M N"
_symmetry_group_IT_number 59
_space_group.IT_coordinate_system_code '2'
_symmetry_cell_setting 'orthorhombic'
loop_
_space_group_symop_operation_xyz
x,y,z
1/2-x,1/2-y,z
1/2+x,-y,-z
-x,1/2+y,-z
-x,-y,-z
1/2+x,1/2+y,-z
1/2-x,y,z
x,1/2-y,z
loop_
_atom_site_type_symbol
_atom_site_label
_atom_site_fract_x
_atom_site_fract_y
_atom_site_fract_z
Si Si1 0.941183 0.750000 0.103723
Si Si2 0.057677 0.488381 0.726538
Si Si3 0.059978 0.250000 0.224335
Si Si4 0.555411 0.750000 0.883811
Si Si5 0.942912 0.902947 0.377410
Si Si6 0.055989 0.250000 0.790449
Si Si7 0.560340 0.993332 0.947310
Si Si8 0.059106 0.094787 0.458313
O O1 0.750000 0.750000 0.102854
O O2 0.997386 0.750000 0.156823
O O3 0.006046 0.875790 0.077782
O O4 0.250000 0.491329 0.726091
O O5 0.008729 0.445906 0.674668
O O6 0.003571 0.377185 0.762426
O O7 0.996858 0.624585 0.746623
O O8 0.250000 0.250000 0.222188
O O9 0.001407 0.250000 0.170223
O O10 0.750000 0.750000 0.882403
O O11 0.502532 0.625375 0.914381
O O12 0.750000 0.903269 0.379925
O O13 0.992407 0.750000 0.386907
O O14 0.005923 0.013543 0.412674
O O15 0.250000 0.250000 0.790398
O O16 0.750000 0.983228 0.949288
O O17 0.500000 0.000000 0.000000
O O18 0.250000 0.099301 0.460251
O O19 0.004483 0.250000 0.460109
O O20 0.000000 0.000000 0.500000
#
# Coordination Sequence:
#
# PCOD9451595 Si02
#       8
#     4   8   4   4   8   4   8   8
#     4  11  22  36  57  88 120 153 193 242 297 358
#     4  10  20  38  61  87 117 156 201 247 298 351
#     4  11  23  38  56  83 119 157 196 242 295 359
#     4   9  21  40  59  80 114 155 193 240 301 358
#     4  10  21  39  64  91 121 159 204 251 301 357
#     4   9  18  36  62  87 115 151 200 252 293 345
#     4  11  22  39  61  85 114 151 195 246 302 362
#     4  11  25  43  64  93 128 164 205 253 303 357
#
# _framework density 19.542256999999999
#
# number of rings (size 3 to 8) (size 9 to 14) (size 15 to 20)
#    0.000    1.667    0.833    3.500    1.167    5.000 
#    0.000    5.000    0.000    0.000    0.000    0.000 
#    0.000    0.000    0.000    0.000    0.000    0.000 
#
# Total GULP energy -267996.423805 kJ/mol
# GULP energy per Si atom -5583.258829 kJ/mol
# Density = 1.949778 g / cm^3
# Si number density = 19.542257 Si / 1000 Ang^3
#
#
#
# Elastic Constant Matrix: (Units=GPa)
#
#
# Indices 1 2 3 4 5 6 
#
# 1 24.7876 25.1586 27.2611 0.0000 0.0000 0.0000
# 2 25.1586 226.7896 106.3948 0.0000 0.0000 0.0000
# 3 27.2611 106.3948 180.0218 0.0000 0.0000 0.0000
# 4 0.0000 0.0000 0.0000 41.4465 0.0000 0.0000
# 5 0.0000 0.0000 0.0000 0.0000 29.6937 0.0000
# 6 0.0000 0.0000 0.0000 0.0000 0.0000 12.7122
#
#
#
# Elastic Compliance Matrix: (Units=1/GPa)
#
#
# Indices 1 2 3 4 5 6 
#
# 1 0.049603 -0.002738 -0.005893 0.000000 0.000000 0.000000
# 2 -0.002738 0.006252 -0.003280 0.000000 0.000000 0.000000
# 3 -0.005893 -0.003280 0.008386 0.000000 0.000000 0.000000
# 4 0.000000 0.000000 0.000000 0.024128 0.000000 0.000000
# 5 0.000000 0.000000 0.000000 0.000000 0.033677 0.000000
# 6 0.000000 0.000000 0.000000 0.000000 0.000000 0.078664
#
#
# Mechanical properties :
#
#
# Convention : Reuss Voigt Hill
#
# Bulk Modulus (GPa) = 24.74158 83.24754 53.99456
# Shear Modulus (GPa) = 21.00785 34.95612 27.98199
#
# Velocity S-wave (km/s) = 3.28227 4.23394 3.78811
# Velocity P-wave (km/s) = 5.20120 8.16045 6.84271
#
# Compressibility (1/GPa) = 0.04041780
#
# Stress axis : x y z
#
# Youngs Moduli (GPa) = 20.16008 159.94740 119.24494
#
# Poissons Ratio (x) = 0.43791 0.70276
# Poissons Ratio (y) = 0.05520 0.39117
# Poissons Ratio (z) = 0.11881 0.52470
#
# Static dielectric constant tensor:
#      x y z
#    x 1.675440 0.000000 0.000000 
#    y 0.000000 1.704500 0.000000 
#    z 0.000000 0.000000 1.722580 
# 
# From -- ./inp_files/33110.got.cif
#   From: 2010.05.17/outbox.cif.g08.bks.cpg/sg59_17_cif.got.tgz:33110.got - 2010.06.03 14:40:33.
