data_PCOD9451690
_publ_section_title
;
Structure prediction by ZEFSAII (Michael W. Deem and Ramdas Pophale) SiO2 
 PCOD9451690
Probable space group: P M M N
;
_chemical_formula_sum "Si O2"
_cell_formula_units_Z 48
_cell_length_a 14.293679
_cell_length_b 12.732576
_cell_length_c 15.300677
_cell_angle_alpha 90.000000
_cell_angle_beta 90.000000
_cell_angle_gamma 90.000000
_cell_volume 2784.652130
_symmetry_space_group_name_H-M "P M M N"
_symmetry_group_IT_number 59
_space_group.IT_coordinate_system_code '2'
_symmetry_cell_setting 'orthorhombic'
loop_
_space_group_symop_operation_xyz
x,y,z
1/2-x,1/2-y,z
1/2+x,-y,-z
-x,1/2+y,-z
-x,-y,-z
1/2+x,1/2+y,-z
1/2-x,y,z
x,1/2-y,z
loop_
_atom_site_type_symbol
_atom_site_label
_atom_site_fract_x
_atom_site_fract_y
_atom_site_fract_z
Si Si1 0.643111 0.625253 0.924464
Si Si2 0.643265 0.130457 0.678618
Si Si3 0.642385 0.981264 0.510522
Si Si4 0.977668 0.371239 0.394498
Si Si5 0.511044 0.982511 0.785405
Si Si6 0.139414 0.371148 0.867854
O O1 0.750000 0.590069 0.904530
O O2 0.639628 0.750000 0.907354
O O3 0.566650 0.568904 0.865515
O O4 0.626842 0.611577 0.027980
O O5 0.750000 0.128123 0.710980
O O6 0.615198 0.250000 0.663365
O O7 0.641546 0.066858 0.588373
O O8 0.576337 0.072753 0.745111
O O9 0.750000 0.947583 0.496398
O O10 0.597211 0.043283 0.429332
O O11 0.570864 0.893191 0.546709
O O12 0.948830 0.250000 0.404112
O O13 0.996929 0.399742 0.293412
O O14 0.417817 0.041027 0.816673
O O15 0.250000 0.377903 0.849847
O O16 0.110015 0.250000 0.848542
#
# Coordination Sequence:
#
# PCOD9451690 Si02
#       6
#     8   8   8   8   8   8
#     4   9  18  33  52  73  98 130 168 208 253 306
#     4   9  17  29  47  71  96 124 161 203 247 296
#     4   9  19  36  54  70  96 136 173 202 239 290
#     4  10  21  34  51  78 106 130 164 207 250 299
#     4  11  19  30  50  76 103 129 161 207 259 303
#     4   9  19  35  52  70  96 134 176 211 245 293
#
# _framework density 17.237342000000002
#
# number of rings (size 3 to 8) (size 9 to 14) (size 15 to 20)
#    0.000    2.500    0.000    3.500    0.000    2.667 
#    0.000    0.833    0.000    1.500    0.000    9.333 
#    0.000    0.000    0.000    0.000    0.000    0.000 
#
# Total GULP energy -267561.332178 kJ/mol
# GULP energy per Si atom -5574.194420 kJ/mol
# Density = 1.719811 g / cm^3
# Si number density = 17.237342 Si / 1000 Ang^3
#
#
#
# Elastic Constant Matrix: (Units=GPa)
#
#
# Indices 1 2 3 4 5 6 
#
# 1 55.8493 4.9414 21.0588 0.0000 0.0000 0.0000
# 2 4.9414 41.2082 17.2518 0.0000 0.0000 0.0000
# 3 21.0588 17.2518 34.3033 0.0000 0.0000 0.0000
# 4 0.0000 0.0000 0.0000 6.2565 0.0000 0.0000
# 5 0.0000 0.0000 0.0000 0.0000 25.7703 0.0000
# 6 0.0000 0.0000 0.0000 0.0000 0.0000 22.8686
#
#
#
# Elastic Compliance Matrix: (Units=1/GPa)
#
#
# Indices 1 2 3 4 5 6 
#
# 1 0.023843 0.004141 -0.016720 0.000000 0.000000 0.000000
# 2 0.004141 0.031458 -0.018363 0.000000 0.000000 0.000000
# 3 -0.016720 -0.018363 0.048651 0.000000 0.000000 0.000000
# 4 0.000000 0.000000 0.000000 0.159834 0.000000 0.000000
# 5 0.000000 0.000000 0.000000 0.000000 0.038804 0.000000
# 6 0.000000 0.000000 0.000000 0.000000 0.000000 0.043728
#
#
# Mechanical properties :
#
#
# Convention : Reuss Voigt Hill
#
# Bulk Modulus (GPa) = 23.77079 24.20721 23.98900
# Shear Modulus (GPa) = 11.84198 16.85300 14.34749
#
# Velocity S-wave (km/s) = 2.62390 3.13022 2.88818
# Velocity P-wave (km/s) = 4.79584 5.20944 5.00691
#
# Compressibility (1/GPa) = 0.04206844
#
# Stress axis : x y z
#
# Youngs Moduli (GPa) = 41.94026 31.78833 20.55449
#
# Poissons Ratio (x) = -0.13162 0.34367
# Poissons Ratio (y) = -0.17366 0.37744
# Poissons Ratio (z) = 0.70124 0.58373
#
# Static dielectric constant tensor:
#      x y z
#    x 1.599600 0.000000 0.000000 
#    y 0.000000 1.563490 0.000000 
#    z 0.000000 0.000000 1.578590 
# 
# From -- ./inp_files/22369.got.cif
#   From: 2010.05.17/outbox.cif.g08.bks.cpg/sg59_12_cif.got.tgz:22369.got - 2010.06.03 14:40:33.
