data_PCOD9451356
_publ_section_title
;
Structure prediction by ZEFSAII (Michael W. Deem and Ramdas Pophale) SiO2 
 PCOD9451356
Probable space group: P M M N
;
_chemical_formula_sum "Si O2"
_cell_formula_units_Z 48
_cell_length_a 9.037930
_cell_length_b 7.849873
_cell_length_c 35.479720
_cell_angle_alpha 90.000000
_cell_angle_beta 90.000000
_cell_angle_gamma 90.000000
_cell_volume 2517.165598
_symmetry_space_group_name_H-M "P M M N"
_symmetry_group_IT_number 59
_space_group.IT_coordinate_system_code '2'
_symmetry_cell_setting 'orthorhombic'
loop_
_space_group_symop_operation_xyz
x,y,z
1/2-x,1/2-y,z
1/2+x,-y,-z
-x,1/2+y,-z
-x,-y,-z
1/2+x,1/2+y,-z
1/2-x,y,z
x,1/2-y,z
loop_
_atom_site_type_symbol
_atom_site_label
_atom_site_fract_x
_atom_site_fract_y
_atom_site_fract_z
Si Si1 0.928328 0.451847 0.040222
Si Si2 0.569960 0.446079 0.228072
Si Si3 0.571376 0.250000 0.910234
Si Si4 0.414740 0.952425 0.537869
Si Si5 0.570458 0.750000 0.171787
Si Si6 0.914762 0.047473 0.613596
Si Si7 0.582841 0.045775 0.310639
O O1 0.750000 0.477184 0.039384
O O2 0.954669 0.250000 0.047885
O O3 0.003106 0.582206 0.069549
O O4 0.000000 0.500000 0.000000
O O5 0.750000 0.442364 0.230159
O O6 0.521816 0.250000 0.221070
O O7 0.531836 0.582164 0.196214
O O8 0.520919 0.507217 0.269778
O O9 0.750000 0.250000 0.913364
O O10 0.515225 0.250000 0.867377
O O11 0.250000 0.027344 0.537166
O O12 0.403816 0.750000 0.538007
O O13 0.500000 0.000000 0.500000
O O14 0.495532 0.001301 0.576297
O O15 0.750000 0.750000 0.165812
O O16 0.750000 0.973642 0.611173
O O17 0.905166 0.250000 0.614258
O O18 0.990890 0.994647 0.652450
O O19 0.750000 0.977541 0.315171
O O20 0.592525 0.250000 0.307782
#
# Coordination Sequence:
#
# PCOD9451356 Si02
#       7
#     8   8   4   8   4   8   8
#     4  11  23  40  66  96 127 165 211 265 323 380
#     4   8  16  32  56  86 116 147 193 252 306 362
#     4  12  26  42  60  90 132 176 216 262 316 380
#     4  11  24  41  61  84 109 140 180 224 271 329
#     4  10  20  36  60  86 116 160 210 258 312 368
#     4  11  24  38  53  80 115 148 185 228 273 331
#     4   9  18  34  57  85 113 143 185 237 291 345
#
# _framework density 19.069068000000001
#
# number of rings (size 3 to 8) (size 9 to 14) (size 15 to 20)
#    0.000    1.833    0.833    4.250    1.167    8.667 
#    0.000    2.500    0.000    1.000    0.000    0.000 
#    0.000    0.000    0.000    0.000    0.000    0.000 
#
# Total GULP energy -267929.995013 kJ/mol
# GULP energy per Si atom -5581.874896 kJ/mol
# Density = 1.902567 g / cm^3
# Si number density = 19.069068 Si / 1000 Ang^3
#
#
#
# Elastic Constant Matrix: (Units=GPa)
#
#
# Indices 1 2 3 4 5 6 
#
# 1 122.5508 50.0711 88.4411 0.0000 0.0000 0.0000
# 2 50.0711 105.0406 75.9758 0.0000 0.0000 0.0000
# 3 88.4411 75.9758 204.0834 0.0000 0.0000 0.0000
# 4 0.0000 0.0000 0.0000 40.8599 0.0000 0.0000
# 5 0.0000 0.0000 0.0000 0.0000 33.3323 0.0000
# 6 0.0000 0.0000 0.0000 0.0000 0.0000 21.8611
#
#
#
# Elastic Compliance Matrix: (Units=1/GPa)
#
#
# Indices 1 2 3 4 5 6 
#
# 1 0.012439 -0.002779 -0.004356 0.000000 0.000000 0.000000
# 2 -0.002779 0.013649 -0.003877 0.000000 0.000000 0.000000
# 3 -0.004356 -0.003877 0.008231 0.000000 0.000000 0.000000
# 4 0.000000 0.000000 0.000000 0.024474 0.000000 0.000000
# 5 0.000000 0.000000 0.000000 0.000000 0.030001 0.000000
# 6 0.000000 0.000000 0.000000 0.000000 0.000000 0.045743
#
#
# Mechanical properties :
#
#
# Convention : Reuss Voigt Hill
#
# Bulk Modulus (GPa) = 81.33193 95.62784 88.47988
# Shear Modulus (GPa) = 31.12186 33.68977 32.40581
#
# Velocity S-wave (km/s) = 4.04426 4.20780 4.12684
# Velocity P-wave (km/s) = 8.03442 8.59444 8.31914
#
# Compressibility (1/GPa) = 0.01229529
#
# Stress axis : x y z
#
# Youngs Moduli (GPa) = 80.39391 73.26576 121.49186
#
# Poissons Ratio (x) = 0.20358 0.52922
# Poissons Ratio (y) = 0.22339 0.47103
# Poissons Ratio (z) = 0.35020 0.28406
#
# Static dielectric constant tensor:
#      x y z
#    x 1.685780 0.000000 0.000000 
#    y 0.000000 1.671170 0.000000 
#    z 0.000000 0.000000 1.595300 
# 
# From -- ./inp_files/33030.got.cif
#   From: 2010.05.17/outbox.cif.g08.bks.cpg/sg59_17_cif.got.tgz:33030.got - 2010.06.03 14:40:33.
