data_PCOD9451760
_publ_section_title
;
Structure prediction by ZEFSAII (Michael W. Deem and Ramdas Pophale) SiO2 
 PCOD9451760
Probable space group: P M M N
;
_chemical_formula_sum "Si O2"
_cell_formula_units_Z 64
_cell_length_a 9.547423
_cell_length_b 15.352857
_cell_length_c 20.479975
_cell_angle_alpha 90.000000
_cell_angle_beta 90.000000
_cell_angle_gamma 90.000000
_cell_volume 3001.959242
_symmetry_space_group_name_H-M "P M M N"
_symmetry_group_IT_number 59
_space_group.IT_coordinate_system_code '2'
_symmetry_cell_setting 'orthorhombic'
loop_
_space_group_symop_operation_xyz
x,y,z
1/2-x,1/2-y,z
1/2+x,-y,-z
-x,1/2+y,-z
-x,-y,-z
1/2+x,1/2+y,-z
1/2-x,y,z
x,1/2-y,z
loop_
_atom_site_type_symbol
_atom_site_label
_atom_site_fract_x
_atom_site_fract_y
_atom_site_fract_z
Si Si1 0.399417 0.849515 0.252968
Si Si2 0.590233 0.108405 0.891273
Si Si3 0.913335 0.585025 0.590660
Si Si4 0.410161 0.887115 0.467292
Si Si5 0.414042 0.094516 0.151915
Si Si6 0.917858 0.592453 0.991501
Si Si7 0.398669 0.150939 0.649130
Si Si8 0.582766 0.144758 0.282209
O O1 0.250000 0.894500 0.264976
O O2 0.386093 0.750000 0.276802
O O3 0.423937 0.843535 0.176857
O O4 0.522875 0.895263 0.291573
O O5 0.750000 0.117976 0.915997
O O6 0.575068 0.008190 0.866314
O O7 0.480819 0.139002 0.945226
O O8 0.750000 0.613756 0.595079
O O9 0.909090 0.486724 0.560867
O O10 0.008355 0.628802 0.534575
O O11 0.994196 0.599701 0.659004
O O12 0.250000 0.859249 0.472355
O O13 0.499687 0.843896 0.411181
O O14 0.250000 0.113037 0.167410
O O15 0.447664 0.133439 0.079694
O O16 0.512537 0.119832 0.212147
O O17 0.750000 0.580235 0.995392
O O18 0.000000 0.500000 0.000000
O O19 0.250000 0.110231 0.631437
O O20 0.375498 0.250000 0.670527
O O21 0.750000 0.123031 0.284186
O O22 0.570892 0.250000 0.289803
#
# Coordination Sequence:
#
# PCOD9451760 Si02
#       8
#     8   8   8   8   8   8   8   8
#     4   9  18  33  51  74 109 149 184 221 267 319
#     4   9  18  32  53  81 111 144 184 229 275 330
#     4  10  22  40  62  86 112 144 181 227 279 330
#     4  10  21  38  61  87 114 144 183 228 273 327
#     4   9  19  35  55  80 109 143 184 231 278 329
#     4   9  17  31  52  79 109 140 179 228 279 329
#     4  10  21  35  52  78 112 148 185 224 267 318
#     4  11  25  42  59  83 114 148 189 236 285 340
#
# _framework density 21.319409
#
# number of rings (size 3 to 8) (size 9 to 14) (size 15 to 20)
#    0.000    2.375    0.000    2.625    1.750    6.750 
#    0.000    0.625    0.000    2.250    0.000    0.000 
#    0.000    0.000    0.000    0.000    0.000    0.000 
#
# Total GULP energy -356399.599615 kJ/mol
# GULP energy per Si atom -5568.743744 kJ/mol
# Density = 2.127089 g / cm^3
# Si number density = 21.319409 Si / 1000 Ang^3
#
#
#
# Elastic Constant Matrix: (Units=GPa)
#
#
# Indices 1 2 3 4 5 6 
#
# 1 206.5141 22.1617 122.9531 0.0000 0.0000 0.0000
# 2 22.1617 28.4140 12.1601 0.0000 0.0000 0.0000
# 3 122.9531 12.1601 149.0509 0.0000 0.0000 0.0000
# 4 0.0000 0.0000 0.0000 20.4006 0.0000 0.0000
# 5 0.0000 0.0000 0.0000 0.0000 39.8493 0.0000
# 6 0.0000 0.0000 0.0000 0.0000 0.0000 41.5446
#
#
#
# Elastic Compliance Matrix: (Units=1/GPa)
#
#
# Indices 1 2 3 4 5 6 
#
# 1 0.010028 -0.004436 -0.007910 0.000000 0.000000 0.000000
# 2 -0.004436 0.038430 0.000524 0.000000 0.000000 0.000000
# 3 -0.007910 0.000524 0.013191 0.000000 0.000000 0.000000
# 4 0.000000 0.000000 0.000000 0.049018 0.000000 0.000000
# 5 0.000000 0.000000 0.000000 0.000000 0.025095 0.000000
# 6 0.000000 0.000000 0.000000 0.000000 0.000000 0.024071
#
#
# Mechanical properties :
#
#
# Convention : Reuss Voigt Hill
#
# Bulk Modulus (GPa) = 26.31247 77.61431 51.96339
# Shear Modulus (GPa) = 25.49142 35.47250 30.48196
#
# Velocity S-wave (km/s) = 3.46163 4.08347 3.78534
# Velocity P-wave (km/s) = 5.32409 7.66273 6.59786
#
# Compressibility (1/GPa) = 0.03800479
#
# Stress axis : x y z
#
# Youngs Moduli (GPa) = 99.72294 26.02160 75.80676
#
# Poissons Ratio (x) = 0.11543 0.59964
# Poissons Ratio (y) = 0.44238 -0.03973
# Poissons Ratio (z) = 0.78882 -0.01364
#
# Static dielectric constant tensor:
#      x y z
#    x 2.037000 0.000000 0.000000 
#    y 0.000000 1.891240 0.000000 
#    z 0.000000 0.000000 1.797400 
# 
# From -- ./inp_files/26168.got.cif
#   From: 2010.05.17/outbox.cif.g08.bks.cpg/sg59_14_cif.got.tgz:26168.got - 2010.06.03 14:40:33.
