data_PCOD9451710
_publ_section_title
;
Structure prediction by ZEFSAII (Michael W. Deem and Ramdas Pophale) SiO2 
 PCOD9451710
Probable space group: P M M N
;
_chemical_formula_sum "Si O2"
_cell_formula_units_Z 64
_cell_length_a 19.100665
_cell_length_b 7.867852
_cell_length_c 21.591670
_cell_angle_alpha 90.000000
_cell_angle_beta 90.000000
_cell_angle_gamma 90.000000
_cell_volume 3244.822193
_symmetry_space_group_name_H-M "P M M N"
_symmetry_group_IT_number 59
_space_group.IT_coordinate_system_code '2'
_symmetry_cell_setting 'orthorhombic'
loop_
_space_group_symop_operation_xyz
x,y,z
1/2-x,1/2-y,z
1/2+x,-y,-z
-x,1/2+y,-z
-x,-y,-z
1/2+x,1/2+y,-z
1/2-x,y,z
x,1/2-y,z
loop_
_atom_site_type_symbol
_atom_site_label
_atom_site_fract_x
_atom_site_fract_y
_atom_site_fract_z
Si Si1 0.170558 0.949963 0.055073
Si Si2 0.330232 0.051450 0.919315
Si Si3 0.168675 0.541164 0.695195
Si Si4 0.665198 0.048109 0.440407
Si Si5 0.420139 0.049526 0.172089
Si Si6 0.333949 0.954892 0.426672
Si Si7 0.168281 0.543759 0.291688
Si Si8 0.074890 0.550992 0.808102
O O1 0.250000 0.011560 0.068984
O O2 0.174060 0.750000 0.042967
O O3 0.121003 0.977776 0.113291
O O4 0.146914 0.032461 0.990623
O O5 0.250000 0.986598 0.915602
O O6 0.329659 0.250000 0.903529
O O7 0.380060 0.962748 0.870399
O O8 0.250000 0.491128 0.704414
O O9 0.168906 0.750000 0.694554
O O10 0.143433 0.482334 0.627019
O O11 0.119791 0.480241 0.750800
O O12 0.750000 0.033198 0.440562
O O13 0.649720 0.250000 0.440791
O O14 0.639783 0.977612 0.506811
O O15 0.426020 0.250000 0.160531
O O16 0.497978 0.976099 0.181284
O O17 0.376283 0.020112 0.234408
O O18 0.250000 0.982830 0.425648
O O19 0.343572 0.750000 0.427723
O O20 0.359038 0.015480 0.359399
O O21 0.250000 0.493863 0.285128
O O22 0.166795 0.750000 0.291359
O O23 0.064695 0.750000 0.793389
#
# Coordination Sequence:
#
# PCOD9451710 Si02
#       8
#     8   8   8   8   8   8   8   8
#     4  10  21  38  60  81  99 124 159 198 242 292
#     4  10  21  37  58  83 106 127 155 194 240 288
#     4   8  13  23  43  69  94 122 159 203 245 283
#     4   7   9  15  32  62  94 117 144 193 251 290
#     4  11  23  35  48  70 101 135 168 203 243 286
#     4   7  10  18  35  62  93 118 146 194 250 295
#     4   9  17  30  49  71  94 124 163 205 250 300
#     4  10  21  35  50  71 101 137 172 202 237 284
#
# _framework density 19.723731000000001
#
# number of rings (size 3 to 8) (size 9 to 14) (size 15 to 20)
#    0.000    3.000    0.000    4.125    0.000    5.250 
#    0.000    0.000    0.000    0.750    0.000    0.875 
#    0.000    3.000    0.000    0.000    0.000    0.125 
#
# Total GULP energy -356561.903031 kJ/mol
# GULP energy per Si atom -5571.279735 kJ/mol
# Density = 1.967884 g / cm^3
# Si number density = 19.723731 Si / 1000 Ang^3
#
#
#
# Elastic Constant Matrix: (Units=GPa)
#
#
# Indices 1 2 3 4 5 6 
#
# 1 53.7618 -6.1532 45.5880 0.0000 0.0000 0.0000
# 2 -6.1532 19.2736 -18.0051 0.0000 0.0000 0.0000
# 3 45.5880 -18.0051 119.0883 0.0000 0.0000 0.0000
# 4 0.0000 0.0000 0.0000 -2.8594 0.0000 0.0000
# 5 0.0000 0.0000 0.0000 0.0000 -8.3145 0.0000
# 6 0.0000 0.0000 0.0000 0.0000 0.0000 5.5466
#
#
#
# Elastic Compliance Matrix: (Units=1/GPa)
#
#
# Indices 1 2 3 4 5 6 
#
# 1 0.027565 -0.001231 -0.010738 0.000000 0.000000 0.000000
# 2 -0.001231 0.060473 0.009614 0.000000 0.000000 0.000000
# 3 -0.010738 0.009614 0.013961 0.000000 0.000000 0.000000
# 4 0.000000 0.000000 0.000000 -0.349726 0.000000 0.000000
# 5 0.000000 0.000000 0.000000 0.000000 -0.120271 0.000000
# 6 0.000000 0.000000 0.000000 0.000000 0.000000 0.180292
#
#
# Mechanical properties :
#
#
# Convention : Reuss Voigt Hill
#
# Bulk Modulus (GPa) = 10.27868 26.10926 18.19397
# Shear Modulus (GPa) = -33.20818 10.25413 -11.47703
#
# Velocity S-wave (km/s) = -4.10770 2.28258 -2.41486
# Velocity P-wave (km/s) = 4.15632 4.49590 1.21205
#
# Compressibility (1/GPa) = 0.09728875
#
# Stress axis : x y z
#
# Youngs Moduli (GPa) = 36.27729 16.53638 71.62559
#
# Poissons Ratio (x) = 0.02036 0.76915
# Poissons Ratio (y) = 0.04467 -0.68863
# Poissons Ratio (z) = 0.38956 -0.15899
#
# Static dielectric constant tensor:
#      x y z
#    x 1.678310 0.000000 0.000000 
#    y 0.000000 1.732410 0.000000 
#    z 0.000000 0.000000 1.721350 
# 
# From -- ./inp_files/30687.got.cif
#   From: 2010.05.17/outbox.cif.g08.bks.cpg/sg59_16_cif.got.tgz:30687.got - 2010.06.03 14:40:33.
