data_PCOD9451215
_publ_section_title
;
Structure prediction by ZEFSAII (Michael W. Deem and Ramdas Pophale) SiO2 
 PCOD9451215
Probable space group: P M M N
;
_chemical_formula_sum "Si O2"
_cell_formula_units_Z 32
_cell_length_a 13.258541
_cell_length_b 19.608680
_cell_length_c 4.800298
_cell_angle_alpha 90.000000
_cell_angle_beta 90.000000
_cell_angle_gamma 90.000000
_cell_volume 1247.993416
_symmetry_space_group_name_H-M "P M M N"
_symmetry_group_IT_number 59
_space_group.IT_coordinate_system_code '2'
_symmetry_cell_setting 'orthorhombic'
loop_
_space_group_symop_operation_xyz
x,y,z
1/2-x,1/2-y,z
1/2+x,-y,-z
-x,1/2+y,-z
-x,-y,-z
1/2+x,1/2+y,-z
1/2-x,y,z
x,1/2-y,z
loop_
_atom_site_type_symbol
_atom_site_label
_atom_site_fract_x
_atom_site_fract_y
_atom_site_fract_z
Si Si1 0.856773 0.176091 0.248382
Si Si2 0.142621 0.956349 0.367697
Si Si3 0.920315 0.672533 0.800737
Si Si4 0.076494 0.080565 0.734036
O O1 0.750000 0.174289 0.087538
O O2 0.859113 0.250000 0.396596
O O3 0.855327 0.112878 0.453605
O O4 0.962980 0.174650 0.092427
O O5 0.250000 0.962538 0.214511
O O6 0.036350 0.949606 0.209978
O O7 0.132169 0.018906 0.581300
O O8 0.880821 0.750000 0.813094
O O9 0.874445 0.613773 0.993992
O O10 0.924416 0.642667 0.490171
#
# Coordination Sequence:
#
# PCOD9451215 Si02
#       4
#     8   8   8   8
#     4   8  15  29  50  78 110 143 178 218 273 337
#     4   9  19  35  56  82 114 147 181 225 271 322
#     4  10  20  36  57  80 110 145 182 229 276 320
#     4  10  21  36  57  84 110 144 186 222 271 330
#
# _framework density 25.641162999999999
#
# number of rings (size 3 to 8) (size 9 to 14) (size 15 to 20)
#    0.000    2.750    0.000    0.750    0.000   11.000 
#    0.000    6.250    0.000   10.500    0.000    0.000 
#    0.000    0.000    0.000    0.000    0.000    0.000 
#
# Total GULP energy -178634.024976 kJ/mol
# GULP energy per Si atom -5582.313281 kJ/mol
# Density = 2.558280 g / cm^3
# Si number density = 25.641163 Si / 1000 Ang^3
#
#
#
# Elastic Constant Matrix: (Units=GPa)
#
#
# Indices 1 2 3 4 5 6 
#
# 1 85.3613 29.5574 5.9392 0.0000 0.0000 0.0000
# 2 29.5574 175.4994 32.7606 0.0000 0.0000 0.0000
# 3 5.9392 32.7606 78.8840 0.0000 0.0000 0.0000
# 4 0.0000 0.0000 0.0000 37.4928 0.0000 0.0000
# 5 0.0000 0.0000 0.0000 0.0000 -3.1217 0.0000
# 6 0.0000 0.0000 0.0000 0.0000 0.0000 137.6419
#
#
#
# Elastic Compliance Matrix: (Units=1/GPa)
#
#
# Indices 1 2 3 4 5 6 
#
# 1 0.012441 -0.002082 -0.000072 0.000000 0.000000 0.000000
# 2 -0.002082 0.006525 -0.002553 0.000000 0.000000 0.000000
# 3 -0.000072 -0.002553 0.013743 0.000000 0.000000 0.000000
# 4 0.000000 0.000000 0.000000 0.026672 0.000000 0.000000
# 5 0.000000 0.000000 0.000000 0.000000 -0.320335 0.000000
# 6 0.000000 0.000000 0.000000 0.000000 0.000000 0.007265
#
#
# Mechanical properties :
#
#
# Convention : Reuss Voigt Hill
#
# Bulk Modulus (GPa) = 42.92868 52.91768 47.92318
# Shear Modulus (GPa) = -21.14074 52.50176 15.68051
#
# Velocity S-wave (km/s) = -2.87450 4.52990 2.47561
# Velocity P-wave (km/s) = 2.40030 6.93128 5.18672
#
# Compressibility (1/GPa) = 0.02329445
#
# Stress axis : x y z
#
# Youngs Moduli (GPa) = 80.38079 153.25089 72.76634
#
# Poissons Ratio (x) = 0.31904 0.00525
# Poissons Ratio (y) = 0.16734 0.18579
# Poissons Ratio (z) = 0.00579 0.39128
#
# Static dielectric constant tensor:
#      x y z
#    x 2.134390 0.000000 0.000000 
#    y 0.000000 2.001230 0.000000 
#    z 0.000000 0.000000 1.961750 
# 
# From -- ./inp_files/1751.got.cif
#   From: 2010.05.17/outbox.cif.g08.bks.cpg/sg59_1_cif.got.tgz:1751.got - 2010.06.03 14:40:33.
