data_PCOD9451870
_publ_section_title
;
Structure prediction by ZEFSAII (Michael W. Deem and Ramdas Pophale) SiO2 
 PCOD9451870
Probable space group: P M M N
;
_chemical_formula_sum "Si O2"
_cell_formula_units_Z 64
_cell_length_a 31.951754
_cell_length_b 8.677227
_cell_length_c 11.927225
_cell_angle_alpha 90.000000
_cell_angle_beta 90.000000
_cell_angle_gamma 90.000000
_cell_volume 3306.854410
_symmetry_space_group_name_H-M "P M M N"
_symmetry_group_IT_number 59
_space_group.IT_coordinate_system_code '2'
_symmetry_cell_setting 'orthorhombic'
loop_
_space_group_symop_operation_xyz
x,y,z
1/2-x,1/2-y,z
1/2+x,-y,-z
-x,1/2+y,-z
-x,-y,-z
1/2+x,1/2+y,-z
1/2-x,y,z
x,1/2-y,z
loop_
_atom_site_type_symbol
_atom_site_label
_atom_site_fract_x
_atom_site_fract_y
_atom_site_fract_z
Si Si1 0.201900 0.561727 0.104325
Si Si2 0.300788 0.573709 0.354484
Si Si3 0.376974 0.562115 0.961064
Si Si4 0.476854 0.066407 0.324518
Si Si5 0.036934 0.565248 0.078179
Si Si6 0.441454 0.433129 0.556601
Si Si7 0.628667 0.430966 0.293924
Si Si8 0.799887 0.927671 0.412804
O O1 0.250000 0.511499 0.083163
O O2 0.202818 0.750000 0.105144
O O3 0.188029 0.516443 0.230412
O O4 0.166640 0.510949 0.017039
O O5 0.250000 0.578877 0.353113
O O6 0.315676 0.750000 0.369704
O O7 0.313062 0.472805 0.460665
O O8 0.376102 0.750000 0.961536
O O9 0.380461 0.514165 0.831878
O O10 0.417928 0.514161 0.030046
O O11 0.476000 0.250000 0.308836
O O12 0.445113 0.023399 0.425485
O O13 0.468520 0.987726 0.206095
O O14 0.521743 0.016953 0.374498
O O15 0.035366 0.750000 0.073008
O O16 0.000000 0.500000 0.000000
O O17 0.448337 0.250000 0.563497
O O18 0.398771 0.479835 0.615319
O O19 0.619201 0.250000 0.300870
O O20 0.676426 0.463488 0.326339
O O21 0.750000 0.946813 0.405987
O O22 0.810135 0.750000 0.390245
#
# Coordination Sequence:
#
# PCOD9451870 Si02
#       8
#     8   8   8   8   8   8   8   8
#     4   8  14  28  52  80 109 138 170 217 276 330
#     4   8  14  27  50  78 103 130 169 215 265 326
#     4   9  20  35  51  78 110 140 180 228 275 328
#     4  10  21  38  60  87 116 145 184 230 276 333
#     4  11  22  37  58  83 115 152 190 233 282 336
#     4  10  21  38  60  85 115 149 183 224 279 339
#     4  11  22  36  56  80 109 145 186 234 280 327
#     4  10  21  36  53  75 107 145 183 227 280 336
#
# _framework density 19.353740999999999
#
# number of rings (size 3 to 8) (size 9 to 14) (size 15 to 20)
#    0.000    2.375    0.000    3.375    0.000    4.750 
#    0.000    4.375    0.000    2.250    0.000    1.750 
#    0.000    0.000    0.000    0.000    0.000    0.000 
#
# Total GULP energy -357135.604144 kJ/mol
# GULP energy per Si atom -5580.243815 kJ/mol
# Density = 1.930969 g / cm^3
# Si number density = 19.353741 Si / 1000 Ang^3
#
#
#
# Elastic Constant Matrix: (Units=GPa)
#
#
# Indices 1 2 3 4 5 6 
#
# 1 79.1790 16.2423 59.4813 0.0000 0.0000 0.0000
# 2 16.2423 26.5452 29.8621 0.0000 0.0000 0.0000
# 3 59.4813 29.8621 138.6340 0.0000 0.0000 0.0000
# 4 0.0000 0.0000 0.0000 20.7694 0.0000 0.0000
# 5 0.0000 0.0000 0.0000 0.0000 27.6949 0.0000
# 6 0.0000 0.0000 0.0000 0.0000 0.0000 25.1632
#
#
#
# Elastic Compliance Matrix: (Units=1/GPa)
#
#
# Indices 1 2 3 4 5 6 
#
# 1 0.018842 -0.003213 -0.007392 0.000000 0.000000 0.000000
# 2 -0.003213 0.050267 -0.009449 0.000000 0.000000 0.000000
# 3 -0.007392 -0.009449 0.012420 0.000000 0.000000 0.000000
# 4 0.000000 0.000000 0.000000 0.048148 0.000000 0.000000
# 5 0.000000 0.000000 0.000000 0.000000 0.036108 0.000000
# 6 0.000000 0.000000 0.000000 0.000000 0.000000 0.039741
#
#
# Mechanical properties :
#
#
# Convention : Reuss Voigt Hill
#
# Bulk Modulus (GPa) = 24.14243 50.61439 37.37841
# Shear Modulus (GPa) = 19.27221 23.97700 21.62460
#
# Velocity S-wave (km/s) = 3.15903 3.52359 3.34628
# Velocity P-wave (km/s) = 5.08010 6.53937 5.85537
#
# Compressibility (1/GPa) = 0.04142085
#
# Stress axis : x y z
#
# Youngs Moduli (GPa) = 53.07347 19.89361 80.51421
#
# Poissons Ratio (x) = 0.06392 0.59516
# Poissons Ratio (y) = 0.17053 0.76079
# Poissons Ratio (z) = 0.39232 0.18798
#
# Static dielectric constant tensor:
#      x y z
#    x 1.686280 0.000000 0.000000 
#    y 0.000000 1.657760 0.000000 
#    z 0.000000 0.000000 1.668990 
# 
# From -- ./inp_files/19327.got.cif
#   From: 2010.05.17/outbox.cif.g08.bks.cpg/sg59_10_cif.got.tgz:19327.got - 2010.06.03 14:40:33.
