data_PCOD9451175
_publ_section_title
;
Structure prediction by ZEFSAII (Michael W. Deem and Ramdas Pophale) SiO2 
 PCOD9451175
Probable space group: P M M N
;
_chemical_formula_sum "Si O2"
_cell_formula_units_Z 56
_cell_length_a 23.114959
_cell_length_b 7.810578
_cell_length_c 15.278455
_cell_angle_alpha 90.000000
_cell_angle_beta 90.000000
_cell_angle_gamma 90.000000
_cell_volume 2758.390451
_symmetry_space_group_name_H-M "P M M N"
_symmetry_group_IT_number 59
_space_group.IT_coordinate_system_code '2'
_symmetry_cell_setting 'orthorhombic'
loop_
_space_group_symop_operation_xyz
x,y,z
1/2-x,1/2-y,z
1/2+x,-y,-z
-x,1/2+y,-z
-x,-y,-z
1/2+x,1/2+y,-z
1/2-x,y,z
x,1/2-y,z
loop_
_atom_site_type_symbol
_atom_site_label
_atom_site_fract_x
_atom_site_fract_y
_atom_site_fract_z
Si Si1 0.344124 0.054565 0.891679
Si Si2 0.972021 0.051755 0.092442
Si Si3 0.077077 0.452828 0.586751
Si Si4 0.686810 0.451580 0.915311
Si Si5 0.581537 0.457833 0.797552
Si Si6 0.314085 0.040028 0.699063
Si Si7 0.554136 0.042760 0.607030
O O1 0.323906 0.250000 0.898107
O O2 0.321725 0.983146 0.799751
O O3 0.413721 0.049987 0.888772
O O4 0.325258 0.967200 0.981462
O O5 0.955484 0.250000 0.087944
O O6 0.020893 0.021724 0.164371
O O7 0.000000 0.000000 0.000000
O O8 0.075158 0.250000 0.604333
O O9 0.131632 0.521046 0.641223
O O10 0.082366 0.480242 0.482789
O O11 0.012833 0.520007 0.610355
O O12 0.750000 0.526386 0.895743
O O13 0.688874 0.250000 0.894599
O O14 0.633552 0.522401 0.858876
O O15 0.579758 0.250000 0.802418
O O16 0.585938 0.507406 0.696176
O O17 0.250000 0.990545 0.667344
O O18 0.315942 0.250000 0.699675
O O19 0.552745 0.250000 0.603070
#
# Coordination Sequence:
#
# PCOD9451175 Si02
#       7
#     8   8   8   8   8   8   8
#     4  11  21  35  56  80 108 144 184 225 270 326
#     4  12  23  35  53  80 111 142 177 223 273 321
#     4   9  17  32  54  78 104 135 174 221 268 319
#     4  10  21  36  53  74 104 143 184 224 266 316
#     4  10  20  36  56  77 107 144 180 221 270 325
#     4   9  18  33  54  80 109 143 182 222 270 327
#     4   9  18  33  54  79 106 138 174 217 272 327
#
# _framework density 20.301694999999999
#
# number of rings (size 3 to 8) (size 9 to 14) (size 15 to 20)
#    0.000    2.000    1.429    3.000    0.000    3.714 
#    0.000    5.000    0.000    3.000    0.000    0.000 
#    0.000    0.000    0.000    0.000    0.000    0.000 
#
# Total GULP energy -312719.770452 kJ/mol
# GULP energy per Si atom -5584.281615 kJ/mol
# Density = 2.025549 g / cm^3
# Si number density = 20.301695 Si / 1000 Ang^3
#
#
#
# Elastic Constant Matrix: (Units=GPa)
#
#
# Indices 1 2 3 4 5 6 
#
# 1 103.9564 -1.5363 37.1492 0.0000 0.0000 0.0000
# 2 -1.5363 34.0957 -3.3405 0.0000 0.0000 0.0000
# 3 37.1492 -3.3405 100.7422 0.0000 0.0000 0.0000
# 4 0.0000 0.0000 0.0000 22.6994 0.0000 0.0000
# 5 0.0000 0.0000 0.0000 0.0000 15.5448 0.0000
# 6 0.0000 0.0000 0.0000 0.0000 0.0000 6.4378
#
#
#
# Elastic Compliance Matrix: (Units=1/GPa)
#
#
# Indices 1 2 3 4 5 6 
#
# 1 0.011080 0.000099 -0.004082 0.000000 0.000000 0.000000
# 2 0.000099 0.029426 0.000939 0.000000 0.000000 0.000000
# 3 -0.004082 0.000939 0.011463 0.000000 0.000000 0.000000
# 4 0.000000 0.000000 0.000000 0.044054 0.000000 0.000000
# 5 0.000000 0.000000 0.000000 0.000000 0.064330 0.000000
# 6 0.000000 0.000000 0.000000 0.000000 0.000000 0.155332
#
#
# Mechanical properties :
#
#
# Convention : Reuss Voigt Hill
#
# Bulk Modulus (GPa) = 21.79588 33.70436 27.75012
# Shear Modulus (GPa) = 14.83387 22.70452 18.76920
#
# Velocity S-wave (km/s) = 2.70603 3.34781 3.04388
# Velocity P-wave (km/s) = 4.53020 5.61975 5.10413
#
# Compressibility (1/GPa) = 0.04588023
#
# Stress axis : x y z
#
# Youngs Moduli (GPa) = 90.25472 33.98392 87.23810
#
# Poissons Ratio (x) = -0.00337 0.35614
# Poissons Ratio (y) = -0.00896 -0.08193
# Poissons Ratio (z) = 0.36846 -0.03192
#
# Static dielectric constant tensor:
#      x y z
#    x 1.735260 0.000000 0.000000 
#    y 0.000000 1.755630 0.000000 
#    z 0.000000 0.000000 1.700670 
# 
# From -- ./inp_files/20936.got.cif
#   From: 2010.05.17/outbox.cif.g08.bks.cpg/sg59_11_cif.got.tgz:20936.got - 2010.06.03 14:40:33.
