data_PCOD9451706
_publ_section_title
;
Structure prediction by ZEFSAII (Michael W. Deem and Ramdas Pophale) SiO2 
 PCOD9451706
Probable space group: P M M N
;
_chemical_formula_sum "Si O2"
_cell_formula_units_Z 48
_cell_length_a 7.525585
_cell_length_b 14.364838
_cell_length_c 21.168823
_cell_angle_alpha 90.000000
_cell_angle_beta 90.000000
_cell_angle_gamma 90.000000
_cell_volume 2288.430406
_symmetry_space_group_name_H-M "P M M N"
_symmetry_group_IT_number 59
_space_group.IT_coordinate_system_code '2'
_symmetry_cell_setting 'orthorhombic'
loop_
_space_group_symop_operation_xyz
x,y,z
1/2-x,1/2-y,z
1/2+x,-y,-z
-x,1/2+y,-z
-x,-y,-z
1/2+x,1/2+y,-z
1/2-x,y,z
x,1/2-y,z
loop_
_atom_site_type_symbol
_atom_site_label
_atom_site_fract_x
_atom_site_fract_y
_atom_site_fract_z
Si Si1 0.961824 0.033472 0.400241
Si Si2 0.954797 0.150944 0.874393
Si Si3 0.460481 0.108233 0.012404
Si Si4 0.463697 0.644493 0.719617
Si Si5 0.037180 0.057358 0.144934
Si Si6 0.035607 0.355090 0.526942
O O1 0.750000 0.022422 0.392874
O O2 0.032582 0.076785 0.335515
O O3 0.991812 0.105704 0.457470
O O4 0.031389 0.933444 0.424026
O O5 0.750000 0.149826 0.852895
O O6 0.034561 0.250000 0.852460
O O7 0.033152 0.049634 0.856512
O O8 0.956569 0.153478 0.950770
O O9 0.250000 0.128449 0.009682
O O10 0.525406 0.118410 0.084546
O O11 0.500000 0.000000 0.000000
O O12 0.250000 0.648018 0.713125
O O13 0.530627 0.750000 0.712457
O O14 0.502837 0.605250 0.788798
O O15 0.250000 0.049604 0.135384
O O16 0.250000 0.352985 0.531485
O O17 0.970093 0.250000 0.536075
#
# Coordination Sequence:
#
# PCOD9451706 Si02
#       6
#     8   8   8   8   8   8
#     4   9  18  33  51  72 101 133 162 196 238 284
#     4   9  18  33  52  73  98 128 160 198 249 302
#     4   9  17  30  48  70  95 123 158 201 247 291
#     4  10  21  35  50  69  95 129 165 199 239 287
#     4   9  19  34  50  70  97 128 161 199 241 286
#     4   9  17  30  51  78 103 127 158 197 240 283
#
# _framework density 20.975073999999999
#
# number of rings (size 3 to 8) (size 9 to 14) (size 15 to 20)
#    0.000    2.833    0.000    2.000    0.000    6.333 
#    0.000    4.167    0.000    1.000    0.000    0.000 
#    0.000    0.000    0.000    0.000    0.000    0.000 
#
# Total GULP energy -267491.566202 kJ/mol
# GULP energy per Si atom -5572.740963 kJ/mol
# Density = 2.092733 g / cm^3
# Si number density = 20.975074 Si / 1000 Ang^3
#
#
#
# Elastic Constant Matrix: (Units=GPa)
#
#
# Indices 1 2 3 4 5 6 
#
# 1 52.1704 -14.0647 -12.6682 0.0000 0.0000 0.0000
# 2 -14.0647 110.6512 38.4518 0.0000 0.0000 0.0000
# 3 -12.6682 38.4518 122.2532 0.0000 0.0000 0.0000
# 4 0.0000 0.0000 0.0000 10.7305 0.0000 0.0000
# 5 0.0000 0.0000 0.0000 0.0000 21.6182 0.0000
# 6 0.0000 0.0000 0.0000 0.0000 0.0000 9.1713
#
#
#
# Elastic Compliance Matrix: (Units=1/GPa)
#
#
# Indices 1 2 3 4 5 6 
#
# 1 0.020070 0.002053 0.001434 0.000000 0.000000 0.000000
# 2 0.002053 0.010356 -0.003045 0.000000 0.000000 0.000000
# 3 0.001434 -0.003045 0.009286 0.000000 0.000000 0.000000
# 4 0.000000 0.000000 0.000000 0.093192 0.000000 0.000000
# 5 0.000000 0.000000 0.000000 0.000000 0.046257 0.000000
# 6 0.000000 0.000000 0.000000 0.000000 0.000000 0.109035
#
#
# Mechanical properties :
#
#
# Convention : Reuss Voigt Hill
#
# Bulk Modulus (GPa) = 24.63298 34.27919 29.45608
# Shear Modulus (GPa) = 16.61988 26.52774 21.57381
#
# Velocity S-wave (km/s) = 2.81795 3.56016 3.21057
# Velocity P-wave (km/s) = 4.72834 5.76870 5.27424
#
# Compressibility (1/GPa) = 0.04059599
#
# Stress axis : x y z
#
# Youngs Moduli (GPa) = 49.82674 96.55919 107.68945
#
# Poissons Ratio (x) = -0.19820 -0.15443
# Poissons Ratio (y) = -0.10228 0.32787
# Poissons Ratio (z) = -0.07145 0.29399
#
# Static dielectric constant tensor:
#      x y z
#    x 1.799740 0.000000 0.000000 
#    y 0.000000 1.791370 0.000000 
#    z 0.000000 0.000000 1.745680 
# 
# From -- ./inp_files/25458.got.cif
#   From: 2010.05.17/outbox.cif.g08.bks.cpg/sg59_13_cif.got.tgz:25458.got - 2010.06.03 14:40:33.
