data_PCOD9451903
_publ_section_title
;
Structure prediction by ZEFSAII (Michael W. Deem and Ramdas Pophale) SiO2 
 PCOD9451903
Probable space group: P M M N
;
_chemical_formula_sum "Si O2"
_cell_formula_units_Z 48
_cell_length_a 9.409380
_cell_length_b 7.689285
_cell_length_c 31.845564
_cell_angle_alpha 90.000000
_cell_angle_beta 90.000000
_cell_angle_gamma 90.000000
_cell_volume 2304.071282
_symmetry_space_group_name_H-M "P M M N"
_symmetry_group_IT_number 59
_space_group.IT_coordinate_system_code '2'
_symmetry_cell_setting 'orthorhombic'
loop_
_space_group_symop_operation_xyz
x,y,z
1/2-x,1/2-y,z
1/2+x,-y,-z
-x,1/2+y,-z
-x,-y,-z
1/2+x,1/2+y,-z
1/2-x,y,z
x,1/2-y,z
loop_
_atom_site_type_symbol
_atom_site_label
_atom_site_fract_x
_atom_site_fract_y
_atom_site_fract_z
Si Si1 0.412588 0.458883 0.285194
Si Si2 0.087688 0.540996 0.379050
Si Si3 0.410783 0.040613 0.541445
Si Si4 0.912057 0.040938 0.877727
Si Si5 0.087715 0.459291 0.958181
Si Si6 0.588635 0.040437 0.205516
O O1 0.250000 0.524989 0.281176
O O2 0.406545 0.250000 0.281562
O O3 0.463970 0.499658 0.332155
O O4 0.512049 0.524470 0.247841
O O5 0.250000 0.474876 0.382843
O O6 0.093386 0.750000 0.382483
O O7 0.990392 0.475089 0.416826
O O8 0.250000 0.974128 0.538152
O O9 0.403965 0.250000 0.544765
O O10 0.500000 0.000000 0.500000
O O11 0.750000 0.974586 0.877429
O O12 0.904603 0.250000 0.881636
O O13 0.002565 0.974985 0.917425
O O14 0.993747 0.001778 0.834796
O O15 0.250000 0.524883 0.960065
O O16 0.095184 0.250000 0.954745
O O17 0.000000 0.500000 0.000000
O O18 0.750000 0.975164 0.201105
O O19 0.595541 0.250000 0.208382
#
# Coordination Sequence:
#
# PCOD9451903 Si02
#       6
#     8   8   8   8   8   8
#     4   9  18  33  52  74 102 136 173 213 256 304
#     4   9  18  33  52  74 102 135 171 212 257 306
#     4  10  21  36  54  77 105 137 174 215 259 309
#     4  10  21  37  57  80 106 138 177 220 265 313
#     4  10  21  37  57  81 109 141 177 217 262 312
#     4  10  21  36  54  78 108 141 177 217 261 310
#
# _framework density 20.832688999999998
#
# number of rings (size 3 to 8) (size 9 to 14) (size 15 to 20)
#    0.000    2.333    0.000    2.000    0.000    6.667 
#    0.000    3.333    0.000    0.000    0.000    0.000 
#    0.000    0.000    0.000    0.000    0.000    0.000 
#
# Total GULP energy -268122.978170 kJ/mol
# GULP energy per Si atom -5585.895379 kJ/mol
# Density = 2.078527 g / cm^3
# Si number density = 20.832689 Si / 1000 Ang^3
#
#
#
# Elastic Constant Matrix: (Units=GPa)
#
#
# Indices 1 2 3 4 5 6 
#
# 1 202.5385 8.2097 147.7211 0.0000 0.0000 0.0000
# 2 8.2097 34.7168 -2.0112 0.0000 0.0000 0.0000
# 3 147.7211 -2.0112 229.7369 0.0000 0.0000 0.0000
# 4 0.0000 0.0000 0.0000 30.1048 0.0000 0.0000
# 5 0.0000 0.0000 0.0000 0.0000 43.5966 0.0000
# 6 0.0000 0.0000 0.0000 0.0000 0.0000 17.7935
#
#
#
# Elastic Compliance Matrix: (Units=1/GPa)
#
#
# Indices 1 2 3 4 5 6 
#
# 1 0.009528 -0.002609 -0.006150 0.000000 0.000000 0.000000
# 2 -0.002609 0.029534 0.001936 0.000000 0.000000 0.000000
# 3 -0.006150 0.001936 0.008324 0.000000 0.000000 0.000000
# 4 0.000000 0.000000 0.000000 0.033217 0.000000 0.000000
# 5 0.000000 0.000000 0.000000 0.000000 0.022938 0.000000
# 6 0.000000 0.000000 0.000000 0.000000 0.000000 0.056200
#
#
# Mechanical properties :
#
#
# Convention : Reuss Voigt Hill
#
# Bulk Modulus (GPa) = 29.63772 86.09238 57.86505
# Shear Modulus (GPa) = 27.08076 39.17050 33.12563
#
# Velocity S-wave (km/s) = 3.60935 4.34088 3.99191
# Velocity P-wave (km/s) = 5.62381 8.15718 7.00596
#
# Compressibility (1/GPa) = 0.03374079
#
# Stress axis : x y z
#
# Youngs Moduli (GPa) = 104.95118 33.85961 120.13597
#
# Poissons Ratio (x) = 0.08835 0.73878
# Poissons Ratio (y) = 0.27386 -0.23263
# Poissons Ratio (z) = 0.64540 -0.06557
#
# Static dielectric constant tensor:
#      x y z
#    x 1.740420 0.000000 0.000000 
#    y 0.000000 1.782050 0.000000 
#    z 0.000000 0.000000 1.699940 
# 
# From -- ./inp_files/31243.got.cif
#   From: 2010.05.17/outbox.cif.g08.bks.cpg/sg59_16_cif.got.tgz:31243.got - 2010.06.03 14:40:33.
