data_PCOD9451105
_publ_section_title
;
Structure prediction by ZEFSAII (Michael W. Deem and Ramdas Pophale) SiO2 
 PCOD9451105
Probable space group: P M M N
;
_chemical_formula_sum "Si O2"
_cell_formula_units_Z 52
_cell_length_a 8.273053
_cell_length_b 21.136925
_cell_length_c 14.979830
_cell_angle_alpha 90.000000
_cell_angle_beta 90.000000
_cell_angle_gamma 90.000000
_cell_volume 2619.476446
_symmetry_space_group_name_H-M "P M M N"
_symmetry_group_IT_number 59
_space_group.IT_coordinate_system_code '2'
_symmetry_cell_setting 'orthorhombic'
loop_
_space_group_symop_operation_xyz
x,y,z
1/2-x,1/2-y,z
1/2+x,-y,-z
-x,1/2+y,-z
-x,-y,-z
1/2+x,1/2+y,-z
1/2-x,y,z
x,1/2-y,z
loop_
_atom_site_type_symbol
_atom_site_label
_atom_site_fract_x
_atom_site_fract_y
_atom_site_fract_z
Si Si1 0.057605 0.036778 0.352709
Si Si2 0.556591 0.824093 0.973437
Si Si3 0.940590 0.607061 0.345520
Si Si4 0.437136 0.646254 0.528830
Si Si5 0.056399 0.824068 0.169729
Si Si6 0.457359 0.250000 0.335438
Si Si7 0.558261 0.365084 0.212010
O O1 0.250000 0.040907 0.363087
O O2 0.973925 0.076724 0.431908
O O3 0.003034 0.072531 0.262297
O O4 0.003351 0.964612 0.350692
O O5 0.750000 0.827512 0.966885
O O6 0.507533 0.750000 0.963995
O O7 0.478685 0.862530 0.892500
O O8 0.501712 0.844847 0.071723
O O9 0.750000 0.607907 0.361880
O O10 0.025686 0.646144 0.424667
O O11 0.980613 0.636402 0.249745
O O12 0.250000 0.662956 0.546292
O O13 0.540564 0.694916 0.586797
O O14 0.250000 0.828706 0.174263
O O15 0.010626 0.750000 0.179394
O O16 0.470951 0.305625 0.258906
O O17 0.750000 0.357354 0.228351
#
# Coordination Sequence:
#
# PCOD9451105 Si02
#       7
#     8   8   8   8   8   4   8
#     4  11  23  41  61  87 119 160 205 251 300 358
#     4  10  20  35  58  91 126 160 197 245 297 352
#     4  12  25  42  62  86 118 160 203 251 302 355
#     4  11  22  39  61  89 122 161 204 249 298 356
#     4  10  22  41  64  90 119 158 202 247 298 359
#     4  10  21  36  59  90 123 156 195 242 295 352
#     4  11  20  36  61  91 124 161 199 243 298 358
#
# _framework density 19.851296000000001
#
# number of rings (size 3 to 8) (size 9 to 14) (size 15 to 20)
#    0.000    1.231    0.769    7.385    1.077    1.538 
#    0.000    8.077    0.000    0.000    0.000    0.000 
#    0.000    0.000    0.000    0.000    0.000    0.000 
#
# Total GULP energy -289806.926789 kJ/mol
# GULP energy per Si atom -5573.210131 kJ/mol
# Density = 1.980611 g / cm^3
# Si number density = 19.851296 Si / 1000 Ang^3
#
#
#
# Elastic Constant Matrix: (Units=GPa)
#
#
# Indices 1 2 3 4 5 6 
#
# 1 55.2180 -3.0079 2.7494 0.0000 0.0000 0.0000
# 2 -3.0079 55.8270 24.1126 0.0000 0.0000 0.0000
# 3 2.7494 24.1126 135.0240 0.0000 0.0000 0.0000
# 4 0.0000 0.0000 0.0000 11.9866 0.0000 0.0000
# 5 0.0000 0.0000 0.0000 0.0000 17.0365 0.0000
# 6 0.0000 0.0000 0.0000 0.0000 0.0000 -9.8769
#
#
#
# Elastic Compliance Matrix: (Units=1/GPa)
#
#
# Indices 1 2 3 4 5 6 
#
# 1 0.018207 0.001236 -0.000592 0.000000 0.000000 0.000000
# 2 0.001236 0.019494 -0.003506 0.000000 0.000000 0.000000
# 3 -0.000592 -0.003506 0.008044 0.000000 0.000000 0.000000
# 4 0.000000 0.000000 0.000000 0.083427 0.000000 0.000000
# 5 0.000000 0.000000 0.000000 0.000000 0.058697 0.000000
# 6 0.000000 0.000000 0.000000 0.000000 0.000000 -0.101247
#
#
# Mechanical properties :
#
#
# Convention : Reuss Voigt Hill
#
# Bulk Modulus (GPa) = 24.98633 32.64190 28.81411
# Shear Modulus (GPa) = 47.31025 18.64358 32.97691
#
# Velocity S-wave (km/s) = 4.88713 3.06790 4.08020
# Velocity P-wave (km/s) = 6.66780 5.38779 6.06167
#
# Compressibility (1/GPa) = 0.04002189
#
# Stress axis : x y z
#
# Youngs Moduli (GPa) = 54.92438 51.29903 124.31162
#
# Poissons Ratio (x) = -0.06343 0.07354
# Poissons Ratio (y) = -0.06791 0.43588
# Poissons Ratio (z) = 0.03249 0.17987
#
# Static dielectric constant tensor:
#      x y z
#    x 1.734030 0.000000 0.000000 
#    y 0.000000 1.662010 0.000000 
#    z 0.000000 0.000000 1.683070 
# 
# From -- ./inp_files/20825.got.cif
#   From: 2010.05.17/outbox.cif.g08.bks.cpg/sg59_11_cif.got.tgz:20825.got - 2010.06.03 14:40:33.
