data_PCOD9451848
_publ_section_title
;
Structure prediction by ZEFSAII (Michael W. Deem and Ramdas Pophale) SiO2 
 PCOD9451848
Probable space group: P M M N
;
_chemical_formula_sum "Si O2"
_cell_formula_units_Z 48
_cell_length_a 7.525700
_cell_length_b 9.620697
_cell_length_c 32.085848
_cell_angle_alpha 90.000000
_cell_angle_beta 90.000000
_cell_angle_gamma 90.000000
_cell_volume 2323.094949
_symmetry_space_group_name_H-M "P M M N"
_symmetry_group_IT_number 59
_space_group.IT_coordinate_system_code '2'
_symmetry_cell_setting 'orthorhombic'
loop_
_space_group_symop_operation_xyz
x,y,z
1/2-x,1/2-y,z
1/2+x,-y,-z
-x,1/2+y,-z
-x,-y,-z
1/2+x,1/2+y,-z
1/2-x,y,z
x,1/2-y,z
loop_
_atom_site_type_symbol
_atom_site_label
_atom_site_fract_x
_atom_site_fract_y
_atom_site_fract_z
Si Si1 0.960868 0.092439 0.882516
Si Si2 0.464183 0.590787 0.802777
Si Si3 0.962707 0.907521 0.460065
Si Si4 0.463324 0.091203 0.040818
Si Si5 0.966452 0.912047 0.368609
Si Si6 0.466627 0.589366 0.709453
O O1 0.750000 0.103451 0.889881
O O2 0.032823 0.250000 0.883001
O O3 0.032973 0.993068 0.919062
O O4 0.984066 0.015689 0.838555
O O5 0.250000 0.595183 0.801993
O O6 0.525007 0.750000 0.811197
O O7 0.523930 0.549063 0.756194
O O8 0.750000 0.899242 0.456822
O O9 0.030121 0.750000 0.465774
O O10 0.025085 0.960981 0.414694
O O11 0.000000 0.000000 0.500000
O O12 0.250000 0.100980 0.044879
O O13 0.530825 0.250000 0.037939
O O14 0.500000 0.000000 0.000000
O O15 0.750000 0.919470 0.367783
O O16 0.013830 0.750000 0.365115
O O17 0.031006 0.997490 0.328929
O O18 0.250000 0.583085 0.709442
O O19 0.515487 0.750000 0.703290
#
# Coordination Sequence:
#
# PCOD9451848 Si02
#       6
#     8   8   8   8   8   8
#     4  10  21  36  53  74 101 133 168 203 239 283
#     4   9  18  32  50  74 102 129 159 198 242 285
#     4   9  18  31  46  67  94 122 155 195 237 284
#     4  10  21  37  57  79 102 131 166 202 243 289
#     4   8  14  25  41  62  89 119 150 187 233 282
#     4   8  14  25  42  66  94 120 150 191 235 279
#
# _framework density 20.662091
#
# number of rings (size 3 to 8) (size 9 to 14) (size 15 to 20)
#    0.000    3.000    0.000    3.000    0.000    4.667 
#    0.000    3.333    0.000    1.000    0.000    0.000 
#    0.000    0.000    0.000    0.000    0.000    0.000 
#
# Total GULP energy -267748.634231 kJ/mol
# GULP energy per Si atom -5578.096546 kJ/mol
# Density = 2.061506 g / cm^3
# Si number density = 20.662091 Si / 1000 Ang^3
#
#
#
# Elastic Constant Matrix: (Units=GPa)
#
#
# Indices 1 2 3 4 5 6 
#
# 1 50.5089 6.1804 0.0247 0.0000 0.0000 0.0000
# 2 6.1804 154.3899 139.0540 0.0000 0.0000 0.0000
# 3 0.0247 139.0540 226.4457 0.0000 0.0000 0.0000
# 4 0.0000 0.0000 0.0000 42.9714 0.0000 0.0000
# 5 0.0000 0.0000 0.0000 0.0000 19.4026 0.0000
# 6 0.0000 0.0000 0.0000 0.0000 0.0000 13.9493
#
#
#
# Elastic Compliance Matrix: (Units=1/GPa)
#
#
# Indices 1 2 3 4 5 6 
#
# 1 0.020017 -0.001789 0.001096 0.000000 0.000000 0.000000
# 2 -0.001789 0.014652 -0.008997 0.000000 0.000000 0.000000
# 3 0.001096 -0.008997 0.009941 0.000000 0.000000 0.000000
# 4 0.000000 0.000000 0.000000 0.023271 0.000000 0.000000
# 5 0.000000 0.000000 0.000000 0.000000 0.051539 0.000000
# 6 0.000000 0.000000 0.000000 0.000000 0.000000 0.071688
#
#
# Mechanical properties :
#
#
# Convention : Reuss Voigt Hill
#
# Bulk Modulus (GPa) = 39.63453 80.20696 59.92074
# Shear Modulus (GPa) = 22.84160 34.33704 28.58932
#
# Velocity S-wave (km/s) = 3.32849 4.08099 3.72379
# Velocity P-wave (km/s) = 5.83058 7.81720 6.89581
#
# Compressibility (1/GPa) = 0.02523053
#
# Stress axis : x y z
#
# Youngs Moduli (GPa) = 49.95800 68.24820 100.59328
#
# Poissons Ratio (x) = 0.12206 -0.11026
# Poissons Ratio (y) = 0.08935 0.90508
# Poissons Ratio (z) = -0.05476 0.61406
#
# Static dielectric constant tensor:
#      x y z
#    x 1.819030 0.000000 0.000000 
#    y 0.000000 1.712970 0.000000 
#    z 0.000000 0.000000 1.730350 
# 
# From -- ./inp_files/32472.got.cif
#   From: 2010.05.17/outbox.cif.g08.bks.cpg/sg59_17_cif.got.tgz:32472.got - 2010.06.03 14:40:33.
