data_PCOD9451282
_publ_section_title
;
Structure prediction by ZEFSAII (Michael W. Deem and Ramdas Pophale) SiO2 
 PCOD9451282
Probable space group: P M M N
;
_chemical_formula_sum "Si O2"
_cell_formula_units_Z 56
_cell_length_a 16.013895
_cell_length_b 7.666140
_cell_length_c 20.837417
_cell_angle_alpha 90.000000
_cell_angle_beta 90.000000
_cell_angle_gamma 90.000000
_cell_volume 2558.100518
_symmetry_space_group_name_H-M "P M M N"
_symmetry_group_IT_number 59
_space_group.IT_coordinate_system_code '2'
_symmetry_cell_setting 'orthorhombic'
loop_
_space_group_symop_operation_xyz
x,y,z
1/2-x,1/2-y,z
1/2+x,-y,-z
-x,1/2+y,-z
-x,-y,-z
1/2+x,1/2+y,-z
1/2-x,y,z
x,1/2-y,z
loop_
_atom_site_type_symbol
_atom_site_label
_atom_site_fract_x
_atom_site_fract_y
_atom_site_fract_z
Si Si1 0.661663 0.540068 0.635740
Si Si2 0.508323 0.040260 0.425135
Si Si3 0.654771 0.036209 0.329785
Si Si4 0.072828 0.551089 0.800342
Si Si5 0.064778 0.550388 0.942862
Si Si6 0.250000 0.538269 0.126265
Si Si7 0.891005 0.456521 0.775402
Si Si8 0.250000 0.052437 0.981827
O O1 0.750000 0.476798 0.608184
O O2 0.660448 0.750000 0.629457
O O3 0.577083 0.470271 0.605586
O O4 0.657316 0.494048 0.710274
O O5 0.509401 0.250000 0.418679
O O6 0.588481 0.978036 0.384144
O O7 0.500000 0.000000 0.500000
O O8 0.750000 0.985120 0.343590
O O9 0.651847 0.250000 0.328356
O O10 0.627240 0.975538 0.258215
O O11 0.104380 0.750000 0.809525
O O12 0.063639 0.466462 0.871274
O O13 0.978774 0.552446 0.774006
O O14 0.041815 0.750000 0.931814
O O15 0.161781 0.533570 0.963024
O O16 0.000000 0.500000 0.000000
O O17 0.250000 0.750000 0.118974
O O18 0.332336 0.490238 0.165898
O O19 0.250000 0.450506 0.058229
O O20 0.906844 0.250000 0.780519
O O21 0.250000 0.250000 0.956624
#
# Coordination Sequence:
#
# PCOD9451282 Si02
#       8
#     8   8   8   8   8   4   8   4
#     4  10  20  36  58  84 116 154 194 237 282 346
#     4  10  21  38  59  86 119 155 194 237 288 348
#     4   9  18  35  61  88 113 145 195 248 288 339
#     4  10  21  38  62  87 113 153 204 248 298 362
#     4  11  24  42  65  92 124 164 211 262 318 379
#     4  10  22  38  56  84 120 157 198 249 306 365
#     4  11  21  34  56  87 121 152 188 244 305 350
#     4  12  26  42  62  88 124 167 210 257 312 377
#
# _framework density 21.891245000000001
#
# number of rings (size 3 to 8) (size 9 to 14) (size 15 to 20)
#    0.000    1.714    2.143    2.357    1.000    5.714 
#    0.000    0.000    0.000    0.857    0.000    0.000 
#    0.000    0.000    0.000    0.000    0.000    0.000 
#
# Total GULP energy -312472.341510 kJ/mol
# GULP energy per Si atom -5579.863241 kJ/mol
# Density = 2.184142 g / cm^3
# Si number density = 21.891245 Si / 1000 Ang^3
#
#
#
# Elastic Constant Matrix: (Units=GPa)
#
#
# Indices 1 2 3 4 5 6 
#
# 1 168.5195 6.8152 86.4875 0.0000 0.0000 0.0000
# 2 6.8152 34.7658 -0.4936 0.0000 0.0000 0.0000
# 3 86.4875 -0.4936 148.6811 0.0000 0.0000 0.0000
# 4 0.0000 0.0000 0.0000 20.9439 0.0000 0.0000
# 5 0.0000 0.0000 0.0000 0.0000 17.6119 0.0000
# 6 0.0000 0.0000 0.0000 0.0000 0.0000 -10.9797
#
#
#
# Elastic Compliance Matrix: (Units=1/GPa)
#
#
# Indices 1 2 3 4 5 6 
#
# 1 0.008565 -0.001750 -0.004988 0.000000 0.000000 0.000000
# 2 -0.001750 0.029123 0.001115 0.000000 0.000000 0.000000
# 3 -0.004988 0.001115 0.009631 0.000000 0.000000 0.000000
# 4 0.000000 0.000000 0.000000 0.047747 0.000000 0.000000
# 5 0.000000 0.000000 0.000000 0.000000 0.056780 0.000000
# 6 0.000000 0.000000 0.000000 0.000000 0.000000 -0.091077
#
#
# Mechanical properties :
#
#
# Convention : Reuss Voigt Hill
#
# Bulk Modulus (GPa) = 27.72220 59.73163 43.72692
# Shear Modulus (GPa) = 59.49688 22.79237 41.14462
#
# Velocity S-wave (km/s) = 5.21895 3.23021 4.34002
# Velocity P-wave (km/s) = 7.00054 6.42317 6.71806
#
# Compressibility (1/GPa) = 0.03607217
#
# Stress axis : x y z
#
# Youngs Moduli (GPa) = 116.75885 34.33738 103.83214
#
# Poissons Ratio (x) = 0.06008 0.51790
# Poissons Ratio (y) = 0.20430 -0.11572
# Poissons Ratio (z) = 0.58238 -0.03827
#
# Static dielectric constant tensor:
#      x y z
#    x 1.830060 0.000000 0.000000 
#    y 0.000000 1.847250 0.000000 
#    z 0.000000 0.000000 1.809220 
# 
# From -- ./inp_files/30495.got.cif
#   From: 2010.05.17/outbox.cif.g08.bks.cpg/sg59_16_cif.got.tgz:30495.got - 2010.06.03 14:40:33.
