data_PCOD9451518
_publ_section_title
;
Structure prediction by ZEFSAII (Michael W. Deem and Ramdas Pophale) SiO2 
 PCOD9451518
Probable space group: P M M N
;
_chemical_formula_sum "Si O2"
_cell_formula_units_Z 64
_cell_length_a 23.573215
_cell_length_b 8.998467
_cell_length_c 15.911993
_cell_angle_alpha 90.000000
_cell_angle_beta 90.000000
_cell_angle_gamma 90.000000
_cell_volume 3375.296465
_symmetry_space_group_name_H-M "P M M N"
_symmetry_group_IT_number 59
_space_group.IT_coordinate_system_code '2'
_symmetry_cell_setting 'orthorhombic'
loop_
_space_group_symop_operation_xyz
x,y,z
1/2-x,1/2-y,z
1/2+x,-y,-z
-x,1/2+y,-z
-x,-y,-z
1/2+x,1/2+y,-z
1/2-x,y,z
x,1/2-y,z
loop_
_atom_site_type_symbol
_atom_site_label
_atom_site_fract_x
_atom_site_fract_y
_atom_site_fract_z
Si Si1 0.410117 0.072983 0.552439
Si Si2 0.997174 0.574048 0.091295
Si Si3 0.317297 0.571338 0.664523
Si Si4 0.119189 0.425677 0.823603
Si Si5 0.979045 0.923364 0.612943
Si Si6 0.419617 0.080881 0.208693
Si Si7 0.182707 0.581889 0.967403
Si Si8 0.316363 0.921548 0.166048
O O1 0.402320 0.250000 0.558240
O O2 0.433096 0.035123 0.458831
O O3 0.353808 0.992854 0.586439
O O4 0.464315 0.020852 0.607382
O O5 0.992185 0.750000 0.080369
O O6 0.944299 0.524710 0.150300
O O7 0.052890 0.529204 0.141741
O O8 0.000000 0.500000 0.000000
O O9 0.250000 0.529857 0.664311
O O10 0.320239 0.750000 0.664861
O O11 0.349792 0.509062 0.747115
O O12 0.118478 0.250000 0.805135
O O13 0.153955 0.462919 0.907943
O O14 0.994661 0.750000 0.597219
O O15 0.950984 0.934751 0.703239
O O16 0.425797 0.250000 0.179069
O O17 0.354621 0.034735 0.216586
O O18 0.250000 0.581769 0.951963
O O19 0.161538 0.750000 0.948233
O O20 0.174543 0.554504 0.066130
O O21 0.250000 0.940005 0.182162
O O22 0.331336 0.750000 0.184427
#
# Coordination Sequence:
#
# PCOD9451518 Si02
#       8
#     8   8   8   8   8   8   8   8
#     4  10  20  37  62  88 112 142 183 229 277 330
#     4  11  24  39  55  80 114 151 191 236 286 337
#     4  11  24  40  58  82 115 155 194 233 285 348
#     4  11  23  36  53  80 110 142 186 235 280 330
#     4   9  20  38  60  87 117 147 179 221 278 339
#     4  11  22  36  56  82 111 143 179 220 269 325
#     4   9  18  33  52  73 100 138 181 222 267 318
#     4   9  19  36  56  77 104 140 179 220 267 315
#
# _framework density 18.961296000000001
#
# number of rings (size 3 to 8) (size 9 to 14) (size 15 to 20)
#    0.000    1.875    0.000    4.500    0.000   11.000 
#    0.000    1.875    0.000    3.750    0.000    0.000 
#    0.000    0.000    0.000    0.000    0.000    0.000 
#
# Total GULP energy -357318.222438 kJ/mol
# GULP energy per Si atom -5583.097226 kJ/mol
# Density = 1.891814 g / cm^3
# Si number density = 18.961296 Si / 1000 Ang^3
#
#
#
# Elastic Constant Matrix: (Units=GPa)
#
#
# Indices 1 2 3 4 5 6 
#
# 1 104.1618 41.4678 32.2211 0.0000 0.0000 0.0000
# 2 41.4678 42.8235 27.4275 0.0000 0.0000 0.0000
# 3 32.2211 27.4275 31.3248 0.0000 0.0000 0.0000
# 4 0.0000 0.0000 0.0000 27.3861 0.0000 0.0000
# 5 0.0000 0.0000 0.0000 0.0000 26.8125 0.0000
# 6 0.0000 0.0000 0.0000 0.0000 0.0000 30.2041
#
#
#
# Elastic Compliance Matrix: (Units=1/GPa)
#
#
# Indices 1 2 3 4 5 6 
#
# 1 0.016214 -0.011427 -0.006672 0.000000 0.000000 0.000000
# 2 -0.011427 0.061221 -0.041850 0.000000 0.000000 0.000000
# 3 -0.006672 -0.041850 0.075431 0.000000 0.000000 0.000000
# 4 0.000000 0.000000 0.000000 0.036515 0.000000 0.000000
# 5 0.000000 0.000000 0.000000 0.000000 0.037296 0.000000
# 6 0.000000 0.000000 0.000000 0.000000 0.000000 0.033108
#
#
# Mechanical properties :
#
#
# Convention : Reuss Voigt Hill
#
# Bulk Modulus (GPa) = 30.33438 42.28254 36.30846
# Shear Modulus (GPa) = 12.79847 22.02678 17.41262
#
# Velocity S-wave (km/s) = 2.60085 3.41203 3.03367
# Velocity P-wave (km/s) = 5.00520 6.15389 5.60903
#
# Compressibility (1/GPa) = 0.03296589
#
# Stress axis : x y z
#
# Youngs Moduli (GPa) = 61.67678 16.33429 13.25723
#
# Poissons Ratio (x) = 0.18665 0.08846
# Poissons Ratio (y) = 0.70476 0.55482
# Poissons Ratio (z) = 0.41153 0.68360
#
# Static dielectric constant tensor:
#      x y z
#    x 1.697750 0.000000 0.000000 
#    y 0.000000 1.633170 0.000000 
#    z 0.000000 0.000000 1.648950 
# 
# From -- ./inp_files/24773.got.cif
#   From: 2010.05.17/outbox.cif.g08.bks.cpg/sg59_13_cif.got.tgz:24773.got - 2010.06.03 14:40:33.
