data_PCOD9451580
_publ_section_title
;
Structure prediction by ZEFSAII (Michael W. Deem and Ramdas Pophale) SiO2 
 PCOD9451580
Probable space group: P M M N
;
_chemical_formula_sum "Si O2"
_cell_formula_units_Z 40
_cell_length_a 7.629290
_cell_length_b 14.759539
_cell_length_c 15.281296
_cell_angle_alpha 90.000000
_cell_angle_beta 90.000000
_cell_angle_gamma 90.000000
_cell_volume 1720.747330
_symmetry_space_group_name_H-M "P M M N"
_symmetry_group_IT_number 59
_space_group.IT_coordinate_system_code '2'
_symmetry_cell_setting 'orthorhombic'
loop_
_space_group_symop_operation_xyz
x,y,z
1/2-x,1/2-y,z
1/2+x,-y,-z
-x,1/2+y,-z
-x,-y,-z
1/2+x,1/2+y,-z
1/2-x,y,z
x,1/2-y,z
loop_
_atom_site_type_symbol
_atom_site_label
_atom_site_fract_x
_atom_site_fract_y
_atom_site_fract_z
Si Si1 0.541277 0.944038 0.085645
Si Si2 0.040915 0.049832 0.263394
Si Si3 0.546945 0.408908 0.601286
Si Si4 0.034773 0.750000 0.523552
Si Si5 0.557133 0.250000 0.741484
Si Si6 0.953701 0.750000 0.726561
Si Si7 0.057784 0.250000 0.923423
O O1 0.750000 0.933225 0.095292
O O2 0.466429 0.845062 0.062956
O O3 0.480871 0.989795 0.175973
O O4 0.500000 0.000000 0.000000
O O5 0.250000 0.057845 0.278307
O O6 0.970620 0.151592 0.247293
O O7 0.970577 0.998530 0.351294
O O8 0.750000 0.429089 0.577363
O O9 0.474795 0.343842 0.524232
O O10 0.545397 0.337080 0.680713
O O11 0.250000 0.750000 0.518662
O O12 0.969174 0.750000 0.621641
O O13 0.750000 0.250000 0.781724
O O14 0.423021 0.250000 0.818455
O O15 0.750000 0.750000 0.755189
O O16 0.250000 0.250000 0.967769
#
# Coordination Sequence:
#
# PCOD9451580 Si02
#       7
#     8   8   8   4   4   4   4
#     4  11  24  41  61  88 118 149 188 233 286 342
#     4  10  20  38  60  81 112 154 196 237 287 343
#     4   8  15  29  54  82 107 140 185 233 280 332
#     4   9  18  34  55  82 112 147 194 242 284 340
#     4   9  14  26  53  83 103 132 177 219 267 331
#     4  10  23  38  54  81 119 159 194 236 290 340
#     4  10  21  36  56  84 116 138 171 233 289 325
#
# _framework density 23.245712999999999
#
# number of rings (size 3 to 8) (size 9 to 14) (size 15 to 20)
#    0.000    2.400    2.000    1.800    0.000    3.200 
#    0.000    7.000    0.000    0.000    0.000    0.000 
#    0.000    0.000    0.000    0.000    0.000    0.000 
#
# Total GULP energy -222893.975046 kJ/mol
# GULP energy per Si atom -5572.349376 kJ/mol
# Density = 2.319280 g / cm^3
# Si number density = 23.245713 Si / 1000 Ang^3
#
#
#
# Elastic Constant Matrix: (Units=GPa)
#
#
# Indices 1 2 3 4 5 6 
#
# 1 49.6469 -0.5752 -17.0485 0.0000 0.0000 0.0000
# 2 -0.5752 198.5422 37.6248 0.0000 0.0000 0.0000
# 3 -17.0485 37.6248 56.5544 0.0000 0.0000 0.0000
# 4 0.0000 0.0000 0.0000 -25.8361 0.0000 0.0000
# 5 0.0000 0.0000 0.0000 0.0000 20.3372 0.0000
# 6 0.0000 0.0000 0.0000 0.0000 0.0000 26.8128
#
#
#
# Elastic Compliance Matrix: (Units=1/GPa)
#
#
# Indices 1 2 3 4 5 6 
#
# 1 0.022811 -0.001415 0.007818 0.000000 0.000000 0.000000
# 2 -0.001415 0.005851 -0.004319 0.000000 0.000000 0.000000
# 3 0.007818 -0.004319 0.022912 0.000000 0.000000 0.000000
# 4 0.000000 0.000000 0.000000 -0.038706 0.000000 0.000000
# 5 0.000000 0.000000 0.000000 0.000000 0.049171 0.000000
# 6 0.000000 0.000000 0.000000 0.000000 0.000000 0.037296
#
#
# Mechanical properties :
#
#
# Convention : Reuss Voigt Hill
#
# Bulk Modulus (GPa) = 17.94029 38.30507 28.12268
# Shear Modulus (GPa) = 43.95641 23.24561 33.60101
#
# Velocity S-wave (km/s) = 4.35322 3.16570 3.80606
# Velocity P-wave (km/s) = 5.74472 5.46592 5.60705
#
# Compressibility (1/GPa) = 0.05574047
#
# Stress axis : x y z
#
# Youngs Moduli (GPa) = 43.83941 170.90637 43.64433
#
# Poissons Ratio (x) = 0.24191 -0.34121
# Poissons Ratio (y) = 0.06205 0.18852
# Poissons Ratio (z) = -0.34274 0.73821
#
# Static dielectric constant tensor:
#      x y z
#    x 1.898740 0.000000 0.000000 
#    y 0.000000 1.960480 0.000000 
#    z 0.000000 0.000000 1.796590 
# 
# From -- ./inp_files/20068.got.cif
#   From: 2010.05.17/outbox.cif.g08.bks.cpg/sg59_11_cif.got.tgz:20068.got - 2010.06.03 14:40:33.
