data_PCOD9451785
_publ_section_title
;
Structure prediction by ZEFSAII (Michael W. Deem and Ramdas Pophale) SiO2 
 PCOD9451785
Probable space group: P M M N
;
_chemical_formula_sum "Si O2"
_cell_formula_units_Z 64
_cell_length_a 23.065208
_cell_length_b 19.595869
_cell_length_c 5.725811
_cell_angle_alpha 90.000000
_cell_angle_beta 90.000000
_cell_angle_gamma 90.000000
_cell_volume 2587.968056
_symmetry_space_group_name_H-M "P M M N"
_symmetry_group_IT_number 59
_space_group.IT_coordinate_system_code '2'
_symmetry_cell_setting 'orthorhombic'
loop_
_space_group_symop_operation_xyz
x,y,z
1/2-x,1/2-y,z
1/2+x,-y,-z
-x,1/2+y,-z
-x,-y,-z
1/2+x,1/2+y,-z
1/2-x,y,z
x,1/2-y,z
loop_
_atom_site_type_symbol
_atom_site_label
_atom_site_fract_x
_atom_site_fract_y
_atom_site_fract_z
Si Si1 0.916288 0.325058 0.001770
Si Si2 0.820064 0.859014 0.895604
Si Si3 0.679815 0.483595 0.415270
Si Si4 0.990471 0.062597 0.742115
Si Si5 0.990542 0.672771 0.640673
Si Si6 0.680411 0.643626 0.396595
Si Si7 0.680660 0.413407 0.917868
Si Si8 0.575633 0.941763 0.870547
O O1 0.933286 0.250000 0.906750
O O2 0.943611 0.325784 0.261081
O O3 0.946413 0.391067 0.891470
O O4 0.849543 0.339973 0.953449
O O5 0.750000 0.870141 0.897370
O O6 0.835008 0.825446 0.647369
O O7 0.856255 0.929378 0.888078
O O8 0.837509 0.827905 0.145024
O O9 0.750000 0.485236 0.415477
O O10 0.662630 0.563825 0.409741
O O11 0.664373 0.443975 0.658411
O O12 0.662673 0.449407 0.166895
O O13 0.012298 0.119972 0.567496
O O14 0.952353 0.995209 0.685949
O O15 0.045278 0.036357 0.889239
O O16 0.972925 0.750000 0.592277
O O17 0.950142 0.634312 0.828450
O O18 0.750000 0.646866 0.390690
O O19 0.750000 0.411991 0.918953
#
# Coordination Sequence:
#
# PCOD9451785 Si02
#       8
#     8   8   8   8   8   8   8   8
#     4  10  23  39  57  84 118 164 221 271 326 393
#     4  10  21  36  58  92 131 171 208 257 327 402
#     4   9  18  32  49  75 111 156 212 260 312 377
#     4  10  22  41  62  92 125 169 216 274 331 382
#     4  10  22  43  68  91 123 171 221 274 333 398
#     4   9  18  31  50  80 123 166 208 252 309 387
#     4  10  21  35  53  80 114 159 213 273 328 382
#     4  10  23  39  63  98 132 163 214 275 334 389
#
# _framework density 24.729825000000002
#
# number of rings (size 3 to 8) (size 9 to 14) (size 15 to 20)
#    0.000    2.250    0.000    1.500    7.000    3.750 
#    0.000    0.000    0.000    2.625    0.000    0.000 
#    0.000    0.000    0.000    0.000    0.000    0.000 
#
# Total GULP energy -356613.157054 kJ/mol
# GULP energy per Si atom -5572.080579 kJ/mol
# Density = 2.467354 g / cm^3
# Si number density = 24.729825 Si / 1000 Ang^3
#
#
#
# Elastic Constant Matrix: (Units=GPa)
#
#
# Indices 1 2 3 4 5 6 
#
# 1 70.5711 20.2000 10.8271 0.0000 0.0000 0.0000
# 2 20.2000 147.2571 26.3459 0.0000 0.0000 0.0000
# 3 10.8271 26.3459 168.3310 0.0000 0.0000 0.0000
# 4 0.0000 0.0000 0.0000-3725.2891 0.0000 0.0000
# 5 0.0000 0.0000 0.0000 0.0000 20.7882 0.0000
# 6 0.0000 0.0000 0.0000 0.0000 0.0000 -0.7128
#
#
#
# Elastic Compliance Matrix: (Units=1/GPa)
#
#
# Indices 1 2 3 4 5 6 
#
# 1 0.014819 -0.001916 -0.000653 0.000000 0.000000 0.000000
# 2 -0.001916 0.007234 -0.001009 0.000000 0.000000 0.000000
# 3 -0.000653 -0.001009 0.006141 0.000000 0.000000 0.000000
# 4 0.000000 0.000000 0.000000 -0.000268 0.000000 0.000000
# 5 0.000000 0.000000 0.000000 0.000000 0.048104 0.000000
# 6 0.000000 0.000000 0.000000 0.000000 0.000000 -1.402840
#
#
# Mechanical properties :
#
#
# Convention : Reuss Voigt Hill
#
# Bulk Modulus (GPa) = 47.53491 55.65614 51.59552
# Shear Modulus (GPa) = -3.80911 -719.12367 -361.46639
#
# Velocity S-wave (km/s) = -1.24243 -17.07113 -12.10304
# Velocity P-wave (km/s) = 4.14792 19.13139 13.20615
#
# Compressibility (1/GPa) = 0.02103717
#
# Stress axis : x y z
#
# Youngs Moduli (GPa) = 67.48218 138.23266 162.85000
#
# Poissons Ratio (x) = 0.26484 0.10639
# Poissons Ratio (y) = 0.12929 0.16432
# Poissons Ratio (z) = 0.04409 0.13948
#
# Static dielectric constant tensor:
#      x y z
#    x 2.018740 0.000000 0.000000 
#    y 0.000000 1.930150 0.000000 
#    z 0.000000 0.000000 2.091120 
# 
# From -- ./inp_files/4318.got.cif
#   From: 2010.05.17/outbox.cif.g08.bks.cpg/sg59_3_cif.got.tgz:4318.got - 2010.06.03 14:40:33.
