data_PCOD9451704
_publ_section_title
;
Structure prediction by ZEFSAII (Michael W. Deem and Ramdas Pophale) SiO2 
 PCOD9451704
Probable space group: P M M N
;
_chemical_formula_sum "Si O2"
_cell_formula_units_Z 48
_cell_length_a 14.869178
_cell_length_b 7.412512
_cell_length_c 18.723343
_cell_angle_alpha 90.000000
_cell_angle_beta 90.000000
_cell_angle_gamma 90.000000
_cell_volume 2063.648676
_symmetry_space_group_name_H-M "P M M N"
_symmetry_group_IT_number 59
_space_group.IT_coordinate_system_code '2'
_symmetry_cell_setting 'orthorhombic'
loop_
_space_group_symop_operation_xyz
x,y,z
1/2-x,1/2-y,z
1/2+x,-y,-z
-x,1/2+y,-z
-x,-y,-z
1/2+x,1/2+y,-z
1/2-x,y,z
x,1/2-y,z
loop_
_atom_site_type_symbol
_atom_site_label
_atom_site_fract_x
_atom_site_fract_y
_atom_site_fract_z
Si Si1 0.351037 0.463518 0.688875
Si Si2 0.146444 0.970891 0.305753
Si Si3 0.140620 0.963447 0.150319
Si Si4 0.499969 0.965845 0.416246
Si Si5 0.358467 0.532986 0.997341
Si Si6 0.645264 0.033246 0.155212
O O1 0.250000 0.540330 0.689268
O O2 0.343121 0.250000 0.677543
O O3 0.413218 0.536652 0.626232
O O4 0.393444 0.483617 0.767926
O O5 0.250000 0.024935 0.314158
O O6 0.145627 0.750000 0.303434
O O7 0.112210 0.034132 0.227697
O O8 0.086043 0.031103 0.371624
O O9 0.250000 0.978471 0.150266
O O10 0.120034 0.750000 0.149680
O O11 0.108897 0.039420 0.073895
O O12 0.500078 0.750000 0.408219
O O13 0.500000 0.000000 0.500000
O O14 0.250000 0.504098 0.995396
O O15 0.370869 0.750000 0.999035
O O16 0.393571 0.466440 0.920520
O O17 0.750000 0.972245 0.157936
O O18 0.645712 0.250000 0.151813
#
# Coordination Sequence:
#
# PCOD9451704 Si02
#       6
#     8   8   8   8   8   8
#     4   9  18  32  47  63  88 122 153 177 207 255
#     4   8  14  26  45  68  91 113 141 181 225 264
#     4   7   9  15  31  57  87 114 137 168 216 262
#     4  10  21  35  50  69  90 112 142 181 224 269
#     4   7   9  14  28  55  88 114 138 173 214 252
#     4   8  13  22  39  64  90 115 147 185 218 247
#
# _framework density 23.259774
#
# number of rings (size 3 to 8) (size 9 to 14) (size 15 to 20)
#    0.000    3.833    0.000    3.000    0.000    1.333 
#    0.000    0.000    0.000    1.000    0.000    1.167 
#    0.000    4.000    0.000    0.000    0.000    0.000 
#
# Total GULP energy -267561.254323 kJ/mol
# GULP energy per Si atom -5574.192798 kJ/mol
# Density = 2.320683 g / cm^3
# Si number density = 23.259774 Si / 1000 Ang^3
#
#
#
# Elastic Constant Matrix: (Units=GPa)
#
#
# Indices 1 2 3 4 5 6 
#
# 1 91.0127 4.0630 85.0669 0.0000 0.0000 0.0000
# 2 4.0630 76.1978 2.9978 0.0000 0.0000 0.0000
# 3 85.0669 2.9978 292.2320 0.0000 0.0000 0.0000
# 4 0.0000 0.0000 0.0000 298.8975 0.0000 0.0000
# 5 0.0000 0.0000 0.0000 0.0000 57.5502 0.0000
# 6 0.0000 0.0000 0.0000 0.0000 0.0000 -9.0138
#
#
#
# Elastic Compliance Matrix: (Units=1/GPa)
#
#
# Indices 1 2 3 4 5 6 
#
# 1 0.015125 -0.000634 -0.004396 0.000000 0.000000 0.000000
# 2 -0.000634 0.013156 0.000049 0.000000 0.000000 0.000000
# 3 -0.004396 0.000049 0.004701 0.000000 0.000000 0.000000
# 4 0.000000 0.000000 0.000000 0.003346 0.000000 0.000000
# 5 0.000000 0.000000 0.000000 0.000000 0.017376 0.000000
# 6 0.000000 0.000000 0.000000 0.000000 0.000000 -0.110941
#
#
# Mechanical properties :
#
#
# Convention : Reuss Voigt Hill
#
# Bulk Modulus (GPa) = 43.43876 71.52201 57.48038
# Shear Modulus (GPa) = -126.25126 93.97442 -16.13842
#
# Velocity S-wave (km/s) = -7.37541 6.36316 -2.63693
# Velocity P-wave (km/s) = 7.33572 9.20882 3.93634
#
# Compressibility (1/GPa) = 0.02302092
#
# Stress axis : x y z
#
# Youngs Moduli (GPa) = 66.11658 76.01337 212.71396
#
# Poissons Ratio (x) = 0.04816 0.93514
# Poissons Ratio (y) = 0.04189 -0.01052
# Poissons Ratio (z) = 0.29066 -0.00376
#
# Static dielectric constant tensor:
#      x y z
#    x 1.920370 0.000000 0.000000 
#    y 0.000000 1.905000 0.000000 
#    z 0.000000 0.000000 1.902160 
# 
# From -- ./inp_files/23163.got.cif
#   From: 2010.05.17/outbox.cif.g08.bks.cpg/sg59_12_cif.got.tgz:23163.got - 2010.06.03 14:40:33.
