data_PCOD9451792
_publ_section_title
;
Structure prediction by ZEFSAII (Michael W. Deem and Ramdas Pophale) SiO2 
 PCOD9451792
Probable space group: P M M N
;
_chemical_formula_sum "Si O2"
_cell_formula_units_Z 56
_cell_length_a 15.862672
_cell_length_b 8.580807
_cell_length_c 21.932245
_cell_angle_alpha 90.000000
_cell_angle_beta 90.000000
_cell_angle_gamma 90.000000
_cell_volume 2985.297153
_symmetry_space_group_name_H-M "P M M N"
_symmetry_group_IT_number 59
_space_group.IT_coordinate_system_code '2'
_symmetry_cell_setting 'orthorhombic'
loop_
_space_group_symop_operation_xyz
x,y,z
1/2-x,1/2-y,z
1/2+x,-y,-z
-x,1/2+y,-z
-x,-y,-z
1/2+x,1/2+y,-z
1/2-x,y,z
x,1/2-y,z
loop_
_atom_site_type_symbol
_atom_site_label
_atom_site_fract_x
_atom_site_fract_y
_atom_site_fract_z
Si Si1 0.344236 0.063409 0.870356
Si Si2 0.846541 0.938058 0.429233
Si Si3 0.595230 0.437130 0.001577
Si Si4 0.001355 0.563354 0.791449
Si Si5 0.344182 0.938067 0.132799
Si Si6 0.001701 0.938331 0.651291
Si Si7 0.845390 0.560176 0.569742
O O1 0.250000 0.016803 0.850652
O O2 0.349810 0.250000 0.869918
O O3 0.359877 0.005049 0.939063
O O4 0.417263 0.997084 0.827637
O O5 0.750000 0.983145 0.414304
O O6 0.850779 0.750000 0.426972
O O7 0.862963 0.985593 0.499607
O O8 0.915628 0.007031 0.384486
O O9 0.594168 0.250000 0.005964
O O10 0.500000 0.500000 0.000000
O O11 0.638910 0.480669 0.937810
O O12 0.002664 0.750000 0.792237
O O13 0.917655 0.506648 0.825827
O O14 0.001923 0.509039 0.721351
O O15 0.250000 0.987685 0.150795
O O16 0.348491 0.750000 0.136127
O O17 0.000212 0.750000 0.651167
O O18 0.918421 0.993517 0.615027
O O19 0.750000 0.510129 0.585643
O O20 0.845136 0.750000 0.570676
#
# Coordination Sequence:
#
# PCOD9451792 Si02
#       7
#     8   8   8   8   8   8   8
#     4  11  24  41  61  84 111 148 193 238 286 338
#     4   9  18  33  55  82 109 142 182 222 271 330
#     4  11  21  36  62  91 118 147 182 227 283 339
#     4  11  24  39  56  81 113 151 192 235 280 332
#     4  10  22  40  61  84 113 149 185 225 278 335
#     4  10  21  35  54  81 110 144 185 227 277 326
#     4   8  15  31  55  81 110 142 178 222 272 329
#
# _framework density 18.758600999999999
#
# number of rings (size 3 to 8) (size 9 to 14) (size 15 to 20)
#    0.000    2.000    1.429    3.000    0.000    5.143 
#    0.000    4.286    0.000    1.286    0.000    0.000 
#    0.000    0.000    0.000    0.000    0.000    0.000 
#
# Total GULP energy -312756.112548 kJ/mol
# GULP energy per Si atom -5584.930581 kJ/mol
# Density = 1.871591 g / cm^3
# Si number density = 18.758601 Si / 1000 Ang^3
#
#
#
# Elastic Constant Matrix: (Units=GPa)
#
#
# Indices 1 2 3 4 5 6 
#
# 1 192.8139 37.5625 119.3468 0.0000 0.0000 0.0000
# 2 37.5625 19.7777 32.2229 0.0000 0.0000 0.0000
# 3 119.3468 32.2229 164.1729 0.0000 0.0000 0.0000
# 4 0.0000 0.0000 0.0000 10.2983 0.0000 0.0000
# 5 0.0000 0.0000 0.0000 0.0000 -7.0564 0.0000
# 6 0.0000 0.0000 0.0000 0.0000 0.0000 19.1902
#
#
#
# Elastic Compliance Matrix: (Units=1/GPa)
#
#
# Indices 1 2 3 4 5 6 
#
# 1 0.010965 -0.011523 -0.005710 0.000000 0.000000 0.000000
# 2 -0.011523 0.086442 -0.008589 0.000000 0.000000 0.000000
# 3 -0.005710 -0.008589 0.011928 0.000000 0.000000 0.000000
# 4 0.000000 0.000000 0.000000 0.097103 0.000000 0.000000
# 5 0.000000 0.000000 0.000000 0.000000 -0.141715 0.000000
# 6 0.000000 0.000000 0.000000 0.000000 0.000000 0.052110
#
#
# Mechanical properties :
#
#
# Convention : Reuss Voigt Hill
#
# Bulk Modulus (GPa) = 17.33394 83.89210 50.61302
# Shear Modulus (GPa) = 26.63714 16.99523 21.81618
#
# Velocity S-wave (km/s) = 3.77237 3.01324 3.41397
# Velocity P-wave (km/s) = 5.31366 7.54488 6.52534
#
# Compressibility (1/GPa) = 0.05769030
#
# Stress axis : x y z
#
# Youngs Moduli (GPa) = 91.19656 11.56846 83.83891
#
# Poissons Ratio (x) = 0.13331 0.47869
# Poissons Ratio (y) = 1.05089 0.72012
# Poissons Ratio (z) = 0.52069 0.09937
#
# Static dielectric constant tensor:
#      x y z
#    x 1.633170 0.000000 0.000000 
#    y 0.000000 1.639700 0.000000 
#    z 0.000000 0.000000 1.627800 
# 
# From -- ./inp_files/29035.got.cif
#   From: 2010.05.17/outbox.cif.g08.bks.cpg/sg59_15_cif.got.tgz:29035.got - 2010.06.03 14:40:33.
