data_PCOD9451445
_publ_section_title
;
Structure prediction by ZEFSAII (Michael W. Deem and Ramdas Pophale) SiO2 
 PCOD9451445
Probable space group: P M M N
;
_chemical_formula_sum "Si O2"
_cell_formula_units_Z 56
_cell_length_a 8.094943
_cell_length_b 21.105161
_cell_length_c 15.871140
_cell_angle_alpha 90.000000
_cell_angle_beta 90.000000
_cell_angle_gamma 90.000000
_cell_volume 2711.506108
_symmetry_space_group_name_H-M "P M M N"
_symmetry_group_IT_number 59
_space_group.IT_coordinate_system_code '2'
_symmetry_cell_setting 'orthorhombic'
loop_
_space_group_symop_operation_xyz
x,y,z
1/2-x,1/2-y,z
1/2+x,-y,-z
-x,1/2+y,-z
-x,-y,-z
1/2+x,1/2+y,-z
1/2-x,y,z
x,1/2-y,z
loop_
_atom_site_type_symbol
_atom_site_label
_atom_site_fract_x
_atom_site_fract_y
_atom_site_fract_z
Si Si1 0.448459 0.320266 0.412468
Si Si2 0.438134 0.000726 0.404628
Si Si3 0.557217 0.529794 0.892463
Si Si4 0.552645 0.750000 0.286985
Si Si5 0.555073 0.106089 0.946383
Si Si6 0.064934 0.592638 0.727642
Si Si7 0.443801 0.750000 0.096009
Si Si8 0.949184 0.630835 0.405274
O O1 0.250000 0.318921 0.415339
O O2 0.514350 0.250000 0.422797
O O3 0.499520 0.346599 0.321992
O O4 0.498515 0.357155 0.497286
O O5 0.250000 0.024716 0.399784
O O6 0.453151 0.929452 0.373037
O O7 0.500000 0.000000 0.500000
O O8 0.555868 0.042217 0.347678
O O9 0.750000 0.526446 0.916428
O O10 0.492908 0.456286 0.892828
O O11 0.539216 0.563092 0.802762
O O12 0.471699 0.576231 0.960508
O O13 0.750000 0.750000 0.270326
O O14 0.464782 0.750000 0.197098
O O15 0.516007 0.810177 0.345461
O O16 0.750000 0.111564 0.927924
O O17 0.489755 0.179146 0.934092
O O18 0.250000 0.602481 0.758340
O O19 0.250000 0.750000 0.072060
O O20 0.750000 0.619629 0.404133
#
# Coordination Sequence:
#
# PCOD9451445 Si02
#       8
#     8   8   8   4   8   8   4   8
#     4  10  20  38  62  84 115 159 204 253 307 357
#     4  12  24  38  57  84 118 158 204 254 304 353
#     4  10  21  40  66  93 120 156 202 248 302 367
#     4  10  22  38  58  89 122 157 202 243 293 356
#     4   9  20  41  66  91 122 157 195 245 307 368
#     4  12  25  40  60  89 121 158 205 252 300 355
#     4  10  22  40  62  93 128 161 196 247 307 360
#     4  10  20  37  58  83 117 160 202 247 298 354
#
# _framework density 20.652729000000001
#
# number of rings (size 3 to 8) (size 9 to 14) (size 15 to 20)
#    0.000    1.571    2.143    3.000    2.000    2.000 
#    1.286    0.000    0.000    0.000    0.000    0.000 
#    0.000    0.000    0.000    0.000    0.000    0.000 
#
# Total GULP energy -312183.579706 kJ/mol
# GULP energy per Si atom -5574.706780 kJ/mol
# Density = 2.060572 g / cm^3
# Si number density = 20.652729 Si / 1000 Ang^3
#
#
#
# Elastic Constant Matrix: (Units=GPa)
#
#
# Indices 1 2 3 4 5 6 
#
# 1 26.3082 3.5728 -6.5360 0.0000 0.0000 0.0000
# 2 3.5728 122.2678 15.8497 0.0000 0.0000 0.0000
# 3 -6.5360 15.8497 64.9219 0.0000 0.0000 0.0000
# 4 0.0000 0.0000 0.0000 28.3966 0.0000 0.0000
# 5 0.0000 0.0000 0.0000 0.0000 25.3021 0.0000
# 6 0.0000 0.0000 0.0000 0.0000 0.0000 16.7356
#
#
#
# Elastic Compliance Matrix: (Units=1/GPa)
#
#
# Indices 1 2 3 4 5 6 
#
# 1 0.039332 -0.001717 0.004379 0.000000 0.000000 0.000000
# 2 -0.001717 0.008521 -0.002253 0.000000 0.000000 0.000000
# 3 0.004379 -0.002253 0.016394 0.000000 0.000000 0.000000
# 4 0.000000 0.000000 0.000000 0.035215 0.000000 0.000000
# 5 0.000000 0.000000 0.000000 0.000000 0.039522 0.000000
# 6 0.000000 0.000000 0.000000 0.000000 0.000000 0.059753
#
#
# Mechanical properties :
#
#
# Convention : Reuss Voigt Hill
#
# Bulk Modulus (GPa) = 15.36932 26.58566 20.97749
# Shear Modulus (GPa) = 22.76780 27.46096 25.11438
#
# Velocity S-wave (km/s) = 3.32386 3.65040 3.49095
# Velocity P-wave (km/s) = 4.71048 5.53786 5.14084
#
# Compressibility (1/GPa) = 0.06506470
#
# Stress axis : x y z
#
# Youngs Moduli (GPa) = 25.42457 117.35684 60.99779
#
# Poissons Ratio (x) = 0.20150 -0.26710
# Poissons Ratio (y) = 0.04365 0.13744
# Poissons Ratio (z) = -0.11133 0.26442
#
# Static dielectric constant tensor:
#      x y z
#    x 1.756850 0.000000 0.000000 
#    y 0.000000 1.773980 0.000000 
#    z 0.000000 0.000000 1.710170 
# 
# From -- ./inp_files/21171.got.cif
#   From: 2010.05.17/outbox.cif.g08.bks.cpg/sg59_11_cif.got.tgz:21171.got - 2010.06.03 14:40:33.
