data_PCOD9451775
_publ_section_title
;
Structure prediction by ZEFSAII (Michael W. Deem and Ramdas Pophale) SiO2 
 PCOD9451775
Probable space group: P M M N
;
_chemical_formula_sum "Si O2"
_cell_formula_units_Z 64
_cell_length_a 19.607463
_cell_length_b 8.618489
_cell_length_c 21.308398
_cell_angle_alpha 90.000000
_cell_angle_beta 90.000000
_cell_angle_gamma 90.000000
_cell_volume 3600.835949
_symmetry_space_group_name_H-M "P M M N"
_symmetry_group_IT_number 59
_space_group.IT_coordinate_system_code '2'
_symmetry_cell_setting 'orthorhombic'
loop_
_space_group_symop_operation_xyz
x,y,z
1/2-x,1/2-y,z
1/2+x,-y,-z
-x,1/2+y,-z
-x,-y,-z
1/2+x,1/2+y,-z
1/2-x,y,z
x,1/2-y,z
loop_
_atom_site_type_symbol
_atom_site_label
_atom_site_fract_x
_atom_site_fract_y
_atom_site_fract_z
Si Si1 0.423735 0.565437 0.251806
Si Si2 0.575101 0.064032 0.255203
Si Si3 0.576830 0.562387 0.885426
Si Si4 0.328385 0.437310 0.999505
Si Si5 0.919280 0.063342 0.112055
Si Si6 0.829856 0.938098 0.638240
Si Si7 0.170310 0.061903 0.635855
Si Si8 0.667089 0.569089 0.501202
O O1 0.423827 0.750000 0.250849
O O2 0.499793 0.503685 0.265135
O O3 0.404621 0.502413 0.182826
O O4 0.373685 0.504105 0.305376
O O5 0.571137 0.250000 0.257246
O O6 0.596668 0.019851 0.184171
O O7 0.625830 0.003307 0.307947
O O8 0.577867 0.750000 0.881860
O O9 0.498296 0.516656 0.899914
O O10 0.628210 0.511054 0.939802
O O11 0.250000 0.491430 0.000893
O O12 0.327736 0.250000 0.000445
O O13 0.368139 0.491271 0.937720
O O14 0.915960 0.250000 0.107168
O O15 0.750000 0.978081 0.645582
O O16 0.834168 0.750000 0.638132
O O17 0.853603 0.995897 0.569011
O O18 0.250000 0.020403 0.643547
O O19 0.166593 0.250000 0.635509
O O20 0.146517 0.004088 0.566654
O O21 0.750000 0.567169 0.501172
O O22 0.646507 0.750000 0.501204
#
# Coordination Sequence:
#
# PCOD9451775 Si02
#       8
#     8   8   8   8   8   8   8   8
#     4  11  22  35  53  78 106 134 170 217 264 305
#     4  10  21  37  54  74 103 139 179 215 253 308
#     4   9  19  37  56  74 100 135 173 206 245 304
#     4  10  21  35  53  79 107 132 162 204 250 298
#     4   9  19  35  54  73  96 132 173 211 248 292
#     4   9  17  32  55  78 102 137 175 209 253 311
#     4   9  17  31  53  80 107 134 169 216 264 306
#     4   7  12  26  49  75 101 132 171 210 251 305
#
# _framework density 17.773651000000001
#
# number of rings (size 3 to 8) (size 9 to 14) (size 15 to 20)
#    0.000    2.750    0.000    4.125    0.000    4.750 
#    0.000    5.000    0.000    2.250    0.000    0.000 
#    0.000    0.000    0.000    0.000    0.000    0.000 
#
# Total GULP energy -356763.861865 kJ/mol
# GULP energy per Si atom -5574.435342 kJ/mol
# Density = 1.773320 g / cm^3
# Si number density = 17.773651 Si / 1000 Ang^3
#
#
#
# Elastic Constant Matrix: (Units=GPa)
#
#
# Indices 1 2 3 4 5 6 
#
# 1 96.5233 29.2008 114.4603 0.0000 0.0000 0.0000
# 2 29.2008 19.9329 36.3702 0.0000 0.0000 0.0000
# 3 114.4603 36.3702 188.3834 0.0000 0.0000 0.0000
# 4 0.0000 0.0000 0.0000 23.0940 0.0000 0.0000
# 5 0.0000 0.0000 0.0000 0.0000 38.7965 0.0000
# 6 0.0000 0.0000 0.0000 0.0000 0.0000 24.3381
#
#
#
# Elastic Compliance Matrix: (Units=1/GPa)
#
#
# Indices 1 2 3 4 5 6 
#
# 1 0.043345 -0.023844 -0.021732 0.000000 0.000000 0.000000
# 2 -0.023844 0.090570 -0.002998 0.000000 0.000000 0.000000
# 3 -0.021732 -0.002998 0.019092 0.000000 0.000000 0.000000
# 4 0.000000 0.000000 0.000000 0.043301 0.000000 0.000000
# 5 0.000000 0.000000 0.000000 0.000000 0.025776 0.000000
# 6 0.000000 0.000000 0.000000 0.000000 0.000000 0.041088
#
#
# Mechanical properties :
#
#
# Convention : Reuss Voigt Hill
#
# Bulk Modulus (GPa) = 17.90314 73.87801 45.89058
# Shear Modulus (GPa) = 13.19473 25.56626 19.38049
#
# Velocity S-wave (km/s) = 2.72761 3.79679 3.30571
# Velocity P-wave (km/s) = 4.47376 7.80237 6.35970
#
# Compressibility (1/GPa) = 0.05585612
#
# Stress axis : x y z
#
# Youngs Moduli (GPa) = 23.07088 11.04122 52.37912
#
# Poissons Ratio (x) = 0.26327 1.13832
# Poissons Ratio (y) = 0.55011 0.15704
# Poissons Ratio (z) = 0.50139 0.03310
#
# Static dielectric constant tensor:
#      x y z
#    x 1.583170 0.000000 0.000000 
#    y 0.000000 1.606220 0.000000 
#    z 0.000000 0.000000 1.617780 
# 
# From -- ./inp_files/30740.got.cif
#   From: 2010.05.17/outbox.cif.g08.bks.cpg/sg59_16_cif.got.tgz:30740.got - 2010.06.03 14:40:33.
