data_PCOD9451641
_publ_section_title
;
Structure prediction by ZEFSAII (Michael W. Deem and Ramdas Pophale) SiO2 
 PCOD9451641
Probable space group: P M M N
;
_chemical_formula_sum "Si O2"
_cell_formula_units_Z 48
_cell_length_a 15.282461
_cell_length_b 8.704411
_cell_length_c 19.419947
_cell_angle_alpha 90.000000
_cell_angle_beta 90.000000
_cell_angle_gamma 90.000000
_cell_volume 2583.334986
_symmetry_space_group_name_H-M "P M M N"
_symmetry_group_IT_number 59
_space_group.IT_coordinate_system_code '2'
_symmetry_cell_setting 'orthorhombic'
loop_
_space_group_symop_operation_xyz
x,y,z
1/2-x,1/2-y,z
1/2+x,-y,-z
-x,1/2+y,-z
-x,-y,-z
1/2+x,1/2+y,-z
1/2-x,y,z
x,1/2-y,z
loop_
_atom_site_type_symbol
_atom_site_label
_atom_site_fract_x
_atom_site_fract_y
_atom_site_fract_z
Si Si1 0.389357 0.934523 0.344323
Si Si2 0.646497 0.067117 0.164225
Si Si3 0.250000 0.564978 0.073201
Si Si4 0.405880 0.432490 0.981757
Si Si5 0.250000 0.936105 0.231068
Si Si6 0.750000 0.933273 0.551418
Si Si7 0.750000 0.064150 0.398248
Si Si8 0.422693 0.564498 0.687767
O O1 0.387363 0.750000 0.348746
O O2 0.334881 0.981857 0.275687
O O3 0.334441 0.002607 0.407762
O O4 0.487945 0.993206 0.339864
O O5 0.750000 0.045106 0.176736
O O6 0.633039 0.250000 0.152945
O O7 0.594706 0.020435 0.232782
O O8 0.618435 0.978576 0.096129
O O9 0.250000 0.750000 0.071986
O O10 0.250000 0.510720 0.152528
O O11 0.334155 0.504583 0.032540
O O12 0.405679 0.250000 0.989049
O O13 0.500000 0.500000 0.000000
O O14 0.250000 0.750000 0.229111
O O15 0.750000 0.750000 0.553905
O O16 0.750000 0.992222 0.473603
O O17 0.750000 0.250000 0.403650
O O18 0.662617 0.019941 0.356427
O O19 0.428850 0.750000 0.685514
#
# Coordination Sequence:
#
# PCOD9451641 Si02
#       8
#     8   8   4   8   4   4   4   8
#     4  10  21  40  63  90 121 158 197 242 301 360
#     4  10  20  39  64  88 120 161 200 249 307 361
#     4  11  22  41  63  87 121 157 198 256 313 364
#     4  12  26  42  60  88 121 163 210 254 306 365
#     4   8  19  38  60  84 114 152 194 242 302 360
#     4  11  23  41  64  90 120 157 201 248 295 352
#     4  10  21  40  63  89 125 162 197 244 296 352
#     4  10  21  38  62  93 123 158 202 245 297 357
#
# _framework density 18.580634
#
# number of rings (size 3 to 8) (size 9 to 14) (size 15 to 20)
#    0.000    1.667    1.667    3.500    2.333    2.000 
#    0.000    4.167    0.000    0.000    0.000    0.000 
#    0.000    0.000    0.000    0.000    0.000    0.000 
#
# Total GULP energy -268237.142226 kJ/mol
# GULP energy per Si atom -5588.273796 kJ/mol
# Density = 1.853834 g / cm^3
# Si number density = 18.580634 Si / 1000 Ang^3
#
#
#
# Elastic Constant Matrix: (Units=GPa)
#
#
# Indices 1 2 3 4 5 6 
#
# 1 158.3599 48.2945 70.3330 0.0000 0.0000 0.0000
# 2 48.2945 68.3098 47.6218 0.0000 0.0000 0.0000
# 3 70.3330 47.6218 152.9526 0.0000 0.0000 0.0000
# 4 0.0000 0.0000 0.0000 18.3978 0.0000 0.0000
# 5 0.0000 0.0000 0.0000 0.0000 37.1199 0.0000
# 6 0.0000 0.0000 0.0000 0.0000 0.0000 29.6348
#
#
#
# Elastic Compliance Matrix: (Units=1/GPa)
#
#
# Indices 1 2 3 4 5 6 
#
# 1 0.008850 -0.004368 -0.002710 0.000000 0.000000 0.000000
# 2 -0.004368 0.020853 -0.004484 0.000000 0.000000 0.000000
# 3 -0.002710 -0.004484 0.009180 0.000000 0.000000 0.000000
# 4 0.000000 0.000000 0.000000 0.054354 0.000000 0.000000
# 5 0.000000 0.000000 0.000000 0.000000 0.026940 0.000000
# 6 0.000000 0.000000 0.000000 0.000000 0.000000 0.033744
#
#
# Mechanical properties :
#
#
# Convention : Reuss Voigt Hill
#
# Bulk Modulus (GPa) = 63.45130 79.12453 71.28792
# Shear Modulus (GPa) = 27.42745 31.25536 29.34141
#
# Velocity S-wave (km/s) = 3.84621 4.10585 3.97815
# Velocity P-wave (km/s) = 7.34491 8.07181 7.71693
#
# Compressibility (1/GPa) = 0.01576012
#
# Stress axis : x y z
#
# Youngs Moduli (GPa) = 112.99040 47.95373 108.93099
#
# Poissons Ratio (x) = 0.20946 0.29517
# Poissons Ratio (y) = 0.49355 0.48846
# Poissons Ratio (z) = 0.30617 0.21503
#
# Static dielectric constant tensor:
#      x y z
#    x 1.611030 0.000000 0.000000 
#    y 0.000000 1.622710 0.000000 
#    z 0.000000 0.000000 1.624270 
# 
# From -- ./inp_files/27546.got.cif
#   From: 2010.05.17/outbox.cif.g08.bks.cpg/sg59_14_cif.got.tgz:27546.got - 2010.06.03 14:40:33.
