data_PCOD9451831
_publ_section_title
;
Structure prediction by ZEFSAII (Michael W. Deem and Ramdas Pophale) SiO2 
 PCOD9451831
Probable space group: P M M N
;
_chemical_formula_sum "Si O2"
_cell_formula_units_Z 48
_cell_length_a 14.289153
_cell_length_b 7.668748
_cell_length_c 21.638672
_cell_angle_alpha 90.000000
_cell_angle_beta 90.000000
_cell_angle_gamma 90.000000
_cell_volume 2371.163806
_symmetry_space_group_name_H-M "P M M N"
_symmetry_group_IT_number 59
_space_group.IT_coordinate_system_code '2'
_symmetry_cell_setting 'orthorhombic'
loop_
_space_group_symop_operation_xyz
x,y,z
1/2-x,1/2-y,z
1/2+x,-y,-z
-x,1/2+y,-z
-x,-y,-z
1/2+x,1/2+y,-z
1/2-x,y,z
x,1/2-y,z
loop_
_atom_site_type_symbol
_atom_site_label
_atom_site_fract_x
_atom_site_fract_y
_atom_site_fract_z
Si Si1 0.456476 0.954487 0.657944
Si Si2 0.960181 0.540601 0.095887
Si Si3 0.360214 0.960924 0.534566
Si Si4 0.855239 0.460328 0.970002
Si Si5 0.644268 0.543810 0.216142
Si Si6 0.357013 0.960716 0.397082
O O1 0.435670 0.750000 0.658005
O O2 0.414240 0.030385 0.594088
O O3 0.408503 0.025766 0.719007
O O4 0.567383 0.981185 0.652587
O O5 0.968973 0.750000 0.101174
O O6 0.916538 0.470880 0.159327
O O7 0.062818 0.474178 0.075657
O O8 0.890545 0.503663 0.038957
O O9 0.250000 0.996759 0.542031
O O10 0.370960 0.750000 0.533304
O O11 0.386969 0.024106 0.465939
O O12 0.750000 0.525395 0.959028
O O13 0.852996 0.250000 0.965202
O O14 0.750000 0.471543 0.219038
O O15 0.652933 0.750000 0.204221
O O16 0.250000 0.017231 0.386348
O O17 0.356475 0.750000 0.398377
#
# Coordination Sequence:
#
# PCOD9451831 Si02
#       6
#     8   8   8   8   8   8
#     4  11  21  32  50  75 103 132 163 206 255 300
#     4   9  18  33  52  74 102 136 171 205 242 286
#     4   8  15  29  49  73  99 127 161 202 250 302
#     4   9  17  30  51  79 106 129 159 204 253 297
#     4  10  21  36  52  71  99 135 172 206 241 292
#     4   9  18  34  54  72  94 128 168 208 251 302
#
# _framework density 20.243224999999999
#
# number of rings (size 3 to 8) (size 9 to 14) (size 15 to 20)
#    0.000    2.667    0.000    3.000    0.000    3.000 
#    0.000    1.667    0.000    5.000    0.000    0.000 
#    0.000    0.000    0.000    0.000    0.000    0.000 
#
# Total GULP energy -267816.871282 kJ/mol
# GULP energy per Si atom -5579.518152 kJ/mol
# Density = 2.019715 g / cm^3
# Si number density = 20.243225 Si / 1000 Ang^3
#
#
#
# Elastic Constant Matrix: (Units=GPa)
#
#
# Indices 1 2 3 4 5 6 
#
# 1 161.3918 -2.9773 101.5080 0.0000 0.0000 0.0000
# 2 -2.9773 32.7662 -3.7783 0.0000 0.0000 0.0000
# 3 101.5080 -3.7783 118.4233 0.0000 0.0000 0.0000
# 4 0.0000 0.0000 0.0000 5.2425 0.0000 0.0000
# 5 0.0000 0.0000 0.0000 0.0000 21.6820 0.0000
# 6 0.0000 0.0000 0.0000 0.0000 0.0000 11.6885
#
#
#
# Elastic Compliance Matrix: (Units=1/GPa)
#
#
# Indices 1 2 3 4 5 6 
#
# 1 0.013444 -0.000108 -0.011527 0.000000 0.000000 0.000000
# 2 -0.000108 0.030633 0.001070 0.000000 0.000000 0.000000
# 3 -0.011527 0.001070 0.018359 0.000000 0.000000 0.000000
# 4 0.000000 0.000000 0.000000 0.190750 0.000000 0.000000
# 5 0.000000 0.000000 0.000000 0.000000 0.046121 0.000000
# 6 0.000000 0.000000 0.000000 0.000000 0.000000 0.085554
#
#
# Mechanical properties :
#
#
# Convention : Reuss Voigt Hill
#
# Bulk Modulus (GPa) = 24.20983 55.78734 39.99859
# Shear Modulus (GPa) = 11.91153 22.24452 17.07803
#
# Velocity S-wave (km/s) = 2.42837 3.31851 2.90770
# Velocity P-wave (km/s) = 4.45512 6.50397 5.57448
#
# Compressibility (1/GPa) = 0.04130553
#
# Stress axis : x y z
#
# Youngs Moduli (GPa) = 74.38091 32.64474 54.46847
#
# Poissons Ratio (x) = 0.00351 0.62788
# Poissons Ratio (y) = 0.00800 -0.05826
# Poissons Ratio (z) = 0.85742 -0.03492
#
# Static dielectric constant tensor:
#      x y z
#    x 1.738040 0.000000 0.000000 
#    y 0.000000 1.742980 0.000000 
#    z 0.000000 0.000000 1.696700 
# 
# From -- ./inp_files/27377.got.cif
#   From: 2010.05.17/outbox.cif.g08.bks.cpg/sg59_14_cif.got.tgz:27377.got - 2010.06.03 14:40:33.
