data_PCOD9451415
_publ_section_title
;
Structure prediction by ZEFSAII (Michael W. Deem and Ramdas Pophale) SiO2 
 PCOD9451415
Probable space group: P M M N
;
_chemical_formula_sum "Si O2"
_cell_formula_units_Z 52
_cell_length_a 13.740914
_cell_length_b 19.460888
_cell_length_c 9.269104
_cell_angle_alpha 90.000000
_cell_angle_beta 90.000000
_cell_angle_gamma 90.000000
_cell_volume 2478.654700
_symmetry_space_group_name_H-M "P M M N"
_symmetry_group_IT_number 59
_space_group.IT_coordinate_system_code '2'
_symmetry_cell_setting 'orthorhombic'
loop_
_space_group_symop_operation_xyz
x,y,z
1/2-x,1/2-y,z
1/2+x,-y,-z
-x,1/2+y,-z
-x,-y,-z
1/2+x,1/2+y,-z
1/2-x,y,z
x,1/2-y,z
loop_
_atom_site_type_symbol
_atom_site_label
_atom_site_fract_x
_atom_site_fract_y
_atom_site_fract_z
Si Si1 0.085070 0.250000 0.213447
Si Si2 0.637662 0.172048 0.986995
Si Si3 0.140372 0.865055 0.341758
Si Si4 0.953918 0.860083 0.531171
Si Si5 0.136237 0.172087 0.766427
Si Si6 0.060131 0.384600 0.038955
Si Si7 0.862902 0.972744 0.712184
O O1 0.064833 0.309181 0.337275
O O2 0.103951 0.312269 0.096278
O O3 0.750000 0.154747 0.018255
O O4 0.617357 0.250000 0.040110
O O5 0.626743 0.171023 0.813474
O O6 0.556370 0.123433 0.054510
O O7 0.250000 0.849353 0.391855
O O8 0.059449 0.849258 0.460008
O O9 0.133426 0.945964 0.305790
O O10 0.881073 0.845920 0.399772
O O11 0.931423 0.934734 0.596968
O O12 0.250000 0.171166 0.799046
O O13 0.097967 0.250000 0.786457
O O14 0.084054 0.117450 0.869876
O O15 0.102907 0.446630 0.130718
O O16 0.750000 0.950787 0.691512
#
# Coordination Sequence:
#
# PCOD9451415 Si02
#       7
#     4   8   8   8   8   8   8
#     4  10  22  34  58  86 120 150 192 242 300 362
#     4  10  20  36  63  90 117 154 198 250 305 351
#     4  10  22  40  64  89 117 159 208 246 292 359
#     4  11  21  39  60  87 121 159 197 246 301 348
#     4  11  21  34  57  87 120 155 200 246 289 349
#     4  11  20  39  60  86 121 159 195 245 300 352
#     4  10  23  41  60  88 125 163 200 240 297 358
#
# _framework density 20.979122
#
# number of rings (size 3 to 8) (size 9 to 14) (size 15 to 20)
#    0.000    1.538    3.846    1.385    1.077    0.615 
#    0.000    6.154    0.000    0.923    0.000    0.000 
#    0.000    0.000    0.000    0.000    0.000    0.000 
#
# Total GULP energy -289501.983117 kJ/mol
# GULP energy per Si atom -5567.345829 kJ/mol
# Density = 2.093137 g / cm^3
# Si number density = 20.979122 Si / 1000 Ang^3
#
#
#
# Elastic Constant Matrix: (Units=GPa)
#
#
# Indices 1 2 3 4 5 6 
#
# 1 81.5348 -9.8586 -5.7335 0.0000 0.0000 0.0000
# 2 -9.8586 36.7453 0.0227 0.0000 0.0000 0.0000
# 3 -5.7335 0.0227 31.1599 0.0000 0.0000 0.0000
# 4 0.0000 0.0000 0.0000 20.0887 0.0000 0.0000
# 5 0.0000 0.0000 0.0000 0.0000 20.7772 0.0000
# 6 0.0000 0.0000 0.0000 0.0000 0.0000 17.9130
#
#
#
# Elastic Compliance Matrix: (Units=1/GPa)
#
#
# Indices 1 2 3 4 5 6 
#
# 1 0.012847 0.003445 0.002361 0.000000 0.000000 0.000000
# 2 0.003445 0.028138 0.000613 0.000000 0.000000 0.000000
# 3 0.002361 0.000613 0.032527 0.000000 0.000000 0.000000
# 4 0.000000 0.000000 0.000000 0.049779 0.000000 0.000000
# 5 0.000000 0.000000 0.000000 0.000000 0.048130 0.000000
# 6 0.000000 0.000000 0.000000 0.000000 0.000000 0.055825
#
#
# Mechanical properties :
#
#
# Convention : Reuss Voigt Hill
#
# Bulk Modulus (GPa) = 11.58037 13.14458 12.36247
# Shear Modulus (GPa) = 20.56004 22.75642 21.65823
#
# Velocity S-wave (km/s) = 3.13393 3.29708 3.21654
# Velocity P-wave (km/s) = 4.31593 4.55779 4.43851
#
# Compressibility (1/GPa) = 0.08635301
#
# Stress axis : x y z
#
# Youngs Moduli (GPa) = 77.83703 35.53867 30.74403
#
# Poissons Ratio (x) = -0.12245 -0.07260
# Poissons Ratio (y) = -0.26818 -0.01886
# Poissons Ratio (z) = -0.18381 -0.02180
#
# Static dielectric constant tensor:
#      x y z
#    x 1.803120 0.000000 0.000000 
#    y 0.000000 1.768720 0.000000 
#    z 0.000000 0.000000 1.714410 
# 
# From -- ./inp_files/9466.got.cif
#   From: 2010.05.17/outbox.cif.g08.bks.cpg/sg59_5_cif.got.tgz:9466.got - 2010.06.03 14:40:33.
