data_PCOD9451786
_publ_section_title
;
Structure prediction by ZEFSAII (Michael W. Deem and Ramdas Pophale) SiO2 
 PCOD9451786
Probable space group: P M M N
;
_chemical_formula_sum "Si O2"
_cell_formula_units_Z 64
_cell_length_a 8.968377
_cell_length_b 19.083105
_cell_length_c 21.340737
_cell_angle_alpha 90.000000
_cell_angle_beta 90.000000
_cell_angle_gamma 90.000000
_cell_volume 3652.349336
_symmetry_space_group_name_H-M "P M M N"
_symmetry_group_IT_number 59
_space_group.IT_coordinate_system_code '2'
_symmetry_cell_setting 'orthorhombic'
loop_
_space_group_symop_operation_xyz
x,y,z
1/2-x,1/2-y,z
1/2+x,-y,-z
-x,1/2+y,-z
-x,-y,-z
1/2+x,1/2+y,-z
1/2-x,y,z
x,1/2-y,z
loop_
_atom_site_type_symbol
_atom_site_label
_atom_site_fract_x
_atom_site_fract_y
_atom_site_fract_z
Si Si1 0.427424 0.965742 0.692582
Si Si2 0.927511 0.668553 0.893172
Si Si3 0.428924 0.170222 0.254120
Si Si4 0.927990 0.963192 0.440247
Si Si5 0.428557 0.923499 0.999105
Si Si6 0.429307 0.669495 0.381069
Si Si7 0.429350 0.901349 0.248710
Si Si8 0.568335 0.169499 0.881515
O O1 0.250000 0.965874 0.699871
O O2 0.492486 0.889639 0.706441
O O3 0.463306 0.992219 0.622481
O O4 0.498585 0.023136 0.739170
O O5 0.750000 0.656782 0.901216
O O6 0.958141 0.750000 0.908750
O O7 0.961754 0.658916 0.819673
O O8 0.018352 0.617858 0.937743
O O9 0.250000 0.165236 0.261136
O O10 0.473030 0.250000 0.270147
O O11 0.750000 0.959830 0.446973
O O12 0.993258 0.886073 0.426661
O O13 0.000000 0.000000 0.500000
O O14 0.250000 0.929194 0.000361
O O15 0.476896 0.878050 0.059738
O O16 0.500000 0.000000 0.000000
O O17 0.250000 0.664201 0.387894
O O18 0.472962 0.750000 0.391380
O O19 0.464984 0.646056 0.309617
O O20 0.250000 0.909300 0.246666
O O21 0.478132 0.864804 0.184400
O O22 0.750000 0.170912 0.881099
O O23 0.517642 0.250000 0.887166
#
# Coordination Sequence:
#
# PCOD9451786 Si02
#       8
#     8   8   8   8   8   8   8   8
#     4  10  21  35  53  81 113 140 170 215 265 312
#     4   9  19  37  58  77 100 133 175 224 275 325
#     4   9  19  36  58  81 104 135 178 224 269 323
#     4  10  21  37  56  79 110 147 184 220 260 309
#     4  11  23  36  51  74 105 141 181 226 270 319
#     4   9  17  31  54  83 111 139 176 220 264 313
#     4   9  17  31  54  80 105 138 175 213 260 316
#     4   9  18  33  53  76 101 132 174 220 262 309
#
# _framework density 17.522967999999999
#
# number of rings (size 3 to 8) (size 9 to 14) (size 15 to 20)
#    0.000    2.500    0.000    2.625    1.750    4.750 
#    0.000    2.500    0.000    3.375    0.000    0.000 
#    0.000    0.000    0.000    0.000    0.000    0.000 
#
# Total GULP energy -357146.633632 kJ/mol
# GULP energy per Si atom -5580.416150 kJ/mol
# Density = 1.748308 g / cm^3
# Si number density = 17.522968 Si / 1000 Ang^3
#
#
#
# Elastic Constant Matrix: (Units=GPa)
#
#
# Indices 1 2 3 4 5 6 
#
# 1 30.5886 57.3196 36.4479 0.0000 0.0000 0.0000
# 2 57.3196 175.8104 87.1682 0.0000 0.0000 0.0000
# 3 36.4479 87.1682 71.7074 0.0000 0.0000 0.0000
# 4 0.0000 0.0000 0.0000 27.3894 0.0000 0.0000
# 5 0.0000 0.0000 0.0000 0.0000 26.0588 0.0000
# 6 0.0000 0.0000 0.0000 0.0000 0.0000 29.7719
#
#
#
# Elastic Compliance Matrix: (Units=1/GPa)
#
#
# Indices 1 2 3 4 5 6 
#
# 1 0.103754 -0.019330 -0.029239 0.000000 0.000000 0.000000
# 2 -0.019330 0.017918 -0.011956 0.000000 0.000000 0.000000
# 3 -0.029239 -0.011956 0.043341 0.000000 0.000000 0.000000
# 4 0.000000 0.000000 0.000000 0.036510 0.000000 0.000000
# 5 0.000000 0.000000 0.000000 0.000000 0.038375 0.000000
# 6 0.000000 0.000000 0.000000 0.000000 0.000000 0.033589
#
#
# Mechanical properties :
#
#
# Convention : Reuss Voigt Hill
#
# Bulk Modulus (GPa) = 22.74639 71.10865 46.92752
# Shear Modulus (GPa) = 12.21920 23.12206 17.67063
#
# Velocity S-wave (km/s) = 2.64356 3.63647 3.17902
# Velocity P-wave (km/s) = 4.72514 7.63546 6.34930
#
# Compressibility (1/GPa) = 0.04396301
#
# Stress axis : x y z
#
# Youngs Moduli (GPa) = 9.63821 55.80923 23.07260
#
# Poissons Ratio (x) = 1.07880 0.67461
# Poissons Ratio (y) = 0.18631 0.27586
# Poissons Ratio (z) = 0.28181 0.66727
#
# Static dielectric constant tensor:
#      x y z
#    x 1.586520 0.000000 0.000000 
#    y 0.000000 1.569310 0.000000 
#    z 0.000000 0.000000 1.579370 
# 
# From -- ./inp_files/29494.got.cif
#   From: 2010.05.17/outbox.cif.g08.bks.cpg/sg59_15_cif.got.tgz:29494.got - 2010.06.03 14:40:33.
