data_PCOD9451998
_publ_section_title
;
Structure prediction by ZEFSAII (Michael W. Deem and Ramdas Pophale) SiO2 
 PCOD9451998
Probable space group: P M M N
;
_chemical_formula_sum "Si O2"
_cell_formula_units_Z 56
_cell_length_a 7.752797
_cell_length_b 22.304241
_cell_length_c 14.041821
_cell_angle_alpha 90.000000
_cell_angle_beta 90.000000
_cell_angle_gamma 90.000000
_cell_volume 2428.115236
_symmetry_space_group_name_H-M "P M M N"
_symmetry_group_IT_number 59
_space_group.IT_coordinate_system_code '2'
_symmetry_cell_setting 'orthorhombic'
loop_
_space_group_symop_operation_xyz
x,y,z
1/2-x,1/2-y,z
1/2+x,-y,-z
-x,1/2+y,-z
-x,-y,-z
1/2+x,1/2+y,-z
1/2-x,y,z
x,1/2-y,z
loop_
_atom_site_type_symbol
_atom_site_label
_atom_site_fract_x
_atom_site_fract_y
_atom_site_fract_z
Si Si1 0.049039 0.864158 0.107790
Si Si2 0.047482 0.184647 0.300751
Si Si3 0.953230 0.435684 0.406553
Si Si4 0.040654 0.871156 0.889427
Si Si5 0.455699 0.496794 0.887969
Si Si6 0.950259 0.814461 0.298290
Si Si7 0.448215 0.063713 0.622569
O O1 0.250000 0.847980 0.106628
O O2 0.031752 0.933362 0.142825
O O3 0.956560 0.823285 0.184667
O O4 0.983893 0.861321 0.998696
O O5 0.250000 0.183863 0.322337
O O6 0.977289 0.250000 0.329602
O O7 0.970192 0.126130 0.350480
O O8 0.021696 0.175840 0.187756
O O9 0.750000 0.445667 0.425076
O O10 0.016941 0.496937 0.355084
O O11 0.045589 0.431919 0.508156
O O12 0.250000 0.871394 0.890756
O O13 0.985152 0.937700 0.854228
O O14 0.250000 0.493377 0.874851
O O15 0.500000 0.500000 0.000000
O O16 0.750000 0.813202 0.329423
O O17 0.027692 0.750000 0.324190
O O18 0.031983 0.875006 0.340290
O O19 0.250000 0.064087 0.657887
#
# Coordination Sequence:
#
# PCOD9451998 Si02
#       7
#     8   8   8   8   8   8   8
#     4  10  21  36  55  83 118 158 201 248 298 349
#     4  11  25  41  58  85 120 158 201 247 296 354
#     4  10  21  39  65  93 120 152 193 243 297 355
#     4   9  20  37  56  80 114 155 198 245 296 348
#     4   9  17  31  52  79 110 144 189 242 295 347
#     4  10  22  39  59  85 119 161 202 243 295 352
#     4   9  20  40  64  91 122 155 194 240 294 357
#
# _framework density 23.063155999999999
#
# number of rings (size 3 to 8) (size 9 to 14) (size 15 to 20)
#    0.000    2.286    0.000    2.571    2.000    7.143 
#    0.000    4.286    0.000    0.000    0.000    0.000 
#    0.000    0.000    0.000    0.000    0.000    0.000 
#
# Total GULP energy -312607.696973 kJ/mol
# GULP energy per Si atom -5582.280303 kJ/mol
# Density = 2.301066 g / cm^3
# Si number density = 23.063156 Si / 1000 Ang^3
#
#
#
# Elastic Constant Matrix: (Units=GPa)
#
#
# Indices 1 2 3 4 5 6 
#
# 1 45.1715 3.8654 -2.6844 0.0000 0.0000 0.0000
# 2 3.8654 200.5460 58.5773 0.0000 0.0000 0.0000
# 3 -2.6844 58.5773 59.0337 0.0000 0.0000 0.0000
# 4 0.0000 0.0000 0.0000 17.5371 0.0000 0.0000
# 5 0.0000 0.0000 0.0000 0.0000 20.1695 0.0000
# 6 0.0000 0.0000 0.0000 0.0000 0.0000 18.3117
#
#
#
# Elastic Compliance Matrix: (Units=1/GPa)
#
#
# Indices 1 2 3 4 5 6 
#
# 1 0.022346 -0.001024 0.002033 0.000000 0.000000 0.000000
# 2 -0.001024 0.007068 -0.007060 0.000000 0.000000 0.000000
# 3 0.002033 -0.007060 0.024038 0.000000 0.000000 0.000000
# 4 0.000000 0.000000 0.000000 0.057022 0.000000 0.000000
# 5 0.000000 0.000000 0.000000 0.000000 0.049580 0.000000
# 6 0.000000 0.000000 0.000000 0.000000 0.000000 0.054610
#
#
# Mechanical properties :
#
#
# Convention : Reuss Voigt Hill
#
# Bulk Modulus (GPa) = 24.18490 47.14089 35.66290
# Shear Modulus (GPa) = 20.78563 27.53652 24.16108
#
# Velocity S-wave (km/s) = 3.00534 3.45912 3.24018
# Velocity P-wave (km/s) = 4.74888 6.03642 5.43094
#
# Compressibility (1/GPa) = 0.04134811
#
# Stress axis : x y z
#
# Youngs Moduli (GPa) = 44.75016 141.47522 41.60138
#
# Poissons Ratio (x) = 0.14493 -0.08456
# Poissons Ratio (y) = 0.04584 0.29372
# Poissons Ratio (z) = -0.09096 0.99886
#
# Static dielectric constant tensor:
#      x y z
#    x 1.850630 0.000000 0.000000 
#    y 0.000000 1.911080 0.000000 
#    z 0.000000 0.000000 1.850970 
# 
# From -- ./inp_files/20977.got.cif
#   From: 2010.05.17/outbox.cif.g08.bks.cpg/sg59_11_cif.got.tgz:20977.got - 2010.06.03 14:40:33.
