data_PCOD9451841
_publ_section_title
;
Structure prediction by ZEFSAII (Michael W. Deem and Ramdas Pophale) SiO2 
 PCOD9451841
Probable space group: P M M N
;
_chemical_formula_sum "Si O2"
_cell_formula_units_Z 56
_cell_length_a 15.026401
_cell_length_b 7.470126
_cell_length_c 22.748294
_cell_angle_alpha 90.000000
_cell_angle_beta 90.000000
_cell_angle_gamma 90.000000
_cell_volume 2553.475728
_symmetry_space_group_name_H-M "P M M N"
_symmetry_group_IT_number 59
_space_group.IT_coordinate_system_code '2'
_symmetry_cell_setting 'orthorhombic'
loop_
_space_group_symop_operation_xyz
x,y,z
1/2-x,1/2-y,z
1/2+x,-y,-z
-x,1/2+y,-z
-x,-y,-z
1/2+x,1/2+y,-z
1/2-x,y,z
x,1/2-y,z
loop_
_atom_site_type_symbol
_atom_site_label
_atom_site_fract_x
_atom_site_fract_y
_atom_site_fract_z
Si Si1 0.850871 0.965684 0.522850
Si Si2 0.847757 0.457772 0.386665
Si Si3 0.345574 0.043860 0.887409
Si Si4 0.043529 0.536742 0.135091
Si Si5 0.603155 0.461663 0.985722
Si Si6 0.350825 0.465205 0.253406
Si Si7 0.461399 0.030091 0.365919
O O1 0.750000 0.011236 0.541821
O O2 0.856037 0.750000 0.519016
O O3 0.920449 0.026907 0.571616
O O4 0.862953 0.036426 0.457117
O O5 0.750000 0.538195 0.375372
O O6 0.843185 0.250000 0.369161
O O7 0.937295 0.533534 0.358763
O O8 0.250000 0.963809 0.868842
O O9 0.345534 0.250000 0.867265
O O10 0.441685 0.964887 0.868413
O O11 0.347468 0.043057 0.958642
O O12 0.035258 0.750000 0.124408
O O13 0.106979 0.471505 0.081495
O O14 0.089816 0.507782 0.196914
O O15 0.622886 0.250000 0.987409
O O16 0.500000 0.500000 0.000000
O O17 0.250000 0.532730 0.247717
O O18 0.346338 0.250000 0.257514
O O19 0.398835 0.527834 0.312731
O O20 0.462396 0.250000 0.366696
#
# Coordination Sequence:
#
# PCOD9451841 Si02
#       7
#     8   8   8   8   8   8   8
#     4   9  16  27  46  70  94 121 153 189 230 278
#     4   9  17  29  46  69  96 123 150 185 234 289
#     4   9  18  33  53  77 105 135 165 199 244 299
#     4   9  19  35  52  72 101 134 163 197 245 294
#     4   9  17  30  49  73 101 132 165 201 243 290
#     4  10  21  36  53  71  91 122 167 211 245 284
#     4   9  17  31  49  67  91 124 159 195 236 281
#
# _framework density 21.930890999999999
#
# number of rings (size 3 to 8) (size 9 to 14) (size 15 to 20)
#    0.000    2.857    0.000    2.143    0.000    5.714 
#    0.000    5.000    0.000    2.571    0.000    0.000 
#    0.000    0.000    0.000    0.000    0.000    0.000 
#
# Total GULP energy -312244.980211 kJ/mol
# GULP energy per Si atom -5575.803218 kJ/mol
# Density = 2.188098 g / cm^3
# Si number density = 21.930891 Si / 1000 Ang^3
#
#
#
# Elastic Constant Matrix: (Units=GPa)
#
#
# Indices 1 2 3 4 5 6 
#
# 1 173.6237 3.2675 40.9374 0.0000 0.0000 0.0000
# 2 3.2675 65.0139 -6.1760 0.0000 0.0000 0.0000
# 3 40.9374 -6.1760 31.4164 0.0000 0.0000 0.0000
# 4 0.0000 0.0000 0.0000 16.6466 0.0000 0.0000
# 5 0.0000 0.0000 0.0000 0.0000 23.5207 0.0000
# 6 0.0000 0.0000 0.0000 0.0000 0.0000 5.0478
#
#
#
# Elastic Compliance Matrix: (Units=1/GPa)
#
#
# Indices 1 2 3 4 5 6 
#
# 1 0.008455 -0.001500 -0.011312 0.000000 0.000000 0.000000
# 2 -0.001500 0.015940 0.005088 0.000000 0.000000 0.000000
# 3 -0.011312 0.005088 0.047571 0.000000 0.000000 0.000000
# 4 0.000000 0.000000 0.000000 0.060072 0.000000 0.000000
# 5 0.000000 0.000000 0.000000 0.000000 0.042516 0.000000
# 6 0.000000 0.000000 0.000000 0.000000 0.000000 0.198106
#
#
# Mechanical properties :
#
#
# Convention : Reuss Voigt Hill
#
# Bulk Modulus (GPa) = 17.69357 38.45685 28.07521
# Shear Modulus (GPa) = 12.28659 24.51137 18.39898
#
# Velocity S-wave (km/s) = 2.36951 3.34678 2.89961
# Velocity P-wave (km/s) = 3.94607 5.70159 4.90304
#
# Compressibility (1/GPa) = 0.05651772
#
# Stress axis : x y z
#
# Youngs Moduli (GPa) = 118.27323 62.73534 21.02123
#
# Poissons Ratio (x) = 0.09407 0.23779
# Poissons Ratio (y) = 0.17735 -0.10695
# Poissons Ratio (z) = 1.33792 -0.31917
#
# Static dielectric constant tensor:
#      x y z
#    x 1.841080 0.000000 0.000000 
#    y 0.000000 1.852550 0.000000 
#    z 0.000000 0.000000 1.761500 
# 
# From -- ./inp_files/30339.got.cif
#   From: 2010.05.17/outbox.cif.g08.bks.cpg/sg59_16_cif.got.tgz:30339.got - 2010.06.03 14:40:33.
