data_PCOD9451712
_publ_section_title
;
Structure prediction by ZEFSAII (Michael W. Deem and Ramdas Pophale) SiO2 
 PCOD9451712
Probable space group: P M M N
;
_chemical_formula_sum "Si O2"
_cell_formula_units_Z 64
_cell_length_a 7.987484
_cell_length_b 22.965819
_cell_length_c 18.312191
_cell_angle_alpha 90.000000
_cell_angle_beta 90.000000
_cell_angle_gamma 90.000000
_cell_volume 3359.172052
_symmetry_space_group_name_H-M "P M M N"
_symmetry_group_IT_number 59
_space_group.IT_coordinate_system_code '2'
_symmetry_cell_setting 'orthorhombic'
loop_
_space_group_symop_operation_xyz
x,y,z
1/2-x,1/2-y,z
1/2+x,-y,-z
-x,1/2+y,-z
-x,-y,-z
1/2+x,1/2+y,-z
1/2-x,y,z
x,1/2-y,z
loop_
_atom_site_type_symbol
_atom_site_label
_atom_site_fract_x
_atom_site_fract_y
_atom_site_fract_z
Si Si1 0.550633 0.579107 0.674117
Si Si2 0.057424 0.654286 0.407784
Si Si3 0.056298 0.026748 0.576952
Si Si4 0.451110 0.053818 0.167064
Si Si5 0.046655 0.081273 0.849812
Si Si6 0.947894 0.813465 0.249635
Si Si7 0.951460 0.567529 0.990632
Si Si8 0.452614 0.684609 0.570275
O O1 0.750000 0.569102 0.674033
O O2 0.467448 0.523301 0.636424
O O3 0.490294 0.582639 0.757717
O O4 0.514829 0.635512 0.625327
O O5 0.250000 0.673537 0.403943
O O6 0.989437 0.673005 0.487013
O O7 0.046909 0.584386 0.405911
O O8 0.968502 0.677999 0.336171
O O9 0.250000 0.044007 0.572697
O O10 0.000000 0.000000 0.500000
O O11 0.250000 0.058889 0.165364
O O12 0.515201 0.081570 0.090876
O O13 0.490888 0.984624 0.168199
O O14 0.250000 0.079974 0.847898
O O15 0.984564 0.130362 0.793699
O O16 0.992053 0.095977 0.933206
O O17 0.750000 0.812171 0.233601
O O18 0.018880 0.750000 0.229097
O O19 0.750000 0.572806 0.989520
O O20 0.000000 0.500000 0.000000
O O21 0.250000 0.680758 0.568897
O O22 0.500653 0.750000 0.591930
#
# Coordination Sequence:
#
# PCOD9451712 Si02
#       8
#     8   8   8   8   8   8   8   8
#     4  11  22  35  53  78 106 138 172 209 257 307
#     4  11  22  37  56  77 101 133 172 215 261 309
#     4  12  23  36  54  78 106 136 169 209 258 309
#     4   9  18  31  49  76 106 132 163 207 257 309
#     4   9  17  30  50  74 100 134 170 205 252 306
#     4  10  21  35  50  72 103 138 177 218 258 306
#     4   8  14  27  47  71 100 129 159 198 244 298
#     4  10  22  39  56  72  94 130 175 219 259 301
#
# _framework density 19.052313000000002
#
# number of rings (size 3 to 8) (size 9 to 14) (size 15 to 20)
#    0.000    2.000    1.250    3.000    0.000    5.000 
#    0.000    0.000    0.000    0.750    0.000    3.500 
#    0.000    0.000    0.000    0.000    0.000    0.000 
#
# Total GULP energy -357032.924175 kJ/mol
# GULP energy per Si atom -5578.639440 kJ/mol
# Density = 1.900895 g / cm^3
# Si number density = 19.052313 Si / 1000 Ang^3
#
#
#
# Elastic Constant Matrix: (Units=GPa)
#
#
# Indices 1 2 3 4 5 6 
#
# 1 24.3248 -8.0752 0.7971 0.0000 0.0000 0.0000
# 2 -8.0752 67.3970 28.5694 0.0000 0.0000 0.0000
# 3 0.7971 28.5694 139.4874 0.0000 0.0000 0.0000
# 4 0.0000 0.0000 0.0000 6.9302 0.0000 0.0000
# 5 0.0000 0.0000 0.0000 0.0000 16.1793 0.0000
# 6 0.0000 0.0000 0.0000 0.0000 0.0000 11.6479
#
#
#
# Elastic Compliance Matrix: (Units=1/GPa)
#
#
# Indices 1 2 3 4 5 6 
#
# 1 0.043071 0.005766 -0.001427 0.000000 0.000000 0.000000
# 2 0.005766 0.017020 -0.003519 0.000000 0.000000 0.000000
# 3 -0.001427 -0.003519 0.007898 0.000000 0.000000 0.000000
# 4 0.000000 0.000000 0.000000 0.144296 0.000000 0.000000
# 5 0.000000 0.000000 0.000000 0.000000 0.061807 0.000000
# 6 0.000000 0.000000 0.000000 0.000000 0.000000 0.085853
#
#
# Mechanical properties :
#
#
# Convention : Reuss Voigt Hill
#
# Bulk Modulus (GPa) = 14.36199 30.42130 22.39165
# Shear Modulus (GPa) = 13.10563 20.94600 17.02582
#
# Velocity S-wave (km/s) = 2.62558 3.31931 2.99262
# Velocity P-wave (km/s) = 4.09221 5.54007 4.87024
#
# Compressibility (1/GPa) = 0.06962822
#
# Stress axis : x y z
#
# Youngs Moduli (GPa) = 23.21742 58.75471 126.61445
#
# Poissons Ratio (x) = -0.33875 0.18068
# Poissons Ratio (y) = -0.13386 0.44555
# Poissons Ratio (z) = 0.03313 0.20675
#
# Static dielectric constant tensor:
#      x y z
#    x 1.707670 0.000000 0.000000 
#    y 0.000000 1.617950 0.000000 
#    z 0.000000 0.000000 1.706800 
# 
# From -- ./inp_files/26275.got.cif
#   From: 2010.05.17/outbox.cif.g08.bks.cpg/sg59_14_cif.got.tgz:26275.got - 2010.06.03 14:40:33.
