data_PCOD9451747
_publ_section_title
;
Structure prediction by ZEFSAII (Michael W. Deem and Ramdas Pophale) SiO2 
 PCOD9451747
Probable space group: P M M N
;
_chemical_formula_sum "Si O2"
_cell_formula_units_Z 56
_cell_length_a 14.574815
_cell_length_b 7.971658
_cell_length_c 22.178414
_cell_angle_alpha 90.000000
_cell_angle_beta 90.000000
_cell_angle_gamma 90.000000
_cell_volume 2576.808802
_symmetry_space_group_name_H-M "P M M N"
_symmetry_group_IT_number 59
_space_group.IT_coordinate_system_code '2'
_symmetry_cell_setting 'orthorhombic'
loop_
_space_group_symop_operation_xyz
x,y,z
1/2-x,1/2-y,z
1/2+x,-y,-z
-x,1/2+y,-z
-x,-y,-z
1/2+x,1/2+y,-z
1/2-x,y,z
x,1/2-y,z
loop_
_atom_site_type_symbol
_atom_site_label
_atom_site_fract_x
_atom_site_fract_y
_atom_site_fract_z
Si Si1 0.145983 0.050210 0.404018
Si Si2 0.966616 0.450280 0.844411
Si Si3 0.644493 0.047070 0.094421
Si Si4 0.142567 0.953753 0.040106
Si Si5 0.138295 0.443704 0.532636
Si Si6 0.460628 0.943835 0.286683
Si Si7 0.354934 0.945067 0.664645
O O1 0.250000 0.985361 0.395279
O O2 0.151746 0.250000 0.413561
O O3 0.106011 0.985559 0.467983
O O4 0.088002 0.021952 0.344437
O O5 0.950932 0.250000 0.842772
O O6 0.913483 0.519152 0.902823
O O7 0.938166 0.518145 0.779026
O O8 0.073376 0.481339 0.857142
O O9 0.750000 0.996188 0.103970
O O10 0.642356 0.250000 0.094934
O O11 0.614974 0.988764 0.027004
O O12 0.250000 0.992838 0.047298
O O13 0.134747 0.750000 0.039473
O O14 0.250000 0.444398 0.527316
O O15 0.109514 0.250000 0.541278
O O16 0.117728 0.539954 0.594033
O O17 0.433802 0.750000 0.286680
O O18 0.569489 0.959480 0.297126
O O19 0.250000 0.006762 0.670430
O O20 0.357100 0.750000 0.681808
#
# Coordination Sequence:
#
# PCOD9451747 Si02
#       7
#     8   8   8   8   8   8   8
#     4   9  19  37  59  81 107 139 174 216 266 316
#     4  10  21  35  52  76 105 139 177 215 255 299
#     4   9  18  33  55  81 105 133 169 209 259 314
#     4   8  15  31  55  80 105 133 167 209 258 310
#     4   8  15  31  56  82 105 131 166 213 270 322
#     4  11  24  37  51  76 108 145 185 218 256 310
#     4  10  21  37  57  79 103 135 177 224 271 318
#
# _framework density 21.732306000000001
#
# number of rings (size 3 to 8) (size 9 to 14) (size 15 to 20)
#    0.000    2.714    0.000    3.000    0.000    4.857 
#    0.000    5.714    0.000    1.286    0.000    0.000 
#    0.000    0.000    0.000    0.000    0.000    0.000 
#
# Total GULP energy -312543.607286 kJ/mol
# GULP energy per Si atom -5581.135844 kJ/mol
# Density = 2.168284 g / cm^3
# Si number density = 21.732306 Si / 1000 Ang^3
#
#
#
# Elastic Constant Matrix: (Units=GPa)
#
#
# Indices 1 2 3 4 5 6 
#
# 1 32.4190 -8.3732 11.6588 0.0000 0.0000 0.0000
# 2 -8.3732 18.2822 -3.5032 0.0000 0.0000 0.0000
# 3 11.6588 -3.5032 70.4697 0.0000 0.0000 0.0000
# 4 0.0000 0.0000 0.0000 15.6552 0.0000 0.0000
# 5 0.0000 0.0000 0.0000 0.0000 15.3584 0.0000
# 6 0.0000 0.0000 0.0000 0.0000 0.0000 13.3924
#
#
#
# Elastic Compliance Matrix: (Units=1/GPa)
#
#
# Indices 1 2 3 4 5 6 
#
# 1 0.036852 0.015861 -0.005308 0.000000 0.000000 0.000000
# 2 0.015861 0.062050 0.000461 0.000000 0.000000 0.000000
# 3 -0.005308 0.000461 0.015092 0.000000 0.000000 0.000000
# 4 0.000000 0.000000 0.000000 0.063876 0.000000 0.000000
# 5 0.000000 0.000000 0.000000 0.000000 0.065111 0.000000
# 6 0.000000 0.000000 0.000000 0.000000 0.000000 0.074669
#
#
# Mechanical properties :
#
#
# Convention : Reuss Voigt Hill
#
# Bulk Modulus (GPa) = 7.35190 13.41509 10.38349
# Shear Modulus (GPa) = 14.66428 16.97376 15.81902
#
# Velocity S-wave (km/s) = 2.60045 2.79774 2.70090
# Velocity P-wave (km/s) = 3.52232 4.07710 3.80982
#
# Compressibility (1/GPa) = 0.13601935
#
# Stress axis : x y z
#
# Youngs Moduli (GPa) = 27.13578 16.11596 66.26179
#
# Poissons Ratio (x) = -0.25561 0.35175
# Poissons Ratio (y) = -0.43039 -0.03052
# Poissons Ratio (z) = 0.14405 -0.00742
#
# Static dielectric constant tensor:
#      x y z
#    x 1.795390 0.000000 0.000000 
#    y 0.000000 1.769690 0.000000 
#    z 0.000000 0.000000 1.826470 
# 
# From -- ./inp_files/29051.got.cif
#   From: 2010.05.17/outbox.cif.g08.bks.cpg/sg59_15_cif.got.tgz:29051.got - 2010.06.03 14:40:33.
