data_PCOD9451129
_publ_section_title
;
Structure prediction by ZEFSAII (Michael W. Deem and Ramdas Pophale) SiO2 
 PCOD9451129
Probable space group: P M M N
;
_chemical_formula_sum "Si O2"
_cell_formula_units_Z 48
_cell_length_a 28.262381
_cell_length_b 8.410152
_cell_length_c 9.783430
_cell_angle_alpha 90.000000
_cell_angle_beta 90.000000
_cell_angle_gamma 90.000000
_cell_volume 2325.432478
_symmetry_space_group_name_H-M "P M M N"
_symmetry_group_IT_number 59
_space_group.IT_coordinate_system_code '2'
_symmetry_cell_setting 'orthorhombic'
loop_
_space_group_symop_operation_xyz
x,y,z
1/2-x,1/2-y,z
1/2+x,-y,-z
-x,1/2+y,-z
-x,-y,-z
1/2+x,1/2+y,-z
1/2-x,y,z
x,1/2-y,z
loop_
_atom_site_type_symbol
_atom_site_label
_atom_site_fract_x
_atom_site_fract_y
_atom_site_fract_z
Si Si1 0.548449 0.435771 0.935688
Si Si2 0.697169 0.438521 0.654730
Si Si3 0.047636 0.565620 0.567867
Si Si4 0.099698 0.433033 0.320801
Si Si5 0.802879 0.559280 0.345032
Si Si6 0.896200 0.937874 0.182476
O O1 0.543974 0.250000 0.903790
O O2 0.563569 0.529014 0.800212
O O3 0.500000 0.500000 0.000000
O O4 0.588477 0.466354 0.049464
O O5 0.750000 0.488692 0.699018
O O6 0.692678 0.250000 0.675286
O O7 0.653176 0.527311 0.722813
O O8 0.694049 0.477463 0.492820
O O9 0.042268 0.750000 0.603631
O O10 0.086728 0.541295 0.450154
O O11 0.064799 0.470365 0.700159
O O12 0.000000 0.500000 0.500000
O O13 0.095967 0.250000 0.363293
O O14 0.750000 0.528080 0.289872
O O15 0.807268 0.750000 0.367684
O O16 0.845844 0.512780 0.246802
O O17 0.895086 0.750000 0.150920
#
# Coordination Sequence:
#
# PCOD9451129 Si02
#       6
#     8   8   8   8   8   8
#     4  12  26  45  65  87 120 163 207 255 311 373
#     4  10  20  35  59  92 127 161 201 251 307 363
#     4  12  24  39  60  88 121 156 201 255 308 362
#     4  12  24  41  63  90 122 161 207 255 307 366
#     4   9  18  34  59  90 124 161 200 244 296 357
#     4  11  22  39  62  91 124 160 203 250 301 363
#
# _framework density 20.641321000000001
#
# number of rings (size 3 to 8) (size 9 to 14) (size 15 to 20)
#    0.000    1.000    1.667    6.500    0.000    1.667 
#    0.000    0.833    0.000    3.000    0.000    0.000 
#    0.000    0.000    0.000    0.000    0.000    0.000 
#
# Total GULP energy -268532.931106 kJ/mol
# GULP energy per Si atom -5594.436065 kJ/mol
# Density = 2.059434 g / cm^3
# Si number density = 20.641321 Si / 1000 Ang^3
#
#
#
# Elastic Constant Matrix: (Units=GPa)
#
#
# Indices 1 2 3 4 5 6 
#
# 1 91.3034 15.5669 -14.5504 0.0000 0.0000 0.0000
# 2 15.5669 55.7822 -14.7098 0.0000 0.0000 0.0000
# 3 -14.5504 -14.7098 30.5578 0.0000 0.0000 0.0000
# 4 0.0000 0.0000 0.0000 28.6802 0.0000 0.0000
# 5 0.0000 0.0000 0.0000 0.0000 32.7962 0.0000
# 6 0.0000 0.0000 0.0000 0.0000 0.0000 31.6706
#
#
#
# Elastic Compliance Matrix: (Units=1/GPa)
#
#
# Indices 1 2 3 4 5 6 
#
# 1 0.012067 -0.002122 0.004725 0.000000 0.000000 0.000000
# 2 -0.002122 0.020906 0.009054 0.000000 0.000000 0.000000
# 3 0.004725 0.009054 0.039333 0.000000 0.000000 0.000000
# 4 0.000000 0.000000 0.000000 0.034867 0.000000 0.000000
# 5 0.000000 0.000000 0.000000 0.000000 0.030491 0.000000
# 6 0.000000 0.000000 0.000000 0.000000 0.000000 0.031575
#
#
# Mechanical properties :
#
#
# Convention : Reuss Voigt Hill
#
# Bulk Modulus (GPa) = 10.45815 16.69519 13.57667
# Shear Modulus (GPa) = 28.12150 31.38519 29.75334
#
# Velocity S-wave (km/s) = 3.69506 3.90359 3.80076
# Velocity P-wave (km/s) = 4.82517 5.33134 5.08456
#
# Compressibility (1/GPa) = 0.09561923
#
# Stress axis : x y z
#
# Youngs Moduli (GPa) = 82.86951 47.83226 25.42416
#
# Poissons Ratio (x) = 0.10148 -0.12012
# Poissons Ratio (y) = 0.17582 -0.23018
# Poissons Ratio (z) = -0.39152 -0.43305
#
# Static dielectric constant tensor:
#      x y z
#    x 1.801010 0.000000 0.000000 
#    y 0.000000 1.693580 0.000000 
#    z 0.000000 0.000000 1.703590 
# 
# From -- ./inp_files/12931.got.cif
#   From: 2010.05.17/outbox.cif.g08.bks.cpg/sg59_7_cif.got.tgz:12931.got - 2010.06.03 14:40:33.
