data_PCOD9451811
_publ_section_title
;
Structure prediction by ZEFSAII (Michael W. Deem and Ramdas Pophale) SiO2 
 PCOD9451811
Probable space group: P M M N
;
_chemical_formula_sum "Si O2"
_cell_formula_units_Z 40
_cell_length_a 9.904056
_cell_length_b 7.498508
_cell_length_c 27.879161
_cell_angle_alpha 90.000000
_cell_angle_beta 90.000000
_cell_angle_gamma 90.000000
_cell_volume 2070.463822
_symmetry_space_group_name_H-M "P M M N"
_symmetry_group_IT_number 59
_space_group.IT_coordinate_system_code '2'
_symmetry_cell_setting 'orthorhombic'
loop_
_space_group_symop_operation_xyz
x,y,z
1/2-x,1/2-y,z
1/2+x,-y,-z
-x,1/2+y,-z
-x,-y,-z
1/2+x,1/2+y,-z
1/2-x,y,z
x,1/2-y,z
loop_
_atom_site_type_symbol
_atom_site_label
_atom_site_fract_x
_atom_site_fract_y
_atom_site_fract_z
Si Si1 0.407157 0.963277 0.866448
Si Si2 0.750000 0.965600 0.535260
Si Si3 0.961299 0.544676 0.614405
Si Si4 0.403673 0.750000 0.306783
Si Si5 0.750000 0.965511 0.425650
Si Si6 0.595208 0.963306 0.954465
Si Si7 0.592464 0.750000 0.214987
O O1 0.250000 0.995709 0.881359
O O2 0.420707 0.750000 0.858737
O O3 0.512003 0.022155 0.907464
O O4 0.431160 0.077705 0.818747
O O5 0.750000 0.750000 0.532163
O O6 0.621635 0.017742 0.567338
O O7 0.750000 0.029999 0.480879
O O8 0.924320 0.750000 0.623850
O O9 0.117242 0.530221 0.601116
O O10 0.927345 0.419811 0.658892
O O11 0.250000 0.750000 0.289840
O O12 0.502420 0.750000 0.261907
O O13 0.750000 0.750000 0.425337
O O14 0.750000 0.031877 0.958411
O O15 0.605045 0.750000 0.950733
O O16 0.500000 0.000000 0.000000
O O17 0.750000 0.750000 0.228676
#
# Coordination Sequence:
#
# PCOD9451811 Si02
#       7
#     8   4   8   4   4   8   4
#     4   9  19  39  62  87 123 159 202 259 313 367
#     4   9  20  38  62  90 124 166 204 242 304 371
#     4  11  23  42  61  89 126 163 203 253 307 370
#     4  12  26  44  66  90 122 164 208 262 319 368
#     4  11  21  37  63  94 125 161 206 251 299 367
#     4  10  21  35  55  87 126 169 210 251 305 365
#     4  10  24  42  66  92 118 158 210 264 317 374
#
# _framework density 19.319344000000001
#
# number of rings (size 3 to 8) (size 9 to 14) (size 15 to 20)
#    0.000    1.800    2.000    1.500    2.800    2.800 
#    3.600    0.000    0.000    0.000    0.000    0.000 
#    0.000    0.000    0.000    0.000    0.000    0.000 
#
# Total GULP energy -223454.262608 kJ/mol
# GULP energy per Si atom -5586.356565 kJ/mol
# Density = 1.927537 g / cm^3
# Si number density = 19.319344 Si / 1000 Ang^3
#
#
#
# Elastic Constant Matrix: (Units=GPa)
#
#
# Indices 1 2 3 4 5 6 
#
# 1 128.2656 25.6919 63.4972 0.0000 0.0000 0.0000
# 2 25.6919 88.7501 39.4410 0.0000 0.0000 0.0000
# 3 63.4972 39.4410 115.9349 0.0000 0.0000 0.0000
# 4 0.0000 0.0000 0.0000 31.3469 0.0000 0.0000
# 5 0.0000 0.0000 0.0000 0.0000 42.6005 0.0000
# 6 0.0000 0.0000 0.0000 0.0000 0.0000 15.0386
#
#
#
# Elastic Compliance Matrix: (Units=1/GPa)
#
#
# Indices 1 2 3 4 5 6 
#
# 1 0.010722 -0.000582 -0.005674 0.000000 0.000000 0.000000
# 2 -0.000582 0.013306 -0.004208 0.000000 0.000000 0.000000
# 3 -0.005674 -0.004208 0.013165 0.000000 0.000000 0.000000
# 4 0.000000 0.000000 0.000000 0.031901 0.000000 0.000000
# 5 0.000000 0.000000 0.000000 0.000000 0.023474 0.000000
# 6 0.000000 0.000000 0.000000 0.000000 0.000000 0.066496
#
#
# Mechanical properties :
#
#
# Convention : Reuss Voigt Hill
#
# Bulk Modulus (GPa) = 61.48477 65.57899 63.53188
# Shear Modulus (GPa) = 26.96668 31.41854 29.19261
#
# Velocity S-wave (km/s) = 3.74015 4.03708 3.89145
# Velocity P-wave (km/s) = 7.10958 7.46653 7.29024
#
# Compressibility (1/GPa) = 0.01626419
#
# Stress axis : x y z
#
# Youngs Moduli (GPa) = 93.26624 75.15331 75.95961
#
# Poissons Ratio (x) = 0.04375 0.43102
# Poissons Ratio (y) = 0.05430 0.31963
# Poissons Ratio (z) = 0.52923 0.31624
#
# Static dielectric constant tensor:
#      x y z
#    x 1.691240 0.000000 0.000000 
#    y 0.000000 1.713390 0.000000 
#    z 0.000000 0.000000 1.623160 
# 
# From -- ./inp_files/32455.got.cif
#   From: 2010.05.17/outbox.cif.g08.bks.cpg/sg59_17_cif.got.tgz:32455.got - 2010.06.03 14:40:33.
