data_PCOD9451378
_publ_section_title
;
Structure prediction by ZEFSAII (Michael W. Deem and Ramdas Pophale) SiO2 
 PCOD9451378
Probable space group: P M M N
;
_chemical_formula_sum "Si O2"
_cell_formula_units_Z 56
_cell_length_a 24.082561
_cell_length_b 8.238167
_cell_length_c 13.752330
_cell_angle_alpha 90.000000
_cell_angle_beta 90.000000
_cell_angle_gamma 90.000000
_cell_volume 2728.409454
_symmetry_space_group_name_H-M "P M M N"
_symmetry_group_IT_number 59
_space_group.IT_coordinate_system_code '2'
_symmetry_cell_setting 'orthorhombic'
loop_
_space_group_symop_operation_xyz
x,y,z
1/2-x,1/2-y,z
1/2+x,-y,-z
-x,1/2+y,-z
-x,-y,-z
1/2+x,1/2+y,-z
1/2-x,y,z
x,1/2-y,z
loop_
_atom_site_type_symbol
_atom_site_label
_atom_site_fract_x
_atom_site_fract_y
_atom_site_fract_z
Si Si1 0.629283 0.444783 0.561417
Si Si2 0.250000 0.552349 0.372561
Si Si3 0.588017 0.051364 0.350718
Si Si4 0.035460 0.059341 0.292550
Si Si5 0.311967 0.553637 0.791376
Si Si6 0.344710 0.060766 0.003444
Si Si7 0.543425 0.064727 0.922580
Si Si8 0.250000 0.554116 0.144590
O O1 0.633454 0.250000 0.554730
O O2 0.691817 0.506058 0.581880
O O3 0.604596 0.502959 0.458847
O O4 0.585875 0.482767 0.646966
O O5 0.250000 0.750000 0.380457
O O6 0.250000 0.514452 0.258116
O O7 0.587382 0.250000 0.348953
O O8 0.525999 0.996685 0.322145
O O9 0.636690 0.000882 0.276224
O O10 0.036434 0.250000 0.314107
O O11 0.043290 0.032304 0.177979
O O12 0.250000 0.511114 0.754031
O O13 0.314158 0.750000 0.797978
O O14 0.319241 0.482618 0.899038
O O15 0.359928 0.250000 0.005370
O O16 0.397968 0.952634 0.024482
O O17 0.302167 0.020066 0.088966
O O18 0.531187 0.250000 0.897769
O O19 0.500000 0.000000 0.000000
O O20 0.250000 0.750000 0.133937
#
# Coordination Sequence:
#
# PCOD9451378 Si02
#       8
#     8   4   8   8   8   8   8   4
#     4  10  20  38  62  89 120 159 207 260 314 372
#     4   9  20  35  58  87 114 146 195 253 306 363
#     4   9  20  36  60  90 121 157 205 260 311 371
#     4  11  22  39  60  89 126 165 208 255 311 374
#     4  10  20  36  60  89 122 164 211 260 316 378
#     4  12  24  39  60  89 123 163 206 256 313 372
#     4  12  25  42  64  91 123 161 205 255 313 379
#     4  11  21  37  58  85 120 164 207 251 304 369
#
# _framework density 20.52478
#
# number of rings (size 3 to 8) (size 9 to 14) (size 15 to 20)
#    0.000    1.429    0.714    5.357    1.000    2.286 
#    0.000    3.214    0.000    0.000    0.000    0.000 
#    0.000    0.000    0.000    0.000    0.000    0.000 
#
# Total GULP energy -312996.579216 kJ/mol
# GULP energy per Si atom -5589.224629 kJ/mol
# Density = 2.047806 g / cm^3
# Si number density = 20.524780 Si / 1000 Ang^3
#
#
#
# Elastic Constant Matrix: (Units=GPa)
#
#
# Indices 1 2 3 4 5 6 
#
# 1 140.9935 1.0120 28.8076 0.0000 0.0000 0.0000
# 2 1.0120 18.4016 1.0508 0.0000 0.0000 0.0000
# 3 28.8076 1.0508 69.4189 0.0000 0.0000 0.0000
# 4 0.0000 0.0000 0.0000 14.3036 0.0000 0.0000
# 5 0.0000 0.0000 0.0000 0.0000 18.6783 0.0000
# 6 0.0000 0.0000 0.0000 0.0000 0.0000 23.6905
#
#
#
# Elastic Compliance Matrix: (Units=1/GPa)
#
#
# Indices 1 2 3 4 5 6 
#
# 1 0.007751 -0.000243 -0.003213 0.000000 0.000000 0.000000
# 2 -0.000243 0.054398 -0.000723 0.000000 0.000000 0.000000
# 3 -0.003213 -0.000723 0.015749 0.000000 0.000000 0.000000
# 4 0.000000 0.000000 0.000000 0.069912 0.000000 0.000000
# 5 0.000000 0.000000 0.000000 0.000000 0.053538 0.000000
# 6 0.000000 0.000000 0.000000 0.000000 0.000000 0.042211
#
#
# Mechanical properties :
#
#
# Convention : Reuss Voigt Hill
#
# Bulk Modulus (GPa) = 14.37994 32.28390 23.33192
# Shear Modulus (GPa) = 18.17548 24.53074 21.35311
#
# Velocity S-wave (km/s) = 2.97903 3.46088 3.22896
# Velocity P-wave (km/s) = 4.34214 5.63326 5.02931
#
# Compressibility (1/GPa) = 0.06954131
#
# Stress axis : x y z
#
# Youngs Moduli (GPa) = 129.02083 18.38317 63.49426
#
# Poissons Ratio (x) = 0.00446 0.20399
# Poissons Ratio (y) = 0.03132 0.04589
# Poissons Ratio (z) = 0.41451 0.01329
#
# Static dielectric constant tensor:
#      x y z
#    x 1.702520 0.000000 0.000000 
#    y 0.000000 1.713840 0.000000 
#    z 0.000000 0.000000 1.670960 
# 
# From -- ./inp_files/24420.got.cif
#   From: 2010.05.17/outbox.cif.g08.bks.cpg/sg59_13_cif.got.tgz:24420.got - 2010.06.03 14:40:33.
