data_PCOD9451006
_publ_section_title
;
Structure prediction by ZEFSAII (Michael W. Deem and Ramdas Pophale) SiO2 
 PCOD9451006
Probable space group: P M M N
;
_chemical_formula_sum "Si O2"
_cell_formula_units_Z 64
_cell_length_a 23.652392
_cell_length_b 8.580000
_cell_length_c 16.092001
_cell_angle_alpha 90.000000
_cell_angle_beta 90.000000
_cell_angle_gamma 90.000000
_cell_volume 3265.670829
_symmetry_space_group_name_H-M "P M M N"
_symmetry_group_IT_number 59
_space_group.IT_coordinate_system_code '2'
_symmetry_cell_setting 'orthorhombic'
loop_
_space_group_symop_operation_xyz
x,y,z
1/2-x,1/2-y,z
1/2+x,-y,-z
-x,1/2+y,-z
-x,-y,-z
1/2+x,1/2+y,-z
1/2-x,y,z
x,1/2-y,z
loop_
_atom_site_type_symbol
_atom_site_label
_atom_site_fract_x
_atom_site_fract_y
_atom_site_fract_z
Si Si1 0.683660 0.069573 0.005058
Si Si2 0.523590 0.933169 0.613316
Si Si3 0.183938 0.561766 0.667120
Si Si4 0.409305 0.065022 0.548813
Si Si5 0.815980 0.571521 0.825331
Si Si6 0.003479 0.437630 0.093743
Si Si7 0.421557 0.928668 0.228975
Si Si8 0.116561 0.560610 0.832247
O O1 0.750000 0.071056 0.026369
O O2 0.666832 0.250000 0.987278
O O3 0.649872 0.012248 0.084790
O O4 0.676881 0.969472 0.922471
O O5 0.512566 0.750000 0.600343
O O6 0.568732 0.985155 0.542823
O O7 0.464208 0.020930 0.603653
O O8 0.549451 0.964802 0.702403
O O9 0.250000 0.510112 0.666989
O O10 0.184818 0.750000 0.669725
O O11 0.146561 0.510699 0.587935
O O12 0.148759 0.506543 0.749066
O O13 0.401126 0.250000 0.547698
O O14 0.750000 0.554010 0.806335
O O15 0.833139 0.750000 0.810411
O O16 0.854941 0.458281 0.772570
O O17 0.007841 0.250000 0.092630
O O18 0.055746 0.516211 0.139905
O O19 0.948346 0.481692 0.149284
O O20 0.000000 0.500000 0.000000
O O21 0.435578 0.750000 0.244486
O O22 0.118266 0.750000 0.829280
#
# Coordination Sequence:
#
# PCOD9451006 Si02
#       8
#     8   8   8   8   8   8   8   8
#     4   9  16  29  51  76 103 138 183 231 274 320
#     4  10  21  39  63  88 114 146 185 232 286 344
#     4  10  20  35  57  84 116 156 199 241 288 347
#     4  10  21  38  61  88 116 146 183 230 286 347
#     4  10  21  37  56  78 106 140 179 226 281 336
#     4  11  22  36  55  81 117 159 199 242 294 346
#     4  12  24  38  58  84 113 145 186 232 279 336
#     4   9  18  32  51  76 107 147 192 234 277 328
#
# _framework density 19.597811
#
# number of rings (size 3 to 8) (size 9 to 14) (size 15 to 20)
#    0.000    1.875    0.000    4.500    0.000    6.000 
#    0.000    2.500    0.000    2.250    0.000    0.000 
#    0.000    0.000    0.000    0.000    0.000    0.000 
#
# Total GULP energy -357324.409899 kJ/mol
# GULP energy per Si atom -5583.193905 kJ/mol
# Density = 1.955321 g / cm^3
# Si number density = 19.597811 Si / 1000 Ang^3
#
#
#
# Elastic Constant Matrix: (Units=GPa)
#
#
# Indices 1 2 3 4 5 6 
#
# 1 94.9928 15.1014 23.1048 0.0000 0.0000 0.0000
# 2 15.1014 22.6065 -5.0018 0.0000 0.0000 0.0000
# 3 23.1048 -5.0018 40.7235 0.0000 0.0000 0.0000
# 4 0.0000 0.0000 0.0000 26.6217 0.0000 0.0000
# 5 0.0000 0.0000 0.0000 0.0000 27.2551 0.0000
# 6 0.0000 0.0000 0.0000 0.0000 0.0000 26.1387
#
#
#
# Elastic Compliance Matrix: (Units=1/GPa)
#
#
# Indices 1 2 3 4 5 6 
#
# 1 0.014870 -0.012129 -0.009926 0.000000 0.000000 0.000000
# 2 -0.012129 0.055365 0.013682 0.000000 0.000000 0.000000
# 3 -0.009926 0.013682 0.031868 0.000000 0.000000 0.000000
# 4 0.000000 0.000000 0.000000 0.037563 0.000000 0.000000
# 5 0.000000 0.000000 0.000000 0.000000 0.036690 0.000000
# 6 0.000000 0.000000 0.000000 0.000000 0.000000 0.038258
#
#
# Mechanical properties :
#
#
# Convention : Reuss Voigt Hill
#
# Bulk Modulus (GPa) = 11.71577 24.97017 18.34297
# Shear Modulus (GPa) = 19.24462 24.34433 21.79447
#
# Velocity S-wave (km/s) = 3.13705 3.52830 3.33841
# Velocity P-wave (km/s) = 4.37179 5.41918 4.92342
#
# Compressibility (1/GPa) = 0.08535503
#
# Stress axis : x y z
#
# Youngs Moduli (GPa) = 67.25097 18.06201 31.37944
#
# Poissons Ratio (x) = 0.21908 0.31148
# Poissons Ratio (y) = 0.81571 -0.42933
# Poissons Ratio (z) = 0.66755 -0.24712
#
# Static dielectric constant tensor:
#      x y z
#    x 1.720170 0.000000 0.000000 
#    y 0.000000 1.735830 0.000000 
#    z 0.000000 0.000000 1.681180 
# 
# From -- ./inp_files/24770.got.cif
#   From: 2010.05.17/outbox.cif.g08.bks.cpg/sg59_13_cif.got.tgz:24770.got - 2010.06.03 14:40:33.
