data_PCOD9451246
_publ_section_title
;
Structure prediction by ZEFSAII (Michael W. Deem and Ramdas Pophale) SiO2 
 PCOD9451246
Probable space group: P M M N
;
_chemical_formula_sum "Si O2"
_cell_formula_units_Z 64
_cell_length_a 18.730195
_cell_length_b 8.754555
_cell_length_c 21.053937
_cell_angle_alpha 90.000000
_cell_angle_beta 90.000000
_cell_angle_gamma 90.000000
_cell_volume 3452.309262
_symmetry_space_group_name_H-M "P M M N"
_symmetry_group_IT_number 59
_space_group.IT_coordinate_system_code '2'
_symmetry_cell_setting 'orthorhombic'
loop_
_space_group_symop_operation_xyz
x,y,z
1/2-x,1/2-y,z
1/2+x,-y,-z
-x,1/2+y,-z
-x,-y,-z
1/2+x,1/2+y,-z
1/2-x,y,z
x,1/2-y,z
loop_
_atom_site_type_symbol
_atom_site_label
_atom_site_fract_x
_atom_site_fract_y
_atom_site_fract_z
Si Si1 0.414797 0.066413 0.875557
Si Si2 0.834459 0.567919 0.382399
Si Si3 0.420062 0.935882 0.121902
Si Si4 0.334305 0.068060 0.382980
Si Si5 0.834112 0.432664 0.245081
Si Si6 0.579087 0.068148 0.500039
Si Si7 0.833778 0.066294 0.753840
Si Si8 0.666672 0.434890 0.003072
O O1 0.412473 0.250000 0.875251
O O2 0.497502 0.017006 0.881013
O O3 0.380328 0.003834 0.811026
O O4 0.370317 0.003755 0.935005
O O5 0.750000 0.537676 0.392212
O O6 0.844969 0.750000 0.382465
O O7 0.854017 0.500374 0.313680
O O8 0.878803 0.493199 0.438726
O O9 0.418653 0.750000 0.122155
O O10 0.381430 0.984779 0.186804
O O11 0.375729 0.984567 0.060039
O O12 0.250000 0.033474 0.391839
O O13 0.343511 0.250000 0.387662
O O14 0.379602 0.987090 0.437183
O O15 0.353999 0.011023 0.312585
O O16 0.750000 0.468203 0.234341
O O17 0.841728 0.250000 0.245747
O O18 0.576065 0.250000 0.498514
O O19 0.500000 0.000000 0.500000
O O20 0.750000 0.033529 0.766437
O O21 0.840481 0.250000 0.747147
O O22 0.750000 0.477146 0.999414
O O23 0.663062 0.250000 0.006827
#
# Coordination Sequence:
#
# PCOD9451246 Si02
#       8
#     8   8   8   8   8   8   8   8
#     4  11  22  35  53  79 113 147 179 224 282 338
#     4  10  21  39  63  89 117 149 187 234 286 338
#     4   9  19  35  55  80 109 142 180 224 276 332
#     4  10  21  38  59  84 116 151 187 230 281 337
#     4  10  21  38  59  82 109 145 190 233 272 324
#     4  12  25  40  59  84 116 152 192 237 285 338
#     4   9  17  33  58  83 106 139 186 232 272 323
#     4  10  20  36  58  80 104 139 184 230 273 325
#
# _framework density 18.538315000000001
#
# number of rings (size 3 to 8) (size 9 to 14) (size 15 to 20)
#    0.000    1.875    0.000    4.125    0.000    8.000 
#    0.000    6.250    0.000    1.500    0.000    0.000 
#    0.000    0.000    0.000    0.000    0.000    0.000 
#
# Total GULP energy -357662.211494 kJ/mol
# GULP energy per Si atom -5588.472055 kJ/mol
# Density = 1.849612 g / cm^3
# Si number density = 18.538315 Si / 1000 Ang^3
#
#
#
# Elastic Constant Matrix: (Units=GPa)
#
#
# Indices 1 2 3 4 5 6 
#
# 1 135.0705 63.9140 123.8308 0.0000 0.0000 0.0000
# 2 63.9140 59.4825 69.7058 0.0000 0.0000 0.0000
# 3 123.8308 69.7058 198.1808 0.0000 0.0000 0.0000
# 4 0.0000 0.0000 0.0000 26.7336 0.0000 0.0000
# 5 0.0000 0.0000 0.0000 0.0000 -39.6204 0.0000
# 6 0.0000 0.0000 0.0000 0.0000 0.0000 25.9263
#
#
#
# Elastic Compliance Matrix: (Units=1/GPa)
#
#
# Indices 1 2 3 4 5 6 
#
# 1 0.021814 -0.012702 -0.009163 0.000000 0.000000 0.000000
# 2 -0.012702 0.035996 -0.004724 0.000000 0.000000 0.000000
# 3 -0.009163 -0.004724 0.012433 0.000000 0.000000 0.000000
# 4 0.000000 0.000000 0.000000 0.037406 0.000000 0.000000
# 5 0.000000 0.000000 0.000000 0.000000 -0.025240 0.000000
# 6 0.000000 0.000000 0.000000 0.000000 0.000000 0.038571
#
#
# Mechanical properties :
#
#
# Convention : Reuss Voigt Hill
#
# Bulk Modulus (GPa) = 58.59825 100.84833 79.72329
# Shear Modulus (GPa) = 27.80150 11.62677 19.71413
#
# Velocity S-wave (km/s) = 3.87677 2.50706 3.26456
# Velocity P-wave (km/s) = 7.19145 7.93086 7.57019
#
# Compressibility (1/GPa) = 0.01706536
#
# Stress axis : x y z
#
# Youngs Moduli (GPa) = 45.84172 27.78090 80.43260
#
# Poissons Ratio (x) = 0.35287 0.73698
# Poissons Ratio (y) = 0.58227 0.37998
# Poissons Ratio (z) = 0.42004 0.13124
#
# Static dielectric constant tensor:
#      x y z
#    x 1.622560 0.000000 0.000000 
#    y 0.000000 1.622740 0.000000 
#    z 0.000000 0.000000 1.602700 
# 
# From -- ./inp_files/30666.got.cif
#   From: 2010.05.17/outbox.cif.g08.bks.cpg/sg59_16_cif.got.tgz:30666.got - 2010.06.03 14:40:33.
