data_PCOD9451526
_publ_section_title
;
Structure prediction by ZEFSAII (Michael W. Deem and Ramdas Pophale) SiO2 
 PCOD9451526
Probable space group: P M M N
;
_chemical_formula_sum "Si O2"
_cell_formula_units_Z 64
_cell_length_a 23.326375
_cell_length_b 8.849432
_cell_length_c 16.781845
_cell_angle_alpha 90.000000
_cell_angle_beta 90.000000
_cell_angle_gamma 90.000000
_cell_volume 3464.195196
_symmetry_space_group_name_H-M "P M M N"
_symmetry_group_IT_number 59
_space_group.IT_coordinate_system_code '2'
_symmetry_cell_setting 'orthorhombic'
loop_
_space_group_symop_operation_xyz
x,y,z
1/2-x,1/2-y,z
1/2+x,-y,-z
-x,1/2+y,-z
-x,-y,-z
1/2+x,1/2+y,-z
1/2-x,y,z
x,1/2-y,z
loop_
_atom_site_type_symbol
_atom_site_label
_atom_site_fract_x
_atom_site_fract_y
_atom_site_fract_z
Si Si1 0.817554 0.067230 0.389403
Si Si2 0.317080 0.418755 0.296700
Si Si3 0.131706 0.571949 0.437055
Si Si4 0.973937 0.569658 0.122474
Si Si5 0.919845 0.931866 0.292198
Si Si6 0.916298 0.571049 0.952673
Si Si7 0.512173 0.569875 0.586318
Si Si8 0.317279 0.929118 0.135745
O O1 0.750000 0.023462 0.386079
O O2 0.819775 0.250000 0.384107
O O3 0.845856 0.025684 0.475368
O O4 0.858753 0.996668 0.322115
O O5 0.250000 0.403462 0.281149
O O6 0.340008 0.250000 0.312891
O O7 0.322137 0.530694 0.370894
O O8 0.340557 0.490503 0.215765
O O9 0.118833 0.750000 0.440188
O O10 0.077360 0.481683 0.402878
O O11 0.985050 0.750000 0.126339
O O12 0.939624 0.527507 0.202474
O O13 0.034103 0.486473 0.107375
O O14 0.937602 0.539790 0.042458
O O15 0.918649 0.750000 0.298748
O O16 0.968271 0.998669 0.350991
O O17 0.909070 0.750000 0.943435
O O18 0.857468 0.486860 0.934363
O O19 0.500000 0.500000 0.500000
O O20 0.505851 0.750000 0.585753
O O21 0.250000 0.964485 0.122951
O O22 0.321972 0.750000 0.145952
#
# Coordination Sequence:
#
# PCOD9451526 Si02
#       8
#     8   8   8   8   8   8   8   8
#     4  10  22  40  61  84 114 153 196 243 292 340
#     4  10  21  36  54  80 114 151 194 239 281 335
#     4  11  22  37  58  83 113 153 195 238 288 341
#     4   9  21  40  61  87 118 150 188 235 290 352
#     4  11  23  40  62  87 117 154 194 238 289 346
#     4  10  20  37  62  89 116 148 188 236 290 348
#     4  12  24  39  58  84 117 152 191 237 287 339
#     4  10  21  37  57  82 116 156 194 236 289 349
#
# _framework density 18.474710000000002
#
# number of rings (size 3 to 8) (size 9 to 14) (size 15 to 20)
#    0.000    1.625    1.250    3.375    1.750    4.250 
#    0.000    0.625    0.000    3.750    0.000    0.000 
#    0.000    0.000    0.000    0.000    0.000    0.000 
#
# Total GULP energy -357113.468841 kJ/mol
# GULP energy per Si atom -5579.897951 kJ/mol
# Density = 1.843266 g / cm^3
# Si number density = 18.474710 Si / 1000 Ang^3
#
#
#
# Elastic Constant Matrix: (Units=GPa)
#
#
# Indices 1 2 3 4 5 6 
#
# 1 100.5341 41.7409 45.1961 0.0000 0.0000 0.0000
# 2 41.7409 52.6024 33.7760 0.0000 0.0000 0.0000
# 3 45.1961 33.7760 83.8362 0.0000 0.0000 0.0000
# 4 0.0000 0.0000 0.0000 28.6935 0.0000 0.0000
# 5 0.0000 0.0000 0.0000 0.0000 26.2348 0.0000
# 6 0.0000 0.0000 0.0000 0.0000 0.0000 35.0022
#
#
#
# Elastic Compliance Matrix: (Units=1/GPa)
#
#
# Indices 1 2 3 4 5 6 
#
# 1 0.016137 -0.009738 -0.004776 0.000000 0.000000 0.000000
# 2 -0.009738 0.031521 -0.007449 0.000000 0.000000 0.000000
# 3 -0.004776 -0.007449 0.017504 0.000000 0.000000 0.000000
# 4 0.000000 0.000000 0.000000 0.034851 0.000000 0.000000
# 5 0.000000 0.000000 0.000000 0.000000 0.038117 0.000000
# 6 0.000000 0.000000 0.000000 0.000000 0.000000 0.028570
#
#
# Mechanical properties :
#
#
# Convention : Reuss Voigt Hill
#
# Bulk Modulus (GPa) = 47.09257 53.15540 50.12398
# Shear Modulus (GPa) = 22.96660 25.73676 24.35168
#
# Velocity S-wave (km/s) = 3.52964 3.73645 3.63452
# Velocity P-wave (km/s) = 6.49282 6.88834 6.69350
#
# Compressibility (1/GPa) = 0.02123477
#
# Stress axis : x y z
#
# Youngs Moduli (GPa) = 61.96781 31.72442 57.12944
#
# Poissons Ratio (x) = 0.30895 0.27286
# Poissons Ratio (y) = 0.60347 0.42558
# Poissons Ratio (z) = 0.29597 0.23633
#
# Static dielectric constant tensor:
#      x y z
#    x 1.639100 0.000000 0.000000 
#    y 0.000000 1.637630 0.000000 
#    z 0.000000 0.000000 1.689910 
# 
# From -- ./inp_files/24790.got.cif
#   From: 2010.05.17/outbox.cif.g08.bks.cpg/sg59_13_cif.got.tgz:24790.got - 2010.06.03 14:40:33.
