data_PCOD9451862
_publ_section_title
;
Structure prediction by ZEFSAII (Michael W. Deem and Ramdas Pophale) SiO2 
 PCOD9451862
Probable space group: P M M N
;
_chemical_formula_sum "Si O2"
_cell_formula_units_Z 64
_cell_length_a 19.708949
_cell_length_b 7.598614
_cell_length_c 20.159988
_cell_angle_alpha 90.000000
_cell_angle_beta 90.000000
_cell_angle_gamma 90.000000
_cell_volume 3019.173830
_symmetry_space_group_name_H-M "P M M N"
_symmetry_group_IT_number 59
_space_group.IT_coordinate_system_code '2'
_symmetry_cell_setting 'orthorhombic'
loop_
_space_group_symop_operation_xyz
x,y,z
1/2-x,1/2-y,z
1/2+x,-y,-z
-x,1/2+y,-z
-x,-y,-z
1/2+x,1/2+y,-z
1/2-x,y,z
x,1/2-y,z
loop_
_atom_site_type_symbol
_atom_site_label
_atom_site_fract_x
_atom_site_fract_y
_atom_site_fract_z
Si Si1 0.581395 0.464681 0.065133
Si Si2 0.423320 0.545851 0.080168
Si Si3 0.064600 0.546246 0.706648
Si Si4 0.430003 0.543293 0.222531
Si Si5 0.329042 0.037175 0.489030
Si Si6 0.541972 0.445128 0.435402
Si Si7 0.172003 0.965612 0.809985
Si Si8 0.827695 0.537535 0.660760
O O1 0.577776 0.250000 0.064570
O O2 0.505360 0.531607 0.078859
O O3 0.632752 0.517990 0.122877
O O4 0.600430 0.526875 0.990806
O O5 0.402412 0.750000 0.079734
O O6 0.403497 0.471512 0.151962
O O7 0.082567 0.750000 0.692355
O O8 0.041795 0.463227 0.636468
O O9 0.128189 0.471239 0.746918
O O10 0.000167 0.543176 0.755084
O O11 0.444605 0.750000 0.213603
O O12 0.376660 0.523244 0.281531
O O13 0.250000 0.993592 0.499201
O O14 0.335370 0.250000 0.493391
O O15 0.348157 0.983067 0.413773
O O16 0.380332 0.953246 0.540567
O O17 0.500000 0.500000 0.500000
O O18 0.515141 0.250000 0.422572
O O19 0.250000 0.021238 0.808730
O O20 0.170965 0.750000 0.809123
O O21 0.750000 0.480254 0.671380
O O22 0.828233 0.750000 0.660448
#
# Coordination Sequence:
#
# PCOD9451862 Si02
#       8
#     8   8   8   8   8   8   8   8
#     4   9  16  30  52  74  97 132 175 210 249 304
#     4   9  18  30  47  75 106 132 165 210 256 301
#     4  10  21  36  53  75 103 137 179 218 260 313
#     4  11  21  32  50  78 110 138 169 215 263 309
#     4   9  19  37  58  77 100 133 173 217 264 318
#     4  11  23  36  53  78 107 138 173 221 271 319
#     4   9  17  31  53  78 102 132 176 224 260 298
#     4   9  19  36  56  76 100 134 175 214 255 311
#
# _framework density 21.197854
#
# number of rings (size 3 to 8) (size 9 to 14) (size 15 to 20)
#    0.000    2.375    1.250    2.250    0.000    6.000 
#    0.000    3.125    0.000    3.750    0.000    0.000 
#    0.000    0.000    0.000    0.000    0.000    0.000 
#
# Total GULP energy -357051.037611 kJ/mol
# GULP energy per Si atom -5578.922463 kJ/mol
# Density = 2.114961 g / cm^3
# Si number density = 21.197854 Si / 1000 Ang^3
#
#
#
# Elastic Constant Matrix: (Units=GPa)
#
#
# Indices 1 2 3 4 5 6 
#
# 1 53.9526 -3.1626 34.0954 0.0000 0.0000 0.0000
# 2 -3.1626 43.2629 6.1575 0.0000 0.0000 0.0000
# 3 34.0954 6.1575 139.5795 0.0000 0.0000 0.0000
# 4 0.0000 0.0000 0.0000 10.5396 0.0000 0.0000
# 5 0.0000 0.0000 0.0000 0.0000 32.3545 0.0000
# 6 0.0000 0.0000 0.0000 0.0000 0.0000 12.9837
#
#
#
# Elastic Compliance Matrix: (Units=1/GPa)
#
#
# Indices 1 2 3 4 5 6 
#
# 1 0.022164 0.002406 -0.005520 0.000000 0.000000 0.000000
# 2 0.002406 0.023522 -0.001625 0.000000 0.000000 0.000000
# 3 -0.005520 -0.001625 0.008585 0.000000 0.000000 0.000000
# 4 0.000000 0.000000 0.000000 0.094880 0.000000 0.000000
# 5 0.000000 0.000000 0.000000 0.000000 0.030908 0.000000
# 6 0.000000 0.000000 0.000000 0.000000 0.000000 0.077020
#
#
# Mechanical properties :
#
#
# Convention : Reuss Voigt Hill
#
# Bulk Modulus (GPa) = 22.32583 34.55284 28.43933
# Shear Modulus (GPa) = 17.76277 24.48921 21.12599
#
# Velocity S-wave (km/s) = 2.89788 3.40261 3.16034
# Velocity P-wave (km/s) = 4.66390 5.63672 5.17322
#
# Compressibility (1/GPa) = 0.04479117
#
# Stress axis : x y z
#
# Youngs Moduli (GPa) = 45.11750 42.51396 116.48872
#
# Poissons Ratio (x) = -0.10229 0.64305
# Poissons Ratio (y) = -0.10855 0.18933
# Poissons Ratio (z) = 0.24906 0.06910
#
# Static dielectric constant tensor:
#      x y z
#    x 1.717310 0.000000 0.000000 
#    y 0.000000 1.854680 0.000000 
#    z 0.000000 0.000000 1.814510 
# 
# From -- ./inp_files/26291.got.cif
#   From: 2010.05.17/outbox.cif.g08.bks.cpg/sg59_14_cif.got.tgz:26291.got - 2010.06.03 14:40:33.
