data_PCOD9451109
_publ_section_title
;
Structure prediction by ZEFSAII (Michael W. Deem and Ramdas Pophale) SiO2 
 PCOD9451109
Probable space group: P M M N
;
_chemical_formula_sum "Si O2"
_cell_formula_units_Z 64
_cell_length_a 7.667540
_cell_length_b 19.083702
_cell_length_c 20.462937
_cell_angle_alpha 90.000000
_cell_angle_beta 90.000000
_cell_angle_gamma 90.000000
_cell_volume 2994.240248
_symmetry_space_group_name_H-M "P M M N"
_symmetry_group_IT_number 59
_space_group.IT_coordinate_system_code '2'
_symmetry_cell_setting 'orthorhombic'
loop_
_space_group_symop_operation_xyz
x,y,z
1/2-x,1/2-y,z
1/2+x,-y,-z
-x,1/2+y,-z
-x,-y,-z
1/2+x,1/2+y,-z
1/2-x,y,z
x,1/2-y,z
loop_
_atom_site_type_symbol
_atom_site_label
_atom_site_fract_x
_atom_site_fract_y
_atom_site_fract_z
Si Si1 0.957813 0.672089 0.015974
Si Si2 0.047258 0.067246 0.091337
Si Si3 0.955753 0.170779 0.205451
Si Si4 0.959670 0.829133 0.400538
Si Si5 0.959783 0.920594 0.521157
Si Si6 0.461364 0.917149 0.136144
Si Si7 0.038558 0.086075 0.330903
Si Si8 0.040542 0.566813 0.283065
O O1 0.750000 0.675432 0.003819
O O2 0.028931 0.750000 0.004691
O O3 0.985466 0.645834 0.089375
O O4 0.031916 0.613587 0.966753
O O5 0.250000 0.055194 0.074866
O O6 0.038952 0.114510 0.156514
O O7 0.972371 0.990644 0.105604
O O8 0.750000 0.170751 0.191559
O O9 0.022570 0.250000 0.195793
O O10 0.982915 0.144729 0.279397
O O11 0.750000 0.825803 0.406314
O O12 0.026116 0.750000 0.394489
O O13 0.026835 0.868483 0.465295
O O14 0.998104 0.876350 0.337714
O O15 0.750000 0.914338 0.522896
O O16 0.022831 0.905393 0.594561
O O17 0.000000 0.000000 0.500000
O O18 0.250000 0.919296 0.137401
O O19 0.522845 0.913299 0.210873
O O20 0.250000 0.085454 0.331449
O O21 0.977370 0.010127 0.304772
O O22 0.250000 0.561634 0.279574
#
# Coordination Sequence:
#
# PCOD9451109 Si02
#       8
#     8   8   8   8   8   8   8   8
#     4  10  22  38  57  84 116 150 190 233 282 343
#     4  10  20  39  63  85 112 150 192 233 281 343
#     4  11  24  38  55  86 122 151 185 231 283 338
#     4  10  22  38  56  84 119 152 190 236 287 342
#     4  10  20  35  59  86 112 147 190 236 285 340
#     4  10  21  37  59  85 113 145 190 241 284 335
#     4  10  20  37  60  84 112 150 193 234 280 342
#     4  10  20  37  59  85 113 145 193 239 280 337
#
# _framework density 21.374369000000002
#
# number of rings (size 3 to 8) (size 9 to 14) (size 15 to 20)
#    0.000    1.875    2.500    1.125    0.000    5.500 
#    0.000    3.750    0.000    0.000    0.000    0.000 
#    0.000    0.000    0.000    0.000    0.000    0.000 
#
# Total GULP energy -357655.106307 kJ/mol
# GULP energy per Si atom -5588.361036 kJ/mol
# Density = 2.132572 g / cm^3
# Si number density = 21.374369 Si / 1000 Ang^3
#
#
#
# Elastic Constant Matrix: (Units=GPa)
#
#
# Indices 1 2 3 4 5 6 
#
# 1 38.3550 -6.6779 -6.9885 0.0000 0.0000 0.0000
# 2 -6.6779 59.5761 0.8857 0.0000 0.0000 0.0000
# 3 -6.9885 0.8857 105.0238 0.0000 0.0000 0.0000
# 4 0.0000 0.0000 0.0000 21.2276 0.0000 0.0000
# 5 0.0000 0.0000 0.0000 0.0000 434.7505 0.0000
# 6 0.0000 0.0000 0.0000 0.0000 0.0000 -4.0888
#
#
#
# Elastic Compliance Matrix: (Units=1/GPa)
#
#
# Indices 1 2 3 4 5 6 
#
# 1 0.026915 0.002991 0.001766 0.000000 0.000000 0.000000
# 2 0.002991 0.017120 0.000055 0.000000 0.000000 0.000000
# 3 0.001766 0.000055 0.009639 0.000000 0.000000 0.000000
# 4 0.000000 0.000000 0.000000 0.047108 0.000000 0.000000
# 5 0.000000 0.000000 0.000000 0.000000 0.002300 0.000000
# 6 0.000000 0.000000 0.000000 0.000000 0.000000 -0.244570
#
#
# Mechanical properties :
#
#
# Convention : Reuss Voigt Hill
#
# Bulk Modulus (GPa) = 15.79907 19.71041 17.75474
# Shear Modulus (GPa) = -38.45808 104.76023 33.15107
#
# Velocity S-wave (km/s) = -4.24637 7.00846 3.94251
# Velocity P-wave (km/s) = 4.07855 8.64482 5.38972
#
# Compressibility (1/GPa) = 0.06329487
#
# Stress axis : x y z
#
# Youngs Moduli (GPa) = 37.15453 58.41236 103.74858
#
# Poissons Ratio (x) = -0.17469 -0.18319
# Poissons Ratio (y) = -0.11111 -0.00567
# Poissons Ratio (z) = -0.06560 -0.00319
#
# Static dielectric constant tensor:
#      x y z
#    x 1.810780 0.000000 0.000000 
#    y 0.000000 1.746220 0.000000 
#    z 0.000000 0.000000 1.759480 
# 
# From -- ./inp_files/29404.got.cif
#   From: 2010.05.17/outbox.cif.g08.bks.cpg/sg59_15_cif.got.tgz:29404.got - 2010.06.03 14:40:33.
