data_PCOD9451577
_publ_section_title
;
Structure prediction by ZEFSAII (Michael W. Deem and Ramdas Pophale) SiO2 
 PCOD9451577
Probable space group: P M M N
;
_chemical_formula_sum "Si O2"
_cell_formula_units_Z 48
_cell_length_a 7.995615
_cell_length_b 10.099254
_cell_length_c 29.877294
_cell_angle_alpha 90.000000
_cell_angle_beta 90.000000
_cell_angle_gamma 90.000000
_cell_volume 2412.583925
_symmetry_space_group_name_H-M "P M M N"
_symmetry_group_IT_number 59
_space_group.IT_coordinate_system_code '2'
_symmetry_cell_setting 'orthorhombic'
loop_
_space_group_symop_operation_xyz
x,y,z
1/2-x,1/2-y,z
1/2+x,-y,-z
-x,1/2+y,-z
-x,-y,-z
1/2+x,1/2+y,-z
1/2-x,y,z
x,1/2-y,z
loop_
_atom_site_type_symbol
_atom_site_label
_atom_site_fract_x
_atom_site_fract_y
_atom_site_fract_z
Si Si1 0.949879 0.099147 0.881982
Si Si2 0.950147 0.750000 0.434645
Si Si3 0.550478 0.600911 0.219005
Si Si4 0.045196 0.250000 0.462938
Si Si5 0.548103 0.898598 0.704110
Si Si6 0.452217 0.403709 0.040948
Si Si7 0.049858 0.026712 0.394894
O O1 0.750000 0.105511 0.888149
O O2 0.015257 0.250000 0.890735
O O3 0.984433 0.066177 0.830301
O O4 0.012657 0.984621 0.915146
O O5 0.750000 0.750000 0.436031
O O6 0.013239 0.750000 0.485980
O O7 0.009591 0.621000 0.408818
O O8 0.750000 0.604106 0.216116
O O9 0.489263 0.750000 0.229389
O O10 0.501379 0.500792 0.257757
O O11 0.250000 0.250000 0.464330
O O12 0.988690 0.123860 0.434098
O O13 0.750000 0.897297 0.702279
O O14 0.490576 0.750000 0.714654
O O15 0.485900 0.937588 0.654515
O O16 0.250000 0.396832 0.042504
O O17 0.511872 0.250000 0.037437
O O18 0.500000 0.500000 0.000000
O O19 0.250000 0.044409 0.393276
#
# Coordination Sequence:
#
# PCOD9451577 Si02
#       7
#     8   4   8   4   8   8   8
#     4   9  18  35  57  80 110 150 194 236 275 324
#     4  11  23  35  53  85 117 145 175 221 278 329
#     4  10  22  38  57  84 117 149 179 222 281 340
#     4   9  18  37  61  81 109 143 183 229 272 321
#     4  10  21  38  60  82 104 139 187 233 275 323
#     4  10  21  36  56  84 117 153 193 238 285 331
#     4  10  20  38  60  81 106 143 187 228 269 324
#
# _framework density 19.895679999999999
#
# number of rings (size 3 to 8) (size 9 to 14) (size 15 to 20)
#    0.000    2.167    0.833    1.750    1.167    4.333 
#    0.000    4.583    0.000    0.000    0.000    0.000 
#    0.000    0.000    0.000    0.000    0.000    0.000 
#
# Total GULP energy -267939.254659 kJ/mol
# GULP energy per Si atom -5582.067805 kJ/mol
# Density = 1.985040 g / cm^3
# Si number density = 19.895680 Si / 1000 Ang^3
#
#
#
# Elastic Constant Matrix: (Units=GPa)
#
#
# Indices 1 2 3 4 5 6 
#
# 1 11.2040 2.0248 3.0879 0.0000 0.0000 0.0000
# 2 2.0248 159.5928 98.6537 0.0000 0.0000 0.0000
# 3 3.0879 98.6537 141.8211 0.0000 0.0000 0.0000
# 4 0.0000 0.0000 0.0000 38.5622 0.0000 0.0000
# 5 0.0000 0.0000 0.0000 0.0000 14.6833 0.0000
# 6 0.0000 0.0000 0.0000 0.0000 0.0000 -20.1279
#
#
#
# Elastic Compliance Matrix: (Units=1/GPa)
#
#
# Indices 1 2 3 4 5 6 
#
# 1 0.089794 0.000122 -0.002040 0.000000 0.000000 0.000000
# 2 0.000122 0.010993 -0.007650 0.000000 0.000000 0.000000
# 3 -0.002040 -0.007650 0.012417 0.000000 0.000000 0.000000
# 4 0.000000 0.000000 0.000000 0.025932 0.000000 0.000000
# 5 0.000000 0.000000 0.000000 0.000000 0.068105 0.000000
# 6 0.000000 0.000000 0.000000 0.000000 0.000000 -0.049682
#
#
# Mechanical properties :
#
#
# Convention : Reuss Voigt Hill
#
# Bulk Modulus (GPa) = 10.63056 57.79453 34.21254
# Shear Modulus (GPa) = 24.03267 20.54695 22.28981
#
# Velocity S-wave (km/s) = 3.47930 3.21710 3.35077
# Velocity P-wave (km/s) = 4.63632 6.55069 5.67481
#
# Compressibility (1/GPa) = 0.09406845
#
# Stress axis : x y z
#
# Youngs Moduli (GPa) = 11.13659 90.96590 80.53585
#
# Poissons Ratio (x) = -0.01106 0.16427
# Poissons Ratio (y) = -0.00135 0.61607
# Poissons Ratio (z) = 0.02272 0.69586
#
# Static dielectric constant tensor:
#      x y z
#    x 1.717810 0.000000 0.000000 
#    y 0.000000 1.707940 0.000000 
#    z 0.000000 0.000000 1.675510 
# 
# From -- ./inp_files/33007.got.cif
#   From: 2010.05.17/outbox.cif.g08.bks.cpg/sg59_17_cif.got.tgz:33007.got - 2010.06.03 14:40:33.
