data_PCOD9451299
_publ_section_title
;
Structure prediction by ZEFSAII (Michael W. Deem and Ramdas Pophale) SiO2 
 PCOD9451299
Probable space group: P M M N
;
_chemical_formula_sum "Si O2"
_cell_formula_units_Z 40
_cell_length_a 16.974474
_cell_length_b 13.257177
_cell_length_c 8.046364
_cell_angle_alpha 90.000000
_cell_angle_beta 90.000000
_cell_angle_gamma 90.000000
_cell_volume 1810.702309
_symmetry_space_group_name_H-M "P M M N"
_symmetry_group_IT_number 59
_space_group.IT_coordinate_system_code '2'
_symmetry_cell_setting 'orthorhombic'
loop_
_space_group_symop_operation_xyz
x,y,z
1/2-x,1/2-y,z
1/2+x,-y,-z
-x,1/2+y,-z
-x,-y,-z
1/2+x,1/2+y,-z
1/2-x,y,z
x,1/2-y,z
loop_
_atom_site_type_symbol
_atom_site_label
_atom_site_fract_x
_atom_site_fract_y
_atom_site_fract_z
Si Si1 0.158791 0.937451 0.403570
Si Si2 0.398492 0.364969 0.233797
Si Si3 0.450995 0.973726 0.666304
Si Si4 0.657919 0.569186 0.115515
Si Si5 0.845060 0.357601 0.943719
O O1 0.250000 0.914447 0.416106
O O2 0.148491 0.055585 0.350309
O O3 0.119387 0.912662 0.578391
O O4 0.124591 0.880054 0.242455
O O5 0.399489 0.250000 0.293846
O O6 0.486601 0.412097 0.224545
O O7 0.359775 0.368972 0.050772
O O8 0.500000 0.000000 0.500000
O O9 0.409502 0.072855 0.744879
O O10 0.750000 0.580939 0.164941
O O11 0.641666 0.453518 0.057685
O O12 0.750000 0.353722 0.929910
O O13 0.874456 0.250000 0.004515
#
# Coordination Sequence:
#
# PCOD9451299 Si02
#       5
#     8   8   8   8   8
#     4   9  18  34  57  83 114 153 195 239 282 331
#     4  10  21  37  58  85 118 155 191 233 289 347
#     4  10  21  37  54  78 114 151 185 226 285 345
#     4  10  20  36  59  83 108 144 193 243 282 328
#     4   8  15  29  50  77 106 137 179 229 275 316
#
# _framework density 22.090878
#
# number of rings (size 3 to 8) (size 9 to 14) (size 15 to 20)
#    0.000    2.600    0.000    3.000    0.000    3.200 
#    0.000    4.000    0.000   10.800    0.000    0.000 
#    0.000    0.000    0.000    0.000    0.000    0.000 
#
# Total GULP energy -222761.608846 kJ/mol
# GULP energy per Si atom -5569.040221 kJ/mol
# Density = 2.204060 g / cm^3
# Si number density = 22.090878 Si / 1000 Ang^3
#
#
#
# Elastic Constant Matrix: (Units=GPa)
#
#
# Indices 1 2 3 4 5 6 
#
# 1 81.8826 -5.7391 11.7838 0.0000 0.0000 0.0000
# 2 -5.7391 71.0841 -14.6333 0.0000 0.0000 0.0000
# 3 11.7838 -14.6333 52.8956 0.0000 0.0000 0.0000
# 4 0.0000 0.0000 0.0000 0.1413 0.0000 0.0000
# 5 0.0000 0.0000 0.0000 0.0000 44.6492 0.0000
# 6 0.0000 0.0000 0.0000 0.0000 0.0000 8.9680
#
#
#
# Elastic Compliance Matrix: (Units=1/GPa)
#
#
# Indices 1 2 3 4 5 6 
#
# 1 0.012632 0.000467 -0.002685 0.000000 0.000000 0.000000
# 2 0.000467 0.014935 0.004028 0.000000 0.000000 0.000000
# 3 -0.002685 0.004028 0.020617 0.000000 0.000000 0.000000
# 4 0.000000 0.000000 0.000000 7.077187 0.000000 0.000000
# 5 0.000000 0.000000 0.000000 0.000000 0.022397 0.000000
# 6 0.000000 0.000000 0.000000 0.000000 0.000000 0.111507
#
#
# Mechanical properties :
#
#
# Convention : Reuss Voigt Hill
#
# Bulk Modulus (GPa) = 19.30366 20.96500 20.13433
# Shear Modulus (GPa) = 0.68748 25.04842 12.86795
#
# Velocity S-wave (km/s) = 0.55846 3.37097 2.41612
# Velocity P-wave (km/s) = 3.02871 4.96610 4.11311
#
# Compressibility (1/GPa) = 0.05180366
#
# Stress axis : x y z
#
# Youngs Moduli (GPa) = 79.16573 66.95835 48.50255
#
# Poissons Ratio (x) = -0.03128 0.13022
# Poissons Ratio (y) = -0.03698 -0.19535
# Poissons Ratio (z) = 0.21254 -0.26968
#
# Static dielectric constant tensor:
#      x y z
#    x 1.972080 0.000000 0.000000 
#    y 0.000000 1.824430 0.000000 
#    z 0.000000 0.000000 2.001380 
# 
# From -- ./inp_files/10000.got.cif
#   From: 2010.05.17/outbox.cif.g08.bks.cpg/sg59_5_cif.got.tgz:10000.got - 2010.06.03 14:40:33.
