data_PCOD9451195
_publ_section_title
;
Structure prediction by ZEFSAII (Michael W. Deem and Ramdas Pophale) SiO2 
 PCOD9451195
Probable space group: P M M N
;
_chemical_formula_sum "Si O2"
_cell_formula_units_Z 64
_cell_length_a 15.247076
_cell_length_b 15.882634
_cell_length_c 12.222137
_cell_angle_alpha 90.000000
_cell_angle_beta 90.000000
_cell_angle_gamma 90.000000
_cell_volume 2959.758256
_symmetry_space_group_name_H-M "P M M N"
_symmetry_group_IT_number 59
_space_group.IT_coordinate_system_code '2'
_symmetry_cell_setting 'orthorhombic'
loop_
_space_group_symop_operation_xyz
x,y,z
1/2-x,1/2-y,z
1/2+x,-y,-z
-x,1/2+y,-z
-x,-y,-z
1/2+x,1/2+y,-z
1/2-x,y,z
x,1/2-y,z
loop_
_atom_site_type_symbol
_atom_site_label
_atom_site_fract_x
_atom_site_fract_y
_atom_site_fract_z
Si Si1 0.103102 0.061526 0.708297
Si Si2 0.854971 0.992416 0.909873
Si Si3 0.890776 0.844826 0.500803
Si Si4 0.652078 0.377720 0.270002
Si Si5 0.406738 0.500783 0.341611
Si Si6 0.599089 0.158429 0.516309
Si Si7 0.143332 0.347488 0.925241
Si Si8 0.857643 0.341213 0.032706
O O1 0.145968 0.113179 0.609328
O O2 0.097891 0.120650 0.813878
O O3 0.010610 0.021769 0.667109
O O4 0.154941 0.978270 0.741013
O O5 0.750000 0.993856 0.919745
O O6 0.876544 0.993825 0.782554
O O7 0.883939 0.910138 0.977027
O O8 0.888963 0.077908 0.966411
O O9 0.859009 0.750000 0.524587
O O10 0.994212 0.837761 0.473290
O O11 0.884934 0.914094 0.596150
O O12 0.750000 0.343867 0.272278
O O13 0.613501 0.355186 0.387293
O O14 0.609359 0.346191 0.157953
O O15 0.368825 0.579367 0.412024
O O16 0.635494 0.250000 0.548981
O O17 0.250000 0.354406 0.910335
O O18 0.123691 0.250000 0.947582
O O19 0.750000 0.345301 0.036344
O O20 0.881013 0.250000 0.985178
#
# Coordination Sequence:
#
# PCOD9451195 Si02
#       8
#     8   8   8   8   8   8   8   8
#     4  11  19  37  60  85 113 145 187 240 287 338
#     4  10  22  39  58  80 111 153 193 231 280 340
#     4  10  20  37  59  81 111 151 187 228 283 340
#     4  11  19  32  58  86 113 144 184 235 287 337
#     4  11  22  38  58  82 117 155 191 230 277 339
#     4  10  20  36  56  82 114 149 185 225 282 342
#     4  10  21  39  62  85 112 147 190 242 292 332
#     4   9  18  34  55  79 109 146 184 227 281 336
#
# _framework density 21.623387999999998
#
# number of rings (size 3 to 8) (size 9 to 14) (size 15 to 20)
#    0.000    1.750    3.750    1.875    0.000    3.250 
#    0.000    0.000    0.000    1.500    0.000    0.000 
#    0.000    0.000    0.000    0.000    0.000    0.000 
#
# Total GULP energy -357271.981925 kJ/mol
# GULP energy per Si atom -5582.374718 kJ/mol
# Density = 2.157417 g / cm^3
# Si number density = 21.623388 Si / 1000 Ang^3
#
#
#
# Elastic Constant Matrix: (Units=GPa)
#
#
# Indices 1 2 3 4 5 6 
#
# 1 21.5665 9.0105 -2.3470 0.0000 0.0000 0.0000
# 2 9.0105 243.0427 102.5986 0.0000 0.0000 0.0000
# 3 -2.3470 102.5986 151.8943 0.0000 0.0000 0.0000
# 4 0.0000 0.0000 0.0000 -18.4977 0.0000 0.0000
# 5 0.0000 0.0000 0.0000 0.0000 23.9431 0.0000
# 6 0.0000 0.0000 0.0000 0.0000 0.0000 -20.0962
#
#
#
# Elastic Compliance Matrix: (Units=1/GPa)
#
#
# Indices 1 2 3 4 5 6 
#
# 1 0.047884 -0.002920 0.002712 0.000000 0.000000 0.000000
# 2 -0.002920 0.005934 -0.004053 0.000000 0.000000 0.000000
# 3 0.002712 -0.004053 0.009363 0.000000 0.000000 0.000000
# 4 0.000000 0.000000 0.000000 -0.054061 0.000000 0.000000
# 5 0.000000 0.000000 0.000000 0.000000 0.041766 0.000000
# 6 0.000000 0.000000 0.000000 0.000000 0.000000 -0.049761
#
#
# Mechanical properties :
#
#
# Convention : Reuss Voigt Hill
#
# Bulk Modulus (GPa) = 18.29542 70.55865 44.42704
# Shear Modulus (GPa) = 179.42766 17.55259 98.49012
#
# Velocity S-wave (km/s) = 9.11914 2.85220 6.75624
# Velocity P-wave (km/s) = 10.92509 6.59911 9.02513
#
# Compressibility (1/GPa) = 0.05465848
#
# Stress axis : x y z
#
# Youngs Moduli (GPa) = 20.88400 168.52680 106.80136
#
# Poissons Ratio (x) = 0.49214 -0.28969
# Poissons Ratio (y) = 0.06099 0.43288
# Poissons Ratio (z) = -0.05665 0.68306
#
# Static dielectric constant tensor:
#      x y z
#    x 1.853170 0.000000 0.000000 
#    y 0.000000 1.816420 0.000000 
#    z 0.000000 0.000000 1.781070 
# 
# From -- ./inp_files/17846.got.cif
#   From: 2010.05.17/outbox.cif.g08.bks.cpg/sg59_9_cif.got.tgz:17846.got - 2010.06.03 14:40:33.
