data_PCOD9451064
_publ_section_title
;
Structure prediction by ZEFSAII (Michael W. Deem and Ramdas Pophale) SiO2 
 PCOD9451064
Probable space group: P M M N
;
_chemical_formula_sum "Si O2"
_cell_formula_units_Z 56
_cell_length_a 15.296133
_cell_length_b 9.048832
_cell_length_c 22.528913
_cell_angle_alpha 90.000000
_cell_angle_beta 90.000000
_cell_angle_gamma 90.000000
_cell_volume 3118.275010
_symmetry_space_group_name_H-M "P M M N"
_symmetry_group_IT_number 59
_space_group.IT_coordinate_system_code '2'
_symmetry_cell_setting 'orthorhombic'
loop_
_space_group_symop_operation_xyz
x,y,z
1/2-x,1/2-y,z
1/2+x,-y,-z
-x,1/2+y,-z
-x,-y,-z
1/2+x,1/2+y,-z
1/2-x,y,z
x,1/2-y,z
loop_
_atom_site_type_symbol
_atom_site_label
_atom_site_fract_x
_atom_site_fract_y
_atom_site_fract_z
Si Si1 0.643849 0.918184 0.507287
Si Si2 0.501442 0.073493 0.290587
Si Si3 0.068127 0.573805 0.182097
Si Si4 0.929937 0.426283 0.957482
Si Si5 0.853095 0.073557 0.630233
Si Si6 0.147365 0.573818 0.613798
Si Si7 0.750000 0.582316 0.958113
Si Si8 0.750000 0.918002 0.814611
O O1 0.750000 0.914231 0.504982
O O2 0.612197 0.750000 0.514730
O O3 0.622853 0.017373 0.564190
O O4 0.615930 0.988577 0.444989
O O5 0.493776 0.250000 0.285355
O O6 0.586300 0.038768 0.330380
O O7 0.501317 0.999611 0.225961
O O8 0.417771 0.008354 0.325185
O O9 0.070299 0.750000 0.189247
O O10 0.053849 0.540228 0.112433
O O11 0.162191 0.505848 0.200263
O O12 0.929674 0.250000 0.963651
O O13 0.836394 0.493773 0.974370
O O14 0.000000 0.500000 0.000000
O O15 0.750000 0.038374 0.640509
O O16 0.863018 0.250000 0.634817
O O17 0.250000 0.539344 0.624180
O O18 0.141414 0.750000 0.602604
O O19 0.750000 0.750000 0.981013
O O20 0.750000 0.590486 0.886344
O O21 0.750000 0.750000 0.791164
#
# Coordination Sequence:
#
# PCOD9451064 Si02
#       8
#     8   8   8   8   8   8   4   4
#     4   9  17  31  53  79 104 132 172 221 269 320
#     4  11  23  36  54  79 106 140 181 225 269 323
#     4  10  21  36  54  79 113 147 182 221 269 324
#     4  10  20  35  58  85 114 150 188 229 275 325
#     4  10  21  36  53  75 108 146 177 213 266 324
#     4   9  19  37  58  77  99 132 177 227 277 324
#     4   9  17  31  53  83 115 145 181 224 267 318
#     4   9  17  31  53  79 107 143 181 216 257 310
#
# _framework density 17.958646000000002
#
# number of rings (size 3 to 8) (size 9 to 14) (size 15 to 20)
#    0.000    2.286    0.000    2.571    1.000    7.714 
#    0.000    0.000    1.571    0.000    0.000    0.000 
#    0.000    0.000    0.000    0.000    0.000    0.000 
#
# Total GULP energy -312633.507055 kJ/mol
# GULP energy per Si atom -5582.741197 kJ/mol
# Density = 1.791777 g / cm^3
# Si number density = 17.958646 Si / 1000 Ang^3
#
#
#
# Elastic Constant Matrix: (Units=GPa)
#
#
# Indices 1 2 3 4 5 6 
#
# 1 79.1473 45.2571 57.6243 0.0000 0.0000 0.0000
# 2 45.2571 82.4424 58.6132 0.0000 0.0000 0.0000
# 3 57.6243 58.6132 97.8703 0.0000 0.0000 0.0000
# 4 0.0000 0.0000 0.0000 32.4199 0.0000 0.0000
# 5 0.0000 0.0000 0.0000 0.0000 31.2261 0.0000
# 6 0.0000 0.0000 0.0000 0.0000 0.0000 24.6377
#
#
#
# Elastic Compliance Matrix: (Units=1/GPa)
#
#
# Indices 1 2 3 4 5 6 
#
# 1 0.023376 -0.005307 -0.010585 0.000000 0.000000 0.000000
# 2 -0.005307 0.022329 -0.010248 0.000000 0.000000 0.000000
# 3 -0.010585 -0.010248 0.022587 0.000000 0.000000 0.000000
# 4 0.000000 0.000000 0.000000 0.030845 0.000000 0.000000
# 5 0.000000 0.000000 0.000000 0.000000 0.032025 0.000000
# 6 0.000000 0.000000 0.000000 0.000000 0.000000 0.040588
#
#
# Mechanical properties :
#
#
# Convention : Reuss Voigt Hill
#
# Bulk Modulus (GPa) = 62.45185 64.71659 63.58422
# Shear Modulus (GPa) = 21.79919 24.18775 22.99347
#
# Velocity S-wave (km/s) = 3.48782 3.67394 3.58209
# Velocity P-wave (km/s) = 7.14638 7.35607 7.25198
#
# Compressibility (1/GPa) = 0.01601234
#
# Stress axis : x y z
#
# Youngs Moduli (GPa) = 42.77949 44.78569 44.27264
#
# Poissons Ratio (x) = 0.23766 0.46863
# Poissons Ratio (y) = 0.22701 0.45370
# Poissons Ratio (z) = 0.45283 0.45896
#
# Static dielectric constant tensor:
#      x y z
#    x 1.609470 0.000000 0.000000 
#    y 0.000000 1.602420 0.000000 
#    z 0.000000 0.000000 1.615960 
# 
# From -- ./inp_files/30428.got.cif
#   From: 2010.05.17/outbox.cif.g08.bks.cpg/sg59_16_cif.got.tgz:30428.got - 2010.06.03 14:40:33.
