data_PCOD9451358
_publ_section_title
;
Structure prediction by ZEFSAII (Michael W. Deem and Ramdas Pophale) SiO2 
 PCOD9451358
Probable space group: P M M N
;
_chemical_formula_sum "Si O2"
_cell_formula_units_Z 64
_cell_length_a 9.141779
_cell_length_b 23.546579
_cell_length_c 15.800577
_cell_angle_alpha 90.000000
_cell_angle_beta 90.000000
_cell_angle_gamma 90.000000
_cell_volume 3401.194622
_symmetry_space_group_name_H-M "P M M N"
_symmetry_group_IT_number 59
_space_group.IT_coordinate_system_code '2'
_symmetry_cell_setting 'orthorhombic'
loop_
_space_group_symop_operation_xyz
x,y,z
1/2-x,1/2-y,z
1/2+x,-y,-z
-x,1/2+y,-z
-x,-y,-z
1/2+x,1/2+y,-z
1/2-x,y,z
x,1/2-y,z
loop_
_atom_site_type_symbol
_atom_site_label
_atom_site_fract_x
_atom_site_fract_y
_atom_site_fract_z
Si Si1 0.924994 0.997523 0.908511
Si Si2 0.084561 0.316270 0.173866
Si Si3 0.579502 0.081625 0.218345
Si Si4 0.921359 0.918396 0.442185
Si Si5 0.074452 0.183762 0.675803
Si Si6 0.579657 0.971665 0.624499
Si Si7 0.422830 0.618075 0.168975
Si Si8 0.915381 0.816747 0.028137
O O1 0.750000 0.995046 0.917915
O O2 0.961379 0.052484 0.850219
O O3 0.987955 0.943883 0.859392
O O4 0.000000 0.000000 0.000000
O O5 0.250000 0.336348 0.194040
O O6 0.076508 0.250000 0.194181
O O7 0.964657 0.352731 0.221137
O O8 0.064834 0.321351 0.072420
O O9 0.750000 0.072623 0.205521
O O10 0.521350 0.051469 0.301804
O O11 0.750000 0.929839 0.420498
O O12 0.955696 0.855666 0.406680
O O13 0.934491 0.931170 0.542042
O O14 0.024728 0.965430 0.399496
O O15 0.250000 0.184888 0.687112
O O16 0.025828 0.250000 0.670998
O O17 0.005139 0.149661 0.754679
O O18 0.750000 0.973121 0.649967
O O19 0.250000 0.621325 0.184111
O O20 0.468005 0.649926 0.082792
O O21 0.750000 0.837019 0.048446
O O22 0.922230 0.750000 0.049678
#
# Coordination Sequence:
#
# PCOD9451358 Si02
#       8
#     8   8   8   8   8   8   8   8
#     4  11  24  40  57  81 114 151 192 239 291 342
#     4   9  19  37  59  80 104 138 180 226 276 326
#     4  12  24  37  56  83 114 147 184 225 272 329
#     4   9  19  37  60  85 111 140 180 230 283 338
#     4  10  21  37  57  81 111 148 188 229 277 339
#     4  10  20  36  60  87 113 143 182 230 283 338
#     4  11  23  35  50  77 110 144 184 229 276 327
#     4   9  18  33  53  75 100 136 181 224 266 316
#
# _framework density 18.816917
#
# number of rings (size 3 to 8) (size 9 to 14) (size 15 to 20)
#    0.000    1.875    0.000    4.875    0.000    9.750 
#    0.000    1.875    0.000    2.250    0.000    0.000 
#    0.000    0.000    0.000    0.000    0.000    0.000 
#
# Total GULP energy -357364.414702 kJ/mol
# GULP energy per Si atom -5583.818980 kJ/mol
# Density = 1.877409 g / cm^3
# Si number density = 18.816917 Si / 1000 Ang^3
#
#
#
# Elastic Constant Matrix: (Units=GPa)
#
#
# Indices 1 2 3 4 5 6 
#
# 1 53.2438 41.9067 24.8864 0.0000 0.0000 0.0000
# 2 41.9067 98.4045 31.1136 0.0000 0.0000 0.0000
# 3 24.8864 31.1136 36.9980 0.0000 0.0000 0.0000
# 4 0.0000 0.0000 0.0000 26.4414 0.0000 0.0000
# 5 0.0000 0.0000 0.0000 0.0000 27.5207 0.0000
# 6 0.0000 0.0000 0.0000 0.0000 0.0000 26.8109
#
#
#
# Elastic Compliance Matrix: (Units=1/GPa)
#
#
# Indices 1 2 3 4 5 6 
#
# 1 0.032882 -0.009549 -0.014088 0.000000 0.000000 0.000000
# 2 -0.009549 0.016616 -0.007550 0.000000 0.000000 0.000000
# 3 -0.014088 -0.007550 0.042854 0.000000 0.000000 0.000000
# 4 0.000000 0.000000 0.000000 0.037820 0.000000 0.000000
# 5 0.000000 0.000000 0.000000 0.000000 0.036336 0.000000
# 6 0.000000 0.000000 0.000000 0.000000 0.000000 0.037298
#
#
# Mechanical properties :
#
#
# Convention : Reuss Voigt Hill
#
# Bulk Modulus (GPa) = 33.35760 42.71774 38.03767
# Shear Modulus (GPa) = 18.10471 22.20392 20.15431
#
# Velocity S-wave (km/s) = 3.10522 3.43884 3.27628
# Velocity P-wave (km/s) = 5.53376 6.20633 5.87967
#
# Compressibility (1/GPa) = 0.02997818
#
# Stress axis : x y z
#
# Youngs Moduli (GPa) = 30.41198 60.18357 23.33518
#
# Poissons Ratio (x) = 0.57468 0.32874
# Poissons Ratio (y) = 0.29040 0.17618
# Poissons Ratio (z) = 0.42843 0.45440
#
# Static dielectric constant tensor:
#      x y z
#    x 1.634500 0.000000 0.000000 
#    y 0.000000 1.694980 0.000000 
#    z 0.000000 0.000000 1.646900 
# 
# From -- ./inp_files/21602.got.cif
#   From: 2010.05.17/outbox.cif.g08.bks.cpg/sg59_11_cif.got.tgz:21602.got - 2010.06.03 14:40:33.
