data_PCOD9451665
_publ_section_title
;
Structure prediction by ZEFSAII (Michael W. Deem and Ramdas Pophale) SiO2 
 PCOD9451665
Probable space group: P M M N
;
_chemical_formula_sum "Si O2"
_cell_formula_units_Z 64
_cell_length_a 21.973336
_cell_length_b 13.648964
_cell_length_c 12.952514
_cell_angle_alpha 90.000000
_cell_angle_beta 90.000000
_cell_angle_gamma 90.000000
_cell_volume 3884.630855
_symmetry_space_group_name_H-M "P M M N"
_symmetry_group_IT_number 59
_space_group.IT_coordinate_system_code '2'
_symmetry_cell_setting 'orthorhombic'
loop_
_space_group_symop_operation_xyz
x,y,z
1/2-x,1/2-y,z
1/2+x,-y,-z
-x,1/2+y,-z
-x,-y,-z
1/2+x,1/2+y,-z
1/2-x,y,z
x,1/2-y,z
loop_
_atom_site_type_symbol
_atom_site_label
_atom_site_fract_x
_atom_site_fract_y
_atom_site_fract_z
Si Si1 0.182879 0.056192 0.892249
Si Si2 0.066657 0.367730 0.518736
Si Si3 0.983608 0.363585 0.182113
Si Si4 0.636973 0.360476 0.041104
Si Si5 0.526435 0.009164 0.655786
Si Si6 0.559301 0.866838 0.014322
Si Si7 0.555461 0.132995 0.844510
Si Si8 0.180552 0.134844 0.666548
O O1 0.250000 0.098968 0.914222
O O2 0.125782 0.098157 0.955021
O O3 0.170448 0.074660 0.771357
O O4 0.182308 0.942409 0.920899
O O5 0.059025 0.250000 0.501425
O O6 0.064353 0.435583 0.416963
O O7 0.129446 0.382655 0.581142
O O8 0.012757 0.413692 0.589090
O O9 0.993981 0.250000 0.213004
O O10 0.983574 0.436278 0.277886
O O11 0.921477 0.365936 0.117157
O O12 0.035957 0.393811 0.099765
O O13 0.660589 0.250000 0.042826
O O14 0.608677 0.381131 0.928213
O O15 0.562711 0.071917 0.740562
O O16 0.558494 0.750000 0.015985
O O17 0.508079 0.896412 0.098310
O O18 0.551534 0.250000 0.823835
O O19 0.250000 0.117197 0.630745
O O20 0.175989 0.250000 0.695616
#
# Coordination Sequence:
#
# PCOD9451665 Si02
#       8
#     8   8   8   8   8   8   8   8
#     4  11  20  28  44  69  94 122 155 186 219 263
#     4  10  21  33  45  67  95 120 151 191 236 279
#     4   9  17  29  47  70  94 121 150 180 223 276
#     4   9  18  31  46  67  95 125 155 184 216 262
#     4  11  19  28  47  69  95 122 145 187 238 274
#     4   9  17  29  46  70  99 124 145 178 223 273
#     4   9  17  30  50  72  91 118 155 187 223 274
#     4   9  18  33  51  68  88 118 154 189 224 266
#
# _framework density 16.475183000000001
#
# number of rings (size 3 to 8) (size 9 to 14) (size 15 to 20)
#    0.000    2.375    0.000    5.625    0.000    5.000 
#    0.000    0.000    0.000    3.750    0.000    3.500 
#    0.000    0.000    0.000    0.000    0.000    0.000 
#
# Total GULP energy -356766.679814 kJ/mol
# GULP energy per Si atom -5574.479372 kJ/mol
# Density = 1.643768 g / cm^3
# Si number density = 16.475183 Si / 1000 Ang^3
#
#
#
# Elastic Constant Matrix: (Units=GPa)
#
#
# Indices 1 2 3 4 5 6 
#
# 1 56.4663 25.2107 14.4020 0.0000 0.0000 0.0000
# 2 25.2107 90.0575 40.0473 0.0000 0.0000 0.0000
# 3 14.4020 40.0473 56.7461 0.0000 0.0000 0.0000
# 4 0.0000 0.0000 0.0000 35.1338 0.0000 0.0000
# 5 0.0000 0.0000 0.0000 0.0000 12.7985 0.0000
# 6 0.0000 0.0000 0.0000 0.0000 0.0000 19.1223
#
#
#
# Elastic Compliance Matrix: (Units=1/GPa)
#
#
# Indices 1 2 3 4 5 6 
#
# 1 0.020347 -0.004954 -0.001668 0.000000 0.000000 0.000000
# 2 -0.004954 0.017389 -0.011014 0.000000 0.000000 0.000000
# 3 -0.001668 -0.011014 0.025819 0.000000 0.000000 0.000000
# 4 0.000000 0.000000 0.000000 0.028463 0.000000 0.000000
# 5 0.000000 0.000000 0.000000 0.000000 0.078134 0.000000
# 6 0.000000 0.000000 0.000000 0.000000 0.000000 0.052295
#
#
# Mechanical properties :
#
#
# Convention : Reuss Voigt Hill
#
# Bulk Modulus (GPa) = 35.35828 40.28777 37.82302
# Shear Modulus (GPa) = 18.71632 21.65157 20.18395
#
# Velocity S-wave (km/s) = 3.37416 3.62911 3.50396
# Velocity P-wave (km/s) = 6.05707 6.48593 6.27517
#
# Compressibility (1/GPa) = 0.02828192
#
# Stress axis : x y z
#
# Youngs Moduli (GPa) = 49.14729 57.50787 38.73144
#
# Poissons Ratio (x) = 0.28492 0.06459
# Poissons Ratio (y) = 0.24349 0.42661
# Poissons Ratio (z) = 0.08196 0.63342
#
# Static dielectric constant tensor:
#      x y z
#    x 1.543820 0.000000 0.000000 
#    y 0.000000 1.602900 0.000000 
#    z 0.000000 0.000000 1.552410 
# 
# From -- ./inp_files/17844.got.cif
#   From: 2010.05.17/outbox.cif.g08.bks.cpg/sg59_9_cif.got.tgz:17844.got - 2010.06.03 14:40:33.
