data_PCOD9451165
_publ_section_title
;
Structure prediction by ZEFSAII (Michael W. Deem and Ramdas Pophale) SiO2 
 PCOD9451165
Probable space group: P M M N
;
_chemical_formula_sum "Si O2"
_cell_formula_units_Z 48
_cell_length_a 8.594805
_cell_length_b 30.500965
_cell_length_c 10.382300
_cell_angle_alpha 90.000000
_cell_angle_beta 90.000000
_cell_angle_gamma 90.000000
_cell_volume 2721.718351
_symmetry_space_group_name_H-M "P M M N"
_symmetry_group_IT_number 59
_space_group.IT_coordinate_system_code '2'
_symmetry_cell_setting 'orthorhombic'
loop_
_space_group_symop_operation_xyz
x,y,z
1/2-x,1/2-y,z
1/2+x,-y,-z
-x,1/2+y,-z
-x,-y,-z
1/2+x,1/2+y,-z
1/2-x,y,z
x,1/2-y,z
loop_
_atom_site_type_symbol
_atom_site_label
_atom_site_fract_x
_atom_site_fract_y
_atom_site_fract_z
Si Si1 0.061871 0.199388 0.385729
Si Si2 0.563723 0.300683 0.102482
Si Si3 0.564266 0.466704 0.893746
Si Si4 0.936882 0.869181 0.102925
Si Si5 0.561218 0.632859 0.395103
Si Si6 0.062949 0.467916 0.609130
O O1 0.250000 0.196874 0.377994
O O2 0.020870 0.250000 0.414732
O O3 0.006236 0.166665 0.497100
O O4 0.993462 0.188167 0.246270
O O5 0.750000 0.302997 0.097772
O O6 0.516458 0.250000 0.077519
O O7 0.492804 0.333755 0.999455
O O8 0.750000 0.467688 0.893148
O O9 0.505799 0.417377 0.922538
O O10 0.501625 0.478439 0.751180
O O11 0.500000 0.500000 0.000000
O O12 0.750000 0.872521 0.100412
O O13 0.985590 0.856306 0.248686
O O14 0.750000 0.634194 0.397587
O O15 0.515904 0.582480 0.420407
O O16 0.250000 0.469716 0.613328
O O17 0.000000 0.500000 0.500000
#
# Coordination Sequence:
#
# PCOD9451165 Si02
#       6
#     8   8   8   8   8   8
#     4   9  17  32  54  77 101 133 174 218 264 314
#     4  10  21  36  52  75 109 145 181 222 267 317
#     4  11  22  38  58  81 110 144 182 225 274 328
#     4  10  20  36  57  81 108 139 178 223 272 325
#     4   8  17  33  53  77 104 132 168 217 265 312
#     4  10  20  36  55  78 109 144 182 225 272 321
#
# _framework density 17.635918
#
# number of rings (size 3 to 8) (size 9 to 14) (size 15 to 20)
#    0.000    2.333    0.000    4.000    0.000    3.000 
#    0.000   11.667    0.000    2.000    0.000    0.000 
#    0.000    0.000    0.000    0.000    0.000    0.000 
#
# Total GULP energy -267879.802094 kJ/mol
# GULP energy per Si atom -5580.829210 kJ/mol
# Density = 1.759578 g / cm^3
# Si number density = 17.635918 Si / 1000 Ang^3
#
#
#
# Elastic Constant Matrix: (Units=GPa)
#
#
# Indices 1 2 3 4 5 6 
#
# 1 73.5285 49.8671 58.3420 0.0000 0.0000 0.0000
# 2 49.8671 129.9413 142.1283 0.0000 0.0000 0.0000
# 3 58.3420 142.1283 182.0996 0.0000 0.0000 0.0000
# 4 0.0000 0.0000 0.0000 45.6287 0.0000 0.0000
# 5 0.0000 0.0000 0.0000 0.0000 22.9370 0.0000
# 6 0.0000 0.0000 0.0000 0.0000 0.0000 25.6653
#
#
#
# Elastic Compliance Matrix: (Units=1/GPa)
#
#
# Indices 1 2 3 4 5 6 
#
# 1 0.018570 -0.004231 -0.002647 0.000000 0.000000 0.000000
# 2 -0.004231 0.053567 -0.040453 0.000000 0.000000 0.000000
# 3 -0.002647 -0.040453 0.037913 0.000000 0.000000 0.000000
# 4 0.000000 0.000000 0.000000 0.021916 0.000000 0.000000
# 5 0.000000 0.000000 0.000000 0.000000 0.043598 0.000000
# 6 0.000000 0.000000 0.000000 0.000000 0.000000 0.038963
#
#
# Mechanical properties :
#
#
# Convention : Reuss Voigt Hill
#
# Bulk Modulus (GPa) = 64.98910 98.47159 81.73035
# Shear Modulus (GPa) = 15.90742 27.86167 21.88455
#
# Velocity S-wave (km/s) = 3.00657 3.97901 3.52647
# Velocity P-wave (km/s) = 6.99879 8.77879 7.93883
#
# Compressibility (1/GPa) = 0.01538719
#
# Stress axis : x y z
#
# Youngs Moduli (GPa) = 53.84974 18.66834 26.37605
#
# Poissons Ratio (x) = 0.07899 0.06983
# Poissons Ratio (y) = 0.22784 1.06699
# Poissons Ratio (z) = 0.14256 0.75519
#
# Static dielectric constant tensor:
#      x y z
#    x 1.595970 0.000000 0.000000 
#    y 0.000000 1.585260 0.000000 
#    z 0.000000 0.000000 1.575270 
# 
# From -- ./inp_files/6213.got.cif
#   From: 2010.05.17/outbox.cif.g08.bks.cpg/sg59_4_cif.got.tgz:6213.got - 2010.06.03 14:40:33.
