data_PCOD9451539
_publ_section_title
;
Structure prediction by ZEFSAII (Michael W. Deem and Ramdas Pophale) SiO2 
 PCOD9451539
Probable space group: P M M N
;
_chemical_formula_sum "Si O2"
_cell_formula_units_Z 56
_cell_length_a 19.960928
_cell_length_b 14.615289
_cell_length_c 10.097594
_cell_angle_alpha 90.000000
_cell_angle_beta 90.000000
_cell_angle_gamma 90.000000
_cell_volume 2945.818874
_symmetry_space_group_name_H-M "P M M N"
_symmetry_group_IT_number 59
_space_group.IT_coordinate_system_code '2'
_symmetry_cell_setting 'orthorhombic'
loop_
_space_group_symop_operation_xyz
x,y,z
1/2-x,1/2-y,z
1/2+x,-y,-z
-x,1/2+y,-z
-x,-y,-z
1/2+x,1/2+y,-z
1/2-x,y,z
x,1/2-y,z
loop_
_atom_site_type_symbol
_atom_site_label
_atom_site_fract_x
_atom_site_fract_y
_atom_site_fract_z
Si Si1 0.537135 0.858920 0.341807
Si Si2 0.631819 0.357161 0.264275
Si Si3 0.825236 0.858422 0.208299
Si Si4 0.522047 0.643492 0.651936
Si Si5 0.827136 0.480241 0.017373
Si Si6 0.672432 0.143610 0.557288
Si Si7 0.083454 0.532141 0.237917
O O1 0.526984 0.750000 0.322204
O O2 0.614163 0.880857 0.307448
O O3 0.520915 0.879281 0.495147
O O4 0.487745 0.915998 0.248277
O O5 0.646293 0.250000 0.241034
O O6 0.552277 0.367133 0.288293
O O7 0.665029 0.383369 0.403940
O O8 0.657880 0.415732 0.142712
O O9 0.750000 0.879314 0.259264
O O10 0.828471 0.750000 0.182361
O O11 0.834485 0.917576 0.076027
O O12 0.541632 0.750000 0.663786
O O13 0.570358 0.572865 0.724151
O O14 0.750000 0.467497 0.973689
O O15 0.879005 0.460591 0.900997
O O16 0.750000 0.140281 0.595684
O O17 0.649033 0.250000 0.566378
O O18 0.628629 0.080900 0.651177
#
# Coordination Sequence:
#
# PCOD9451539 Si02
#       7
#     8   8   8   8   8   8   8
#     4  10  20  37  62  92 121 151 198 262 313 356
#     4  10  21  40  63  87 119 160 202 247 302 364
#     4   9  20  39  61  83 115 162 207 245 296 363
#     4  10  22  39  61  91 124 156 201 257 309 362
#     4  11  25  41  57  87 126 162 204 251 299 359
#     4  10  21  38  61  88 119 160 207 250 301 366
#     4  12  23  37  61  90 124 161 200 248 313 359
#
# _framework density 19.009993999999999
#
# number of rings (size 3 to 8) (size 9 to 14) (size 15 to 20)
#    0.000    1.714    1.429    2.571    2.000    4.857 
#    0.000    3.571    0.000    2.143    0.000    0.000 
#    0.000    0.000    0.000    0.000    0.000    0.000 
#
# Total GULP energy -312902.302430 kJ/mol
# GULP energy per Si atom -5587.541115 kJ/mol
# Density = 1.896673 g / cm^3
# Si number density = 19.009994 Si / 1000 Ang^3
#
#
#
# Elastic Constant Matrix: (Units=GPa)
#
#
# Indices 1 2 3 4 5 6 
#
# 1 92.6435 39.6215 36.6178 0.0000 0.0000 0.0000
# 2 39.6215 59.7714 23.9326 0.0000 0.0000 0.0000
# 3 36.6178 23.9326 49.3449 0.0000 0.0000 0.0000
# 4 0.0000 0.0000 0.0000 116.6782 0.0000 0.0000
# 5 0.0000 0.0000 0.0000 0.0000 9.8218 0.0000
# 6 0.0000 0.0000 0.0000 0.0000 0.0000 29.0495
#
#
#
# Elastic Compliance Matrix: (Units=1/GPa)
#
#
# Indices 1 2 3 4 5 6 
#
# 1 0.018003 -0.008171 -0.009396 0.000000 0.000000 0.000000
# 2 -0.008171 0.024471 -0.005805 0.000000 0.000000 0.000000
# 3 -0.009396 -0.005805 0.030054 0.000000 0.000000 0.000000
# 4 0.000000 0.000000 0.000000 0.008571 0.000000 0.000000
# 5 0.000000 0.000000 0.000000 0.000000 0.101814 0.000000
# 6 0.000000 0.000000 0.000000 0.000000 0.000000 0.034424
#
#
# Mechanical properties :
#
#
# Convention : Reuss Voigt Hill
#
# Bulk Modulus (GPa) = 38.78585 44.67819 41.73202
# Shear Modulus (GPa) = 18.33676 37.88241 28.10958
#
# Velocity S-wave (km/s) = 3.10915 4.46888 3.84952
# Velocity P-wave (km/s) = 5.77375 7.08388 6.46210
#
# Compressibility (1/GPa) = 0.02578260
#
# Stress axis : x y z
#
# Youngs Moduli (GPa) = 55.54717 40.86389 33.27372
#
# Poissons Ratio (x) = 0.33392 0.31265
# Poissons Ratio (y) = 0.45390 0.19315
# Poissons Ratio (z) = 0.52193 0.23721
#
# Static dielectric constant tensor:
#      x y z
#    x 1.671080 0.000000 0.000000 
#    y 0.000000 1.678810 0.000000 
#    z 0.000000 0.000000 1.614030 
# 
# From -- ./inp_files/11417.got.cif
#   From: 2010.05.17/outbox.cif.g08.bks.cpg/sg59_6_cif.got.tgz:11417.got - 2010.06.03 14:40:33.
