data_PCOD9451838
_publ_section_title
;
Structure prediction by ZEFSAII (Michael W. Deem and Ramdas Pophale) SiO2 
 PCOD9451838
Probable space group: P M M N
;
_chemical_formula_sum "Si O2"
_cell_formula_units_Z 56
_cell_length_a 14.247862
_cell_length_b 15.521014
_cell_length_c 12.169274
_cell_angle_alpha 90.000000
_cell_angle_beta 90.000000
_cell_angle_gamma 90.000000
_cell_volume 2691.128653
_symmetry_space_group_name_H-M "P M M N"
_symmetry_group_IT_number 59
_space_group.IT_coordinate_system_code '2'
_symmetry_cell_setting 'orthorhombic'
loop_
_space_group_symop_operation_xyz
x,y,z
1/2-x,1/2-y,z
1/2+x,-y,-z
-x,1/2+y,-z
-x,-y,-z
1/2+x,1/2+y,-z
1/2-x,y,z
x,1/2-y,z
loop_
_atom_site_type_symbol
_atom_site_label
_atom_site_fract_x
_atom_site_fract_y
_atom_site_fract_z
Si Si1 0.854062 0.430560 0.170568
Si Si2 0.136454 0.847393 0.231485
Si Si3 0.864235 0.345837 0.514604
Si Si4 0.638028 0.850967 0.564454
Si Si5 0.400720 0.506018 0.058271
Si Si6 0.554622 0.650001 0.802660
Si Si7 0.862955 0.514949 0.385263
O O1 0.750000 0.396362 0.205084
O O2 0.881619 0.507102 0.255841
O O3 0.943052 0.366871 0.178888
O O4 0.843145 0.464697 0.047443
O O5 0.250000 0.850126 0.227841
O O6 0.107671 0.750000 0.200079
O O7 0.109176 0.861497 0.358484
O O8 0.101383 0.920279 0.150193
O O9 0.750000 0.344105 0.512826
O O10 0.896547 0.250000 0.480589
O O11 0.893341 0.424204 0.438231
O O12 0.750000 0.867212 0.582347
O O13 0.627668 0.750000 0.539772
O O14 0.584990 0.870457 0.677784
O O15 0.603105 0.907908 0.462177
O O16 0.387858 0.414959 0.118756
O O17 0.500000 0.500000 0.000000
O O18 0.575759 0.750000 0.823106
O O19 0.750000 0.519972 0.393713
#
# Coordination Sequence:
#
# PCOD9451838 Si02
#       7
#     8   8   8   8   8   8   8
#     4  10  22  38  57  82 114 154 193 230 285 353
#     4   9  17  31  55  83 105 132 177 231 284 332
#     4   8  14  25  44  74 107 133 163 210 266 321
#     4   9  18  34  57  83 111 147 192 240 286 331
#     4  10  21  36  52  73 106 144 183 231 279 331
#     4  10  22  39  59  86 116 147 192 244 289 339
#     4   9  17  31  53  81 114 151 187 225 275 336
#
# _framework density 20.809114000000001
#
# number of rings (size 3 to 8) (size 9 to 14) (size 15 to 20)
#    0.000    2.714    0.000    2.143    0.000    6.000 
#    0.000    2.143    0.000    5.143    0.000    0.000 
#    0.000    0.000    0.000    0.000    0.000    0.000 
#
# Total GULP energy -312335.958839 kJ/mol
# GULP energy per Si atom -5577.427836 kJ/mol
# Density = 2.076175 g / cm^3
# Si number density = 20.809114 Si / 1000 Ang^3
#
#
#
# Elastic Constant Matrix: (Units=GPa)
#
#
# Indices 1 2 3 4 5 6 
#
# 1 67.5793 4.5976 2.7870 0.0000 0.0000 0.0000
# 2 4.5976 82.5464 55.9654 0.0000 0.0000 0.0000
# 3 2.7870 55.9654 72.0874 0.0000 0.0000 0.0000
# 4 0.0000 0.0000 0.0000 -62.4192 0.0000 0.0000
# 5 0.0000 0.0000 0.0000 0.0000 -6.7118 0.0000
# 6 0.0000 0.0000 0.0000 0.0000 0.0000 15.6671
#
#
#
# Elastic Compliance Matrix: (Units=1/GPa)
#
#
# Indices 1 2 3 4 5 6 
#
# 1 0.014854 -0.000925 0.000144 0.000000 0.000000 0.000000
# 2 -0.000925 0.025635 -0.019866 0.000000 0.000000 0.000000
# 3 0.000144 -0.019866 0.029289 0.000000 0.000000 0.000000
# 4 0.000000 0.000000 0.000000 -0.016021 0.000000 0.000000
# 5 0.000000 0.000000 0.000000 0.000000 -0.148991 0.000000
# 6 0.000000 0.000000 0.000000 0.000000 0.000000 0.063828
#
#
# Mechanical properties :
#
#
# Convention : Reuss Voigt Hill
#
# Bulk Modulus (GPa) = 35.10666 38.76812 36.93739
# Shear Modulus (GPa) = 257.94529 -0.10191 128.92169
#
# Velocity S-wave (km/s) = 11.14571 -0.22154 7.87965
# Velocity P-wave (km/s) = 13.51086 4.31339 10.02868
#
# Compressibility (1/GPa) = 0.02848462
#
# Stress axis : x y z
#
# Youngs Moduli (GPa) = 67.32008 39.00960 34.14198
#
# Poissons Ratio (x) = 0.03607 -0.00490
# Poissons Ratio (y) = 0.06225 0.67826
# Poissons Ratio (z) = -0.00967 0.77496
#
# Static dielectric constant tensor:
#      x y z
#    x 1.831360 0.000000 0.000000 
#    y 0.000000 1.732150 0.000000 
#    z 0.000000 0.000000 1.753470 
# 
# From -- ./inp_files/16980.got.cif
#   From: 2010.05.17/outbox.cif.g08.bks.cpg/sg59_9_cif.got.tgz:16980.got - 2010.06.03 14:40:33.
