data_PCOD9451433
_publ_section_title
;
Structure prediction by ZEFSAII (Michael W. Deem and Ramdas Pophale) SiO2 
 PCOD9451433
Probable space group: P M M N
;
_chemical_formula_sum "Si O2"
_cell_formula_units_Z 64
_cell_length_a 8.553097
_cell_length_b 28.465921
_cell_length_c 14.359196
_cell_angle_alpha 90.000000
_cell_angle_beta 90.000000
_cell_angle_gamma 90.000000
_cell_volume 3496.059060
_symmetry_space_group_name_H-M "P M M N"
_symmetry_group_IT_number 59
_space_group.IT_coordinate_system_code '2'
_symmetry_cell_setting 'orthorhombic'
loop_
_space_group_symop_operation_xyz
x,y,z
1/2-x,1/2-y,z
1/2+x,-y,-z
-x,1/2+y,-z
-x,-y,-z
1/2+x,1/2+y,-z
1/2-x,y,z
x,1/2-y,z
loop_
_atom_site_type_symbol
_atom_site_label
_atom_site_fract_x
_atom_site_fract_y
_atom_site_fract_z
Si Si1 0.436324 0.014053 0.899273
Si Si2 0.062418 0.029761 0.284737
Si Si3 0.928698 0.692981 0.870146
Si Si4 0.062665 0.696552 0.067147
Si Si5 0.439441 0.195727 0.336020
Si Si6 0.560259 0.432571 0.620386
Si Si7 0.562653 0.106059 0.422156
Si Si8 0.560351 0.389956 0.812227
O O1 0.250000 0.014365 0.900402
O O2 0.498919 0.065384 0.869589
O O3 0.495366 0.979066 0.817981
O O4 0.500000 0.000000 0.000000
O O5 0.250000 0.029796 0.278936
O O6 0.004165 0.075726 0.337033
O O7 0.012186 0.984739 0.347648
O O8 0.750000 0.676158 0.878395
O O9 0.924921 0.750000 0.868308
O O10 0.020387 0.679871 0.962862
O O11 0.991837 0.680224 0.768282
O O12 0.250000 0.698644 0.074105
O O13 0.002240 0.750000 0.079867
O O14 0.005863 0.658529 0.141671
O O15 0.250000 0.194108 0.335440
O O16 0.485148 0.250000 0.351289
O O17 0.506693 0.159314 0.409272
O O18 0.750000 0.432749 0.617450
O O19 0.505006 0.416289 0.519492
O O20 0.513419 0.398234 0.704969
O O21 0.750000 0.104125 0.420553
O O22 0.750000 0.391216 0.815602
#
# Coordination Sequence:
#
# PCOD9451433 Si02
#       8
#     8   8   8   8   8   8   8   8
#     4  11  22  37  56  80 109 140 174 211 257 313
#     4  10  20  37  58  79 105 138 174 213 259 310
#     4   8  15  29  48  67  91 126 165 205 249 296
#     4   9  17  29  49  77 104 132 170 213 254 299
#     4   9  19  36  53  70  99 140 179 213 257 314
#     4   8  17  34  54  75 102 136 172 213 261 310
#     4  11  21  33  53  82 108 132 171 220 267 315
#     4   9  18  35  54  73 104 143 177 212 258 309
#
# _framework density 18.306325999999999
#
# number of rings (size 3 to 8) (size 9 to 14) (size 15 to 20)
#    0.000    2.625    0.000    3.750    0.000    2.250 
#    0.000   10.000    0.000    2.250    0.000    1.750 
#    0.000    0.000    0.000    0.000    0.000    0.000 
#
# Total GULP energy -356896.488538 kJ/mol
# GULP energy per Si atom -5576.507633 kJ/mol
# Density = 1.826466 g / cm^3
# Si number density = 18.306326 Si / 1000 Ang^3
#
#
#
# Elastic Constant Matrix: (Units=GPa)
#
#
# Indices 1 2 3 4 5 6 
#
# 1 34.6119 20.1541 24.0988 0.0000 0.0000 0.0000
# 2 20.1541 73.0624 63.0099 0.0000 0.0000 0.0000
# 3 24.0988 63.0099 113.4465 0.0000 0.0000 0.0000
# 4 0.0000 0.0000 0.0000 24.8908 0.0000 0.0000
# 5 0.0000 0.0000 0.0000 0.0000 17.8740 0.0000
# 6 0.0000 0.0000 0.0000 0.0000 0.0000 24.1359
#
#
#
# Elastic Compliance Matrix: (Units=1/GPa)
#
#
# Indices 1 2 3 4 5 6 
#
# 1 0.035349 -0.006286 -0.004018 0.000000 0.000000 0.000000
# 2 -0.006286 0.027388 -0.013876 0.000000 0.000000 0.000000
# 3 -0.004018 -0.013876 0.017375 0.000000 0.000000 0.000000
# 4 0.000000 0.000000 0.000000 0.040175 0.000000 0.000000
# 5 0.000000 0.000000 0.000000 0.000000 0.055947 0.000000
# 6 0.000000 0.000000 0.000000 0.000000 0.000000 0.041432
#
#
# Mechanical properties :
#
#
# Convention : Reuss Voigt Hill
#
# Bulk Modulus (GPa) = 31.49369 48.40516 39.94943
# Shear Modulus (GPa) = 18.07582 20.97067 19.52324
#
# Velocity S-wave (km/s) = 3.14571 3.38826 3.26924
# Velocity P-wave (km/s) = 5.51680 6.46577 6.01005
#
# Compressibility (1/GPa) = 0.03175239
#
# Stress axis : x y z
#
# Youngs Moduli (GPa) = 28.28898 36.51207 57.55268
#
# Poissons Ratio (x) = 0.22952 0.23123
# Poissons Ratio (y) = 0.17783 0.79863
# Poissons Ratio (z) = 0.11365 0.50666
#
# Static dielectric constant tensor:
#      x y z
#    x 1.627410 0.000000 0.000000 
#    y 0.000000 1.635300 0.000000 
#    z 0.000000 0.000000 1.629600 
# 
# From -- ./inp_files/15068.got.cif
#   From: 2010.05.17/outbox.cif.g08.bks.cpg/sg59_8_cif.got.tgz:15068.got - 2010.06.03 14:40:33.
