data_PCOD9451140
_publ_section_title
;
Structure prediction by ZEFSAII (Michael W. Deem and Ramdas Pophale) SiO2 
 PCOD9451140
Probable space group: P M M N
;
_chemical_formula_sum "Si O2"
_cell_formula_units_Z 48
_cell_length_a 14.748747
_cell_length_b 18.022269
_cell_length_c 9.542786
_cell_angle_alpha 90.000000
_cell_angle_beta 90.000000
_cell_angle_gamma 90.000000
_cell_volume 2536.528686
_symmetry_space_group_name_H-M "P M M N"
_symmetry_group_IT_number 59
_space_group.IT_coordinate_system_code '2'
_symmetry_cell_setting 'orthorhombic'
loop_
_space_group_symop_operation_xyz
x,y,z
1/2-x,1/2-y,z
1/2+x,-y,-z
-x,1/2+y,-z
-x,-y,-z
1/2+x,1/2+y,-z
1/2-x,y,z
x,1/2-y,z
loop_
_atom_site_type_symbol
_atom_site_label
_atom_site_fract_x
_atom_site_fract_y
_atom_site_fract_z
Si Si1 0.416803 0.966999 0.089448
Si Si2 0.848473 0.878428 0.959599
Si Si3 0.853577 0.838283 0.288752
Si Si4 0.480463 0.930434 0.400578
Si Si5 0.551348 0.336488 0.103978
Si Si6 0.355694 0.661077 0.601838
O O1 0.444106 0.956181 0.249648
O O2 0.346786 0.033669 0.071253
O O3 0.403305 0.887867 0.015074
O O4 0.500000 0.000000 0.000000
O O5 0.750000 0.846604 0.916591
O O6 0.941930 0.847818 0.893873
O O7 0.858573 0.862843 0.125757
O O8 0.750000 0.851923 0.335903
O O9 0.870909 0.750000 0.295544
O O10 0.927939 0.883793 0.373679
O O11 0.406509 0.879394 0.476387
O O12 0.500000 0.000000 0.500000
O O13 0.569597 0.250000 0.078080
O O14 0.593793 0.358305 0.253066
O O15 0.250000 0.640399 0.609699
O O16 0.361528 0.750000 0.585382
#
# Coordination Sequence:
#
# PCOD9451140 Si02
#       6
#     8   8   8   8   8   8
#     4  10  20  37  56  89 125 161 209 257 308 370
#     4  10  20  35  60  94 128 159 200 257 319 378
#     4  10  21  38  63  94 125 161 205 253 311 379
#     4  12  23  38  63  91 130 169 208 257 317 376
#     4  10  20  38  64  91 122 163 212 269 324 372
#     4  10  24  44  63  86 121 168 217 263 317 377
#
# _framework density 18.923499
#
# number of rings (size 3 to 8) (size 9 to 14) (size 15 to 20)
#    0.000    1.667    3.333    3.000    0.000    3.667 
#    0.000    2.500    0.000    3.000    0.000    0.000 
#    0.000    0.000    0.000    0.000    0.000    0.000 
#
# Total GULP energy -267830.478047 kJ/mol
# GULP energy per Si atom -5579.801626 kJ/mol
# Density = 1.888043 g / cm^3
# Si number density = 18.923499 Si / 1000 Ang^3
#
#
#
# Elastic Constant Matrix: (Units=GPa)
#
#
# Indices 1 2 3 4 5 6 
#
# 1 136.1145 44.6885 64.1310 0.0000 0.0000 0.0000
# 2 44.6885 95.1574 60.2872 0.0000 0.0000 0.0000
# 3 64.1310 60.2872 133.3353 0.0000 0.0000 0.0000
# 4 0.0000 0.0000 0.0000 32.6309 0.0000 0.0000
# 5 0.0000 0.0000 0.0000 0.0000 22.9389 0.0000
# 6 0.0000 0.0000 0.0000 0.0000 0.0000 18.3505
#
#
#
# Elastic Compliance Matrix: (Units=1/GPa)
#
#
# Indices 1 2 3 4 5 6 
#
# 1 0.009838 -0.002274 -0.003704 0.000000 0.000000 0.000000
# 2 -0.002274 0.015253 -0.005803 0.000000 0.000000 0.000000
# 3 -0.003704 -0.005803 0.011905 0.000000 0.000000 0.000000
# 4 0.000000 0.000000 0.000000 0.030646 0.000000 0.000000
# 5 0.000000 0.000000 0.000000 0.000000 0.043594 0.000000
# 6 0.000000 0.000000 0.000000 0.000000 0.000000 0.054494
#
#
# Mechanical properties :
#
#
# Convention : Reuss Voigt Hill
#
# Bulk Modulus (GPa) = 74.43065 78.09116 76.26090
# Shear Modulus (GPa) = 25.80361 27.81742 26.81052
#
# Velocity S-wave (km/s) = 3.69667 3.83821 3.76810
# Velocity P-wave (km/s) = 7.59199 7.81017 7.70185
#
# Compressibility (1/GPa) = 0.01343533
#
# Stress axis : x y z
#
# Youngs Moduli (GPa) = 101.64255 65.55964 83.99634
#
# Poissons Ratio (x) = 0.14906 0.31112
# Poissons Ratio (y) = 0.23111 0.48744
# Poissons Ratio (z) = 0.37648 0.38045
#
# Static dielectric constant tensor:
#      x y z
#    x 1.689890 0.000000 0.000000 
#    y 0.000000 1.717290 0.000000 
#    z 0.000000 0.000000 1.620190 
# 
# From -- ./inp_files/9003.got.cif
#   From: 2010.05.17/outbox.cif.g08.bks.cpg/sg59_5_cif.got.tgz:9003.got - 2010.06.03 14:40:33.
