data_PCOD9451457
_publ_section_title
;
Structure prediction by ZEFSAII (Michael W. Deem and Ramdas Pophale) SiO2 
 PCOD9451457
Probable space group: P M M N
;
_chemical_formula_sum "Si O2"
_cell_formula_units_Z 48
_cell_length_a 15.119110
_cell_length_b 8.193706
_cell_length_c 20.343674
_cell_angle_alpha 90.000000
_cell_angle_beta 90.000000
_cell_angle_gamma 90.000000
_cell_volume 2520.205712
_symmetry_space_group_name_H-M "P M M N"
_symmetry_group_IT_number 59
_space_group.IT_coordinate_system_code '2'
_symmetry_cell_setting 'orthorhombic'
loop_
_space_group_symop_operation_xyz
x,y,z
1/2-x,1/2-y,z
1/2+x,-y,-z
-x,1/2+y,-z
-x,-y,-z
1/2+x,1/2+y,-z
1/2-x,y,z
x,1/2-y,z
loop_
_atom_site_type_symbol
_atom_site_label
_atom_site_fract_x
_atom_site_fract_y
_atom_site_fract_z
Si Si1 0.649738 0.053395 0.412490
Si Si2 0.937742 0.444703 0.815690
Si Si3 0.750000 0.550579 0.022316
Si Si4 0.556472 0.947469 0.063400
Si Si5 0.851802 0.947106 0.557441
Si Si6 0.513772 0.552700 0.669948
Si Si7 0.250000 0.055050 0.129719
O O1 0.750000 0.991126 0.404118
O O2 0.652456 0.250000 0.409637
O O3 0.580871 0.995776 0.357847
O O4 0.618628 0.006366 0.485650
O O5 0.939822 0.250000 0.817989
O O6 0.964521 0.499230 0.743157
O O7 0.839103 0.499432 0.834576
O O8 0.006010 0.506886 0.871408
O O9 0.750000 0.750000 0.022575
O O10 0.841845 0.497065 0.055565
O O11 0.750000 0.496675 0.946077
O O12 0.557679 0.750000 0.064602
O O13 0.500000 0.000000 0.000000
O O14 0.750000 0.000514 0.566418
O O15 0.853159 0.750000 0.556741
O O16 0.913127 0.003549 0.617000
O O17 0.514193 0.750000 0.668894
O O18 0.250000 0.250000 0.128121
#
# Coordination Sequence:
#
# PCOD9451457 Si02
#       7
#     8   8   4   8   8   8   4
#     4   9  18  34  55  78 105 140 183 233 281 325
#     4  11  24  38  55  85 119 145 180 234 281 323
#     4   9  18  35  61  85 105 142 185 222 271 333
#     4  10  20  37  59  83 112 143 184 230 274 327
#     4   9  18  32  52  79 105 134 179 229 274 329
#     4  10  21  36  54  76 108 150 188 220 271 341
#     4  11  21  37  63  85 109 150 185 216 273 345
#
# _framework density 19.046064000000001
#
# number of rings (size 3 to 8) (size 9 to 14) (size 15 to 20)
#    0.000    2.167    1.667    1.250    1.167    2.000 
#    1.500    0.417    0.000    0.000    0.000    0.000 
#    0.000    0.000    0.000    0.000    0.000    0.000 
#
# Total GULP energy -267968.152556 kJ/mol
# GULP energy per Si atom -5582.669845 kJ/mol
# Density = 1.900271 g / cm^3
# Si number density = 19.046064 Si / 1000 Ang^3
#
#
#
# Elastic Constant Matrix: (Units=GPa)
#
#
# Indices 1 2 3 4 5 6 
#
# 1 177.1289 16.7026 122.8479 0.0000 0.0000 0.0000
# 2 16.7026 9.2053 13.7033 0.0000 0.0000 0.0000
# 3 122.8479 13.7033 181.7815 0.0000 0.0000 0.0000
# 4 0.0000 0.0000 0.0000 23.7270 0.0000 0.0000
# 5 0.0000 0.0000 0.0000 0.0000 13.2546 0.0000
# 6 0.0000 0.0000 0.0000 0.0000 0.0000 7.8314
#
#
#
# Elastic Compliance Matrix: (Units=1/GPa)
#
#
# Indices 1 2 3 4 5 6 
#
# 1 0.011451 -0.010427 -0.006952 0.000000 0.000000 0.000000
# 2 -0.010427 0.131859 -0.002893 0.000000 0.000000 0.000000
# 3 -0.006952 -0.002893 0.010418 0.000000 0.000000 0.000000
# 4 0.000000 0.000000 0.000000 0.042146 0.000000 0.000000
# 5 0.000000 0.000000 0.000000 0.000000 0.075445 0.000000
# 6 0.000000 0.000000 0.000000 0.000000 0.000000 0.127690
#
#
# Mechanical properties :
#
#
# Convention : Reuss Voigt Hill
#
# Bulk Modulus (GPa) = 8.83533 74.95816 41.89674
# Shear Modulus (GPa) = 10.47598 23.28674 16.88136
#
# Velocity S-wave (km/s) = 2.34782 3.50044 2.98038
# Velocity P-wave (km/s) = 3.46391 7.46854 5.82142
#
# Compressibility (1/GPa) = 0.11318194
#
# Stress axis : x y z
#
# Youngs Moduli (GPa) = 87.33153 7.58384 95.99166
#
# Poissons Ratio (x) = 0.07908 0.66736
# Poissons Ratio (y) = 0.91063 0.27773
# Poissons Ratio (z) = 0.60715 0.02194
#
# Static dielectric constant tensor:
#      x y z
#    x 1.647350 0.000000 0.000000 
#    y 0.000000 1.660710 0.000000 
#    z 0.000000 0.000000 1.630490 
# 
# From -- ./inp_files/25586.got.cif
#   From: 2010.05.17/outbox.cif.g08.bks.cpg/sg59_13_cif.got.tgz:25586.got - 2010.06.03 14:40:33.
