data_PCOD9451449
_publ_section_title
;
Structure prediction by ZEFSAII (Michael W. Deem and Ramdas Pophale) SiO2 
 PCOD9451449
Probable space group: P M M N
;
_chemical_formula_sum "Si O2"
_cell_formula_units_Z 64
_cell_length_a 18.107803
_cell_length_b 13.294807
_cell_length_c 14.818529
_cell_angle_alpha 90.000000
_cell_angle_beta 90.000000
_cell_angle_gamma 90.000000
_cell_volume 3567.408909
_symmetry_space_group_name_H-M "P M M N"
_symmetry_group_IT_number 59
_space_group.IT_coordinate_system_code '2'
_symmetry_cell_setting 'orthorhombic'
loop_
_space_group_symop_operation_xyz
x,y,z
1/2-x,1/2-y,z
1/2+x,-y,-z
-x,1/2+y,-z
-x,-y,-z
1/2+x,1/2+y,-z
1/2-x,y,z
x,1/2-y,z
loop_
_atom_site_type_symbol
_atom_site_label
_atom_site_fract_x
_atom_site_fract_y
_atom_site_fract_z
Si Si1 0.338659 0.982244 0.739121
Si Si2 0.440279 0.955729 0.067127
Si Si3 0.334187 0.360652 0.112764
Si Si4 0.166074 0.634822 0.926284
Si Si5 0.526772 0.868722 0.240556
Si Si6 0.572392 0.128325 0.419004
Si Si7 0.166427 0.142376 0.329172
Si Si8 0.936015 0.473595 0.605363
O O1 0.250000 0.000035 0.726905
O O2 0.349038 0.930739 0.837302
O O3 0.371715 0.911666 0.658890
O O4 0.393722 0.077946 0.743780
O O5 0.482966 0.910913 0.153069
O O6 0.387352 0.048813 0.090572
O O7 0.389800 0.881244 0.008358
O O8 0.500000 0.000000 0.000000
O O9 0.250000 0.376921 0.080765
O O10 0.358889 0.250000 0.079134
O O11 0.332228 0.354982 0.220954
O O12 0.250000 0.612677 0.956469
O O13 0.162718 0.750000 0.896544
O O14 0.535742 0.750000 0.232537
O O15 0.475556 0.898651 0.325404
O O16 0.565025 0.250000 0.414825
O O17 0.592285 0.088277 0.518909
O O18 0.496508 0.063764 0.408311
O O19 0.250000 0.142983 0.362853
O O20 0.131379 0.250000 0.358830
O O21 0.130055 0.038716 0.355632
#
# Coordination Sequence:
#
# PCOD9451449 Si02
#       8
#     8   8   8   8   8   8   8   8
#     4  10  22  42  62  84 113 150 197 246 293 341
#     4  12  22  37  56  87 120 153 193 245 286 340
#     4   9  19  36  58  83 113 149 189 234 282 333
#     4  10  21  38  59  82 114 156 197 238 289 348
#     4  11  23  40  60  85 119 157 192 236 295 355
#     4  10  21  36  60  87 111 149 196 240 288 339
#     4   9  17  32  57  85 112 145 182 223 275 333
#     4  10  20  37  58  85 120 152 185 235 288 347
#
# _framework density 17.940190999999999
#
# number of rings (size 3 to 8) (size 9 to 14) (size 15 to 20)
#    0.000    1.875    2.500    2.625    0.000    2.500 
#    0.000    0.625    0.000    1.875    0.000    0.000 
#    0.000    0.000    0.000    0.000    0.000    0.000 
#
# Total GULP energy -356421.628969 kJ/mol
# GULP energy per Si atom -5569.087953 kJ/mol
# Density = 1.789936 g / cm^3
# Si number density = 17.940191 Si / 1000 Ang^3
#
#
#
# Elastic Constant Matrix: (Units=GPa)
#
#
# Indices 1 2 3 4 5 6 
#
# 1 83.9082 56.7722 33.1506 0.0000 0.0000 0.0000
# 2 56.7722 144.3438 37.1657 0.0000 0.0000 0.0000
# 3 33.1506 37.1657 60.2689 0.0000 0.0000 0.0000
# 4 0.0000 0.0000 0.0000 17.7490 0.0000 0.0000
# 5 0.0000 0.0000 0.0000 0.0000 4.6072 0.0000
# 6 0.0000 0.0000 0.0000 0.0000 0.0000 20.1195
#
#
#
# Elastic Compliance Matrix: (Units=1/GPa)
#
#
# Indices 1 2 3 4 5 6 
#
# 1 0.018247 -0.005459 -0.006670 0.000000 0.000000 0.000000
# 2 -0.005459 0.009869 -0.003083 0.000000 0.000000 0.000000
# 3 -0.006670 -0.003083 0.022162 0.000000 0.000000 0.000000
# 4 0.000000 0.000000 0.000000 0.056341 0.000000 0.000000
# 5 0.000000 0.000000 0.000000 0.000000 0.217050 0.000000
# 6 0.000000 0.000000 0.000000 0.000000 0.000000 0.049703
#
#
# Mechanical properties :
#
#
# Convention : Reuss Voigt Hill
#
# Bulk Modulus (GPa) = 50.36904 60.29974 55.33439
# Shear Modulus (GPa) = 12.18281 19.25730 15.72006
#
# Velocity S-wave (km/s) = 2.60874 3.27986 2.96336
# Velocity P-wave (km/s) = 6.10009 6.93021 6.52836
#
# Compressibility (1/GPa) = 0.01985347
#
# Stress axis : x y z
#
# Youngs Moduli (GPa) = 54.80437 101.32829 45.12179
#
# Poissons Ratio (x) = 0.55318 0.30096
# Poissons Ratio (y) = 0.29919 0.13911
# Poissons Ratio (z) = 0.36554 0.31239
#
# Static dielectric constant tensor:
#      x y z
#    x 1.633680 0.000000 0.000000 
#    y 0.000000 1.613950 0.000000 
#    z 0.000000 0.000000 1.596050 
# 
# From -- ./inp_files/22727.got.cif
#   From: 2010.05.17/outbox.cif.g08.bks.cpg/sg59_12_cif.got.tgz:22727.got - 2010.06.03 14:40:33.
