data_PCOD9451007
_publ_section_title
;
Structure prediction by ZEFSAII (Michael W. Deem and Ramdas Pophale) SiO2 
 PCOD9451007
Probable space group: P M M N
;
_chemical_formula_sum "Si O2"
_cell_formula_units_Z 64
_cell_length_a 8.021872
_cell_length_b 25.775967
_cell_length_c 14.984085
_cell_angle_alpha 90.000000
_cell_angle_beta 90.000000
_cell_angle_gamma 90.000000
_cell_volume 3098.281851
_symmetry_space_group_name_H-M "P M M N"
_symmetry_group_IT_number 59
_space_group.IT_coordinate_system_code '2'
_symmetry_cell_setting 'orthorhombic'
loop_
_space_group_symop_operation_xyz
x,y,z
1/2-x,1/2-y,z
1/2+x,-y,-z
-x,1/2+y,-z
-x,-y,-z
1/2+x,1/2+y,-z
1/2-x,y,z
x,1/2-y,z
loop_
_atom_site_type_symbol
_atom_site_label
_atom_site_fract_x
_atom_site_fract_y
_atom_site_fract_z
Si Si1 0.950587 0.088948 0.723427
Si Si2 0.448558 0.692048 0.785968
Si Si3 0.547474 0.099299 0.342443
Si Si4 0.451368 0.193552 0.821288
Si Si5 0.450723 0.558542 0.473110
Si Si6 0.440659 0.165989 0.014956
Si Si7 0.554494 0.518644 0.793211
Si Si8 0.061840 0.556005 0.970039
O O1 0.750000 0.085537 0.721060
O O2 0.014295 0.076995 0.623537
O O3 0.003769 0.040626 0.785757
O O4 0.996164 0.144313 0.763489
O O5 0.250000 0.693656 0.772551
O O6 0.516171 0.750000 0.769027
O O7 0.511626 0.647761 0.717992
O O8 0.477026 0.678663 0.890231
O O9 0.750000 0.096443 0.336572
O O10 0.500964 0.097362 0.446484
O O11 0.470709 0.047274 0.300064
O O12 0.250000 0.192172 0.826106
O O13 0.502266 0.250000 0.785263
O O14 0.513522 0.188938 0.923770
O O15 0.500000 0.500000 0.500000
O O16 0.250000 0.558918 0.468330
O O17 0.250000 0.183088 0.023132
O O18 0.451077 0.104077 0.001420
O O19 0.750000 0.520412 0.818754
O O20 0.449646 0.551605 0.863382
O O21 0.250000 0.565325 0.000294
O O22 0.000000 0.500000 0.000000
#
# Coordination Sequence:
#
# PCOD9451007 Si02
#       8
#     8   8   8   8   8   8   8   8
#     4  10  22  38  58  88 120 150 192 241 290 348
#     4  10  21  37  57  84 117 154 196 241 290 348
#     4  10  20  35  57  84 117 153 190 236 291 348
#     4  10  23  42  61  83 113 151 197 244 290 342
#     4  10  20  36  58  87 119 152 192 238 292 349
#     4  11  22  38  60  85 113 150 197 246 296 345
#     4  11  21  35  56  84 119 153 188 235 289 346
#     4  12  24  37  53  80 118 157 197 238 290 349
#
# _framework density 20.656611999999999
#
# number of rings (size 3 to 8) (size 9 to 14) (size 15 to 20)
#    0.000    1.500    2.500    3.000    0.000    5.500 
#    0.000    0.625    0.000    2.250    0.000    0.000 
#    0.000    0.000    0.000    0.000    0.000    0.000 
#
# Total GULP energy -357437.571126 kJ/mol
# GULP energy per Si atom -5584.962049 kJ/mol
# Density = 2.060960 g / cm^3
# Si number density = 20.656612 Si / 1000 Ang^3
#
#
#
# Elastic Constant Matrix: (Units=GPa)
#
#
# Indices 1 2 3 4 5 6 
#
# 1 23.0954 0.6633 1.2517 0.0000 0.0000 0.0000
# 2 0.6633 152.6330 45.1751 0.0000 0.0000 0.0000
# 3 1.2517 45.1751 90.7585 0.0000 0.0000 0.0000
# 4 0.0000 0.0000 0.0000 17.3951 0.0000 0.0000
# 5 0.0000 0.0000 0.0000 0.0000 19.4621 0.0000
# 6 0.0000 0.0000 0.0000 0.0000 0.0000 14.7745
#
#
#
# Elastic Compliance Matrix: (Units=1/GPa)
#
#
# Indices 1 2 3 4 5 6 
#
# 1 0.043331 -0.000013 -0.000591 0.000000 0.000000 0.000000
# 2 -0.000013 0.007684 -0.003824 0.000000 0.000000 0.000000
# 3 -0.000591 -0.003824 0.012930 0.000000 0.000000 0.000000
# 4 0.000000 0.000000 0.000000 0.057488 0.000000 0.000000
# 5 0.000000 0.000000 0.000000 0.000000 0.051382 0.000000
# 6 0.000000 0.000000 0.000000 0.000000 0.000000 0.067684
#
#
# Mechanical properties :
#
#
# Convention : Reuss Voigt Hill
#
# Bulk Modulus (GPa) = 18.15299 40.07412 29.11355
# Shear Modulus (GPa) = 18.67635 24.95279 21.81457
#
# Velocity S-wave (km/s) = 3.01014 3.47937 3.25323
# Velocity P-wave (km/s) = 4.57038 5.96520 5.31376
#
# Compressibility (1/GPa) = 0.05508735
#
# Stress axis : x y z
#
# Youngs Moduli (GPa) = 23.07811 130.14702 77.33969
#
# Poissons Ratio (x) = 0.00175 0.04570
# Poissons Ratio (y) = 0.00031 0.29577
# Poissons Ratio (z) = 0.01364 0.49773
#
# Static dielectric constant tensor:
#      x y z
#    x 1.736220 0.000000 0.000000 
#    y 0.000000 1.740840 0.000000 
#    z 0.000000 0.000000 1.797890 
# 
# From -- ./inp_files/21429.got.cif
#   From: 2010.05.17/outbox.cif.g08.bks.cpg/sg59_11_cif.got.tgz:21429.got - 2010.06.03 14:40:33.
