data_PCOD9451276
_publ_section_title
;
Structure prediction by ZEFSAII (Michael W. Deem and Ramdas Pophale) SiO2 
 PCOD9451276
Probable space group: P M M N
;
_chemical_formula_sum "Si O2"
_cell_formula_units_Z 48
_cell_length_a 29.018677
_cell_length_b 8.799368
_cell_length_c 10.469238
_cell_angle_alpha 90.000000
_cell_angle_beta 90.000000
_cell_angle_gamma 90.000000
_cell_volume 2673.278233
_symmetry_space_group_name_H-M "P M M N"
_symmetry_group_IT_number 59
_space_group.IT_coordinate_system_code '2'
_symmetry_cell_setting 'orthorhombic'
loop_
_space_group_symop_operation_xyz
x,y,z
1/2-x,1/2-y,z
1/2+x,-y,-z
-x,1/2+y,-z
-x,-y,-z
1/2+x,1/2+y,-z
1/2-x,y,z
x,1/2-y,z
loop_
_atom_site_type_symbol
_atom_site_label
_atom_site_fract_x
_atom_site_fract_y
_atom_site_fract_z
Si Si1 0.551230 0.432091 0.994971
Si Si2 0.697281 0.566994 0.651758
Si Si3 0.949109 0.568391 0.498720
Si Si4 0.105352 0.568115 0.261844
Si Si5 0.801470 0.934866 0.353650
Si Si6 0.895847 0.932947 0.235386
O O1 0.547917 0.250000 0.996955
O O2 0.577495 0.477727 0.864915
O O3 0.500000 0.500000 0.000000
O O4 0.580495 0.489393 0.115350
O O5 0.750000 0.528106 0.686437
O O6 0.692770 0.750000 0.658300
O O7 0.657689 0.491075 0.734896
O O8 0.690568 0.523043 0.502245
O O9 0.950981 0.750000 0.512336
O O10 0.919890 0.500576 0.614797
O O11 0.924670 0.534758 0.363948
O O12 0.000000 0.500000 0.500000
O O13 0.104887 0.750000 0.269969
O O14 0.750000 0.985207 0.316663
O O15 0.801584 0.750000 0.352416
O O16 0.843540 0.984092 0.265037
O O17 0.896045 0.750000 0.216959
#
# Coordination Sequence:
#
# PCOD9451276 Si02
#       6
#     8   8   8   8   8   8
#     4  11  25  42  58  79 110 152 194 235 282 337
#     4   9  17  33  59  88 116 148 188 233 281 333
#     4  11  22  36  56  84 113 143 186 239 290 340
#     4  11  23  38  56  82 116 152 190 232 285 341
#     4   8  14  29  55  85 114 142 176 224 278 328
#     4  10  20  36  58  84 112 145 185 231 283 335
#
# _framework density 17.955483000000001
#
# number of rings (size 3 to 8) (size 9 to 14) (size 15 to 20)
#    0.000    2.000    1.667    3.500    0.000    8.333 
#    0.000    0.833    0.000    3.500    0.000    0.000 
#    0.000    0.000    0.000    0.000    0.000    0.000 
#
# Total GULP energy -267996.104981 kJ/mol
# GULP energy per Si atom -5583.252187 kJ/mol
# Density = 1.791462 g / cm^3
# Si number density = 17.955483 Si / 1000 Ang^3
#
#
#
# Elastic Constant Matrix: (Units=GPa)
#
#
# Indices 1 2 3 4 5 6 
#
# 1 153.8527 30.6449 59.8350 0.0000 0.0000 0.0000
# 2 30.6449 22.9082 35.0098 0.0000 0.0000 0.0000
# 3 59.8350 35.0098 103.2325 0.0000 0.0000 0.0000
# 4 0.0000 0.0000 0.0000 29.7459 0.0000 0.0000
# 5 0.0000 0.0000 0.0000 0.0000 32.8064 0.0000
# 6 0.0000 0.0000 0.0000 0.0000 0.0000 30.5251
#
#
#
# Elastic Compliance Matrix: (Units=1/GPa)
#
#
# Indices 1 2 3 4 5 6 
#
# 1 0.009136 -0.008571 -0.002389 0.000000 0.000000 0.000000
# 2 -0.008571 0.098661 -0.028491 0.000000 0.000000 0.000000
# 3 -0.002389 -0.028491 0.020734 0.000000 0.000000 0.000000
# 4 0.000000 0.000000 0.000000 0.033618 0.000000 0.000000
# 5 0.000000 0.000000 0.000000 0.000000 0.030482 0.000000
# 6 0.000000 0.000000 0.000000 0.000000 0.000000 0.032760
#
#
# Mechanical properties :
#
#
# Convention : Reuss Voigt Hill
#
# Bulk Modulus (GPa) = 20.14979 58.99697 39.57338
# Shear Modulus (GPa) = 15.58436 28.91574 22.25005
#
# Velocity S-wave (km/s) = 2.94929 4.01735 3.52402
# Velocity P-wave (km/s) = 4.77956 7.37885 6.21658
#
# Compressibility (1/GPa) = 0.04962832
#
# Stress axis : x y z
#
# Youngs Moduli (GPa) = 109.45896 10.13576 48.23047
#
# Poissons Ratio (x) = 0.08687 0.11520
# Poissons Ratio (y) = 0.93816 1.37416
# Poissons Ratio (z) = 0.26145 0.28878
#
# Static dielectric constant tensor:
#      x y z
#    x 1.623960 0.000000 0.000000 
#    y 0.000000 1.605540 0.000000 
#    z 0.000000 0.000000 1.586810 
# 
# From -- ./inp_files/12972.got.cif
#   From: 2010.05.17/outbox.cif.g08.bks.cpg/sg59_7_cif.got.tgz:12972.got - 2010.06.03 14:40:33.
