data_PCOD9451497
_publ_section_title
;
Structure prediction by ZEFSAII (Michael W. Deem and Ramdas Pophale) SiO2 
 PCOD9451497
Probable space group: P M M N
;
_chemical_formula_sum "Si O2"
_cell_formula_units_Z 56
_cell_length_a 14.989793
_cell_length_b 8.008273
_cell_length_c 23.356928
_cell_angle_alpha 90.000000
_cell_angle_beta 90.000000
_cell_angle_gamma 90.000000
_cell_volume 2803.820632
_symmetry_space_group_name_H-M "P M M N"
_symmetry_group_IT_number 59
_space_group.IT_coordinate_system_code '2'
_symmetry_cell_setting 'orthorhombic'
loop_
_space_group_symop_operation_xyz
x,y,z
1/2-x,1/2-y,z
1/2+x,-y,-z
-x,1/2+y,-z
-x,-y,-z
1/2+x,1/2+y,-z
1/2-x,y,z
x,1/2-y,z
loop_
_atom_site_type_symbol
_atom_site_label
_atom_site_fract_x
_atom_site_fract_y
_atom_site_fract_z
Si Si1 0.991507 0.948007 0.712851
Si Si2 0.646540 0.452662 0.616089
Si Si3 0.750000 0.552687 0.884912
Si Si4 0.440194 0.552747 0.160504
Si Si5 0.358902 0.943795 0.507990
Si Si6 0.147194 0.544959 0.632752
Si Si7 0.942667 0.951802 0.055520
Si Si8 0.750000 0.545140 0.016190
O O1 0.999716 0.750000 0.718189
O O2 0.081588 0.012306 0.682506
O O3 0.912993 0.987464 0.668143
O O4 0.971037 0.015304 0.775466
O O5 0.750000 0.501993 0.623471
O O6 0.644478 0.250000 0.614300
O O7 0.614181 0.516589 0.553473
O O8 0.750000 0.750000 0.890677
O O9 0.839885 0.505123 0.852177
O O10 0.750000 0.485231 0.950108
O O11 0.439607 0.750000 0.153057
O O12 0.507263 0.482989 0.112070
O O13 0.250000 0.943630 0.507564
O O14 0.387493 0.750000 0.508093
O O15 0.384016 0.016319 0.569723
O O16 0.250000 0.496522 0.641485
O O17 0.145552 0.750000 0.630696
O O18 0.939706 0.750000 0.058106
O O19 0.841139 0.009840 0.046547
O O20 0.000000 0.000000 0.000000
O O21 0.750000 0.750000 0.015749
#
# Coordination Sequence:
#
# PCOD9451497 Si02
#       8
#     8   8   4   8   8   8   8   4
#     4  11  23  36  53  78 109 146 189 231 275 326
#     4   9  18  33  53  77 107 141 178 224 278 339
#     4  11  21  37  65  91 115 147 182 223 272 325
#     4  11  24  40  58  83 117 153 187 225 269 329
#     4   7  11  24  49  77 101 131 174 223 279 338
#     4   8  15  31  54  77 103 138 182 232 283 337
#     4  10  20  37  61  87 116 147 183 226 274 324
#     4   9  18  35  61  91 117 143 174 219 278 327
#
# _framework density 19.972746999999998
#
# number of rings (size 3 to 8) (size 9 to 14) (size 15 to 20)
#    0.000    2.571    1.429    2.786    1.000    1.429 
#    1.286    0.357    0.000    2.143    0.000    4.000 
#    0.000    0.000    0.000    0.000    0.000    0.000 
#
# Total GULP energy -312442.675837 kJ/mol
# GULP energy per Si atom -5579.333497 kJ/mol
# Density = 1.992729 g / cm^3
# Si number density = 19.972747 Si / 1000 Ang^3
#
#
#
# Elastic Constant Matrix: (Units=GPa)
#
#
# Indices 1 2 3 4 5 6 
#
# 1 136.7727 1.4029 88.4237 0.0000 0.0000 0.0000
# 2 1.4029 14.8615 1.8060 0.0000 0.0000 0.0000
# 3 88.4237 1.8060 174.1573 0.0000 0.0000 0.0000
# 4 0.0000 0.0000 0.0000 3.9927 0.0000 0.0000
# 5 0.0000 0.0000 0.0000 0.0000 34.1893 0.0000
# 6 0.0000 0.0000 0.0000 0.0000 0.0000 6.3101
#
#
#
# Elastic Compliance Matrix: (Units=1/GPa)
#
#
# Indices 1 2 3 4 5 6 
#
# 1 0.010886 -0.000356 -0.005523 0.000000 0.000000 0.000000
# 2 -0.000356 0.067385 -0.000518 0.000000 0.000000 0.000000
# 3 -0.005523 -0.000518 0.008552 0.000000 0.000000 0.000000
# 4 0.000000 0.000000 0.000000 0.250456 0.000000 0.000000
# 5 0.000000 0.000000 0.000000 0.000000 0.029249 0.000000
# 6 0.000000 0.000000 0.000000 0.000000 0.000000 0.158475
#
#
# Mechanical properties :
#
#
# Convention : Reuss Voigt Hill
#
# Bulk Modulus (GPa) = 13.50856 56.56184 35.03520
# Shear Modulus (GPa) = 8.88932 24.50903 16.69918
#
# Velocity S-wave (km/s) = 2.11196 3.50683 2.89467
# Velocity P-wave (km/s) = 3.56726 6.69165 5.36207
#
# Compressibility (1/GPa) = 0.07402712
#
# Stress axis : x y z
#
# Youngs Moduli (GPa) = 91.86203 14.84016 116.93691
#
# Poissons Ratio (x) = 0.00529 0.64588
# Poissons Ratio (y) = 0.03274 0.06055
# Poissons Ratio (z) = 0.50738 0.00768
#
# Static dielectric constant tensor:
#      x y z
#    x 1.694870 0.000000 0.000000 
#    y 0.000000 1.711970 0.000000 
#    z 0.000000 0.000000 1.721670 
# 
# From -- ./inp_files/30440.got.cif
#   From: 2010.05.17/outbox.cif.g08.bks.cpg/sg59_16_cif.got.tgz:30440.got - 2010.06.03 14:40:33.
