data_PCOD9451634
_publ_section_title
;
Structure prediction by ZEFSAII (Michael W. Deem and Ramdas Pophale) SiO2 
 PCOD9451634
Probable space group: P M M N
;
_chemical_formula_sum "Si O2"
_cell_formula_units_Z 56
_cell_length_a 14.491382
_cell_length_b 15.746044
_cell_length_c 12.614591
_cell_angle_alpha 90.000000
_cell_angle_beta 90.000000
_cell_angle_gamma 90.000000
_cell_volume 2878.421829
_symmetry_space_group_name_H-M "P M M N"
_symmetry_group_IT_number 59
_space_group.IT_coordinate_system_code '2'
_symmetry_cell_setting 'orthorhombic'
loop_
_space_group_symop_operation_xyz
x,y,z
1/2-x,1/2-y,z
1/2+x,-y,-z
-x,1/2+y,-z
-x,-y,-z
1/2+x,1/2+y,-z
1/2-x,y,z
x,1/2-y,z
loop_
_atom_site_type_symbol
_atom_site_label
_atom_site_fract_x
_atom_site_fract_y
_atom_site_fract_z
Si Si1 0.085159 0.971398 0.430480
Si Si2 0.538565 0.155079 0.008689
Si Si3 0.861664 0.046386 0.183395
Si Si4 0.533716 0.067854 0.800563
Si Si5 0.643089 0.840905 0.644988
Si Si6 0.642575 0.346100 0.387746
Si Si7 0.641531 0.902235 0.879592
O O1 0.060723 0.923411 0.321668
O O2 0.135697 0.906000 0.509117
O O3 0.121315 0.065182 0.398731
O O4 0.000000 0.000000 0.500000
O O5 0.560517 0.250000 0.042385
O O6 0.548555 0.142916 0.883205
O O7 0.604222 0.092663 0.076349
O O8 0.432090 0.133900 0.037428
O O9 0.750000 0.033425 0.185208
O O10 0.894353 0.104928 0.283574
O O11 0.927355 0.964197 0.193434
O O12 0.600028 0.993551 0.847008
O O13 0.750000 0.833587 0.620303
O O14 0.599924 0.750000 0.609541
O O15 0.632951 0.848051 0.771786
O O16 0.750000 0.337990 0.363605
O O17 0.606533 0.250000 0.401852
O O18 0.750000 0.905504 0.910107
#
# Coordination Sequence:
#
# PCOD9451634 Si02
#       7
#     8   8   8   8   8   8   8
#     4  11  21  37  56  82 116 151 191 238 292 345
#     4  11  23  36  54  84 121 153 187 233 289 356
#     4  10  20  39  63  85 113 150 198 249 292 341
#     4  10  22  38  57  85 116 152 196 237 291 351
#     4   9  18  33  55  82 108 139 183 235 287 336
#     4  10  21  37  60  87 113 150 201 251 298 351
#     4   9  18  35  59  84 111 146 191 242 289 339
#
# _framework density 19.455107000000002
#
# number of rings (size 3 to 8) (size 9 to 14) (size 15 to 20)
#    0.000    2.000    1.429    3.000    0.000    5.714 
#    0.000    0.000    0.000    0.000    0.000    0.000 
#    0.000    0.000    0.000    0.000    0.000    0.000 
#
# Total GULP energy -311751.174777 kJ/mol
# GULP energy per Si atom -5566.985264 kJ/mol
# Density = 1.941083 g / cm^3
# Si number density = 19.455107 Si / 1000 Ang^3
#
#
#
# Elastic Constant Matrix: (Units=GPa)
#
#
# Indices 1 2 3 4 5 6 
#
# 1 75.6727 9.4214 7.1923 0.0000 0.0000 0.0000
# 2 9.4214 48.5395 17.8833 0.0000 0.0000 0.0000
# 3 7.1923 17.8833 106.1767 0.0000 0.0000 0.0000
# 4 0.0000 0.0000 0.0000 32.7038 0.0000 0.0000
# 5 0.0000 0.0000 0.0000 0.0000 18.2829 0.0000
# 6 0.0000 0.0000 0.0000 0.0000 0.0000 -1.0673
#
#
#
# Elastic Compliance Matrix: (Units=1/GPa)
#
#
# Indices 1 2 3 4 5 6 
#
# 1 0.013568 -0.002447 -0.000507 0.000000 0.000000 0.000000
# 2 -0.002447 0.022406 -0.003608 0.000000 0.000000 0.000000
# 3 -0.000507 -0.003608 0.010060 0.000000 0.000000 0.000000
# 4 0.000000 0.000000 0.000000 0.030577 0.000000 0.000000
# 5 0.000000 0.000000 0.000000 0.000000 0.054696 0.000000
# 6 0.000000 0.000000 0.000000 0.000000 0.000000 -0.936937
#
#
# Mechanical properties :
#
#
# Convention : Reuss Voigt Hill
#
# Bulk Modulus (GPa) = 30.38546 33.26477 31.82512
# Shear Modulus (GPa) = -6.39765 23.04335 8.32285
#
# Velocity S-wave (km/s) = -1.81537 3.44530 2.07057
# Velocity P-wave (km/s) = 3.35531 5.74126 4.70214
#
# Compressibility (1/GPa) = 0.03291047
#
# Stress axis : x y z
#
# Youngs Moduli (GPa) = 73.70499 44.63092 99.40052
#
# Poissons Ratio (x) = 0.10920 0.05039
# Poissons Ratio (y) = 0.18033 0.35865
# Poissons Ratio (z) = 0.03737 0.16103
#
# Static dielectric constant tensor:
#      x y z
#    x 1.783630 0.000000 0.000000 
#    y 0.000000 1.985940 0.000000 
#    z 0.000000 0.000000 1.778660 
# 
# From -- ./inp_files/16930.got.cif
#   From: 2010.05.17/outbox.cif.g08.bks.cpg/sg59_9_cif.got.tgz:16930.got - 2010.06.03 14:40:33.
