data_PCOD9451994
_publ_section_title
;
Structure prediction by ZEFSAII (Michael W. Deem and Ramdas Pophale) SiO2 
 PCOD9451994
Probable space group: P M M N
;
_chemical_formula_sum "Si O2"
_cell_formula_units_Z 64
_cell_length_a 28.659631
_cell_length_b 8.546080
_cell_length_c 13.462534
_cell_angle_alpha 90.000000
_cell_angle_beta 90.000000
_cell_angle_gamma 90.000000
_cell_volume 3297.344787
_symmetry_space_group_name_H-M "P M M N"
_symmetry_group_IT_number 59
_space_group.IT_coordinate_system_code '2'
_symmetry_cell_setting 'orthorhombic'
loop_
_space_group_symop_operation_xyz
x,y,z
1/2-x,1/2-y,z
1/2+x,-y,-z
-x,1/2+y,-z
-x,-y,-z
1/2+x,1/2+y,-z
1/2-x,y,z
x,1/2-y,z
loop_
_atom_site_type_symbol
_atom_site_label
_atom_site_fract_x
_atom_site_fract_y
_atom_site_fract_z
Si Si1 0.304407 0.438475 0.108189
Si Si2 0.858470 0.939133 0.694434
Si Si3 0.946540 0.063189 0.785599
Si Si4 0.644138 0.062934 0.303706
Si Si5 0.445200 0.438817 0.783386
Si Si6 0.804752 0.061779 0.103003
Si Si7 0.553010 0.562261 0.996709
Si Si8 0.196190 0.439154 0.502681
O O1 0.250000 0.486179 0.115321
O O2 0.306202 0.250000 0.106972
O O3 0.331200 0.492699 0.206355
O O4 0.322880 0.496597 0.001916
O O5 0.859016 0.750000 0.695344
O O6 0.831367 0.990776 0.595995
O O7 0.911102 0.999665 0.703909
O O8 0.946284 0.250000 0.787205
O O9 0.000587 0.012621 0.772070
O O10 0.928552 0.003043 0.893077
O O11 0.646775 0.250000 0.306207
O O12 0.669514 0.006836 0.202386
O O13 0.590592 0.009779 0.294467
O O14 0.670093 0.996097 0.399170
O O15 0.443823 0.250000 0.778317
O O16 0.428464 0.486067 0.894976
O O17 0.750000 0.017951 0.110319
O O18 0.807659 0.250000 0.099293
O O19 0.553942 0.750000 0.992129
O O20 0.500000 0.500000 0.000000
O O21 0.250000 0.492381 0.501170
O O22 0.196499 0.250000 0.502275
#
# Coordination Sequence:
#
# PCOD9451994 Si02
#       8
#     8   8   8   8   8   8   8   8
#     4   9  18  33  54  81 112 145 182 226 279 342
#     4  10  21  37  59  86 114 147 191 241 291 342
#     4  10  21  36  55  82 117 156 197 240 287 343
#     4  11  23  37  58  86 115 149 192 242 293 344
#     4   9  20  37  55  79 114 154 196 239 282 338
#     4   9  19  35  52  76 113 149 179 221 281 343
#     4   9  17  31  52  79 113 153 194 237 283 334
#     4  10  22  42  66  88 113 149 193 240 291 351
#
# _framework density 19.409558000000001
#
# number of rings (size 3 to 8) (size 9 to 14) (size 15 to 20)
#    0.000    2.375    0.000    2.625    1.750    7.250 
#    0.000    1.875    0.000    2.250    0.000    0.000 
#    0.000    0.000    0.000    0.000    0.000    0.000 
#
# Total GULP energy -357218.438001 kJ/mol
# GULP energy per Si atom -5581.538094 kJ/mol
# Density = 1.936538 g / cm^3
# Si number density = 19.409558 Si / 1000 Ang^3
#
#
#
# Elastic Constant Matrix: (Units=GPa)
#
#
# Indices 1 2 3 4 5 6 
#
# 1 129.8311 22.8931 93.6573 0.0000 0.0000 0.0000
# 2 22.8931 11.8469 26.8363 0.0000 0.0000 0.0000
# 3 93.6573 26.8363 156.7994 0.0000 0.0000 0.0000
# 4 0.0000 0.0000 0.0000 47.5767 0.0000 0.0000
# 5 0.0000 0.0000 0.0000 0.0000 39.0616 0.0000
# 6 0.0000 0.0000 0.0000 0.0000 0.0000 20.8176
#
#
#
# Elastic Compliance Matrix: (Units=1/GPa)
#
#
# Indices 1 2 3 4 5 6 
#
# 1 0.014838 -0.014040 -0.006460 0.000000 0.000000 0.000000
# 2 -0.014040 0.151143 -0.017482 0.000000 0.000000 0.000000
# 3 -0.006460 -0.017482 0.013228 0.000000 0.000000 0.000000
# 4 0.000000 0.000000 0.000000 0.021019 0.000000 0.000000
# 5 0.000000 0.000000 0.000000 0.000000 0.025601 0.000000
# 6 0.000000 0.000000 0.000000 0.000000 0.000000 0.048036
#
#
# Mechanical properties :
#
#
# Convention : Reuss Voigt Hill
#
# Bulk Modulus (GPa) = 9.68565 65.02787 37.35676
# Shear Modulus (GPa) = 13.01258 31.83055 22.42156
#
# Velocity S-wave (km/s) = 2.59206 4.05401 3.40248
# Velocity P-wave (km/s) = 3.73622 7.44910 5.89273
#
# Compressibility (1/GPa) = 0.10324552
#
# Stress axis : x y z
#
# Youngs Moduli (GPa) = 67.39450 6.61625 75.59620
#
# Poissons Ratio (x) = 0.09289 0.48834
# Poissons Ratio (y) = 0.94621 1.32158
# Poissons Ratio (z) = 0.43536 0.11567
#
# Static dielectric constant tensor:
#      x y z
#    x 1.697050 0.000000 0.000000 
#    y 0.000000 1.654560 0.000000 
#    z 0.000000 0.000000 1.668770 
# 
# From -- ./inp_files/19385.got.cif
#   From: 2010.05.17/outbox.cif.g08.bks.cpg/sg59_10_cif.got.tgz:19385.got - 2010.06.03 14:40:33.
