data_PCOD9451353
_publ_section_title
;
Structure prediction by ZEFSAII (Michael W. Deem and Ramdas Pophale) SiO2 
 PCOD9451353
Probable space group: P M M N
;
_chemical_formula_sum "Si O2"
_cell_formula_units_Z 48
_cell_length_a 17.276001
_cell_length_b 8.566640
_cell_length_c 16.945613
_cell_angle_alpha 90.000000
_cell_angle_beta 90.000000
_cell_angle_gamma 90.000000
_cell_volume 2507.904652
_symmetry_space_group_name_H-M "P M M N"
_symmetry_group_IT_number 59
_space_group.IT_coordinate_system_code '2'
_symmetry_cell_setting 'orthorhombic'
loop_
_space_group_symop_operation_xyz
x,y,z
1/2-x,1/2-y,z
1/2+x,-y,-z
-x,1/2+y,-z
-x,-y,-z
1/2+x,1/2+y,-z
1/2-x,y,z
x,1/2-y,z
loop_
_atom_site_type_symbol
_atom_site_label
_atom_site_fract_x
_atom_site_fract_y
_atom_site_fract_z
Si Si1 0.840579 0.930803 0.369952
Si Si2 0.443376 0.439739 0.774222
Si Si3 0.250000 0.436021 0.201762
Si Si4 0.078073 0.439759 0.955054
Si Si5 0.750000 0.560004 0.979491
Si Si6 0.892497 0.438369 0.699854
Si Si7 0.584062 0.064349 0.521935
O O1 0.750000 0.933273 0.355122
O O2 0.865978 0.750000 0.380619
O O3 0.884068 0.994489 0.293003
O O4 0.860400 0.016418 0.450842
O O5 0.438522 0.250000 0.776238
O O6 0.428632 0.490871 0.863491
O O7 0.527484 0.482663 0.741779
O O8 0.250000 0.250000 0.199283
O O9 0.250000 0.491704 0.111539
O O10 0.323746 0.494797 0.249096
O O11 0.075553 0.250000 0.959456
O O12 0.165020 0.487284 0.985185
O O13 0.000000 0.500000 0.000000
O O14 0.750000 0.750000 0.984272
O O15 0.887546 0.250000 0.699490
O O16 0.891562 0.492725 0.608855
O O17 0.579437 0.250000 0.526370
O O18 0.500000 0.000000 0.500000
#
# Coordination Sequence:
#
# PCOD9451353 Si02
#       7
#     8   8   4   8   4   8   8
#     4  10  21  37  58  85 116 148 191 238 278 333
#     4   9  18  35  59  85 110 145 190 232 277 336
#     4  11  23  37  55  82 115 146 188 235 279 333
#     4  10  20  36  60  86 115 151 191 235 289 345
#     4   9  20  37  57  86 119 148 182 235 295 347
#     4  10  21  38  57  80 113 149 188 231 278 333
#     4  11  22  38  59  81 112 149 189 235 285 336
#
# _framework density 19.139482999999998
#
# number of rings (size 3 to 8) (size 9 to 14) (size 15 to 20)
#    0.000    2.000    1.667    1.750    2.333    1.667 
#    0.000    2.083    0.000    0.000    0.000    0.000 
#    0.000    0.000    0.000    0.000    0.000    0.000 
#
# Total GULP energy -267763.617971 kJ/mol
# GULP energy per Si atom -5578.408708 kJ/mol
# Density = 1.909592 g / cm^3
# Si number density = 19.139483 Si / 1000 Ang^3
#
#
#
# Elastic Constant Matrix: (Units=GPa)
#
#
# Indices 1 2 3 4 5 6 
#
# 1 136.0828 25.6539 106.1773 0.0000 0.0000 0.0000
# 2 25.6539 17.4804 28.4298 0.0000 0.0000 0.0000
# 3 106.1773 28.4298 219.9113 0.0000 0.0000 0.0000
# 4 0.0000 0.0000 0.0000 21.0003 0.0000 0.0000
# 5 0.0000 0.0000 0.0000 0.0000 16.8773 0.0000
# 6 0.0000 0.0000 0.0000 0.0000 0.0000 21.1580
#
#
#
# Elastic Compliance Matrix: (Units=1/GPa)
#
#
# Indices 1 2 3 4 5 6 
#
# 1 0.013420 -0.011595 -0.004981 0.000000 0.000000 0.000000
# 2 -0.011595 0.082456 -0.005061 0.000000 0.000000 0.000000
# 3 -0.004981 -0.005061 0.007606 0.000000 0.000000 0.000000
# 4 0.000000 0.000000 0.000000 0.047618 0.000000 0.000000
# 5 0.000000 0.000000 0.000000 0.000000 0.059251 0.000000
# 6 0.000000 0.000000 0.000000 0.000000 0.000000 0.047264
#
#
# Mechanical properties :
#
#
# Convention : Reuss Voigt Hill
#
# Bulk Modulus (GPa) = 16.60908 77.11073 46.85990
# Shear Modulus (GPa) = 15.57829 26.02134 20.79982
#
# Velocity S-wave (km/s) = 2.85605 3.69123 3.30016
# Velocity P-wave (km/s) = 4.42411 7.65135 6.24964
#
# Compressibility (1/GPa) = 0.06020804
#
# Stress axis : x y z
#
# Youngs Moduli (GPa) = 74.51307 12.12773 131.46904
#
# Poissons Ratio (x) = 0.14062 0.65480
# Poissons Ratio (y) = 0.86400 0.66541
# Poissons Ratio (z) = 0.37112 0.06138
#
# Static dielectric constant tensor:
#      x y z
#    x 1.606170 0.000000 0.000000 
#    y 0.000000 1.678950 0.000000 
#    z 0.000000 0.000000 1.679950 
# 
# From -- ./inp_files/20576.got.cif
#   From: 2010.05.17/outbox.cif.g08.bks.cpg/sg59_11_cif.got.tgz:20576.got - 2010.06.03 14:40:33.
