data_PCOD9451441
_publ_section_title
;
Structure prediction by ZEFSAII (Michael W. Deem and Ramdas Pophale) SiO2 
 PCOD9451441
Probable space group: P M M N
;
_chemical_formula_sum "Si O2"
_cell_formula_units_Z 64
_cell_length_a 32.142657
_cell_length_b 7.541271
_cell_length_c 12.142697
_cell_angle_alpha 90.000000
_cell_angle_beta 90.000000
_cell_angle_gamma 90.000000
_cell_volume 2943.347097
_symmetry_space_group_name_H-M "P M M N"
_symmetry_group_IT_number 59
_space_group.IT_coordinate_system_code '2'
_symmetry_cell_setting 'orthorhombic'
loop_
_space_group_symop_operation_xyz
x,y,z
1/2-x,1/2-y,z
1/2+x,-y,-z
-x,1/2+y,-z
-x,-y,-z
1/2+x,1/2+y,-z
1/2-x,y,z
x,1/2-y,z
loop_
_atom_site_type_symbol
_atom_site_label
_atom_site_fract_x
_atom_site_fract_y
_atom_site_fract_z
Si Si1 0.296103 0.462732 0.283189
Si Si2 0.164752 0.539072 0.517042
Si Si3 0.625157 0.038704 0.109207
Si Si4 0.543967 0.968117 0.716790
Si Si5 0.297038 0.966775 0.750023
Si Si6 0.954462 0.452625 0.235786
Si Si7 0.624829 0.963585 0.851752
Si Si8 0.931039 0.546215 0.477671
O O1 0.250000 0.532054 0.258787
O O2 0.294953 0.250000 0.270031
O O3 0.308601 0.499661 0.409026
O O4 0.333118 0.530956 0.205910
O O5 0.158884 0.750000 0.525752
O O6 0.187635 0.479629 0.628281
O O7 0.118763 0.459361 0.506363
O O8 0.625140 0.250000 0.130706
O O9 0.667858 0.972108 0.164095
O O10 0.583924 0.965075 0.169244
O O11 0.623474 0.009138 0.979657
O O12 0.543664 0.750000 0.714710
O O13 0.500675 0.030592 0.768958
O O14 0.584159 0.025433 0.785549
O O15 0.548487 0.024546 0.589575
O O16 0.250000 0.026651 0.772263
O O17 0.296133 0.750000 0.751513
O O18 0.958480 0.250000 0.196141
O O19 0.942253 0.451215 0.364559
O O20 0.624911 0.750000 0.842537
O O21 0.944041 0.750000 0.463740
#
# Coordination Sequence:
#
# PCOD9451441 Si02
#       8
#     8   8   8   8   8   8   8   8
#     4  10  21  38  59  83 114 148 181 225 279 331
#     4  11  20  34  58  86 115 148 184 225 274 333
#     4  10  21  37  55  79 108 142 185 233 276 319
#     4   9  19  36  58  80 110 148 181 223 277 334
#     4   9  18  34  55  79 109 143 176 217 274 328
#     4  10  20  37  58  82 111 145 184 227 280 332
#     4  10  21  39  57  77 108 149 189 225 273 329
#     4  11  20  34  57  85 116 147 181 223 277 338
#
# _framework density 21.743953000000001
#
# number of rings (size 3 to 8) (size 9 to 14) (size 15 to 20)
#    0.000    2.000    2.500    1.500    0.000    2.750 
#    0.000    1.250    0.000    1.500    0.000    0.000 
#    0.000    0.000    0.000    0.000    0.000    0.000 
#
# Total GULP energy -357675.601076 kJ/mol
# GULP energy per Si atom -5588.681267 kJ/mol
# Density = 2.169446 g / cm^3
# Si number density = 21.743953 Si / 1000 Ang^3
#
#
#
# Elastic Constant Matrix: (Units=GPa)
#
#
# Indices 1 2 3 4 5 6 
#
# 1 169.7119 4.5191 65.3977 0.0000 0.0000 0.0000
# 2 4.5191 56.3043 -9.0552 0.0000 0.0000 0.0000
# 3 65.3977 -9.0552 128.7256 0.0000 0.0000 0.0000
# 4 0.0000 0.0000 0.0000 20.3420 0.0000 0.0000
# 5 0.0000 0.0000 0.0000 0.0000 -15.6918 0.0000
# 6 0.0000 0.0000 0.0000 0.0000 0.0000 -2.1090
#
#
#
# Elastic Compliance Matrix: (Units=1/GPa)
#
#
# Indices 1 2 3 4 5 6 
#
# 1 0.007408 -0.001214 -0.003849 0.000000 0.000000 0.000000
# 2 -0.001214 0.018163 0.001894 0.000000 0.000000 0.000000
# 3 -0.003849 0.001894 0.009857 0.000000 0.000000 0.000000
# 4 0.000000 0.000000 0.000000 0.049159 0.000000 0.000000
# 5 0.000000 0.000000 0.000000 0.000000 -0.063727 0.000000
# 6 0.000000 0.000000 0.000000 0.000000 0.000000 -0.474168
#
#
# Mechanical properties :
#
#
# Convention : Reuss Voigt Hill
#
# Bulk Modulus (GPa) = 34.37472 52.94056 43.65764
# Shear Modulus (GPa) = -11.43444 20.10026 4.33291
#
# Velocity S-wave (km/s) = -2.29567 3.04370 1.41316
# Velocity P-wave (km/s) = 2.96924 6.06237 4.77329
#
# Compressibility (1/GPa) = 0.02909115
#
# Stress axis : x y z
#
# Youngs Moduli (GPa) = 134.99331 55.05795 101.45021
#
# Poissons Ratio (x) = 0.06682 0.39046
# Poissons Ratio (y) = 0.16382 -0.19217
# Poissons Ratio (z) = 0.51956 -0.10429
#
# Static dielectric constant tensor:
#      x y z
#    x 1.798120 0.000000 0.000000 
#    y 0.000000 1.820350 0.000000 
#    z 0.000000 0.000000 1.726340 
# 
# From -- ./inp_files/19267.got.cif
#   From: 2010.05.17/outbox.cif.g08.bks.cpg/sg59_10_cif.got.tgz:19267.got - 2010.06.03 14:40:33.
