data_PCOD9451194
_publ_section_title
;
Structure prediction by ZEFSAII (Michael W. Deem and Ramdas Pophale) SiO2 
 PCOD9451194
Probable space group: P M M N
;
_chemical_formula_sum "Si O2"
_cell_formula_units_Z 48
_cell_length_a 16.542357
_cell_length_b 8.567041
_cell_length_c 18.583675
_cell_angle_alpha 90.000000
_cell_angle_beta 90.000000
_cell_angle_gamma 90.000000
_cell_volume 2633.660779
_symmetry_space_group_name_H-M "P M M N"
_symmetry_group_IT_number 59
_space_group.IT_coordinate_system_code '2'
_symmetry_cell_setting 'orthorhombic'
loop_
_space_group_symop_operation_xyz
x,y,z
1/2-x,1/2-y,z
1/2+x,-y,-z
-x,1/2+y,-z
-x,-y,-z
1/2+x,1/2+y,-z
1/2-x,y,z
x,1/2-y,z
loop_
_atom_site_type_symbol
_atom_site_label
_atom_site_fract_x
_atom_site_fract_y
_atom_site_fract_z
Si Si1 0.082174 0.438187 0.779833
Si Si2 0.750000 0.560283 0.289201
Si Si3 0.158918 0.438114 0.164538
Si Si4 0.750000 0.063348 0.451879
Si Si5 0.568204 0.937442 0.693080
Si Si6 0.913195 0.938467 0.528640
Si Si7 0.491147 0.935523 0.079749
O O1 0.081148 0.250000 0.781212
O O2 0.169973 0.488879 0.753760
O O3 0.015435 0.492951 0.722401
O O4 0.054657 0.493616 0.859216
O O5 0.750000 0.750000 0.294522
O O6 0.750000 0.492112 0.369161
O O7 0.250000 0.485108 0.149195
O O8 0.152492 0.250000 0.157647
O O9 0.134133 0.478310 0.246370
O O10 0.095094 0.516479 0.112093
O O11 0.750000 0.250000 0.455786
O O12 0.833081 0.000807 0.488399
O O13 0.560153 0.750000 0.692524
O O14 0.590429 0.985744 0.612746
O O15 0.913036 0.750000 0.523283
O O16 0.000000 0.000000 0.500000
O O17 0.498382 0.750000 0.076449
O O18 0.500000 0.000000 0.000000
#
# Coordination Sequence:
#
# PCOD9451194 Si02
#       7
#     8   4   8   4   8   8   8
#     4   9  19  35  57  82 108 143 185 229 279 331
#     4  10  20  38  60  80 105 142 191 240 285 334
#     4   9  18  34  57  82 106 139 182 224 273 329
#     4  12  26  40  56  84 119 156 199 244 295 350
#     4   9  19  34  56  80 107 143 185 229 277 334
#     4  11  23  39  59  84 117 155 196 244 297 349
#     4  10  20  36  56  81 115 147 180 221 270 327
#
# _framework density 18.225581999999999
#
# number of rings (size 3 to 8) (size 9 to 14) (size 15 to 20)
#    0.000    2.167    0.000    2.750    1.167    5.667 
#    1.500    0.000    0.000    0.000    0.000    0.000 
#    0.000    0.000    0.000    0.000    0.000    0.000 
#
# Total GULP energy -267854.527166 kJ/mol
# GULP energy per Si atom -5580.302649 kJ/mol
# Density = 1.818410 g / cm^3
# Si number density = 18.225582 Si / 1000 Ang^3
#
#
#
# Elastic Constant Matrix: (Units=GPa)
#
#
# Indices 1 2 3 4 5 6 
#
# 1 153.6310 40.9051 105.5791 0.0000 0.0000 0.0000
# 2 40.9051 35.9930 44.4395 0.0000 0.0000 0.0000
# 3 105.5791 44.4395 183.3821 0.0000 0.0000 0.0000
# 4 0.0000 0.0000 0.0000 25.0277 0.0000 0.0000
# 5 0.0000 0.0000 0.0000 0.0000 8.5957 0.0000
# 6 0.0000 0.0000 0.0000 0.0000 0.0000 30.2183
#
#
#
# Elastic Compliance Matrix: (Units=1/GPa)
#
#
# Indices 1 2 3 4 5 6 
#
# 1 0.011970 -0.007270 -0.005130 0.000000 0.000000 0.000000
# 2 -0.007270 0.044060 -0.006492 0.000000 0.000000 0.000000
# 3 -0.005130 -0.006492 0.009980 0.000000 0.000000 0.000000
# 4 0.000000 0.000000 0.000000 0.039956 0.000000 0.000000
# 5 0.000000 0.000000 0.000000 0.000000 0.116338 0.000000
# 6 0.000000 0.000000 0.000000 0.000000 0.000000 0.033093
#
#
# Mechanical properties :
#
#
# Convention : Reuss Voigt Hill
#
# Bulk Modulus (GPa) = 35.42697 83.87260 59.64979
# Shear Modulus (GPa) = 16.52409 24.90716 20.71562
#
# Velocity S-wave (km/s) = 3.01432 3.70077 3.37504
# Velocity P-wave (km/s) = 5.62095 8.02372 6.92730
#
# Compressibility (1/GPa) = 0.02822708
#
# Stress axis : x y z
#
# Youngs Moduli (GPa) = 83.54103 22.69607 100.20408
#
# Poissons Ratio (x) = 0.16500 0.51403
# Poissons Ratio (y) = 0.60736 0.65049
# Poissons Ratio (z) = 0.42855 0.14733
#
# Static dielectric constant tensor:
#      x y z
#    x 1.611900 0.000000 0.000000 
#    y 0.000000 1.635290 0.000000 
#    z 0.000000 0.000000 1.614110 
# 
# From -- ./inp_files/27480.got.cif
#   From: 2010.05.17/outbox.cif.g08.bks.cpg/sg59_14_cif.got.tgz:27480.got - 2010.06.03 14:40:33.
