data_PCOD9451989
_publ_section_title
;
Structure prediction by ZEFSAII (Michael W. Deem and Ramdas Pophale) SiO2 
 PCOD9451989
Probable space group: P M M N
;
_chemical_formula_sum "Si O2"
_cell_formula_units_Z 64
_cell_length_a 8.028936
_cell_length_b 15.101067
_cell_length_c 24.774210
_cell_angle_alpha 90.000000
_cell_angle_beta 90.000000
_cell_angle_gamma 90.000000
_cell_volume 3003.761490
_symmetry_space_group_name_H-M "P M M N"
_symmetry_group_IT_number 59
_space_group.IT_coordinate_system_code '2'
_symmetry_cell_setting 'orthorhombic'
loop_
_space_group_symop_operation_xyz
x,y,z
1/2-x,1/2-y,z
1/2+x,-y,-z
-x,1/2+y,-z
-x,-y,-z
1/2+x,1/2+y,-z
1/2-x,y,z
x,1/2-y,z
loop_
_atom_site_type_symbol
_atom_site_label
_atom_site_fract_x
_atom_site_fract_y
_atom_site_fract_z
Si Si1 0.050940 0.154833 0.128261
Si Si2 0.943951 0.155148 0.249406
Si Si3 0.049024 0.851177 0.152321
Si Si4 0.057666 0.350324 0.405156
Si Si5 0.555846 0.960683 0.376886
Si Si6 0.058593 0.850747 0.476774
Si Si7 0.952273 0.541758 0.259939
Si Si8 0.450484 0.514562 0.061645
O O1 0.250000 0.145689 0.139543
O O2 0.027478 0.250000 0.100649
O O3 0.956650 0.156842 0.184620
O O4 0.994584 0.072986 0.093385
O O5 0.750000 0.154427 0.265902
O O6 0.017784 0.250000 0.268336
O O7 0.019115 0.059240 0.261022
O O8 0.250000 0.848635 0.149809
O O9 0.987466 0.750000 0.154977
O O10 0.989756 0.902865 0.098332
O O11 0.005704 0.905385 0.206789
O O12 0.250000 0.352355 0.388198
O O13 0.991533 0.250000 0.396377
O O14 0.965754 0.432836 0.378220
O O15 0.048110 0.366578 0.469703
O O16 0.750000 0.940372 0.382802
O O17 0.467595 0.917929 0.428166
O O18 0.498452 0.922461 0.319023
O O19 0.250000 0.855866 0.495079
O O20 0.025300 0.750000 0.458022
O O21 0.750000 0.537961 0.258682
O O22 0.250000 0.517975 0.062728
O O23 0.500000 0.500000 0.000000
#
# Coordination Sequence:
#
# PCOD9451989 Si02
#       8
#     8   8   8   8   8   8   8   8
#     4   9  17  31  52  77 104 134 170 214 266 321
#     4   9  17  31  53  79 105 135 173 217 267 324
#     4  10  22  41  62  83 112 152 194 236 284 335
#     4  10  21  38  60  86 117 153 193 239 291 349
#     4  11  23  37  56  84 118 155 193 240 293 346
#     4  10  21  38  60  84 112 150 196 245 297 351
#     4  10  22  38  57  83 114 150 192 235 281 334
#     4  10  21  36  55  82 113 145 181 227 278 334
#
# _framework density 21.306621
#
# number of rings (size 3 to 8) (size 9 to 14) (size 15 to 20)
#    0.000    2.125    1.250    1.500    0.000    5.250 
#    0.000    3.750    0.000    1.500    0.000    0.000 
#    0.000    0.000    0.000    0.000    0.000    0.000 
#
# Total GULP energy -357058.681860 kJ/mol
# GULP energy per Si atom -5579.041904 kJ/mol
# Density = 2.125813 g / cm^3
# Si number density = 21.306621 Si / 1000 Ang^3
#
#
#
# Elastic Constant Matrix: (Units=GPa)
#
#
# Indices 1 2 3 4 5 6 
#
# 1 23.6468 6.5325 0.6510 0.0000 0.0000 0.0000
# 2 6.5325 119.1526 55.2099 0.0000 0.0000 0.0000
# 3 0.6510 55.2099 124.0170 0.0000 0.0000 0.0000
# 4 0.0000 0.0000 0.0000 -3.6540 0.0000 0.0000
# 5 0.0000 0.0000 0.0000 0.0000 18.8236 0.0000
# 6 0.0000 0.0000 0.0000 0.0000 0.0000 19.4632
#
#
#
# Elastic Compliance Matrix: (Units=1/GPa)
#
#
# Indices 1 2 3 4 5 6 
#
# 1 0.043045 -0.002841 0.001039 0.000000 0.000000 0.000000
# 2 -0.002841 0.010761 -0.004776 0.000000 0.000000 0.000000
# 3 0.001039 -0.004776 0.010184 0.000000 0.000000 0.000000
# 4 0.000000 0.000000 0.000000 -0.273676 0.000000 0.000000
# 5 0.000000 0.000000 0.000000 0.000000 0.053125 0.000000
# 6 0.000000 0.000000 0.000000 0.000000 0.000000 0.051379
#
#
# Mechanical properties :
#
#
# Convention : Reuss Voigt Hill
#
# Bulk Modulus (GPa) = 19.67176 43.51145 31.59160
# Shear Modulus (GPa) = -66.59491 20.55478 -23.02006
#
# Velocity S-wave (km/s) = -5.59673 3.10935 -3.29054
# Velocity P-wave (km/s) = 5.70191 5.77552 0.64997
#
# Compressibility (1/GPa) = 0.05083430
#
# Stress axis : x y z
#
# Youngs Moduli (GPa) = 23.23132 92.92599 98.19286
#
# Poissons Ratio (x) = 0.26403 -0.10202
# Poissons Ratio (y) = 0.06601 0.46895
# Poissons Ratio (z) = -0.02414 0.44379
#
# Static dielectric constant tensor:
#      x y z
#    x 1.754010 0.000000 0.000000 
#    y 0.000000 1.814770 0.000000 
#    z 0.000000 0.000000 1.758610 
# 
# From -- ./inp_files/31434.got.cif
#   From: 2010.05.17/outbox.cif.g08.bks.cpg/sg59_16_cif.got.tgz:31434.got - 2010.06.03 14:40:33.
