data_PCOD9451046
_publ_section_title
;
Structure prediction by ZEFSAII (Michael W. Deem and Ramdas Pophale) SiO2 
 PCOD9451046
Probable space group: P M M N
;
_chemical_formula_sum "Si O2"
_cell_formula_units_Z 48
_cell_length_a 8.973023
_cell_length_b 16.358064
_cell_length_c 16.838764
_cell_angle_alpha 90.000000
_cell_angle_beta 90.000000
_cell_angle_gamma 90.000000
_cell_volume 2471.615409
_symmetry_space_group_name_H-M "P M M N"
_symmetry_group_IT_number 59
_space_group.IT_coordinate_system_code '2'
_symmetry_cell_setting 'orthorhombic'
loop_
_space_group_symop_operation_xyz
x,y,z
1/2-x,1/2-y,z
1/2+x,-y,-z
-x,1/2+y,-z
-x,-y,-z
1/2+x,1/2+y,-z
1/2-x,y,z
x,1/2-y,z
loop_
_atom_site_type_symbol
_atom_site_label
_atom_site_fract_x
_atom_site_fract_y
_atom_site_fract_z
Si Si1 0.924952 0.569489 0.221993
Si Si2 0.426639 0.152257 0.475211
Si Si3 0.929638 0.425102 0.950182
Si Si4 0.568590 0.250000 0.207303
Si Si5 0.925993 0.099489 0.316158
Si Si6 0.082325 0.652558 0.363036
Si Si7 0.431221 0.750000 0.974658
O O1 0.750000 0.582380 0.205954
O O2 0.942310 0.484222 0.268739
O O3 0.014094 0.569157 0.140049
O O4 0.989203 0.633750 0.284594
O O5 0.250000 0.143222 0.482874
O O6 0.458635 0.250000 0.464351
O O7 0.487461 0.105876 0.398451
O O8 0.503914 0.122950 0.556359
O O9 0.750000 0.430557 0.954464
O O10 0.975251 0.335464 0.984036
O O11 0.000000 0.500000 0.000000
O O12 0.750000 0.250000 0.204168
O O13 0.522597 0.328888 0.257082
O O14 0.516756 0.250000 0.116695
O O15 0.750000 0.111927 0.333161
O O16 0.250000 0.619233 0.355811
O O17 0.091084 0.750000 0.371036
O O18 0.250000 0.750000 0.974789
#
# Coordination Sequence:
#
# PCOD9451046 Si02
#       7
#     8   8   8   4   8   8   4
#     4  11  24  40  60  90 123 158 203 254 307 360
#     4  10  20  35  57  87 122 156 195 248 305 354
#     4  11  23  42  66  93 128 166 209 261 316 378
#     4   9  16  32  59  86 111 146 195 241 284 353
#     4  10  20  35  59  86 117 157 200 243 295 359
#     4  10  22  40  62  85 115 159 209 251 298 362
#     4   9  20  38  63  90 119 162 207 249 310 381
#
# _framework density 19.420497999999998
#
# number of rings (size 3 to 8) (size 9 to 14) (size 15 to 20)
#    0.000    1.833    0.833    3.000    1.167    6.333 
#    0.000    1.250    0.000    1.000    0.000    0.000 
#    0.000    0.000    0.000    0.000    0.000    0.000 
#
# Total GULP energy -268119.012162 kJ/mol
# GULP energy per Si atom -5585.812753 kJ/mol
# Density = 1.937630 g / cm^3
# Si number density = 19.420498 Si / 1000 Ang^3
#
#
#
# Elastic Constant Matrix: (Units=GPa)
#
#
# Indices 1 2 3 4 5 6 
#
# 1 65.1949 44.5936 55.3463 0.0000 0.0000 0.0000
# 2 44.5936 66.1766 44.0912 0.0000 0.0000 0.0000
# 3 55.3463 44.0912 162.8085 0.0000 0.0000 0.0000
# 4 0.0000 0.0000 0.0000 22.5093 0.0000 0.0000
# 5 0.0000 0.0000 0.0000 0.0000 37.2780 0.0000
# 6 0.0000 0.0000 0.0000 0.0000 0.0000 19.4225
#
#
#
# Elastic Compliance Matrix: (Units=1/GPa)
#
#
# Indices 1 2 3 4 5 6 
#
# 1 0.033091 -0.018063 -0.006357 0.000000 0.000000 0.000000
# 2 -0.018063 0.028298 -0.001523 0.000000 0.000000 0.000000
# 3 -0.006357 -0.001523 0.008716 0.000000 0.000000 0.000000
# 4 0.000000 0.000000 0.000000 0.044426 0.000000 0.000000
# 5 0.000000 0.000000 0.000000 0.000000 0.026825 0.000000
# 6 0.000000 0.000000 0.000000 0.000000 0.000000 0.051487
#
#
# Mechanical properties :
#
#
# Convention : Reuss Voigt Hill
#
# Bulk Modulus (GPa) = 54.89168 64.69359 59.79264
# Shear Modulus (GPa) = 19.93613 25.85188 22.89400
#
# Velocity S-wave (km/s) = 3.20746 3.65247 3.43717
# Velocity P-wave (km/s) = 6.48408 7.15344 6.82697
#
# Compressibility (1/GPa) = 0.01821770
#
# Stress axis : x y z
#
# Youngs Moduli (GPa) = 30.22011 35.33879 114.73373
#
# Poissons Ratio (x) = 0.63831 0.72941
# Poissons Ratio (y) = 0.54585 0.17475
# Poissons Ratio (z) = 0.19212 0.05382
#
# Static dielectric constant tensor:
#      x y z
#    x 1.671840 0.000000 0.000000 
#    y 0.000000 1.331340 0.000000 
#    z 0.000000 0.000000 1.634240 
# 
# From -- ./inp_files/20530.got.cif
#   From: 2010.05.17/outbox.cif.g08.bks.cpg/sg59_11_cif.got.tgz:20530.got - 2010.06.03 14:40:33.
