data_PCOD9451856
_publ_section_title
;
Structure prediction by ZEFSAII (Michael W. Deem and Ramdas Pophale) SiO2 
 PCOD9451856
Probable space group: P M M N
;
_chemical_formula_sum "Si O2"
_cell_formula_units_Z 64
_cell_length_a 9.301505
_cell_length_b 15.319151
_cell_length_c 24.345246
_cell_angle_alpha 90.000000
_cell_angle_beta 90.000000
_cell_angle_gamma 90.000000
_cell_volume 3468.982334
_symmetry_space_group_name_H-M "P M M N"
_symmetry_group_IT_number 59
_space_group.IT_coordinate_system_code '2'
_symmetry_cell_setting 'orthorhombic'
loop_
_space_group_symop_operation_xyz
x,y,z
1/2-x,1/2-y,z
1/2+x,-y,-z
-x,1/2+y,-z
-x,-y,-z
1/2+x,1/2+y,-z
1/2-x,y,z
x,1/2-y,z
loop_
_atom_site_type_symbol
_atom_site_label
_atom_site_fract_x
_atom_site_fract_y
_atom_site_fract_z
Si Si1 0.422462 0.354193 0.995548
Si Si2 0.079011 0.845707 0.267628
Si Si3 0.076218 0.486907 0.197810
Si Si4 0.413325 0.909346 0.604311
Si Si5 0.914867 0.614696 0.378320
Si Si6 0.077930 0.519036 0.918480
Si Si7 0.916797 0.849354 0.708636
Si Si8 0.584162 0.851706 0.500920
O O1 0.250000 0.356917 0.006165
O O2 0.459672 0.250000 0.988658
O O3 0.449229 0.422073 0.944879
O O4 0.507577 0.404417 0.044112
O O5 0.250000 0.854056 0.276085
O O6 0.047945 0.750000 0.244576
O O7 0.004256 0.854385 0.326504
O O8 0.035948 0.921735 0.226334
O O9 0.250000 0.484122 0.189401
O O10 0.037695 0.413591 0.242795
O O11 0.994382 0.476059 0.140982
O O12 0.250000 0.878342 0.598952
O O13 0.494820 0.860120 0.652922
O O14 0.492518 0.900768 0.546247
O O15 0.413471 0.010193 0.621648
O O16 0.750000 0.646084 0.374081
O O17 0.970370 0.641437 0.438488
O O18 0.250000 0.530545 0.916440
O O19 0.750000 0.870006 0.695674
O O20 0.925475 0.750000 0.727852
O O21 0.750000 0.883627 0.500609
O O22 0.584898 0.750000 0.516639
#
# Coordination Sequence:
#
# PCOD9451856 Si02
#       8
#     8   8   8   8   8   8   8   8
#     4   9  19  38  62  87 120 162 200 233 279 339
#     4  10  21  37  58  83 110 144 187 234 283 333
#     4  10  21  38  57  81 116 154 192 233 277 333
#     4  11  22  35  54  80 107 136 176 228 286 339
#     4  10  21  37  56  78 105 140 181 225 280 343
#     4  10  21  36  58  90 123 154 195 244 286 326
#     4  10  21  38  59  79 103 145 193 230 275 337
#     4  10  21  36  53  74 102 138 179 222 275 345
#
# _framework density 18.449214000000001
#
# number of rings (size 3 to 8) (size 9 to 14) (size 15 to 20)
#    0.000    2.000    1.250    1.875    0.000    6.500 
#    0.000    1.250    0.000    0.000    0.000    0.000 
#    0.000    0.000    0.000    0.000    0.000    0.000 
#
# Total GULP energy -357091.859425 kJ/mol
# GULP energy per Si atom -5579.560304 kJ/mol
# Density = 1.840722 g / cm^3
# Si number density = 18.449214 Si / 1000 Ang^3
#
#
#
# Elastic Constant Matrix: (Units=GPa)
#
#
# Indices 1 2 3 4 5 6 
#
# 1 38.1259 18.2113 32.1956 0.0000 0.0000 0.0000
# 2 18.2113 80.2097 12.1073 0.0000 0.0000 0.0000
# 3 32.1956 12.1073 84.1128 0.0000 0.0000 0.0000
# 4 0.0000 0.0000 0.0000 64.1771 0.0000 0.0000
# 5 0.0000 0.0000 0.0000 0.0000 34.0546 0.0000
# 6 0.0000 0.0000 0.0000 0.0000 0.0000 199.1142
#
#
#
# Elastic Compliance Matrix: (Units=1/GPa)
#
#
# Indices 1 2 3 4 5 6 
#
# 1 0.042638 -0.007378 -0.015258 0.000000 0.000000 0.000000
# 2 -0.007378 0.014021 0.000806 0.000000 0.000000 0.000000
# 3 -0.015258 0.000806 0.017613 0.000000 0.000000 0.000000
# 4 0.000000 0.000000 0.000000 0.015582 0.000000 0.000000
# 5 0.000000 0.000000 0.000000 0.000000 0.029365 0.000000
# 6 0.000000 0.000000 0.000000 0.000000 0.000000 0.005022
#
#
# Mechanical properties :
#
#
# Convention : Reuss Voigt Hill
#
# Bulk Modulus (GPa) = 32.66761 36.38629 34.52695
# Shear Modulus (GPa) = 28.07331 68.79812 48.43571
#
# Velocity S-wave (km/s) = 3.90507 6.11322 5.12938
# Velocity P-wave (km/s) = 6.17073 8.34229 7.33730
#
# Compressibility (1/GPa) = 0.03061136
#
# Stress axis : x y z
#
# Youngs Moduli (GPa) = 23.45327 71.32286 56.77543
#
# Poissons Ratio (x) = 0.52619 0.86631
# Poissons Ratio (y) = 0.17303 -0.04575
# Poissons Ratio (z) = 0.35786 -0.05747
#
# Static dielectric constant tensor:
#      x y z
#    x 1.634280 0.000000 0.000000 
#    y 0.000000 1.663650 0.000000 
#    z 0.000000 0.000000 1.596040 
# 
# From -- ./inp_files/31508.got.cif
#   From: 2010.05.17/outbox.cif.g08.bks.cpg/sg59_16_cif.got.tgz:31508.got - 2010.06.03 14:40:33.
