data_PCOD9451517
_publ_section_title
;
Structure prediction by ZEFSAII (Michael W. Deem and Ramdas Pophale) SiO2 
 PCOD9451517
Probable space group: P M M N
;
_chemical_formula_sum "Si O2"
_cell_formula_units_Z 56
_cell_length_a 22.980271
_cell_length_b 10.665459
_cell_length_c 11.786472
_cell_angle_alpha 90.000000
_cell_angle_beta 90.000000
_cell_angle_gamma 90.000000
_cell_volume 2888.806983
_symmetry_space_group_name_H-M "P M M N"
_symmetry_group_IT_number 59
_space_group.IT_coordinate_system_code '2'
_symmetry_cell_setting 'orthorhombic'
loop_
_space_group_symop_operation_xyz
x,y,z
1/2-x,1/2-y,z
1/2+x,-y,-z
-x,1/2+y,-z
-x,-y,-z
1/2+x,1/2+y,-z
1/2-x,y,z
x,1/2-y,z
loop_
_atom_site_type_symbol
_atom_site_label
_atom_site_fract_x
_atom_site_fract_y
_atom_site_fract_z
Si Si1 0.594646 0.966763 0.963875
Si Si2 0.183988 0.899973 0.883549
Si Si3 0.007192 0.893857 0.405347
Si Si4 0.683467 0.887286 0.780202
Si Si5 0.989807 0.893126 0.158576
Si Si6 0.820205 0.394286 0.364848
Si Si7 0.644676 0.104063 0.611589
O O1 0.636848 0.891243 0.881210
O O2 0.542321 0.023717 0.889691
O O3 0.562840 0.901055 0.069635
O O4 0.637447 0.067051 0.021886
O O5 0.250000 0.943961 0.908995
O O6 0.187026 0.750000 0.872666
O O7 0.165756 0.949855 0.758539
O O8 0.991947 0.750000 0.440663
O O9 0.075458 0.892796 0.373589
O O10 0.974623 0.927751 0.288039
O O11 0.000000 0.000000 0.500000
O O12 0.750000 0.896346 0.821912
O O13 0.677715 0.750000 0.722452
O O14 0.671574 0.006067 0.699528
O O15 0.010529 0.750000 0.163316
O O16 0.750000 0.392677 0.370082
O O17 0.841620 0.250000 0.364348
O O18 0.842846 0.445054 0.483898
O O19 0.665986 0.250000 0.622198
#
# Coordination Sequence:
#
# PCOD9451517 Si02
#       7
#     8   8   8   8   8   8   8
#     4  11  21  37  60  80 112 156 201 235 296 356
#     4   9  18  32  54  86 118 147 188 243 292 343
#     4  10  22  40  60  88 119 150 193 246 298 350
#     4  11  24  40  59  87 123 159 198 246 302 364
#     4  10  22  40  58  82 114 149 196 251 295 346
#     4   8  15  29  50  80 113 141 176 228 288 341
#     4  10  20  37  62  87 116 153 198 246 296 353
#
# _framework density 19.385166000000002
#
# number of rings (size 3 to 8) (size 9 to 14) (size 15 to 20)
#    0.000    2.143    1.429    2.571    2.000    2.000 
#    0.000    0.714    0.000    0.000    0.000    4.000 
#    0.000    0.000    0.000    0.000    0.000    0.000 
#
# Total GULP energy -312003.434117 kJ/mol
# GULP energy per Si atom -5571.489895 kJ/mol
# Density = 1.934104 g / cm^3
# Si number density = 19.385166 Si / 1000 Ang^3
#
#
#
# Elastic Constant Matrix: (Units=GPa)
#
#
# Indices 1 2 3 4 5 6 
#
# 1 61.5492 25.9455 13.4948 0.0000 0.0000 0.0000
# 2 25.9455 86.5943 54.7412 0.0000 0.0000 0.0000
# 3 13.4948 54.7412 98.0090 0.0000 0.0000 0.0000
# 4 0.0000 0.0000 0.0000 21.9350 0.0000 0.0000
# 5 0.0000 0.0000 0.0000 0.0000 28.1882 0.0000
# 6 0.0000 0.0000 0.0000 0.0000 0.0000 14.0263
#
#
#
# Elastic Compliance Matrix: (Units=1/GPa)
#
#
# Indices 1 2 3 4 5 6 
#
# 1 0.018642 -0.006126 0.000855 0.000000 0.000000 0.000000
# 2 -0.006126 0.019864 -0.010251 0.000000 0.000000 0.000000
# 3 0.000855 -0.010251 0.015811 0.000000 0.000000 0.000000
# 4 0.000000 0.000000 0.000000 0.045589 0.000000 0.000000
# 5 0.000000 0.000000 0.000000 0.000000 0.035476 0.000000
# 6 0.000000 0.000000 0.000000 0.000000 0.000000 0.071295
#
#
# Mechanical properties :
#
#
# Convention : Reuss Voigt Hill
#
# Bulk Modulus (GPa) = 42.96945 48.27950 45.62448
# Shear Modulus (GPa) = 20.36833 22.96128 21.66481
#
# Velocity S-wave (km/s) = 3.24499 3.44536 3.34667
# Velocity P-wave (km/s) = 6.02115 6.38645 6.20649
#
# Compressibility (1/GPa) = 0.02327235
#
# Stress axis : x y z
#
# Youngs Moduli (GPa) = 53.64204 50.34262 63.24684
#
# Poissons Ratio (x) = 0.30839 -0.05405
# Poissons Ratio (y) = 0.32860 0.64835
# Poissons Ratio (z) = -0.04585 0.51607
#
# Static dielectric constant tensor:
#      x y z
#    x 1.681620 0.000000 0.000000 
#    y 0.000000 1.679120 0.000000 
#    z 0.000000 0.000000 1.721550 
# 
# From -- ./inp_files/18699.got.cif
#   From: 2010.05.17/outbox.cif.g08.bks.cpg/sg59_10_cif.got.tgz:18699.got - 2010.06.03 14:40:33.
