data_PCOD9451572
_publ_section_title
;
Structure prediction by ZEFSAII (Michael W. Deem and Ramdas Pophale) SiO2 
 PCOD9451572
Probable space group: P M M N
;
_chemical_formula_sum "Si O2"
_cell_formula_units_Z 64
_cell_length_a 17.887083
_cell_length_b 27.372327
_cell_length_c 6.956389
_cell_angle_alpha 90.000000
_cell_angle_beta 90.000000
_cell_angle_gamma 90.000000
_cell_volume 3405.925166
_symmetry_space_group_name_H-M "P M M N"
_symmetry_group_IT_number 59
_space_group.IT_coordinate_system_code '2'
_symmetry_cell_setting 'orthorhombic'
loop_
_space_group_symop_operation_xyz
x,y,z
1/2-x,1/2-y,z
1/2+x,-y,-z
-x,1/2+y,-z
-x,-y,-z
1/2+x,1/2+y,-z
1/2-x,y,z
x,1/2-y,z
loop_
_atom_site_type_symbol
_atom_site_label
_atom_site_fract_x
_atom_site_fract_y
_atom_site_fract_z
Si Si1 0.667453 0.478774 0.519111
Si Si2 0.663350 0.396396 0.213252
Si Si3 0.104405 0.522093 0.074838
Si Si4 0.964027 0.851233 0.340626
Si Si5 0.071841 0.806214 0.642244
Si Si6 0.165098 0.309175 0.394051
Si Si7 0.443268 0.036872 0.741144
Si Si8 0.065864 0.305323 0.061070
O O1 0.750000 0.498610 0.465453
O O2 0.661363 0.426499 0.413769
O O3 0.660911 0.476963 0.747980
O O4 0.599045 0.508734 0.428439
O O5 0.750000 0.393863 0.150959
O O6 0.629767 0.343343 0.259202
O O7 0.617353 0.429774 0.059509
O O8 0.024250 0.520369 0.181678
O O9 0.107737 0.476075 0.928863
O O10 0.892298 0.829795 0.451423
O O11 0.957014 0.909120 0.335283
O O12 0.036902 0.830143 0.449094
O O13 0.959444 0.834993 0.121332
O O14 0.097176 0.750000 0.611187
O O15 0.001375 0.804024 0.786586
O O16 0.250000 0.323789 0.429562
O O17 0.160282 0.250000 0.397806
O O18 0.136097 0.324629 0.182877
O O19 0.082470 0.250000 0.997142
#
# Coordination Sequence:
#
# PCOD9451572 Si02
#       8
#     8   8   8   8   8   8   8   8
#     4  10  21  38  58  81 114 151 186 232 286 337
#     4  10  21  37  59  86 112 144 186 224 273 342
#     4  10  20  38  59  81 110 146 185 229 276 327
#     4  11  20  34  55  78 108 146 183 222 273 328
#     4  10  21  36  56  83 113 143 179 228 279 328
#     4   9  19  34  50  72 103 139 183 231 274 319
#     4  10  22  34  55  86 111 141 189 234 273 331
#     4   9  18  33  53  76 103 142 189 229 270 324
#
# _framework density 18.790783999999999
#
# number of rings (size 3 to 8) (size 9 to 14) (size 15 to 20)
#    0.000    2.125    0.000    4.125    0.000    5.750 
#    0.000    1.250    0.000    0.000    0.000    3.500 
#    0.000    0.000    0.000    0.000    0.000    0.000 
#
# Total GULP energy -356605.853997 kJ/mol
# GULP energy per Si atom -5571.966469 kJ/mol
# Density = 1.874801 g / cm^3
# Si number density = 18.790784 Si / 1000 Ang^3
#
#
#
# Elastic Constant Matrix: (Units=GPa)
#
#
# Indices 1 2 3 4 5 6 
#
# 1 60.0338 15.2090 15.5546 0.0000 0.0000 0.0000
# 2 15.2090 76.5515 23.9960 0.0000 0.0000 0.0000
# 3 15.5546 23.9960 89.8472 0.0000 0.0000 0.0000
# 4 0.0000 0.0000 0.0000 13.5648 0.0000 0.0000
# 5 0.0000 0.0000 0.0000 0.0000 24.1486 0.0000
# 6 0.0000 0.0000 0.0000 0.0000 0.0000 20.4406
#
#
#
# Elastic Compliance Matrix: (Units=1/GPa)
#
#
# Indices 1 2 3 4 5 6 
#
# 1 0.017986 -0.002835 -0.002357 0.000000 0.000000 0.000000
# 2 -0.002835 0.014703 -0.003436 0.000000 0.000000 0.000000
# 3 -0.002357 -0.003436 0.012456 0.000000 0.000000 0.000000
# 4 0.000000 0.000000 0.000000 0.073720 0.000000 0.000000
# 5 0.000000 0.000000 0.000000 0.000000 0.041410 0.000000
# 6 0.000000 0.000000 0.000000 0.000000 0.000000 0.048922
#
#
# Mechanical properties :
#
#
# Convention : Reuss Voigt Hill
#
# Bulk Modulus (GPa) = 35.85510 37.32797 36.59153
# Shear Modulus (GPa) = 21.20893 23.07565 22.14229
#
# Velocity S-wave (km/s) = 3.36324 3.50813 3.43645
# Velocity P-wave (km/s) = 5.84846 6.02640 5.93809
#
# Compressibility (1/GPa) = 0.02789003
#
# Stress axis : x y z
#
# Youngs Moduli (GPa) = 55.59871 68.01145 80.28432
#
# Poissons Ratio (x) = 0.19279 0.18921
# Poissons Ratio (y) = 0.15760 0.27587
# Poissons Ratio (z) = 0.13103 0.23370
#
# Static dielectric constant tensor:
#      x y z
#    x 1.669480 0.000000 0.000000 
#    y 0.000000 1.659910 0.000000 
#    z 0.000000 0.000000 1.662080 
# 
# From -- ./inp_files/3053.got.cif
#   From: 2010.05.17/outbox.cif.g08.bks.cpg/sg59_2_cif.got.tgz:3053.got - 2010.06.03 14:40:33.
