data_PCOD9451167
_publ_section_title
;
Structure prediction by ZEFSAII (Michael W. Deem and Ramdas Pophale) SiO2 
 PCOD9451167
Probable space group: P M M N
;
_chemical_formula_sum "Si O2"
_cell_formula_units_Z 56
_cell_length_a 8.855472
_cell_length_b 20.872939
_cell_length_c 16.466525
_cell_angle_alpha 90.000000
_cell_angle_beta 90.000000
_cell_angle_gamma 90.000000
_cell_volume 3043.667984
_symmetry_space_group_name_H-M "P M M N"
_symmetry_group_IT_number 59
_space_group.IT_coordinate_system_code '2'
_symmetry_cell_setting 'orthorhombic'
loop_
_space_group_symop_operation_xyz
x,y,z
1/2-x,1/2-y,z
1/2+x,-y,-z
-x,1/2+y,-z
-x,-y,-z
1/2+x,1/2+y,-z
1/2-x,y,z
x,1/2-y,z
loop_
_atom_site_type_symbol
_atom_site_label
_atom_site_fract_x
_atom_site_fract_y
_atom_site_fract_z
Si Si1 0.567032 0.110039 0.218521
Si Si2 0.430165 0.443563 0.384743
Si Si3 0.427992 0.916098 0.448684
Si Si4 0.431239 0.359298 0.858869
Si Si5 0.931036 0.250000 0.970054
Si Si6 0.576484 0.674596 0.324583
Si Si7 0.931513 0.497978 0.089562
Si Si8 0.066269 0.750000 0.841463
O O1 0.750000 0.108930 0.221159
O O2 0.505142 0.083711 0.303644
O O3 0.519458 0.061616 0.145882
O O4 0.518343 0.183166 0.199970
O O5 0.250000 0.439835 0.376995
O O6 0.485260 0.408600 0.466500
O O7 0.473091 0.517518 0.403803
O O8 0.250000 0.919656 0.465384
O O9 0.470078 0.860234 0.387634
O O10 0.250000 0.352068 0.867763
O O11 0.508730 0.312680 0.923536
O O12 0.471002 0.338307 0.767928
O O13 0.470027 0.433711 0.870271
O O14 0.750000 0.250000 0.968023
O O15 0.979900 0.250000 0.064033
O O16 0.750000 0.650681 0.333627
O O17 0.576845 0.750000 0.338258
O O18 0.750000 0.494113 0.082951
O O19 0.000000 0.500000 0.000000
O O20 0.250000 0.750000 0.840184
#
# Coordination Sequence:
#
# PCOD9451167 Si02
#       8
#     8   8   8   8   4   8   8   4
#     4  10  20  38  60  82 110 149 193 236 287 340
#     4  10  21  38  60  86 113 144 186 232 280 335
#     4  10  21  37  59  86 115 146 182 228 278 333
#     4  10  20  36  55  79 113 153 190 229 283 344
#     4  11  21  35  57  82 109 148 193 239 284 333
#     4  10  20  36  57  81 113 151 188 227 274 332
#     4  10  21  35  56  83 114 151 192 239 289 340
#     4   9  20  37  57  80 109 144 187 237 284 331
#
# _framework density 18.398852999999999
#
# number of rings (size 3 to 8) (size 9 to 14) (size 15 to 20)
#    0.000    2.000    0.714    2.786    0.000    6.000 
#    1.286    1.786    0.000    0.000    0.000    0.000 
#    0.000    0.000    0.000    0.000    0.000    0.000 
#
# Total GULP energy -312653.134049 kJ/mol
# GULP energy per Si atom -5583.091679 kJ/mol
# Density = 1.835698 g / cm^3
# Si number density = 18.398853 Si / 1000 Ang^3
#
#
#
# Elastic Constant Matrix: (Units=GPa)
#
#
# Indices 1 2 3 4 5 6 
#
# 1 17.4004 30.7891 32.1602 0.0000 0.0000 0.0000
# 2 30.7891 115.8133 73.0761 0.0000 0.0000 0.0000
# 3 32.1602 73.0761 141.2852 0.0000 0.0000 0.0000
# 4 0.0000 0.0000 0.0000 28.5597 0.0000 0.0000
# 5 0.0000 0.0000 0.0000 0.0000 35.6774 0.0000
# 6 0.0000 0.0000 0.0000 0.0000 0.0000 20.3498
#
#
#
# Elastic Compliance Matrix: (Units=1/GPa)
#
#
# Indices 1 2 3 4 5 6 
#
# 1 0.133126 -0.024154 -0.017810 0.000000 0.000000 0.000000
# 2 -0.024154 0.017200 -0.003398 0.000000 0.000000 0.000000
# 3 -0.017810 -0.003398 0.012890 0.000000 0.000000 0.000000
# 4 0.000000 0.000000 0.000000 0.035014 0.000000 0.000000
# 5 0.000000 0.000000 0.000000 0.000000 0.028029 0.000000
# 6 0.000000 0.000000 0.000000 0.000000 0.000000 0.049140
#
#
# Mechanical properties :
#
#
# Convention : Reuss Voigt Hill
#
# Bulk Modulus (GPa) = 13.79475 60.72773 37.26124
# Shear Modulus (GPa) = 12.81108 26.14897 19.48002
#
# Velocity S-wave (km/s) = 2.64161 3.77401 3.25739
# Velocity P-wave (km/s) = 4.10098 7.21587 5.86885
#
# Compressibility (1/GPa) = 0.07249137
#
# Stress axis : x y z
#
# Youngs Moduli (GPa) = 7.51169 58.13889 77.58212
#
# Poissons Ratio (x) = 1.40428 1.38173
# Poissons Ratio (y) = 0.18144 0.26365
# Poissons Ratio (z) = 0.13378 0.19757
#
# Static dielectric constant tensor:
#      x y z
#    x 1.661080 0.000000 0.000000 
#    y 0.000000 1.634440 0.000000 
#    z 0.000000 0.000000 1.604620 
# 
# From -- ./inp_files/21092.got.cif
#   From: 2010.05.17/outbox.cif.g08.bks.cpg/sg59_11_cif.got.tgz:21092.got - 2010.06.03 14:40:33.
