data_PCOD9451545
_publ_section_title
;
Structure prediction by ZEFSAII (Michael W. Deem and Ramdas Pophale) SiO2 
 PCOD9451545
Probable space group: P M M N
;
_chemical_formula_sum "Si O2"
_cell_formula_units_Z 48
_cell_length_a 17.378544
_cell_length_b 14.177734
_cell_length_c 9.827175
_cell_angle_alpha 90.000000
_cell_angle_beta 90.000000
_cell_angle_gamma 90.000000
_cell_volume 2421.301671
_symmetry_space_group_name_H-M "P M M N"
_symmetry_group_IT_number 59
_space_group.IT_coordinate_system_code '2'
_symmetry_cell_setting 'orthorhombic'
loop_
_space_group_symop_operation_xyz
x,y,z
1/2-x,1/2-y,z
1/2+x,-y,-z
-x,1/2+y,-z
-x,-y,-z
1/2+x,1/2+y,-z
1/2-x,y,z
x,1/2-y,z
loop_
_atom_site_type_symbol
_atom_site_label
_atom_site_fract_x
_atom_site_fract_y
_atom_site_fract_z
Si Si1 0.662554 0.942061 0.157191
Si Si2 0.447917 0.418779 0.066046
Si Si3 0.160839 0.487388 0.307419
Si Si4 0.114686 0.137445 0.554683
Si Si5 0.595763 0.145348 0.209765
Si Si6 0.065162 0.860015 0.468654
O O1 0.750000 0.928761 0.113800
O O2 0.651217 0.906811 0.310761
O O3 0.641489 0.054082 0.155235
O O4 0.604416 0.885239 0.059277
O O5 0.389153 0.459390 0.177076
O O6 0.510828 0.355690 0.142230
O O7 0.500000 0.500000 0.000000
O O8 0.250000 0.503304 0.274993
O O9 0.152509 0.405320 0.420078
O O10 0.121254 0.577205 0.378630
O O11 0.121262 0.250000 0.556335
O O12 0.023829 0.111691 0.552354
O O13 0.630026 0.250000 0.187062
O O14 0.585172 0.130939 0.371712
O O15 0.072003 0.750000 0.432437
#
# Coordination Sequence:
#
# PCOD9451545 Si02
#       6
#     8   8   8   8   8   8
#     4  11  23  40  60  90 128 163 199 251 315 371
#     4  10  22  40  62  85 119 166 210 248 291 363
#     4  12  23  38  62  93 128 159 198 258 320 368
#     4  11  23  40  63  89 121 163 212 258 305 365
#     4  10  20  37  63  91 119 157 208 254 299 364
#     4  10  20  37  63  91 119 156 203 252 301 363
#
# _framework density 19.824048000000001
#
# number of rings (size 3 to 8) (size 9 to 14) (size 15 to 20)
#    0.000    1.333    3.333    3.500    0.000    2.667 
#    0.000    6.667    0.000    7.000    0.000    0.000 
#    0.000    0.000    0.000    0.000    0.000    0.000 
#
# Total GULP energy -268136.240697 kJ/mol
# GULP energy per Si atom -5586.171681 kJ/mol
# Density = 1.977893 g / cm^3
# Si number density = 19.824048 Si / 1000 Ang^3
#
#
#
# Elastic Constant Matrix: (Units=GPa)
#
#
# Indices 1 2 3 4 5 6 
#
# 1 83.6111 7.2847 11.9205 0.0000 0.0000 0.0000
# 2 7.2847 56.6529 1.6831 0.0000 0.0000 0.0000
# 3 11.9205 1.6831 84.1442 0.0000 0.0000 0.0000
# 4 0.0000 0.0000 0.0000 -8.4418 0.0000 0.0000
# 5 0.0000 0.0000 0.0000 0.0000 8.6514 0.0000
# 6 0.0000 0.0000 0.0000 0.0000 0.0000 9.0020
#
#
#
# Elastic Compliance Matrix: (Units=1/GPa)
#
#
# Indices 1 2 3 4 5 6 
#
# 1 0.012339 -0.001536 -0.001717 0.000000 0.000000 0.000000
# 2 -0.001536 0.017853 -0.000140 0.000000 0.000000 0.000000
# 3 -0.001717 -0.000140 0.012130 0.000000 0.000000 0.000000
# 4 0.000000 0.000000 0.000000 -0.118458 0.000000 0.000000
# 5 0.000000 0.000000 0.000000 0.000000 0.115588 0.000000
# 6 0.000000 0.000000 0.000000 0.000000 0.000000 0.111086
#
#
# Mechanical properties :
#
#
# Convention : Reuss Voigt Hill
#
# Bulk Modulus (GPa) = 28.13945 29.57610 28.85777
# Shear Modulus (GPa) = 29.55624 15.41031 22.48328
#
# Velocity S-wave (km/s) = 3.86544 2.79113 3.37136
# Velocity P-wave (km/s) = 5.84360 5.03378 5.45374
#
# Compressibility (1/GPa) = 0.03553730
#
# Stress axis : x y z
#
# Youngs Moduli (GPa) = 81.04542 56.01321 82.43724
#
# Poissons Ratio (x) = 0.08601 0.14157
# Poissons Ratio (y) = 0.12445 0.01151
# Poissons Ratio (z) = 0.13918 0.00782
#
# Static dielectric constant tensor:
#      x y z
#    x 1.649540 0.000000 0.000000 
#    y 0.000000 1.700660 0.000000 
#    z 0.000000 0.000000 1.683270 
# 
# From -- ./inp_files/8999.got.cif
#   From: 2010.05.17/outbox.cif.g08.bks.cpg/sg59_5_cif.got.tgz:8999.got - 2010.06.03 14:40:33.
