data_PCOD9451697
_publ_section_title
;
Structure prediction by ZEFSAII (Michael W. Deem and Ramdas Pophale) SiO2 
 PCOD9451697
Probable space group: P M M N
;
_chemical_formula_sum "Si O2"
_cell_formula_units_Z 56
_cell_length_a 29.503496
_cell_length_b 7.909250
_cell_length_c 14.029217
_cell_angle_alpha 90.000000
_cell_angle_beta 90.000000
_cell_angle_gamma 90.000000
_cell_volume 3273.725163
_symmetry_space_group_name_H-M "P M M N"
_symmetry_group_IT_number 59
_space_group.IT_coordinate_system_code '2'
_symmetry_cell_setting 'orthorhombic'
loop_
_space_group_symop_operation_xyz
x,y,z
1/2-x,1/2-y,z
1/2+x,-y,-z
-x,1/2+y,-z
-x,-y,-z
1/2+x,1/2+y,-z
1/2-x,y,z
x,1/2-y,z
loop_
_atom_site_type_symbol
_atom_site_label
_atom_site_fract_x
_atom_site_fract_y
_atom_site_fract_z
Si Si1 0.301048 0.043487 0.003777
Si Si2 0.026517 0.948814 0.797032
Si Si3 0.107472 0.051202 0.914830
Si Si4 0.108038 0.447234 0.304695
Si Si5 0.938005 0.053158 0.889369
Si Si6 0.800984 0.956927 0.775209
Si Si7 0.481286 0.046302 0.397330
O O1 0.250000 0.991167 0.977167
O O2 0.301863 0.250000 0.003155
O O3 0.309011 0.993334 0.114263
O O4 0.342149 0.983717 0.937632
O O5 0.016563 0.750000 0.802254
O O6 0.991544 0.035392 0.870181
O O7 0.013264 0.009234 0.690898
O O8 0.077741 0.975819 0.829921
O O9 0.111128 0.250000 0.897266
O O10 0.079220 0.021522 0.011920
O O11 0.113348 0.250000 0.329689
O O12 0.085817 0.460879 0.199549
O O13 0.158360 0.519838 0.291521
O O14 0.069507 0.520108 0.374261
O O15 0.802063 0.750000 0.774475
O O16 0.750000 0.008523 0.748818
O O17 0.925745 0.250000 0.886514
O O18 0.479305 0.250000 0.392717
O O19 0.500000 0.000000 0.500000
#
# Coordination Sequence:
#
# PCOD9451697 Si02
#       7
#     8   8   8   8   8   8   8
#     4   8  14  24  41  65  90 120 156 187 215 253
#     4  10  21  35  47  64  89 116 149 187 225 269
#     4  11  19  29  46  66  91 123 155 188 220 258
#     4   9  16  29  46  67  92 120 151 185 224 267
#     4  11  20  29  42  63  92 125 156 184 218 260
#     4   8  12  21  41  66  90 118 151 183 215 258
#     4   9  19  33  50  67  88 114 143 185 231 275
#
# _framework density 17.105896000000001
#
# number of rings (size 3 to 8) (size 9 to 14) (size 15 to 20)
#    0.000    2.571    1.429    4.286    0.000    2.857 
#    0.000    0.000    0.000    3.000    0.000    1.000 
#    0.000    5.714    0.000    0.000    0.000    0.000 
#
# Total GULP energy -312061.734863 kJ/mol
# GULP energy per Si atom -5572.530980 kJ/mol
# Density = 1.706696 g / cm^3
# Si number density = 17.105896 Si / 1000 Ang^3
#
#
#
# Elastic Constant Matrix: (Units=GPa)
#
#
# Indices 1 2 3 4 5 6 
#
# 1 159.4658 -1.5734 59.9906 0.0000 0.0000 0.0000
# 2 -1.5734 21.1984 -4.6812 0.0000 0.0000 0.0000
# 3 59.9906 -4.6812 57.7263 0.0000 0.0000 0.0000
# 4 0.0000 0.0000 0.0000 16.3808 0.0000 0.0000
# 5 0.0000 0.0000 0.0000 0.0000 21.9510 0.0000
# 6 0.0000 0.0000 0.0000 0.0000 0.0000 12.5187
#
#
#
# Elastic Compliance Matrix: (Units=1/GPa)
#
#
# Indices 1 2 3 4 5 6 
#
# 1 0.010352 -0.001637 -0.010891 0.000000 0.000000 0.000000
# 2 -0.001637 0.048292 0.005617 0.000000 0.000000 0.000000
# 3 -0.010891 0.005617 0.029096 0.000000 0.000000 0.000000
# 4 0.000000 0.000000 0.000000 0.061047 0.000000 0.000000
# 5 0.000000 0.000000 0.000000 0.000000 0.045556 0.000000
# 6 0.000000 0.000000 0.000000 0.000000 0.000000 0.079880
#
#
# Mechanical properties :
#
#
# Convention : Reuss Voigt Hill
#
# Bulk Modulus (GPa) = 13.52812 38.42917 25.97864
# Shear Modulus (GPa) = 15.99056 22.48040 19.23548
#
# Velocity S-wave (km/s) = 3.06076 3.62911 3.35699
# Velocity P-wave (km/s) = 4.51848 6.33047 5.49961
#
# Compressibility (1/GPa) = 0.07392012
#
# Stress axis : x y z
#
# Youngs Moduli (GPa) = 96.60160 20.70721 34.36851
#
# Poissons Ratio (x) = 0.03389 0.37429
# Poissons Ratio (y) = 0.15810 -0.19305
# Poissons Ratio (z) = 1.05205 -0.11631
#
# Static dielectric constant tensor:
#      x y z
#    x 1.640230 0.000000 0.000000 
#    y 0.000000 1.616470 0.000000 
#    z 0.000000 0.000000 1.544540 
# 
# From -- ./inp_files/24939.got.cif
#   From: 2010.05.17/outbox.cif.g08.bks.cpg/sg59_13_cif.got.tgz:24939.got - 2010.06.03 14:40:33.
