data_PCOD9451664
_publ_section_title
;
Structure prediction by ZEFSAII (Michael W. Deem and Ramdas Pophale) SiO2 
 PCOD9451664
Probable space group: P M M N
;
_chemical_formula_sum "Si O2"
_cell_formula_units_Z 64
_cell_length_a 8.426568
_cell_length_b 22.527138
_cell_length_c 19.714105
_cell_angle_alpha 90.000000
_cell_angle_beta 90.000000
_cell_angle_gamma 90.000000
_cell_volume 3742.258768
_symmetry_space_group_name_H-M "P M M N"
_symmetry_group_IT_number 59
_space_group.IT_coordinate_system_code '2'
_symmetry_cell_setting 'orthorhombic'
loop_
_space_group_symop_operation_xyz
x,y,z
1/2-x,1/2-y,z
1/2+x,-y,-z
-x,1/2+y,-z
-x,-y,-z
1/2+x,1/2+y,-z
1/2-x,y,z
x,1/2-y,z
loop_
_atom_site_type_symbol
_atom_site_label
_atom_site_fract_x
_atom_site_fract_y
_atom_site_fract_z
Si Si1 0.059846 0.941735 0.459483
Si Si2 0.439007 0.010502 0.826589
Si Si3 0.059254 0.612660 0.592399
Si Si4 0.438933 0.940445 0.038894
Si Si5 0.559267 0.881099 0.838953
Si Si6 0.442057 0.682585 0.967927
Si Si7 0.440842 0.493220 0.670923
Si Si8 0.940496 0.815084 0.707896
O O1 0.250000 0.943727 0.454852
O O2 0.011891 0.891389 0.513664
O O3 0.990510 0.943789 0.384122
O O4 0.000000 0.000000 0.500000
O O5 0.250000 0.018299 0.826841
O O6 0.514468 0.053458 0.882232
O O7 0.497015 0.015180 0.748280
O O8 0.480903 0.944401 0.852288
O O9 0.250000 0.611106 0.594244
O O10 0.002240 0.554859 0.635820
O O11 0.997557 0.668010 0.633751
O O12 0.250000 0.941676 0.031721
O O13 0.495258 0.876247 0.010162
O O14 0.500000 0.000000 0.000000
O O15 0.750000 0.887072 0.840717
O O16 0.505674 0.832322 0.892996
O O17 0.504395 0.861218 0.764414
O O18 0.250000 0.682078 0.967743
O O19 0.491078 0.750000 0.988488
O O20 0.250000 0.495831 0.673208
O O21 0.750000 0.815980 0.709158
O O22 0.996083 0.750000 0.727562
#
# Coordination Sequence:
#
# PCOD9451664 Si02
#       8
#     8   8   8   8   8   8   8   8
#     4   9  17  28  44  67  94 122 156 195 237 288
#     4  11  21  34  52  75 106 139 173 212 257 313
#     4   9  17  30  45  65  92 125 163 201 242 289
#     4  11  22  36  55  79 107 137 173 216 263 315
#     4  11  21  33  51  74 102 136 175 217 259 305
#     4  10  22  39  57  76 101 137 177 216 261 314
#     4   9  18  31  47  69  97 126 160 201 246 296
#     4  10  21  33  44  65  97 132 171 212 251 296
#
# _framework density 17.101970000000001
#
# number of rings (size 3 to 8) (size 9 to 14) (size 15 to 20)
#    0.000    2.000    2.500    2.625    0.000    5.500 
#    0.000    0.000    0.000    0.000    0.000    0.875 
#    0.000    3.000    0.000    0.000    0.000    0.000 
#
# Total GULP energy -356551.604363 kJ/mol
# GULP energy per Si atom -5571.118818 kJ/mol
# Density = 1.706305 g / cm^3
# Si number density = 17.101970 Si / 1000 Ang^3
#
#
#
# Elastic Constant Matrix: (Units=GPa)
#
#
# Indices 1 2 3 4 5 6 
#
# 1 6.0510 8.3962 9.4879 0.0000 0.0000 0.0000
# 2 8.3962 71.8807 38.8189 0.0000 0.0000 0.0000
# 3 9.4879 38.8189 100.0506 0.0000 0.0000 0.0000
# 4 0.0000 0.0000 0.0000 24.2722 0.0000 0.0000
# 5 0.0000 0.0000 0.0000 0.0000 27.4683 0.0000
# 6 0.0000 0.0000 0.0000 0.0000 0.0000 16.8465
#
#
#
# Elastic Compliance Matrix: (Units=1/GPa)
#
#
# Indices 1 2 3 4 5 6 
#
# 1 0.210084 -0.017433 -0.013159 0.000000 0.000000 0.000000
# 2 -0.017433 0.019046 -0.005737 0.000000 0.000000 0.000000
# 3 -0.013159 -0.005737 0.013469 0.000000 0.000000 0.000000
# 4 0.000000 0.000000 0.000000 0.041199 0.000000 0.000000
# 5 0.000000 0.000000 0.000000 0.000000 0.036406 0.000000
# 6 0.000000 0.000000 0.000000 0.000000 0.000000 0.059360
#
#
# Mechanical properties :
#
#
# Convention : Reuss Voigt Hill
#
# Bulk Modulus (GPa) = 5.88434 32.37647 19.13041
# Shear Modulus (GPa) = 9.82573 21.80268 15.81420
#
# Velocity S-wave (km/s) = 2.39955 3.57440 3.04419
# Velocity P-wave (km/s) = 3.33547 6.00063 4.85453
#
# Compressibility (1/GPa) = 0.16994247
#
# Stress axis : x y z
#
# Youngs Moduli (GPa) = 4.75999 52.50369 74.24707
#
# Poissons Ratio (x) = 0.91530 0.97699
# Poissons Ratio (y) = 0.08298 0.42593
# Poissons Ratio (z) = 0.06263 0.30119
#
# Static dielectric constant tensor:
#      x y z
#    x 1.581220 0.000000 0.000000 
#    y 0.000000 1.594180 0.000000 
#    z 0.000000 0.000000 1.610710 
# 
# From -- ./inp_files/29659.got.cif
#   From: 2010.05.17/outbox.cif.g08.bks.cpg/sg59_15_cif.got.tgz:29659.got - 2010.06.03 14:40:33.
