data_PCOD9451056
_publ_section_title
;
Structure prediction by ZEFSAII (Michael W. Deem and Ramdas Pophale) SiO2 
 PCOD9451056
Probable space group: P M M N
;
_chemical_formula_sum "Si O2"
_cell_formula_units_Z 64
_cell_length_a 12.581852
_cell_length_b 27.875020
_cell_length_c 9.550859
_cell_angle_alpha 90.000000
_cell_angle_beta 90.000000
_cell_angle_gamma 90.000000
_cell_volume 3349.671310
_symmetry_space_group_name_H-M "P M M N"
_symmetry_group_IT_number 59
_space_group.IT_coordinate_system_code '2'
_symmetry_cell_setting 'orthorhombic'
loop_
_space_group_symop_operation_xyz
x,y,z
1/2-x,1/2-y,z
1/2+x,-y,-z
-x,1/2+y,-z
-x,-y,-z
1/2+x,1/2+y,-z
1/2-x,y,z
x,1/2-y,z
loop_
_atom_site_type_symbol
_atom_site_label
_atom_site_fract_x
_atom_site_fract_y
_atom_site_fract_z
Si Si1 0.959475 0.196560 0.293017
Si Si2 0.542671 0.451415 0.927798
Si Si3 0.867992 0.462777 0.631446
Si Si4 0.371497 0.338959 0.500070
Si Si5 0.129011 0.119227 0.806427
Si Si6 0.959907 0.564390 0.576442
Si Si7 0.127569 0.905021 0.795030
Si Si8 0.632519 0.803236 0.950625
O O1 0.909766 0.250000 0.291792
O O2 0.887424 0.149870 0.261188
O O3 0.032768 0.191096 0.431742
O O4 0.044404 0.193887 0.167037
O O5 0.620627 0.462828 0.798808
O O6 0.446612 0.423674 0.851847
O O7 0.500000 0.500000 0.000000
O O8 0.595114 0.416591 0.044591
O O9 0.750000 0.446716 0.591169
O O10 0.961420 0.432819 0.557066
O O11 0.891730 0.516363 0.576653
O O12 0.250000 0.320523 0.486028
O O13 0.391456 0.352542 0.661948
O O14 0.384321 0.389814 0.419914
O O15 0.250000 0.101245 0.795259
O O16 0.121109 0.157422 0.931286
O O17 0.042064 0.565017 0.705109
O O18 0.250000 0.919188 0.774367
O O19 0.750000 0.808610 0.885694
O O20 0.627286 0.750000 0.014557
#
# Coordination Sequence:
#
# PCOD9451056 Si02
#       8
#     8   8   8   8   8   8   8   8
#     4  10  21  37  59  88 118 145 186 243 292 354
#     4  12  23  41  55  86 121 155 206 250 294 349
#     4  11  22  37  59  81 112 155 197 242 291 346
#     4  10  20  35  58  84 116 154 189 231 289 353
#     4  10  21  37  57  84 121 159 194 237 292 353
#     4  10  21  39  55  83 115 144 195 243 293 345
#     4  11  23  40  61  83 112 152 195 244 299 354
#     4   9  17  32  56  84 114 147 182 227 289 352
#
# _framework density 19.106351
#
# number of rings (size 3 to 8) (size 9 to 14) (size 15 to 20)
#    0.000    1.625    3.750    1.500    0.000    2.500 
#    0.000    1.250    0.000    0.000    0.000    0.000 
#    0.000    0.000    0.000    0.000    0.000    0.000 
#
# Total GULP energy -356824.306114 kJ/mol
# GULP energy per Si atom -5575.379783 kJ/mol
# Density = 1.906286 g / cm^3
# Si number density = 19.106351 Si / 1000 Ang^3
#
#
#
# Elastic Constant Matrix: (Units=GPa)
#
#
# Indices 1 2 3 4 5 6 
#
# 1 54.7302 7.4450 20.6779 0.0000 0.0000 0.0000
# 2 7.4450 48.1028 -5.6063 0.0000 0.0000 0.0000
# 3 20.6779 -5.6063 85.2571 0.0000 0.0000 0.0000
# 4 0.0000 0.0000 0.0000 16.7125 0.0000 0.0000
# 5 0.0000 0.0000 0.0000 0.0000 17.6437 0.0000
# 6 0.0000 0.0000 0.0000 0.0000 0.0000 -12.4776
#
#
#
# Elastic Compliance Matrix: (Units=1/GPa)
#
#
# Indices 1 2 3 4 5 6 
#
# 1 0.020794 -0.003836 -0.005295 0.000000 0.000000 0.000000
# 2 -0.003836 0.021657 0.002354 0.000000 0.000000 0.000000
# 3 -0.005295 0.002354 0.013168 0.000000 0.000000 0.000000
# 4 0.000000 0.000000 0.000000 0.059835 0.000000 0.000000
# 5 0.000000 0.000000 0.000000 0.000000 0.056677 0.000000
# 6 0.000000 0.000000 0.000000 0.000000 0.000000 -0.080144
#
#
# Mechanical properties :
#
#
# Convention : Reuss Voigt Hill
#
# Bulk Modulus (GPa) = 23.77224 25.90258 24.83741
# Shear Modulus (GPa) = 41.81880 15.41396 28.61638
#
# Velocity S-wave (km/s) = 4.68347 2.84341 3.87427
# Velocity P-wave (km/s) = 6.45876 4.93624 5.74813
#
# Compressibility (1/GPa) = 0.04206588
#
# Stress axis : x y z
#
# Youngs Moduli (GPa) = 48.09098 46.17477 75.93941
#
# Poissons Ratio (x) = 0.17710 0.40214
# Poissons Ratio (y) = 0.18445 -0.17879
# Poissons Ratio (z) = 0.25467 -0.10871
#
# Static dielectric constant tensor:
#      x y z
#    x 1.668530 0.000000 0.000000 
#    y 0.000000 1.677980 0.000000 
#    z 0.000000 0.000000 1.686030 
# 
# From -- ./inp_files/8039.got.cif
#   From: 2010.05.17/outbox.cif.g08.bks.cpg/sg59_5_cif.got.tgz:8039.got - 2010.06.03 14:40:33.
