data_PCOD9451684
_publ_section_title
;
Structure prediction by ZEFSAII (Michael W. Deem and Ramdas Pophale) SiO2 
 PCOD9451684
Probable space group: P M M N
;
_chemical_formula_sum "Si O2"
_cell_formula_units_Z 48
_cell_length_a 21.084737
_cell_length_b 13.707055
_cell_length_c 8.280999
_cell_angle_alpha 90.000000
_cell_angle_beta 90.000000
_cell_angle_gamma 90.000000
_cell_volume 2393.288620
_symmetry_space_group_name_H-M "P M M N"
_symmetry_group_IT_number 59
_space_group.IT_coordinate_system_code '2'
_symmetry_cell_setting 'orthorhombic'
loop_
_space_group_symop_operation_xyz
x,y,z
1/2-x,1/2-y,z
1/2+x,-y,-z
-x,1/2+y,-z
-x,-y,-z
1/2+x,1/2+y,-z
1/2-x,y,z
x,1/2-y,z
loop_
_atom_site_type_symbol
_atom_site_label
_atom_site_fract_x
_atom_site_fract_y
_atom_site_fract_z
Si Si1 0.503221 0.357174 0.858524
Si Si2 0.321301 0.052591 0.679447
Si Si3 0.674312 0.362916 0.502599
Si Si4 0.940929 0.859642 0.491350
Si Si5 0.095648 0.504297 0.255502
Si Si6 0.636475 0.637187 0.989799
O O1 0.530499 0.250000 0.889078
O O2 0.484679 0.363697 0.667632
O O3 0.554630 0.440489 0.879608
O O4 0.437936 0.363599 0.956522
O O5 0.250000 0.070335 0.622760
O O6 0.371230 0.116176 0.578782
O O7 0.327964 0.084783 0.863696
O O8 0.335659 0.938166 0.646543
O O9 0.750000 0.363150 0.537367
O O10 0.655252 0.250000 0.476975
O O11 0.634491 0.415194 0.644079
O O12 0.944633 0.750000 0.557739
O O13 0.950028 0.940896 0.627362
O O14 0.141059 0.425517 0.171721
O O15 0.655566 0.750000 0.973820
#
# Coordination Sequence:
#
# PCOD9451684 Si02
#       6
#     8   8   8   8   8   8
#     4   9  18  33  50  69  96 133 172 205 243 292
#     4   9  18  34  55  73  94 132 172 203 244 297
#     4   9  19  36  55  75  99 127 165 213 255 292
#     4   9  18  31  49  74 100 128 167 212 252 291
#     4  11  19  31  52  75 102 134 165 203 252 303
#     4  10  21  34  49  74 107 136 164 203 247 294
#
# _framework density 20.056084999999999
#
# number of rings (size 3 to 8) (size 9 to 14) (size 15 to 20)
#    0.000    2.500    0.000    3.500    0.000    2.000 
#    0.000    1.667    0.000   11.000    0.000    0.000 
#    0.000    0.000    0.000    0.000    0.000    0.000 
#
# Total GULP energy -267638.486046 kJ/mol
# GULP energy per Si atom -5575.801793 kJ/mol
# Density = 2.001044 g / cm^3
# Si number density = 20.056085 Si / 1000 Ang^3
#
#
#
# Elastic Constant Matrix: (Units=GPa)
#
#
# Indices 1 2 3 4 5 6 
#
# 1 22.6972 32.5291 -2.1176 0.0000 0.0000 0.0000
# 2 32.5291 159.6562 22.5232 0.0000 0.0000 0.0000
# 3 -2.1176 22.5232 20.8485 0.0000 0.0000 0.0000
# 4 0.0000 0.0000 0.0000 28.6505 0.0000 0.0000
# 5 0.0000 0.0000 0.0000 0.0000 11.1627 0.0000
# 6 0.0000 0.0000 0.0000 0.0000 0.0000 25.3136
#
#
#
# Elastic Compliance Matrix: (Units=1/GPa)
#
#
# Indices 1 2 3 4 5 6 
#
# 1 0.073941 -0.019024 0.028062 0.000000 0.000000 0.000000
# 2 -0.019024 0.012284 -0.015203 0.000000 0.000000 0.000000
# 3 0.028062 -0.015203 0.067240 0.000000 0.000000 0.000000
# 4 0.000000 0.000000 0.000000 0.034903 0.000000 0.000000
# 5 0.000000 0.000000 0.000000 0.000000 0.089584 0.000000
# 6 0.000000 0.000000 0.000000 0.000000 0.000000 0.039504
#
#
# Mechanical properties :
#
#
# Convention : Reuss Voigt Hill
#
# Bulk Modulus (GPa) = 7.08540 34.34127 20.71333
# Shear Modulus (GPa) = 13.26852 23.04319 18.15585
#
# Velocity S-wave (km/s) = 2.57489 3.39328 3.01201
# Velocity P-wave (km/s) = 3.51860 5.70195 4.73776
#
# Compressibility (1/GPa) = 0.14113536
#
# Stress axis : x y z
#
# Youngs Moduli (GPa) = 13.52430 81.40499 14.87211
#
# Poissons Ratio (x) = 1.54864 -0.41735
# Poissons Ratio (y) = 0.25729 0.22611
# Poissons Ratio (z) = -0.37952 1.23762
#
# Static dielectric constant tensor:
#      x y z
#    x 1.729430 0.000000 0.000000 
#    y 0.000000 1.731370 0.000000 
#    z 0.000000 0.000000 1.727500 
# 
# From -- ./inp_files/7568.got.cif
#   From: 2010.05.17/outbox.cif.g08.bks.cpg/sg59_4_cif.got.tgz:7568.got - 2010.06.03 14:40:33.
