data_PCOD9451484
_publ_section_title
;
Structure prediction by ZEFSAII (Michael W. Deem and Ramdas Pophale) SiO2 
 PCOD9451484
Probable space group: P M M N
;
_chemical_formula_sum "Si O2"
_cell_formula_units_Z 48
_cell_length_a 16.342925
_cell_length_b 8.842987
_cell_length_c 18.347302
_cell_angle_alpha 90.000000
_cell_angle_beta 90.000000
_cell_angle_gamma 90.000000
_cell_volume 2651.557100
_symmetry_space_group_name_H-M "P M M N"
_symmetry_group_IT_number 59
_space_group.IT_coordinate_system_code '2'
_symmetry_cell_setting 'orthorhombic'
loop_
_space_group_symop_operation_xyz
x,y,z
1/2-x,1/2-y,z
1/2+x,-y,-z
-x,1/2+y,-z
-x,-y,-z
1/2+x,1/2+y,-z
1/2-x,y,z
x,1/2-y,z
loop_
_atom_site_type_symbol
_atom_site_label
_atom_site_fract_x
_atom_site_fract_y
_atom_site_fract_z
Si Si1 0.416985 0.930778 0.033230
Si Si2 0.158536 0.571327 0.324129
Si Si3 0.001637 0.569465 0.419967
Si Si4 0.750000 0.569234 0.213424
Si Si5 0.750000 0.433189 0.051441
Si Si6 0.426634 0.071314 0.191152
Si Si7 0.911141 0.431048 0.284801
O O1 0.422458 0.750000 0.028523
O O2 0.412985 0.982772 0.116782
O O3 0.333487 0.976527 0.991136
O O4 0.500000 0.000000 0.000000
O O5 0.250000 0.541733 0.350304
O O6 0.151506 0.750000 0.306083
O O7 0.138433 0.477342 0.252040
O O8 0.090241 0.538079 0.384109
O O9 0.989458 0.750000 0.422623
O O10 0.937904 0.495734 0.363257
O O11 0.000000 0.500000 0.500000
O O12 0.750000 0.750000 0.212284
O O13 0.750000 0.505263 0.131280
O O14 0.829827 0.507244 0.254599
O O15 0.750000 0.250000 0.058180
O O16 0.423407 0.250000 0.177074
O O17 0.514548 0.036345 0.228314
O O18 0.901870 0.250000 0.288857
#
# Coordination Sequence:
#
# PCOD9451484 Si02
#       7
#     8   8   8   4   4   8   8
#     4  11  23  39  58  82 114 153 196 242 295 351
#     4   9  19  36  58  83 111 149 192 230 278 340
#     4  10  20  37  60  86 119 153 191 237 285 340
#     4  12  24  38  60  88 115 144 193 248 290 340
#     4  10  24  42  58  80 115 158 197 238 294 356
#     4  10  21  36  57  84 114 148 190 238 288 342
#     4  10  21  39  61  84 114 156 195 233 289 348
#
# _framework density 18.102568999999999
#
# number of rings (size 3 to 8) (size 9 to 14) (size 15 to 20)
#    0.000    1.833    0.000    3.750    1.167    8.333 
#    1.500    0.000    0.000    0.000    0.000    0.000 
#    0.000    0.000    0.000    0.000    0.000    0.000 
#
# Total GULP energy -268134.613885 kJ/mol
# GULP energy per Si atom -5586.137789 kJ/mol
# Density = 1.806137 g / cm^3
# Si number density = 18.102569 Si / 1000 Ang^3
#
#
#
# Elastic Constant Matrix: (Units=GPa)
#
#
# Indices 1 2 3 4 5 6 
#
# 1 134.0601 60.3350 80.9089 0.0000 0.0000 0.0000
# 2 60.3350 64.4626 67.7256 0.0000 0.0000 0.0000
# 3 80.9089 67.7256 158.3342 0.0000 0.0000 0.0000
# 4 0.0000 0.0000 0.0000 38.5096 0.0000 0.0000
# 5 0.0000 0.0000 0.0000 0.0000 12.0850 0.0000
# 6 0.0000 0.0000 0.0000 0.0000 0.0000 30.1112
#
#
#
# Elastic Compliance Matrix: (Units=1/GPa)
#
#
# Indices 1 2 3 4 5 6 
#
# 1 0.013501 -0.009786 -0.002713 0.000000 0.000000 0.000000
# 2 -0.009786 0.035267 -0.010084 0.000000 0.000000 0.000000
# 3 -0.002713 -0.010084 0.012016 0.000000 0.000000 0.000000
# 4 0.000000 0.000000 0.000000 0.025968 0.000000 0.000000
# 5 0.000000 0.000000 0.000000 0.000000 0.082747 0.000000
# 6 0.000000 0.000000 0.000000 0.000000 0.000000 0.033210
#
#
# Mechanical properties :
#
#
# Convention : Reuss Voigt Hill
#
# Bulk Modulus (GPa) = 64.03442 86.08843 75.06143
# Shear Modulus (GPa) = 19.75641 26.00033 22.87837
#
# Velocity S-wave (km/s) = 3.30716 3.79394 3.55888
# Velocity P-wave (km/s) = 7.07340 8.17625 7.64474
#
# Compressibility (1/GPa) = 0.01561660
#
# Stress axis : x y z
#
# Youngs Moduli (GPa) = 74.06751 28.35483 83.22437
#
# Poissons Ratio (x) = 0.27749 0.22580
# Poissons Ratio (y) = 0.72484 0.83927
# Poissons Ratio (z) = 0.20096 0.28594
#
# Static dielectric constant tensor:
#      x y z
#    x 1.621160 0.000000 0.000000 
#    y 0.000000 1.600020 0.000000 
#    z 0.000000 0.000000 1.582060 
# 
# From -- ./inp_files/25633.got.cif
#   From: 2010.05.17/outbox.cif.g08.bks.cpg/sg59_13_cif.got.tgz:25633.got - 2010.06.03 14:40:33.
