data_PCOD9451759
_publ_section_title
;
Structure prediction by ZEFSAII (Michael W. Deem and Ramdas Pophale) SiO2 
 PCOD9451759
Probable space group: P M M N
;
_chemical_formula_sum "Si O2"
_cell_formula_units_Z 48
_cell_length_a 9.470727
_cell_length_b 9.090459
_cell_length_c 31.389858
_cell_angle_alpha 90.000000
_cell_angle_beta 90.000000
_cell_angle_gamma 90.000000
_cell_volume 2702.455065
_symmetry_space_group_name_H-M "P M M N"
_symmetry_group_IT_number 59
_space_group.IT_coordinate_system_code '2'
_symmetry_cell_setting 'orthorhombic'
loop_
_space_group_symop_operation_xyz
x,y,z
1/2-x,1/2-y,z
1/2+x,-y,-z
-x,1/2+y,-z
-x,-y,-z
1/2+x,1/2+y,-z
1/2-x,y,z
x,1/2-y,z
loop_
_atom_site_type_symbol
_atom_site_label
_atom_site_fract_x
_atom_site_fract_y
_atom_site_fract_z
Si Si1 0.916461 0.425915 0.627328
Si Si2 0.914099 0.572825 0.288378
Si Si3 0.918352 0.575808 0.538538
Si Si4 0.083490 0.073913 0.961111
Si Si5 0.916541 0.573869 0.885413
Si Si6 0.413841 0.073417 0.213192
O O1 0.750000 0.454871 0.634719
O O2 0.933395 0.250000 0.621591
O O3 0.959834 0.506648 0.584004
O O4 0.004784 0.472334 0.668559
O O5 0.750000 0.532251 0.290658
O O6 0.924216 0.750000 0.285607
O O7 0.987433 0.503403 0.247298
O O8 0.750000 0.550999 0.533635
O O9 0.943930 0.750000 0.538498
O O10 0.000000 0.500000 0.500000
O O11 0.250000 0.038253 0.963240
O O12 0.068895 0.250000 0.963364
O O13 0.014215 0.012717 0.917942
O O14 0.000000 0.000000 0.000000
O O15 0.750000 0.543595 0.893385
O O16 0.935806 0.750000 0.890709
O O17 0.946647 0.536729 0.836045
O O18 0.250000 0.033062 0.221042
O O19 0.424662 0.250000 0.217069
#
# Coordination Sequence:
#
# PCOD9451759 Si02
#       6
#     8   8   8   8   8   8
#     4   9  18  34  54  74 101 140 182 220 260 310
#     4  10  21  35  52  78 111 143 176 218 266 314
#     4  10  21  36  55  80 108 138 173 215 263 314
#     4  11  24  39  56  81 111 142 178 220 265 315
#     4   9  19  37  59  82 108 139 178 222 266 314
#     4   9  19  36  57  80 107 141 180 221 264 312
#
# _framework density 17.761628000000002
#
# number of rings (size 3 to 8) (size 9 to 14) (size 15 to 20)
#    0.000    2.333    0.000    3.000    0.000    8.667 
#    0.000    8.333    0.000    0.000    0.000    0.000 
#    0.000    0.000    0.000    0.000    0.000    0.000 
#
# Total GULP energy -267995.698900 kJ/mol
# GULP energy per Si atom -5583.243727 kJ/mol
# Density = 1.772120 g / cm^3
# Si number density = 17.761628 Si / 1000 Ang^3
#
#
#
# Elastic Constant Matrix: (Units=GPa)
#
#
# Indices 1 2 3 4 5 6 
#
# 1 120.8952 67.8144 121.8234 0.0000 0.0000 0.0000
# 2 67.8144 47.2625 72.4301 0.0000 0.0000 0.0000
# 3 121.8234 72.4301 173.7312 0.0000 0.0000 0.0000
# 4 0.0000 0.0000 0.0000 40.1053 0.0000 0.0000
# 5 0.0000 0.0000 0.0000 0.0000 38.7465 0.0000
# 6 0.0000 0.0000 0.0000 0.0000 0.0000 30.0918
#
#
#
# Elastic Compliance Matrix: (Units=1/GPa)
#
#
# Indices 1 2 3 4 5 6 
#
# 1 0.054095 -0.053966 -0.015433 0.000000 0.000000 0.000000
# 2 -0.053966 0.112435 -0.009033 0.000000 0.000000 0.000000
# 3 -0.015433 -0.009033 0.020344 0.000000 0.000000 0.000000
# 4 0.000000 0.000000 0.000000 0.024934 0.000000 0.000000
# 5 0.000000 0.000000 0.000000 0.000000 0.025809 0.000000
# 6 0.000000 0.000000 0.000000 0.000000 0.000000 0.033232
#
#
# Mechanical properties :
#
#
# Convention : Reuss Voigt Hill
#
# Bulk Modulus (GPa) = 33.32376 96.22497 64.77436
# Shear Modulus (GPa) = 11.42292 27.11012 19.26652
#
# Velocity S-wave (km/s) = 2.53874 3.91107 3.29709
# Velocity P-wave (km/s) = 5.23412 8.64226 7.14439
#
# Compressibility (1/GPa) = 0.03000862
#
# Stress axis : x y z
#
# Youngs Moduli (GPa) = 18.48597 8.89406 49.15432
#
# Poissons Ratio (x) = 0.47998 0.75862
# Poissons Ratio (y) = 0.99762 0.44401
# Poissons Ratio (z) = 0.28530 0.08034
#
# Static dielectric constant tensor:
#      x y z
#    x 1.589830 0.000000 0.000000 
#    y 0.000000 1.590860 0.000000 
#    z 0.000000 0.000000 1.579730 
# 
# From -- ./inp_files/32822.got.cif
#   From: 2010.05.17/outbox.cif.g08.bks.cpg/sg59_17_cif.got.tgz:32822.got - 2010.06.03 14:40:33.
