data_PCOD9451552
_publ_section_title
;
Structure prediction by ZEFSAII (Michael W. Deem and Ramdas Pophale) SiO2 
 PCOD9451552
Probable space group: P M M N
;
_chemical_formula_sum "Si O2"
_cell_formula_units_Z 38
_cell_length_a 7.506268
_cell_length_b 11.643316
_cell_length_c 24.145997
_cell_angle_alpha 90.000000
_cell_angle_beta 90.000000
_cell_angle_gamma 90.000000
_cell_volume 2110.308231
_symmetry_space_group_name_H-M "P M M N"
_symmetry_group_IT_number 59
_space_group.IT_coordinate_system_code '2'
_symmetry_cell_setting 'orthorhombic'
loop_
_space_group_symop_operation_xyz
x,y,z
1/2-x,1/2-y,z
1/2+x,-y,-z
-x,1/2+y,-z
-x,-y,-z
1/2+x,1/2+y,-z
1/2-x,y,z
x,1/2-y,z
loop_
_atom_site_type_symbol
_atom_site_label
_atom_site_fract_x
_atom_site_fract_y
_atom_site_fract_z
Si Si1 0.961597 0.985610 0.935590
Si Si2 0.250000 0.750000 0.783653
Si Si3 0.465633 0.250000 0.120898
Si Si4 0.037612 0.885365 0.172498
Si Si5 0.250000 0.381541 0.630939
Si Si6 0.460701 0.615858 0.463630
Si Si7 0.250000 0.498334 0.748249
O O1 0.750000 0.988275 0.931874
O O2 0.019665 0.862001 0.913462
O O3 0.022715 0.076970 0.889463
O O4 0.000000 0.000000 0.000000
O O5 0.424194 0.750000 0.822851
O O6 0.250000 0.634685 0.749324
O O7 0.250000 0.250000 0.129041
O O8 0.250000 0.909987 0.178426
O O9 0.011761 0.750000 0.179355
O O10 0.920443 0.952024 0.217363
O O11 0.250000 0.250000 0.650063
O O12 0.420399 0.398154 0.591245
O O13 0.250000 0.456227 0.685635
O O14 0.500000 0.500000 0.500000
O O15 0.250000 0.615044 0.452809
O O16 0.501421 0.750000 0.484351
#
# Coordination Sequence:
#
# PCOD9451552 Si02
#       7
#     8   2   4   8   4   8   4
#     4  10  22  36  55  82 111 144 189 244 303 373
#     4  12  24  40  68  80 116 172 202 248 310 364
#     4  10  22  42  58  80 112 154 196 240 309 380
#     4  10  22  40  60  85 114 150 193 251 309 364
#     4  10  22  40  62  94 132 166 210 257 300 356
#     4  10  20  37  64  97 133 174 210 251 306 358
#     4  12  24  42  64  90 118 162 211 249 303 360
#
# _framework density 18.006848000000002
#
# number of rings (size 3 to 8) (size 9 to 14) (size 15 to 20)
#    0.000    1.684    3.158    0.947    4.421    0.842 
#    1.895    2.105    0.000    0.000    0.000    0.000 
#    0.000    0.000    0.000    0.000    0.000    0.000 
#
# Total GULP energy -211823.424174 kJ/mol
# GULP energy per Si atom -5574.300636 kJ/mol
# Density = 1.796586 g / cm^3
# Si number density = 18.006848 Si / 1000 Ang^3
#
#
#
# Elastic Constant Matrix: (Units=GPa)
#
#
# Indices 1 2 3 4 5 6 
#
# 1 86.4170 54.6626 41.6016 0.0000 0.0000 0.0000
# 2 54.6626 165.2015 93.0826 0.0000 0.0000 0.0000
# 3 41.6016 93.0826 122.7626 0.0000 0.0000 0.0000
# 4 0.0000 0.0000 0.0000 39.7660 0.0000 0.0000
# 5 0.0000 0.0000 0.0000 0.0000 14.2187 0.0000
# 6 0.0000 0.0000 0.0000 0.0000 0.0000 14.6279
#
#
#
# Elastic Compliance Matrix: (Units=1/GPa)
#
#
# Indices 1 2 3 4 5 6 
#
# 1 0.014999 -0.003665 -0.002304 0.000000 0.000000 0.000000
# 2 -0.003665 0.011464 -0.007450 0.000000 0.000000 0.000000
# 3 -0.002304 -0.007450 0.014576 0.000000 0.000000 0.000000
# 4 0.000000 0.000000 0.000000 0.025147 0.000000 0.000000
# 5 0.000000 0.000000 0.000000 0.000000 0.070330 0.000000
# 6 0.000000 0.000000 0.000000 0.000000 0.000000 0.068363
#
#
# Mechanical properties :
#
#
# Convention : Reuss Voigt Hill
#
# Bulk Modulus (GPa) = 70.42152 83.67497 77.04824
# Shear Modulus (GPa) = 21.14616 26.05814 23.60215
#
# Velocity S-wave (km/s) = 3.43058 3.80824 3.62433
# Velocity P-wave (km/s) = 7.40844 8.11826 7.77146
#
# Compressibility (1/GPa) = 0.01420020
#
# Stress axis : x y z
#
# Youngs Moduli (GPa) = 66.67059 87.23265 68.60771
#
# Poissons Ratio (x) = 0.31968 0.15809
# Poissons Ratio (y) = 0.24433 0.51114
# Poissons Ratio (z) = 0.15362 0.64990
#
# Static dielectric constant tensor:
#      x y z
#    x 1.625580 0.000000 0.000000 
#    y 0.000000 1.659410 0.000000 
#    z 0.000000 0.000000 1.602770 
# 
# From -- ./inp_files/25302.got.cif
#   From: 2010.05.17/outbox.cif.g08.bks.cpg/sg59_13_cif.got.tgz:25302.got - 2010.06.03 14:40:33.
