data_PCOD9451220
_publ_section_title
;
Structure prediction by ZEFSAII (Michael W. Deem and Ramdas Pophale) SiO2 
 PCOD9451220
Probable space group: P M M N
;
_chemical_formula_sum "Si O2"
_cell_formula_units_Z 48
_cell_length_a 31.601096
_cell_length_b 8.565885
_cell_length_c 9.355363
_cell_angle_alpha 90.000000
_cell_angle_beta 90.000000
_cell_angle_gamma 90.000000
_cell_volume 2532.415880
_symmetry_space_group_name_H-M "P M M N"
_symmetry_group_IT_number 59
_space_group.IT_coordinate_system_code '2'
_symmetry_cell_setting 'orthorhombic'
loop_
_space_group_symop_operation_xyz
x,y,z
1/2-x,1/2-y,z
1/2+x,-y,-z
-x,1/2+y,-z
-x,-y,-z
1/2+x,1/2+y,-z
1/2-x,y,z
x,1/2-y,z
loop_
_atom_site_type_symbol
_atom_site_label
_atom_site_fract_x
_atom_site_fract_y
_atom_site_fract_z
Si Si1 0.298672 0.561518 0.419674
Si Si2 0.377487 0.560748 0.906226
Si Si3 0.378625 0.064747 0.585977
Si Si4 0.040166 0.561539 0.086156
Si Si5 0.797517 0.059952 0.911503
Si Si6 0.959254 0.062569 0.583952
O O1 0.250000 0.520566 0.455722
O O2 0.302165 0.750000 0.428559
O O3 0.333877 0.486965 0.519249
O O4 0.306019 0.516675 0.253561
O O5 0.376932 0.750000 0.898760
O O6 0.381898 0.495549 0.747778
O O7 0.417041 0.513933 0.004869
O O8 0.334147 0.507802 0.982283
O O9 0.382401 0.250000 0.583523
O O10 0.416554 0.992910 0.492695
O O11 0.038956 0.750000 0.086378
O O12 0.039793 0.509300 0.250901
O O13 0.000000 0.500000 0.000000
O O14 0.750000 0.008306 0.949836
O O15 0.797406 0.250000 0.913746
O O16 0.960226 0.250000 0.582428
O O17 0.000000 0.000000 0.500000
#
# Coordination Sequence:
#
# PCOD9451220 Si02
#       6
#     8   8   8   8   8   8
#     4   9  18  36  62  87 111 145 190 238 287 339
#     4  10  20  36  57  81 110 146 187 232 281 329
#     4  12  25  38  54  82 119 156 192 232 279 332
#     4  10  22  38  59  84 111 143 182 230 278 329
#     4   8  15  31  58  87 109 135 181 236 285 336
#     4  11  23  41  63  88 116 147 187 232 280 335
#
# _framework density 18.954231
#
# number of rings (size 3 to 8) (size 9 to 14) (size 15 to 20)
#    0.000    2.000    0.000    5.000    0.000    8.333 
#    0.000    4.167    0.000    1.000    0.000    0.000 
#    0.000    0.000    0.000    0.000    0.000    0.000 
#
# Total GULP energy -268167.587122 kJ/mol
# GULP energy per Si atom -5586.824732 kJ/mol
# Density = 1.891109 g / cm^3
# Si number density = 18.954231 Si / 1000 Ang^3
#
#
#
# Elastic Constant Matrix: (Units=GPa)
#
#
# Indices 1 2 3 4 5 6 
#
# 1 159.9755 39.8124 123.2424 0.0000 0.0000 0.0000
# 2 39.8124 36.7259 41.1633 0.0000 0.0000 0.0000
# 3 123.2424 41.1633 192.2908 0.0000 0.0000 0.0000
# 4 0.0000 0.0000 0.0000 17.4999 0.0000 0.0000
# 5 0.0000 0.0000 0.0000 0.0000 42.2815 0.0000
# 6 0.0000 0.0000 0.0000 0.0000 0.0000 28.7857
#
#
#
# Elastic Compliance Matrix: (Units=1/GPa)
#
#
# Indices 1 2 3 4 5 6 
#
# 1 0.013418 -0.006456 -0.007218 0.000000 0.000000 0.000000
# 2 -0.006456 0.038930 -0.004196 0.000000 0.000000 0.000000
# 3 -0.007218 -0.004196 0.010725 0.000000 0.000000 0.000000
# 4 0.000000 0.000000 0.000000 0.057143 0.000000 0.000000
# 5 0.000000 0.000000 0.000000 0.000000 0.023651 0.000000
# 6 0.000000 0.000000 0.000000 0.000000 0.000000 0.034739
#
#
# Mechanical properties :
#
#
# Convention : Reuss Voigt Hill
#
# Bulk Modulus (GPa) = 36.58520 88.60315 62.59418
# Shear Modulus (GPa) = 22.37564 30.03171 26.20367
#
# Velocity S-wave (km/s) = 3.43958 3.98481 3.72219
# Velocity P-wave (km/s) = 5.92605 8.24736 7.18112
#
# Compressibility (1/GPa) = 0.02733345
#
# Stress axis : x y z
#
# Youngs Moduli (GPa) = 74.52591 25.68709 93.24190
#
# Poissons Ratio (x) = 0.16583 0.67301
# Poissons Ratio (y) = 0.48112 0.39125
# Poissons Ratio (z) = 0.53792 0.10778
#
# Static dielectric constant tensor:
#      x y z
#    x 1.637100 0.000000 0.000000 
#    y 0.000000 1.649670 0.000000 
#    z 0.000000 0.000000 1.630510 
# 
# From -- ./inp_files/12967.got.cif
#   From: 2010.05.17/outbox.cif.g08.bks.cpg/sg59_7_cif.got.tgz:12967.got - 2010.06.03 14:40:33.
