data_PCOD9451267
_publ_section_title
;
Structure prediction by ZEFSAII (Michael W. Deem and Ramdas Pophale) SiO2 
 PCOD9451267
Probable space group: P M M N
;
_chemical_formula_sum "Si O2"
_cell_formula_units_Z 48
_cell_length_a 29.112722
_cell_length_b 8.467676
_cell_length_c 10.539014
_cell_angle_alpha 90.000000
_cell_angle_beta 90.000000
_cell_angle_gamma 90.000000
_cell_volume 2598.047140
_symmetry_space_group_name_H-M "P M M N"
_symmetry_group_IT_number 59
_space_group.IT_coordinate_system_code '2'
_symmetry_cell_setting 'orthorhombic'
loop_
_space_group_symop_operation_xyz
x,y,z
1/2-x,1/2-y,z
1/2+x,-y,-z
-x,1/2+y,-z
-x,-y,-z
1/2+x,1/2+y,-z
1/2-x,y,z
x,1/2-y,z
loop_
_atom_site_type_symbol
_atom_site_label
_atom_site_fract_x
_atom_site_fract_y
_atom_site_fract_z
Si Si1 0.698721 0.942354 0.355773
Si Si2 0.604720 0.940885 0.240957
Si Si3 0.395742 0.938586 0.257352
Si Si4 0.447995 0.439226 0.010315
Si Si5 0.948305 0.060304 0.487242
Si Si6 0.197931 0.059474 0.349100
O O1 0.750000 0.994502 0.318660
O O2 0.698902 0.750000 0.354505
O O3 0.656735 0.996217 0.268695
O O4 0.690828 0.988348 0.503051
O O5 0.605435 0.750000 0.238024
O O6 0.581674 0.996200 0.110696
O O7 0.574518 0.993540 0.360430
O O8 0.398298 0.750000 0.251671
O O9 0.419634 0.991452 0.388906
O O10 0.342820 0.991118 0.265064
O O11 0.423354 0.007186 0.138905
O O12 0.449277 0.250000 0.007126
O O13 0.500000 0.500000 0.000000
O O14 0.947895 0.250000 0.482355
O O15 0.000000 0.000000 0.500000
O O16 0.250000 0.012807 0.313545
O O17 0.195709 0.250000 0.344864
#
# Coordination Sequence:
#
# PCOD9451267 Si02
#       6
#     8   8   8   8   8   8
#     4   8  14  28  54  85 112 138 171 219 278 331
#     4  10  20  36  58  83 110 141 183 231 281 334
#     4  11  23  38  56  82 115 152 190 229 280 339
#     4  11  24  40  58  81 111 152 195 237 287 343
#     4  11  23  36  54  81 109 141 185 234 283 333
#     4   9  17  32  58  88 114 145 185 227 278 335
#
# _framework density 18.475415999999999
#
# number of rings (size 3 to 8) (size 9 to 14) (size 15 to 20)
#    0.000    2.000    1.667    3.500    0.000    7.667 
#    0.000    0.833    0.000    3.500    0.000    0.000 
#    0.000    0.000    0.000    0.000    0.000    0.000 
#
# Total GULP energy -267985.998374 kJ/mol
# GULP energy per Si atom -5583.041633 kJ/mol
# Density = 1.843337 g / cm^3
# Si number density = 18.475416 Si / 1000 Ang^3
#
#
#
# Elastic Constant Matrix: (Units=GPa)
#
#
# Indices 1 2 3 4 5 6 
#
# 1 150.8296 19.1778 47.0809 0.0000 0.0000 0.0000
# 2 19.1778 16.0416 17.9328 0.0000 0.0000 0.0000
# 3 47.0809 17.9328 91.9414 0.0000 0.0000 0.0000
# 4 0.0000 0.0000 0.0000 23.7790 0.0000 0.0000
# 5 0.0000 0.0000 0.0000 0.0000 33.2792 0.0000
# 6 0.0000 0.0000 0.0000 0.0000 0.0000 28.3791
#
#
#
# Elastic Compliance Matrix: (Units=1/GPa)
#
#
# Indices 1 2 3 4 5 6 
#
# 1 0.008421 -0.006709 -0.003003 0.000000 0.000000 0.000000
# 2 -0.006709 0.085066 -0.013156 0.000000 0.000000 0.000000
# 3 -0.003003 -0.013156 0.014980 0.000000 0.000000 0.000000
# 4 0.000000 0.000000 0.000000 0.042054 0.000000 0.000000
# 5 0.000000 0.000000 0.000000 0.000000 0.030049 0.000000
# 6 0.000000 0.000000 0.000000 0.000000 0.000000 0.035237
#
#
# Mechanical properties :
#
#
# Convention : Reuss Voigt Hill
#
# Bulk Modulus (GPa) = 15.94147 47.46618 31.70382
# Shear Modulus (GPa) = 17.70197 28.72886 23.21542
#
# Velocity S-wave (km/s) = 3.09874 3.94760 3.54864
# Velocity P-wave (km/s) = 4.63142 6.82095 5.82990
#
# Compressibility (1/GPa) = 0.06272947
#
# Stress axis : x y z
#
# Youngs Moduli (GPa) = 118.75689 11.75557 66.75361
#
# Poissons Ratio (x) = 0.07887 0.20048
# Poissons Ratio (y) = 0.79679 0.87822
# Poissons Ratio (z) = 0.35667 0.15466
#
# Static dielectric constant tensor:
#      x y z
#    x 1.639750 0.000000 0.000000 
#    y 0.000000 1.639460 0.000000 
#    z 0.000000 0.000000 1.615340 
# 
# From -- ./inp_files/12979.got.cif
#   From: 2010.05.17/outbox.cif.g08.bks.cpg/sg59_7_cif.got.tgz:12979.got - 2010.06.03 14:40:33.
