data_PCOD9451020
_publ_section_title
;
Structure prediction by ZEFSAII (Michael W. Deem and Ramdas Pophale) SiO2 
 PCOD9451020
Probable space group: P M M N
;
_chemical_formula_sum "Si O2"
_cell_formula_units_Z 56
_cell_length_a 9.176536
_cell_length_b 14.480282
_cell_length_c 22.444744
_cell_angle_alpha 90.000000
_cell_angle_beta 90.000000
_cell_angle_gamma 90.000000
_cell_volume 2982.431301
_symmetry_space_group_name_H-M "P M M N"
_symmetry_group_IT_number 59
_space_group.IT_coordinate_system_code '2'
_symmetry_cell_setting 'orthorhombic'
loop_
_space_group_symop_operation_xyz
x,y,z
1/2-x,1/2-y,z
1/2+x,-y,-z
-x,1/2+y,-z
-x,-y,-z
1/2+x,1/2+y,-z
1/2-x,y,z
x,1/2-y,z
loop_
_atom_site_type_symbol
_atom_site_label
_atom_site_fract_x
_atom_site_fract_y
_atom_site_fract_z
Si Si1 0.074955 0.856195 0.472625
Si Si2 0.578158 0.088621 0.161102
Si Si3 0.423819 0.449159 0.414775
Si Si4 0.416974 0.907414 0.131056
Si Si5 0.922482 0.461173 0.295458
Si Si6 0.921440 0.250000 0.964868
Si Si7 0.077194 0.250000 0.090656
Si Si8 0.082021 0.853345 0.267122
O O1 0.250000 0.857655 0.481307
O O2 0.035781 0.750000 0.455888
O O3 0.995428 0.888081 0.533146
O O4 0.042169 0.941625 0.427814
O O5 0.750000 0.104916 0.153879
O O6 0.544952 0.086317 0.231880
O O7 0.486103 0.162871 0.125849
O O8 0.531296 0.989447 0.135683
O O9 0.250000 0.439074 0.415595
O O10 0.490817 0.422083 0.351455
O O11 0.250000 0.942713 0.124701
O O12 0.447086 0.838245 0.077313
O O13 0.420848 0.856445 0.195028
O O14 0.750000 0.456698 0.305561
O O15 0.975574 0.566928 0.288386
O O16 0.750000 0.250000 0.981370
O O17 0.016729 0.250000 0.023618
O O18 0.250000 0.250000 0.090645
O O19 0.250000 0.874160 0.285321
O O20 0.046444 0.750000 0.287494
#
# Coordination Sequence:
#
# PCOD9451020 Si02
#       8
#     8   8   8   8   8   4   4   8
#     4   9  19  37  59  82 113 152 188 227 276 325
#     4  10  22  41  61  81 111 150 189 235 289 339
#     4  10  20  35  57  85 115 147 188 233 276 328
#     4   9  17  33  58  86 113 145 184 226 276 337
#     4  10  21  36  55  81 112 149 189 230 281 335
#     4  10  20  36  60  88 118 150 185 228 281 344
#     4  12  26  42  60  82 108 144 191 242 291 338
#     4   9  16  29  51  79 111 146 183 226 278 331
#
# _framework density 18.776626
#
# number of rings (size 3 to 8) (size 9 to 14) (size 15 to 20)
#    0.000    2.286    0.714    1.929    0.000    4.571 
#    1.286    1.429    0.000    0.000    0.000    0.000 
#    0.000    0.000    0.000    0.000    0.000    0.000 
#
# Total GULP energy -312512.837109 kJ/mol
# GULP energy per Si atom -5580.586377 kJ/mol
# Density = 1.873389 g / cm^3
# Si number density = 18.776626 Si / 1000 Ang^3
#
#
#
# Elastic Constant Matrix: (Units=GPa)
#
#
# Indices 1 2 3 4 5 6 
#
# 1 56.8902 16.1444 56.8242 0.0000 0.0000 0.0000
# 2 16.1444 35.3249 11.8478 0.0000 0.0000 0.0000
# 3 56.8242 11.8478 97.9509 0.0000 0.0000 0.0000
# 4 0.0000 0.0000 0.0000 5.7782 0.0000 0.0000
# 5 0.0000 0.0000 0.0000 0.0000 29.2896 0.0000
# 6 0.0000 0.0000 0.0000 0.0000 0.0000 -19.4068
#
#
#
# Elastic Compliance Matrix: (Units=1/GPa)
#
#
# Indices 1 2 3 4 5 6 
#
# 1 0.046754 -0.012790 -0.025576 0.000000 0.000000 0.000000
# 2 -0.012790 0.033004 0.003428 0.000000 0.000000 0.000000
# 3 -0.025576 0.003428 0.024632 0.000000 0.000000 0.000000
# 4 0.000000 0.000000 0.000000 0.173064 0.000000 0.000000
# 5 0.000000 0.000000 0.000000 0.000000 0.034142 0.000000
# 6 0.000000 0.000000 0.000000 0.000000 0.000000 -0.051528
#
#
# Mechanical properties :
#
#
# Convention : Reuss Voigt Hill
#
# Bulk Modulus (GPa) = 28.97414 39.97767 34.47590
# Shear Modulus (GPa) = 14.64351 10.15552 12.39951
#
# Velocity S-wave (km/s) = 2.79566 2.32816 2.57255
# Velocity P-wave (km/s) = 5.08777 5.34458 5.21776
#
# Compressibility (1/GPa) = 0.03451353
#
# Stress axis : x y z
#
# Youngs Moduli (GPa) = 21.38866 30.29916 40.59735
#
# Poissons Ratio (x) = 0.38751 1.03833
# Poissons Ratio (y) = 0.27355 -0.13915
# Poissons Ratio (z) = 0.54704 -0.10385
#
# Static dielectric constant tensor:
#      x y z
#    x 1.619880 0.000000 0.000000 
#    y 0.000000 1.673100 0.000000 
#    z 0.000000 0.000000 1.645960 
# 
# From -- ./inp_files/29249.got.cif
#   From: 2010.05.17/outbox.cif.g08.bks.cpg/sg59_15_cif.got.tgz:29249.got - 2010.06.03 14:40:33.
