data_PCOD9451066
_publ_section_title
;
Structure prediction by ZEFSAII (Michael W. Deem and Ramdas Pophale) SiO2 
 PCOD9451066
Probable space group: P M M N
;
_chemical_formula_sum "Si O2"
_cell_formula_units_Z 64
_cell_length_a 21.127179
_cell_length_b 15.705680
_cell_length_c 10.797494
_cell_angle_alpha 90.000000
_cell_angle_beta 90.000000
_cell_angle_gamma 90.000000
_cell_volume 3582.788964
_symmetry_space_group_name_H-M "P M M N"
_symmetry_group_IT_number 59
_space_group.IT_coordinate_system_code '2'
_symmetry_cell_setting 'orthorhombic'
loop_
_space_group_symop_operation_xyz
x,y,z
1/2-x,1/2-y,z
1/2+x,-y,-z
-x,1/2+y,-z
-x,-y,-z
1/2+x,1/2+y,-z
1/2-x,y,z
x,1/2-y,z
loop_
_atom_site_type_symbol
_atom_site_label
_atom_site_fract_x
_atom_site_fract_y
_atom_site_fract_z
Si Si1 0.826771 0.000000 0.056599
Si Si2 0.465212 0.846820 0.299620
Si Si3 0.409899 0.898257 0.547640
Si Si4 0.674533 0.155162 0.238146
Si Si5 0.409899 0.398257 0.547640
Si Si6 0.465212 0.153180 0.299620
Si Si7 0.947393 0.500000 0.891049
Si Si8 0.825467 0.655162 0.238146
O O1 0.750000 0.000000 0.031052
O O2 0.843042 0.917173 0.139558
O O3 0.843042 0.082827 0.139558
O O4 0.875862 0.000000 0.943960
O O5 0.462951 0.750000 0.254519
O O6 0.414656 0.860801 0.410306
O O7 0.531425 0.864026 0.370515
O O8 0.457267 0.916886 0.194135
O O9 0.349596 0.871943 0.627067
O O10 0.468575 0.864026 0.629485
O O11 0.415633 0.000000 0.539075
O O12 0.750000 0.157699 0.238261
O O13 0.650263 0.250000 0.207889
O O14 0.414656 0.360801 0.410306
O O15 0.349595 0.371943 0.627067
O O16 0.462951 0.250000 0.254519
O O17 0.457266 0.083114 0.194135
O O18 0.000000 0.500000 0.000000
O O19 0.750000 0.657699 0.238261
O O20 0.849737 0.750000 0.207889
#
# Coordination Sequence:
#
# PCOD9451066 Si02
#       8
#     8   8   8   8   8   8   8   8
#     4  10  22  39  57  79 113 152 188 231 279 321
#     4  11  22  37  57  83 113 145 179 225 284 332
#     4  11  18  35  60  84 115 142 172 224 288 341
#     4  10  20  35  58  86 111 141 184 229 275 329
#     4  11  18  35  60  84 115 142 172 224 288 341
#     4  11  22  37  57  83 113 145 179 225 284 332
#     4  12  24  38  57  82 111 148 198 237 262 323
#     4  10  20  35  58  86 111 141 184 229 275 329
#
# _framework density 17.86318
#
# number of rings (size 3 to 8) (size 9 to 14) (size 15 to 20)
#    0.000    1.250    3.750    5.250    0.000    1.500 
#    0.000    1.250    0.000    1.500    0.000    0.000 
#    0.000    0.000    0.000    0.000    0.000    0.000 
#
# Total GULP energy -357252.877220 kJ/mol
# GULP energy per Si atom -5582.076207 kJ/mol
# Density = 1.782252 g / cm^3
# Si number density = 17.863180 Si / 1000 Ang^3
#
#
#
# Elastic Constant Matrix: (Units=GPa)
#
#
# Indices 1 2 3 4 5 6 
#
# 1 21.1105 26.1741 30.9473 0.0000 0.0000 0.0000
# 2 26.1741 188.1389 67.0802 0.0000 0.0000 0.0000
# 3 30.9473 67.0802 114.7904 0.0000 0.0000 0.0000
# 4 0.0000 0.0000 0.0000 -3.1250 0.0000 0.0000
# 5 0.0000 0.0000 0.0000 0.0000 31.7304 0.0000
# 6 0.0000 0.0000 0.0000 0.0000 0.0000 15.4819
#
#
#
# Elastic Compliance Matrix: (Units=1/GPa)
#
#
# Indices 1 2 3 4 5 6 
#
# 1 0.081117 -0.004406 -0.019295 0.000000 0.000000 0.000000
# 2 -0.004406 0.006953 -0.002876 0.000000 0.000000 0.000000
# 3 -0.019295 -0.002876 0.015594 0.000000 0.000000 0.000000
# 4 0.000000 0.000000 0.000000 -0.320005 0.000000 0.000000
# 5 0.000000 0.000000 0.000000 0.000000 0.031515 0.000000
# 6 0.000000 0.000000 0.000000 0.000000 0.000000 0.064592
#
#
# Mechanical properties :
#
#
# Convention : Reuss Voigt Hill
#
# Bulk Modulus (GPa) = 19.79699 63.60478 41.70088
# Shear Modulus (GPa) = -99.51433 22.14002 -38.68715
#
# Velocity S-wave (km/s) = -7.47196 3.52436 -4.65881
# Velocity P-wave (km/s) = 7.95824 7.22810 2.35458
#
# Compressibility (1/GPa) = 0.05051273
#
# Stress axis : x y z
#
# Youngs Moduli (GPa) = 12.32782 143.81372 64.12834
#
# Poissons Ratio (x) = 0.63361 1.23733
# Poissons Ratio (y) = 0.05431 0.18441
# Poissons Ratio (z) = 0.23786 0.41355
#
# Static dielectric constant tensor:
#      x y z
#    x 1.633410 0.000000 0.000000 
#    y 0.000000 1.638550 0.000000 
#    z 0.000000 0.000000 1.591450 
# 
# From -- ./inp_files/12245.got.cif
#   From: 2010.05.17/outbox.cif.g08.bks.cpg/sg59_7_cif.got.tgz:12245.got - 2010.06.03 14:40:33.
