data_PCOD9451678
_publ_section_title
;
Structure prediction by ZEFSAII (Michael W. Deem and Ramdas Pophale) SiO2 
 PCOD9451678
Probable space group: P M M N
;
_chemical_formula_sum "Si O2"
_cell_formula_units_Z 48
_cell_length_a 14.180275
_cell_length_b 11.375678
_cell_length_c 15.339238
_cell_angle_alpha 90.000000
_cell_angle_beta 90.000000
_cell_angle_gamma 90.000000
_cell_volume 2474.376199
_symmetry_space_group_name_H-M "P M M N"
_symmetry_group_IT_number 59
_space_group.IT_coordinate_system_code '2'
_symmetry_cell_setting 'orthorhombic'
loop_
_space_group_symop_operation_xyz
x,y,z
1/2-x,1/2-y,z
1/2+x,-y,-z
-x,1/2+y,-z
-x,-y,-z
1/2+x,1/2+y,-z
1/2-x,y,z
x,1/2-y,z
loop_
_atom_site_type_symbol
_atom_site_label
_atom_site_fract_x
_atom_site_fract_y
_atom_site_fract_z
Si Si1 0.364374 0.118355 0.061818
Si Si2 0.854088 0.889256 0.632335
Si Si3 0.356894 0.391678 0.566870
Si Si4 0.504937 0.530861 0.282327
Si Si5 0.138444 0.113603 0.858449
Si Si6 0.137632 0.877414 0.161056
O O1 0.250000 0.122288 0.066037
O O2 0.396544 0.250000 0.091789
O O3 0.390547 0.997654 0.110809
O O4 0.389378 0.106192 0.959714
O O5 0.750000 0.931501 0.662538
O O6 0.848140 0.750000 0.627069
O O7 0.869930 0.932606 0.533131
O O8 0.940461 0.920788 0.693638
O O9 0.250000 0.425388 0.594114
O O10 0.359947 0.250000 0.567173
O O11 0.435475 0.435359 0.632929
O O12 0.579634 0.529682 0.203926
O O13 0.423985 0.619621 0.248690
O O14 0.250000 0.091174 0.852373
O O15 0.123102 0.250000 0.830090
O O16 0.250000 0.882530 0.175138
O O17 0.118357 0.750000 0.116892
#
# Coordination Sequence:
#
# PCOD9451678 Si02
#       6
#     8   8   8   8   8   8
#     4   8  16  34  56  74  99 142 190 226 260 314
#     4   9  20  38  55  73 101 138 181 224 263 312
#     4   9  18  34  56  79 103 134 173 217 265 319
#     4  12  20  30  52  81 107 133 169 216 270 325
#     4   9  18  33  54  80 107 135 173 222 267 310
#     4  10  21  34  48  73 110 145 177 222 279 327
#
# _framework density 19.398828999999999
#
# number of rings (size 3 to 8) (size 9 to 14) (size 15 to 20)
#    0.000    2.500    0.000    5.000    0.000    2.667 
#    0.000    2.500    0.000    3.000    0.000   11.667 
#    0.000    0.000    0.000    0.000    0.000    0.000 
#
# Total GULP energy -267322.526256 kJ/mol
# GULP energy per Si atom -5569.219297 kJ/mol
# Density = 1.935468 g / cm^3
# Si number density = 19.398829 Si / 1000 Ang^3
#
#
#
# Elastic Constant Matrix: (Units=GPa)
#
#
# Indices 1 2 3 4 5 6 
#
# 1 103.6808 34.8554 44.2248 0.0000 0.0000 0.0000
# 2 34.8554 93.3436 48.8836 0.0000 0.0000 0.0000
# 3 44.2248 48.8836 60.0589 0.0000 0.0000 0.0000
# 4 0.0000 0.0000 0.0000 17.4487 0.0000 0.0000
# 5 0.0000 0.0000 0.0000 0.0000 35.9211 0.0000
# 6 0.0000 0.0000 0.0000 0.0000 0.0000 16.8550
#
#
#
# Elastic Compliance Matrix: (Units=1/GPa)
#
#
# Indices 1 2 3 4 5 6 
#
# 1 0.014066 0.000300 -0.010602 0.000000 0.000000 0.000000
# 2 0.000300 0.018678 -0.015423 0.000000 0.000000 0.000000
# 3 -0.010602 -0.015423 0.037011 0.000000 0.000000 0.000000
# 4 0.000000 0.000000 0.000000 0.057311 0.000000 0.000000
# 5 0.000000 0.000000 0.000000 0.000000 0.027839 0.000000
# 6 0.000000 0.000000 0.000000 0.000000 0.000000 0.059330
#
#
# Mechanical properties :
#
#
# Convention : Reuss Voigt Hill
#
# Bulk Modulus (GPa) = 54.63247 57.00122 55.81684
# Shear Modulus (GPa) = 18.39672 22.65291 20.52482
#
# Velocity S-wave (km/s) = 3.08286 3.42094 3.25629
# Velocity P-wave (km/s) = 6.39499 6.71203 6.55543
#
# Compressibility (1/GPa) = 0.01830413
#
# Stress axis : x y z
#
# Youngs Moduli (GPa) = 71.09118 53.53756 27.01929
#
# Poissons Ratio (x) = -0.01604 0.28645
# Poissons Ratio (y) = -0.02129 0.41673
# Poissons Ratio (z) = 0.75369 0.82574
#
# Static dielectric constant tensor:
#      x y z
#    x 1.689920 0.000000 0.000000 
#    y 0.000000 1.694960 0.000000 
#    z 0.000000 0.000000 1.723590 
# 
# From -- ./inp_files/23155.got.cif
#   From: 2010.05.17/outbox.cif.g08.bks.cpg/sg59_12_cif.got.tgz:23155.got - 2010.06.03 14:40:33.
