data_PCOD9451337
_publ_section_title
;
Structure prediction by ZEFSAII (Michael W. Deem and Ramdas Pophale) SiO2 
 PCOD9451337
Probable space group: P M M N
;
_chemical_formula_sum "Si O2"
_cell_formula_units_Z 64
_cell_length_a 8.926005
_cell_length_b 23.092443
_cell_length_c 15.439313
_cell_angle_alpha 90.000000
_cell_angle_beta 90.000000
_cell_angle_gamma 90.000000
_cell_volume 3182.401554
_symmetry_space_group_name_H-M "P M M N"
_symmetry_group_IT_number 59
_space_group.IT_coordinate_system_code '2'
_symmetry_cell_setting 'orthorhombic'
loop_
_space_group_symop_operation_xyz
x,y,z
1/2-x,1/2-y,z
1/2+x,-y,-z
-x,1/2+y,-z
-x,-y,-z
1/2+x,1/2+y,-z
1/2-x,y,z
x,1/2-y,z
loop_
_atom_site_type_symbol
_atom_site_label
_atom_site_fract_x
_atom_site_fract_y
_atom_site_fract_z
Si Si1 0.571587 0.314176 0.051528
Si Si2 0.429394 0.898224 0.102796
Si Si3 0.427738 0.864943 0.417215
Si Si4 0.077536 0.017007 0.630336
Si Si5 0.572463 0.631419 0.790251
Si Si6 0.069894 0.615755 0.607830
Si Si7 0.427353 0.182813 0.751864
Si Si8 0.922135 0.489849 0.166752
O O1 0.750000 0.319677 0.066094
O O2 0.543217 0.250000 0.015181
O O3 0.487872 0.322282 0.141656
O O4 0.526415 0.363032 0.983035
O O5 0.250000 0.903039 0.106174
O O6 0.485814 0.859762 0.183602
O O7 0.502715 0.961289 0.108381
O O8 0.250000 0.856650 0.406435
O O9 0.470656 0.931932 0.399807
O O10 0.467386 0.853542 0.517493
O O11 0.516219 0.828932 0.345513
O O12 0.250000 0.027771 0.602276
O O13 0.077830 0.014459 0.734840
O O14 0.030716 0.952757 0.600810
O O15 0.750000 0.630420 0.786883
O O16 0.506790 0.639240 0.694032
O O17 0.510237 0.570081 0.826190
O O18 0.250000 0.617324 0.619840
O O19 0.250000 0.170677 0.757386
O O20 0.453413 0.250000 0.774367
O O21 0.750000 0.478819 0.141363
#
# Coordination Sequence:
#
# PCOD9451337 Si02
#       8
#     8   8   8   8   8   8   8   8
#     4  10  23  44  67  89 116 153 196 245 302 359
#     4  11  22  38  64  94 120 150 195 246 297 356
#     4  11  21  33  55  84 114 151 198 245 290 343
#     4   9  17  31  52  80 117 156 192 232 284 347
#     4  11  23  39  62  91 121 156 200 250 298 350
#     4   9  20  37  56  82 117 157 196 239 295 351
#     4  11  24  40  57  80 117 163 202 242 298 357
#     4  10  20  36  59  88 126 166 196 233 294 360
#
# _framework density 20.110598
#
# number of rings (size 3 to 8) (size 9 to 14) (size 15 to 20)
#    0.000    1.750    1.250    4.125    0.000    6.250 
#    0.000    0.625    0.000    0.750    0.000    0.000 
#    0.000    0.000    0.000    0.000    0.000    0.000 
#
# Total GULP energy -357728.241383 kJ/mol
# GULP energy per Si atom -5589.503772 kJ/mol
# Density = 2.006483 g / cm^3
# Si number density = 20.110598 Si / 1000 Ang^3
#
#
#
# Elastic Constant Matrix: (Units=GPa)
#
#
# Indices 1 2 3 4 5 6 
#
# 1 29.0631 5.5026 17.8402 0.0000 0.0000 0.0000
# 2 5.5026 13.3299 23.5969 0.0000 0.0000 0.0000
# 3 17.8402 23.5969 65.9866 0.0000 0.0000 0.0000
# 4 0.0000 0.0000 0.0000 13.7825 0.0000 0.0000
# 5 0.0000 0.0000 0.0000 0.0000 21.5812 0.0000
# 6 0.0000 0.0000 0.0000 0.0000 0.0000 22.0963
#
#
#
# Elastic Compliance Matrix: (Units=1/GPa)
#
#
# Indices 1 2 3 4 5 6 
#
# 1 0.041524 0.007445 -0.013889 0.000000 0.000000 0.000000
# 2 0.007445 0.205766 -0.075595 0.000000 0.000000 0.000000
# 3 -0.013889 -0.075595 0.045943 0.000000 0.000000 0.000000
# 4 0.000000 0.000000 0.000000 0.072556 0.000000 0.000000
# 5 0.000000 0.000000 0.000000 0.000000 0.046337 0.000000
# 6 0.000000 0.000000 0.000000 0.000000 0.000000 0.045256
#
#
# Mechanical properties :
#
#
# Convention : Reuss Voigt Hill
#
# Bulk Modulus (GPa) = 7.74264 22.47324 15.10794
# Shear Modulus (GPa) = 7.52433 15.58799 11.55616
#
# Velocity S-wave (km/s) = 1.93639 2.78711 2.39975
# Velocity P-wave (km/s) = 2.97621 4.64288 3.89963
#
# Compressibility (1/GPa) = 0.12915486
#
# Stress axis : x y z
#
# Youngs Moduli (GPa) = 24.08250 4.85989 21.76624
#
# Poissons Ratio (x) = -0.03618 0.30231
# Poissons Ratio (y) = -0.17930 1.64543
# Poissons Ratio (z) = 0.33448 0.36739
#
# Static dielectric constant tensor:
#      x y z
#    x 1.670680 0.000000 0.000000 
#    y 0.000000 1.706830 0.000000 
#    z 0.000000 0.000000 1.723070 
# 
# From -- ./inp_files/21564.got.cif
#   From: 2010.05.17/outbox.cif.g08.bks.cpg/sg59_11_cif.got.tgz:21564.got - 2010.06.03 14:40:33.
