data_PCOD9451059
_publ_section_title
;
Structure prediction by ZEFSAII (Michael W. Deem and Ramdas Pophale) SiO2 
 PCOD9451059
Probable space group: P M M N
;
_chemical_formula_sum "Si O2"
_cell_formula_units_Z 48
_cell_length_a 8.483629
_cell_length_b 15.418666
_cell_length_c 19.608191
_cell_angle_alpha 90.000000
_cell_angle_beta 90.000000
_cell_angle_gamma 90.000000
_cell_volume 2564.873777
_symmetry_space_group_name_H-M "P M M N"
_symmetry_group_IT_number 59
_space_group.IT_coordinate_system_code '2'
_symmetry_cell_setting 'orthorhombic'
loop_
_space_group_symop_operation_xyz
x,y,z
1/2-x,1/2-y,z
1/2+x,-y,-z
-x,1/2+y,-z
-x,-y,-z
1/2+x,1/2+y,-z
1/2-x,y,z
x,1/2-y,z
loop_
_atom_site_type_symbol
_atom_site_label
_atom_site_fract_x
_atom_site_fract_y
_atom_site_fract_z
Si Si1 0.561090 0.111047 0.160366
Si Si2 0.057474 0.250000 0.423196
Si Si3 0.561652 0.906227 0.479942
Si Si4 0.439340 0.250000 0.266205
Si Si5 0.558209 0.250000 0.049745
Si Si6 0.940694 0.421663 0.811119
Si Si7 0.942654 0.250000 0.893593
Si Si8 0.440010 0.850534 0.332644
O O1 0.750000 0.112150 0.162374
O O2 0.498731 0.165969 0.224907
O O3 0.509780 0.165839 0.093624
O O4 0.501972 0.012975 0.161676
O O5 0.250000 0.250000 0.422555
O O6 0.005654 0.165889 0.465782
O O7 0.006222 0.250000 0.344675
O O8 0.750000 0.906192 0.481688
O O9 0.507367 0.881345 0.404264
O O10 0.500000 0.000000 0.500000
O O11 0.250000 0.250000 0.265418
O O12 0.750000 0.250000 0.048195
O O13 0.503839 0.250000 0.971988
O O14 0.750000 0.423387 0.812249
O O15 0.991624 0.337637 0.854656
O O16 0.991040 0.406079 0.732747
O O17 0.750000 0.250000 0.892836
O O18 0.250000 0.854949 0.336216
O O19 0.482931 0.750000 0.320930
#
# Coordination Sequence:
#
# PCOD9451059 Si02
#       8
#     8   4   8   4   4   8   4   8
#     4  10  21  37  55  83 118 149 180 226 286 341
#     4   9  21  39  57  77 108 141 180 232 280 321
#     4  11  23  40  58  83 113 148 187 230 282 338
#     4  10  20  38  61  81 104 145 192 235 276 324
#     4   8  17  35  57  79 114 151 180 227 285 330
#     4  10  20  35  58  85 111 145 193 236 271 327
#     4   9  17  34  59  85 110 147 194 234 273 325
#     4  10  20  37  58  81 110 145 186 237 284 327
#
# _framework density 18.714372000000001
#
# number of rings (size 3 to 8) (size 9 to 14) (size 15 to 20)
#    0.000    2.167    1.667    1.750    2.333    1.333 
#    0.000    2.917    0.000    5.000    0.000    0.000 
#    0.000    0.000    0.000    0.000    0.000    0.000 
#
# Total GULP energy -267967.415494 kJ/mol
# GULP energy per Si atom -5582.654489 kJ/mol
# Density = 1.867178 g / cm^3
# Si number density = 18.714372 Si / 1000 Ang^3
#
#
#
# Elastic Constant Matrix: (Units=GPa)
#
#
# Indices 1 2 3 4 5 6 
#
# 1 21.2754 27.6104 25.0779 0.0000 0.0000 0.0000
# 2 27.6104 168.7386 79.2929 0.0000 0.0000 0.0000
# 3 25.0779 79.2929 163.0162 0.0000 0.0000 0.0000
# 4 0.0000 0.0000 0.0000 -1.2461 0.0000 0.0000
# 5 0.0000 0.0000 0.0000 0.0000 17.8729 0.0000
# 6 0.0000 0.0000 0.0000 0.0000 0.0000 26.7423
#
#
#
# Elastic Compliance Matrix: (Units=1/GPa)
#
#
# Indices 1 2 3 4 5 6 
#
# 1 0.064133 -0.007593 -0.006172 0.000000 0.000000 0.000000
# 2 -0.007593 0.008581 -0.003006 0.000000 0.000000 0.000000
# 3 -0.006172 -0.003006 0.008546 0.000000 0.000000 0.000000
# 4 0.000000 0.000000 0.000000 -0.802525 0.000000 0.000000
# 5 0.000000 0.000000 0.000000 0.000000 0.055951 0.000000
# 6 0.000000 0.000000 0.000000 0.000000 0.000000 0.037394
#
#
# Mechanical properties :
#
#
# Convention : Reuss Voigt Hill
#
# Bulk Modulus (GPa) = 20.95704 68.55472 44.75588
# Shear Modulus (GPa) = -8.64348 23.41042 7.38347
#
# Velocity S-wave (km/s) = -2.15143 3.54069 1.98844
# Velocity P-wave (km/s) = 2.24747 7.30937 5.40731
#
# Compressibility (1/GPa) = 0.04771666
#
# Stress axis : x y z
#
# Youngs Moduli (GPa) = 15.59262 116.53169 117.01355
#
# Poissons Ratio (x) = 0.88488 0.72226
# Poissons Ratio (y) = 0.11840 0.35173
# Poissons Ratio (z) = 0.09624 0.35028
#
# Static dielectric constant tensor:
#      x y z
#    x 1.648710 0.000000 0.000000 
#    y 0.000000 1.621800 0.000000 
#    z 0.000000 0.000000 1.636150 
# 
# From -- ./inp_files/25699.got.cif
#   From: 2010.05.17/outbox.cif.g08.bks.cpg/sg59_13_cif.got.tgz:25699.got - 2010.06.03 14:40:33.
