data_PCOD9451045
_publ_section_title
;
Structure prediction by ZEFSAII (Michael W. Deem and Ramdas Pophale) SiO2 
 PCOD9451045
Probable space group: P M M N
;
_chemical_formula_sum "Si O2"
_cell_formula_units_Z 48
_cell_length_a 8.870028
_cell_length_b 13.419243
_cell_length_c 20.482136
_cell_angle_alpha 90.000000
_cell_angle_beta 90.000000
_cell_angle_gamma 90.000000
_cell_volume 2437.969418
_symmetry_space_group_name_H-M "P M M N"
_symmetry_group_IT_number 59
_space_group.IT_coordinate_system_code '2'
_symmetry_cell_setting 'orthorhombic'
loop_
_space_group_symop_operation_xyz
x,y,z
1/2-x,1/2-y,z
1/2+x,-y,-z
-x,1/2+y,-z
-x,-y,-z
1/2+x,1/2+y,-z
1/2-x,y,z
x,1/2-y,z
loop_
_atom_site_type_symbol
_atom_site_label
_atom_site_fract_x
_atom_site_fract_y
_atom_site_fract_z
Si Si1 0.423899 0.549017 0.691227
Si Si2 0.428573 0.933073 0.094258
Si Si3 0.922015 0.564770 0.445431
Si Si4 0.574418 0.250000 0.505883
Si Si5 0.068214 0.138944 0.775475
Si Si6 0.070190 0.250000 0.359183
Si Si7 0.569802 0.363767 0.053983
O O1 0.250000 0.572575 0.710311
O O2 0.419928 0.494717 0.621304
O O3 0.485569 0.461515 0.738424
O O4 0.512462 0.651464 0.679013
O O5 0.250000 0.928965 0.106507
O O6 0.516723 0.874973 0.150225
O O7 0.484658 0.047676 0.091127
O O8 0.456605 0.885007 0.023019
O O9 0.750000 0.591217 0.462479
O O10 0.000000 0.500000 0.500000
O O11 0.024967 0.660055 0.448540
O O12 0.750000 0.250000 0.491002
O O13 0.493646 0.250000 0.434300
O O14 0.250000 0.137422 0.769901
O O15 0.019281 0.250000 0.752036
O O16 0.250000 0.250000 0.362882
O O17 0.750000 0.373611 0.065178
O O18 0.525784 0.250000 0.069902
#
# Coordination Sequence:
#
# PCOD9451045 Si02
#       7
#     8   8   8   4   8   4   8
#     4  10  23  42  64  87 118 157 199 245 299 360
#     4  10  20  35  57  87 121 154 192 243 298 347
#     4  11  22  37  61  89 117 150 193 246 303 361
#     4  12  24  38  58  86 122 158 193 242 301 364
#     4  10  22  41  64  88 116 157 203 242 288 357
#     4  12  24  40  64  88 118 154 199 250 301 362
#     4   9  18  34  57  85 118 156 197 240 291 350
#
# _framework density 19.688517999999998
#
# number of rings (size 3 to 8) (size 9 to 14) (size 15 to 20)
#    0.000    1.667    1.667    3.000    1.167    3.333 
#    1.500    0.000    0.000    0.000    0.000    0.000 
#    0.000    0.000    0.000    0.000    0.000    0.000 
#
# Total GULP energy -267782.453684 kJ/mol
# GULP energy per Si atom -5578.801118 kJ/mol
# Density = 1.964371 g / cm^3
# Si number density = 19.688518 Si / 1000 Ang^3
#
#
#
# Elastic Constant Matrix: (Units=GPa)
#
#
# Indices 1 2 3 4 5 6 
#
# 1 65.4069 41.3483 11.5575 0.0000 0.0000 0.0000
# 2 41.3483 151.8065 12.6574 0.0000 0.0000 0.0000
# 3 11.5575 12.6574 31.2728 0.0000 0.0000 0.0000
# 4 0.0000 0.0000 0.0000 22.4543 0.0000 0.0000
# 5 0.0000 0.0000 0.0000 0.0000 23.3866 0.0000
# 6 0.0000 0.0000 0.0000 0.0000 0.0000 26.5318
#
#
#
# Elastic Compliance Matrix: (Units=1/GPa)
#
#
# Indices 1 2 3 4 5 6 
#
# 1 0.019243 -0.004811 -0.005164 0.000000 0.000000 0.000000
# 2 -0.004811 0.008020 -0.001468 0.000000 0.000000 0.000000
# 3 -0.005164 -0.001468 0.034480 0.000000 0.000000 0.000000
# 4 0.000000 0.000000 0.000000 0.044535 0.000000 0.000000
# 5 0.000000 0.000000 0.000000 0.000000 0.042760 0.000000
# 6 0.000000 0.000000 0.000000 0.000000 0.000000 0.037691
#
#
# Mechanical properties :
#
#
# Convention : Reuss Voigt Hill
#
# Bulk Modulus (GPa) = 25.73624 42.17919 33.95772
# Shear Modulus (GPa) = 22.46530 26.66941 24.56736
#
# Velocity S-wave (km/s) = 3.38159 3.68444 3.53626
# Velocity P-wave (km/s) = 5.32418 6.29046 5.82738
#
# Compressibility (1/GPa) = 0.03885571
#
# Stress axis : x y z
#
# Youngs Moduli (GPa) = 51.96812 124.68774 29.00274
#
# Poissons Ratio (x) = 0.59982 0.14978
# Poissons Ratio (y) = 0.25000 0.04258
# Poissons Ratio (z) = 0.26838 0.18307
#
# Static dielectric constant tensor:
#      x y z
#    x 1.662680 0.000000 0.000000 
#    y 0.000000 1.736210 0.000000 
#    z 0.000000 0.000000 1.667020 
# 
# From -- ./inp_files/25546.got.cif
#   From: 2010.05.17/outbox.cif.g08.bks.cpg/sg59_13_cif.got.tgz:25546.got - 2010.06.03 14:40:33.
