data_PCOD9451099
_publ_section_title
;
Structure prediction by ZEFSAII (Michael W. Deem and Ramdas Pophale) SiO2 
 PCOD9451099
Probable space group: P M M N
;
_chemical_formula_sum "Si O2"
_cell_formula_units_Z 40
_cell_length_a 8.879163
_cell_length_b 14.812451
_cell_length_c 15.070303
_cell_angle_alpha 90.000000
_cell_angle_beta 90.000000
_cell_angle_gamma 90.000000
_cell_volume 1982.078906
_symmetry_space_group_name_H-M "P M M N"
_symmetry_group_IT_number 59
_space_group.IT_coordinate_system_code '2'
_symmetry_cell_setting 'orthorhombic'
loop_
_space_group_symop_operation_xyz
x,y,z
1/2-x,1/2-y,z
1/2+x,-y,-z
-x,1/2+y,-z
-x,-y,-z
1/2+x,1/2+y,-z
1/2-x,y,z
x,1/2-y,z
loop_
_atom_site_type_symbol
_atom_site_label
_atom_site_fract_x
_atom_site_fract_y
_atom_site_fract_z
Si Si1 0.429938 0.598862 0.487995
Si Si2 0.071051 0.400814 0.987696
Si Si3 0.567117 0.250000 0.651977
Si Si4 0.082609 0.145116 0.333259
Si Si5 0.917419 0.144541 0.165613
Si Si6 0.067546 0.750000 0.139887
O O1 0.500000 0.500000 0.500000
O O2 0.250000 0.593040 0.484552
O O3 0.480311 0.660997 0.404556
O O4 0.484748 0.644427 0.578543
O O5 0.250000 0.404138 0.974879
O O6 0.996234 0.338171 0.911749
O O7 0.000000 0.500000 0.000000
O O8 0.026973 0.358709 0.082282
O O9 0.750000 0.250000 0.650857
O O10 0.523442 0.250000 0.755686
O O11 0.250000 0.105403 0.346889
O O12 0.103354 0.250000 0.310387
O O13 0.994527 0.100414 0.251471
O O14 0.750000 0.106879 0.146269
O O15 0.896106 0.250000 0.185215
O O16 0.250000 0.750000 0.133291
#
# Coordination Sequence:
#
# PCOD9451099 Si02
#       6
#     8   8   4   8   8   4
#     4  11  22  40  63  92 126 168 217 270 327 392
#     4  12  25  42  65  95 131 172 218 272 329 398
#     4   9  22  43  68  91 126 175 221 268 332 397
#     4  10  20  35  58  89 122 157 199 251 311 376
#     4  10  20  36  61  90 121 158 201 253 314 379
#     4  11  23  45  70  95 128 175 227 282 340 403
#
# _framework density 20.18083
#
# number of rings (size 3 to 8) (size 9 to 14) (size 15 to 20)
#    0.000    1.400    2.000    3.900    0.000    3.200 
#    0.000   10.000    0.000    0.000    0.000    0.000 
#    0.000    0.000    0.000    0.000    0.000    0.000 
#
# Total GULP energy -222987.094642 kJ/mol
# GULP energy per Si atom -5574.677366 kJ/mol
# Density = 2.013490 g / cm^3
# Si number density = 20.180830 Si / 1000 Ang^3
#
#
#
# Elastic Constant Matrix: (Units=GPa)
#
#
# Indices 1 2 3 4 5 6 
#
# 1 135.4401 51.9925 58.8204 0.0000 0.0000 0.0000
# 2 51.9925 104.6236 55.0787 0.0000 0.0000 0.0000
# 3 58.8204 55.0787 174.5793 0.0000 0.0000 0.0000
# 4 0.0000 0.0000 0.0000 -7.6285 0.0000 0.0000
# 5 0.0000 0.0000 0.0000 0.0000 23.5589 0.0000
# 6 0.0000 0.0000 0.0000 0.0000 0.0000 29.6108
#
#
#
# Elastic Compliance Matrix: (Units=1/GPa)
#
#
# Indices 1 2 3 4 5 6 
#
# 1 0.009727 -0.003728 -0.002101 0.000000 0.000000 0.000000
# 2 -0.003728 0.012890 -0.002811 0.000000 0.000000 0.000000
# 3 -0.002101 -0.002811 0.007323 0.000000 0.000000 0.000000
# 4 0.000000 0.000000 0.000000 -0.131087 0.000000 0.000000
# 5 0.000000 0.000000 0.000000 0.000000 0.042447 0.000000
# 6 0.000000 0.000000 0.000000 0.000000 0.000000 0.033771
#
#
# Mechanical properties :
#
#
# Convention : Reuss Voigt Hill
#
# Bulk Modulus (GPa) = 78.98516 82.93624 80.96070
# Shear Modulus (GPa) = -1457.93942 25.69166 -716.12388
#
# Velocity S-wave (km/s) = -26.90736 3.57188 -18.85799
# Velocity P-wave (km/s) = 30.43218 7.62869 20.83172
#
# Compressibility (1/GPa) = 0.01266061
#
# Stress axis : x y z
#
# Youngs Moduli (GPa) = 102.80881 77.57803 136.55940
#
# Poissons Ratio (x) = 0.28918 0.28694
# Poissons Ratio (y) = 0.38322 0.38385
# Poissons Ratio (z) = 0.21602 0.21806
#
# Static dielectric constant tensor:
#      x y z
#    x 1.754280 0.000000 0.000000 
#    y 0.000000 1.595220 0.000000 
#    z 0.000000 0.000000 1.735620 
# 
# From -- ./inp_files/20014.got.cif
#   From: 2010.05.17/outbox.cif.g08.bks.cpg/sg59_11_cif.got.tgz:20014.got - 2010.06.03 14:40:33.
