data_PCOD9451314
_publ_section_title
;
Structure prediction by ZEFSAII (Michael W. Deem and Ramdas Pophale) SiO2 
 PCOD9451314
Probable space group: P M M N
;
_chemical_formula_sum "Si O2"
_cell_formula_units_Z 40
_cell_length_a 7.605821
_cell_length_b 23.015127
_cell_length_c 10.141015
_cell_angle_alpha 90.000000
_cell_angle_beta 90.000000
_cell_angle_gamma 90.000000
_cell_volume 1775.173888
_symmetry_space_group_name_H-M "P M M N"
_symmetry_group_IT_number 59
_space_group.IT_coordinate_system_code '2'
_symmetry_cell_setting 'orthorhombic'
loop_
_space_group_symop_operation_xyz
x,y,z
1/2-x,1/2-y,z
1/2+x,-y,-z
-x,1/2+y,-z
-x,-y,-z
1/2+x,1/2+y,-z
1/2-x,y,z
x,1/2-y,z
loop_
_atom_site_type_symbol
_atom_site_label
_atom_site_fract_x
_atom_site_fract_y
_atom_site_fract_z
Si Si1 0.543084 0.552053 0.675374
Si Si2 0.046562 0.936916 0.191526
Si Si3 0.963660 0.376844 0.067516
Si Si4 0.958043 0.872107 0.437053
Si Si5 0.959875 0.250000 0.428358
Si Si6 0.464579 0.750000 0.875849
O O1 0.750000 0.542357 0.649949
O O2 0.465897 0.492372 0.733463
O O3 0.522632 0.598449 0.792358
O O4 0.469559 0.580535 0.542324
O O5 0.250000 0.952272 0.165223
O O6 0.039589 0.884239 0.294968
O O7 0.970246 0.916852 0.052150
O O8 0.750000 0.377902 0.065511
O O9 0.020129 0.309918 0.056694
O O10 0.750000 0.880711 0.423242
O O11 0.985922 0.808406 0.496482
O O12 0.750000 0.250000 0.421762
O O13 0.024240 0.250000 0.276975
O O14 0.250000 0.750000 0.874522
#
# Coordination Sequence:
#
# PCOD9451314 Si02
#       6
#     8   8   8   8   4   4
#     4  10  21  37  57  84 117 153 194 239 288 343
#     4  10  22  38  57  85 119 154 193 237 289 345
#     4  10  20  36  59  85 113 148 194 242 287 345
#     4  11  23  38  58  85 118 152 191 238 285 340
#     4  11  21  38  63  84 110 148 191 237 286 343
#     4   9  18  34  57  84 108 138 185 235 282 337
#
# _framework density 22.533004999999999
#
# number of rings (size 3 to 8) (size 9 to 14) (size 15 to 20)
#    0.000    1.800    2.000    2.100    0.000    3.200 
#    0.000    2.500    0.000    0.000    0.000    0.000 
#    0.000    0.000    0.000    0.000    0.000    0.000 
#
# Total GULP energy -223573.899771 kJ/mol
# GULP energy per Si atom -5589.347494 kJ/mol
# Density = 2.248172 g / cm^3
# Si number density = 22.533005 Si / 1000 Ang^3
#
#
#
# Elastic Constant Matrix: (Units=GPa)
#
#
# Indices 1 2 3 4 5 6 
#
# 1 54.6087 -6.2342 -13.1466 0.0000 0.0000 0.0000
# 2 -6.2342 75.3341 -21.7391 0.0000 0.0000 0.0000
# 3 -13.1466 -21.7391 54.3212 0.0000 0.0000 0.0000
# 4 0.0000 0.0000 0.0000 76.7759 0.0000 0.0000
# 5 0.0000 0.0000 0.0000 0.0000 10.0820 0.0000
# 6 0.0000 0.0000 0.0000 0.0000 0.0000 41.8139
#
#
#
# Elastic Compliance Matrix: (Units=1/GPa)
#
#
# Indices 1 2 3 4 5 6 
#
# 1 0.020225 0.003489 0.006291 0.000000 0.000000 0.000000
# 2 0.003489 0.015609 0.007091 0.000000 0.000000 0.000000
# 3 0.006291 0.007091 0.022769 0.000000 0.000000 0.000000
# 4 0.000000 0.000000 0.000000 0.013025 0.000000 0.000000
# 5 0.000000 0.000000 0.000000 0.000000 0.099186 0.000000
# 6 0.000000 0.000000 0.000000 0.000000 0.000000 0.023915
#
#
# Mechanical properties :
#
#
# Convention : Reuss Voigt Hill
#
# Bulk Modulus (GPa) = 10.82881 11.33603 11.08242
# Shear Modulus (GPa) = 26.07294 40.75998 33.41646
#
# Velocity S-wave (km/s) = 3.40531 4.25773 3.85515
# Velocity P-wave (km/s) = 4.50307 5.40489 4.97446
#
# Compressibility (1/GPa) = 0.09234627
#
# Stress axis : x y z
#
# Youngs Moduli (GPa) = 49.44392 64.06463 43.91857
#
# Poissons Ratio (x) = -0.22353 -0.27629
# Poissons Ratio (y) = -0.17252 -0.31143
# Poissons Ratio (z) = -0.31106 -0.45429
#
# Static dielectric constant tensor:
#      x y z
#    x 1.833430 0.000000 0.000000 
#    y 0.000000 1.866140 0.000000 
#    z 0.000000 0.000000 1.796670 
# 
# From -- ./inp_files/5961.got.cif
#   From: 2010.05.17/outbox.cif.g08.bks.cpg/sg59_3_cif.got.tgz:5961.got - 2010.06.03 14:40:33.
