data_PCOD9451761
_publ_section_title
;
Structure prediction by ZEFSAII (Michael W. Deem and Ramdas Pophale) SiO2 
 PCOD9451761
Probable space group: P M M N
;
_chemical_formula_sum "Si O2"
_cell_formula_units_Z 48
_cell_length_a 8.672607
_cell_length_b 24.105505
_cell_length_c 13.015006
_cell_angle_alpha 90.000000
_cell_angle_beta 90.000000
_cell_angle_gamma 90.000000
_cell_volume 2720.885546
_symmetry_space_group_name_H-M "P M M N"
_symmetry_group_IT_number 59
_space_group.IT_coordinate_system_code '2'
_symmetry_cell_setting 'orthorhombic'
loop_
_space_group_symop_operation_xyz
x,y,z
1/2-x,1/2-y,z
1/2+x,-y,-z
-x,1/2+y,-z
-x,-y,-z
1/2+x,1/2+y,-z
1/2-x,y,z
x,1/2-y,z
loop_
_atom_site_type_symbol
_atom_site_label
_atom_site_fract_x
_atom_site_fract_y
_atom_site_fract_z
Si Si1 0.062346 0.813125 0.885931
Si Si2 0.064002 0.685686 0.121319
Si Si3 0.934150 0.615609 0.306715
Si Si4 0.933464 0.499232 0.615757
Si Si5 0.565290 0.386593 0.304290
Si Si6 0.935420 0.685211 0.509915
O O1 0.250000 0.812589 0.884447
O O2 0.012501 0.750000 0.860782
O O3 0.011856 0.857014 0.800844
O O4 0.017077 0.825746 0.003230
O O5 0.250000 0.681629 0.126814
O O6 0.022836 0.750000 0.143954
O O7 0.990261 0.644604 0.202879
O O8 0.750000 0.609204 0.305341
O O9 0.974660 0.655587 0.402615
O O10 0.009937 0.556304 0.328255
O O11 0.750000 0.499947 0.609044
O O12 0.000000 0.500000 0.500000
O O13 0.991774 0.553820 0.674273
O O14 0.750000 0.392296 0.301649
O O15 0.517982 0.346660 0.397995
O O16 0.750000 0.680572 0.523670
O O17 0.976070 0.750000 0.507977
#
# Coordination Sequence:
#
# PCOD9451761 Si02
#       6
#     8   8   8   8   8   8
#     4   8  16  33  57  85 116 149 186 230 278 329
#     4   9  18  35  59  85 115 151 189 230 278 332
#     4  11  22  37  57  82 113 149 189 234 282 332
#     4  12  24  40  59  81 110 149 191 232 282 338
#     4  11  21  35  58  85 112 147 190 233 280 337
#     4  10  21  35  52  78 114 149 180 226 284 335
#
# _framework density 17.641316
#
# number of rings (size 3 to 8) (size 9 to 14) (size 15 to 20)
#    0.000    1.833    1.667    4.500    0.000    2.667 
#    0.000    2.500    0.000    2.000    0.000    0.000 
#    0.000    0.000    0.000    0.000    0.000    0.000 
#
# Total GULP energy -268094.931852 kJ/mol
# GULP energy per Si atom -5585.311080 kJ/mol
# Density = 1.760116 g / cm^3
# Si number density = 17.641316 Si / 1000 Ang^3
#
#
#
# Elastic Constant Matrix: (Units=GPa)
#
#
# Indices 1 2 3 4 5 6 
#
# 1 58.3942 65.9207 51.7800 0.0000 0.0000 0.0000
# 2 65.9207 177.2261 107.1765 0.0000 0.0000 0.0000
# 3 51.7800 107.1765 145.4445 0.0000 0.0000 0.0000
# 4 0.0000 0.0000 0.0000 16.2904 0.0000 0.0000
# 5 0.0000 0.0000 0.0000 0.0000 5.9108 0.0000
# 6 0.0000 0.0000 0.0000 0.0000 0.0000 29.9149
#
#
#
# Elastic Compliance Matrix: (Units=1/GPa)
#
#
# Indices 1 2 3 4 5 6 
#
# 1 0.031139 -0.008800 -0.004602 0.000000 0.000000 0.000000
# 2 -0.008800 0.012665 -0.006200 0.000000 0.000000 0.000000
# 3 -0.004602 -0.006200 0.013082 0.000000 0.000000 0.000000
# 4 0.000000 0.000000 0.000000 0.061386 0.000000 0.000000
# 5 0.000000 0.000000 0.000000 0.000000 0.169183 0.000000
# 6 0.000000 0.000000 0.000000 0.000000 0.000000 0.033428
#
#
# Mechanical properties :
#
#
# Convention : Reuss Voigt Hill
#
# Bulk Modulus (GPa) = 56.54750 92.31326 74.43038
# Shear Modulus (GPa) = 13.66194 20.83571 17.24882
#
# Velocity S-wave (km/s) = 2.78587 3.44040 3.13029
# Velocity P-wave (km/s) = 6.51703 8.25974 7.43959
#
# Compressibility (1/GPa) = 0.01768425
#
# Stress axis : x y z
#
# Youngs Moduli (GPa) = 32.11382 78.95783 76.43914
#
# Poissons Ratio (x) = 0.69481 0.35174
# Poissons Ratio (y) = 0.28259 0.47391
# Poissons Ratio (z) = 0.14777 0.48953
#
# Static dielectric constant tensor:
#      x y z
#    x 1.599250 0.000000 0.000000 
#    y 0.000000 1.579990 0.000000 
#    z 0.000000 0.000000 1.583440 
# 
# From -- ./inp_files/14325.got.cif
#   From: 2010.05.17/outbox.cif.g08.bks.cpg/sg59_8_cif.got.tgz:14325.got - 2010.06.03 14:40:33.
