data_PCOD9451960
_publ_section_title
;
Structure prediction by ZEFSAII (Michael W. Deem and Ramdas Pophale) SiO2 
 PCOD9451960
Probable space group: P M M N
;
_chemical_formula_sum "Si O2"
_cell_formula_units_Z 48
_cell_length_a 9.239094
_cell_length_b 8.894117
_cell_length_c 31.714263
_cell_angle_alpha 90.000000
_cell_angle_beta 90.000000
_cell_angle_gamma 90.000000
_cell_volume 2606.074623
_symmetry_space_group_name_H-M "P M M N"
_symmetry_group_IT_number 59
_space_group.IT_coordinate_system_code '2'
_symmetry_cell_setting 'orthorhombic'
loop_
_space_group_symop_operation_xyz
x,y,z
1/2-x,1/2-y,z
1/2+x,-y,-z
-x,1/2+y,-z
-x,-y,-z
1/2+x,1/2+y,-z
1/2-x,y,z
x,1/2-y,z
loop_
_atom_site_type_symbol
_atom_site_label
_atom_site_fract_x
_atom_site_fract_y
_atom_site_fract_z
Si Si1 0.419624 0.429607 0.213946
Si Si2 0.418228 0.431416 0.960197
Si Si3 0.920176 0.069726 0.459683
Si Si4 0.079687 0.930203 0.124957
Si Si5 0.919979 0.431320 0.620617
Si Si6 0.918484 0.568970 0.293200
O O1 0.250000 0.472413 0.219568
O O2 0.429052 0.250000 0.213957
O O3 0.466430 0.492766 0.168471
O O4 0.512094 0.496854 0.251857
O O5 0.250000 0.473686 0.961037
O O6 0.428460 0.250000 0.962309
O O7 0.491222 0.478617 0.916129
O O8 0.500000 0.500000 0.000000
O O9 0.750000 0.029610 0.460017
O O10 0.931588 0.250000 0.461170
O O11 0.000000 0.000000 0.500000
O O12 0.996175 0.007621 0.417758
O O13 0.250000 0.963244 0.118328
O O14 0.064555 0.750000 0.129596
O O15 0.750000 0.469845 0.620003
O O16 0.931963 0.250000 0.616404
O O17 0.992473 0.474597 0.665040
O O18 0.750000 0.527649 0.297741
O O19 0.927098 0.750000 0.289447
#
# Coordination Sequence:
#
# PCOD9451960 Si02
#       6
#     8   8   8   8   8   8
#     4  10  21  36  55  81 112 145 181 223 272 324
#     4  10  21  36  55  80 109 141 178 221 269 322
#     4  11  24  40  59  85 116 150 188 229 275 327
#     4   9  18  34  55  77 105 143 184 224 267 319
#     4  10  21  38  61  87 113 144 185 230 276 328
#     4  10  21  37  58  83 111 146 186 227 273 325
#
# _framework density 18.418507000000002
#
# number of rings (size 3 to 8) (size 9 to 14) (size 15 to 20)
#    0.000    2.000    0.000    3.000    0.000    9.333 
#    0.000    3.333    0.000    0.000    0.000    0.000 
#    0.000    0.000    0.000    0.000    0.000    0.000 
#
# Total GULP energy -268187.994299 kJ/mol
# GULP energy per Si atom -5587.249881 kJ/mol
# Density = 1.837659 g / cm^3
# Si number density = 18.418507 Si / 1000 Ang^3
#
#
#
# Elastic Constant Matrix: (Units=GPa)
#
#
# Indices 1 2 3 4 5 6 
#
# 1 161.8712 57.2819 129.7970 0.0000 0.0000 0.0000
# 2 57.2819 24.6695 58.2675 0.0000 0.0000 0.0000
# 3 129.7970 58.2675 215.2103 0.0000 0.0000 0.0000
# 4 0.0000 0.0000 0.0000 37.7575 0.0000 0.0000
# 5 0.0000 0.0000 0.0000 0.0000 42.6643 0.0000
# 6 0.0000 0.0000 0.0000 0.0000 0.0000 27.3042
#
#
#
# Elastic Compliance Matrix: (Units=1/GPa)
#
#
# Indices 1 2 3 4 5 6 
#
# 1 0.035120 -0.087426 0.002489 0.000000 0.000000 0.000000
# 2 -0.087426 0.330076 -0.036639 0.000000 0.000000 0.000000
# 3 0.002489 -0.036639 0.013065 0.000000 0.000000 0.000000
# 4 0.000000 0.000000 0.000000 0.026485 0.000000 0.000000
# 5 0.000000 0.000000 0.000000 0.000000 0.023439 0.000000
# 6 0.000000 0.000000 0.000000 0.000000 0.000000 0.036624
#
#
# Mechanical properties :
#
#
# Convention : Reuss Voigt Hill
#
# Bulk Modulus (GPa) = 7.40143 99.16043 53.28093
# Shear Modulus (GPa) = 6.64014 31.97216 19.30615
#
# Velocity S-wave (km/s) = 1.90078 4.17090 3.24109
# Velocity P-wave (km/s) = 2.97397 8.78348 6.55721
#
# Compressibility (1/GPa) = 0.13510894
#
# Stress axis : x y z
#
# Youngs Moduli (GPa) = 28.47405 3.02961 76.53903
#
# Poissons Ratio (x) = 0.26487 -0.19051
# Poissons Ratio (y) = 2.48938 2.80429
# Poissons Ratio (z) = -0.07087 0.11100
#
# Static dielectric constant tensor:
#      x y z
#    x 1.620500 0.000000 0.000000 
#    y 0.000000 1.621370 0.000000 
#    z 0.000000 0.000000 1.593050 
# 
# From -- ./inp_files/32865.got.cif
#   From: 2010.05.17/outbox.cif.g08.bks.cpg/sg59_17_cif.got.tgz:32865.got - 2010.06.03 14:40:33.
