data_PCOD9451301
_publ_section_title
;
Structure prediction by ZEFSAII (Michael W. Deem and Ramdas Pophale) SiO2 
 PCOD9451301
Probable space group: P M M N
;
_chemical_formula_sum "Si O2"
_cell_formula_units_Z 64
_cell_length_a 19.415192
_cell_length_b 7.853914
_cell_length_c 20.586715
_cell_angle_alpha 90.000000
_cell_angle_beta 90.000000
_cell_angle_gamma 90.000000
_cell_volume 3139.170348
_symmetry_space_group_name_H-M "P M M N"
_symmetry_group_IT_number 59
_space_group.IT_coordinate_system_code '2'
_symmetry_cell_setting 'orthorhombic'
loop_
_space_group_symop_operation_xyz
x,y,z
1/2-x,1/2-y,z
1/2+x,-y,-z
-x,1/2+y,-z
-x,-y,-z
1/2+x,1/2+y,-z
1/2-x,y,z
x,1/2-y,z
loop_
_atom_site_type_symbol
_atom_site_label
_atom_site_fract_x
_atom_site_fract_y
_atom_site_fract_z
Si Si1 0.065382 0.953013 0.784413
Si Si2 0.931137 0.954697 0.366444
Si Si3 0.672058 0.954821 0.473413
Si Si4 0.582270 0.455712 0.598603
Si Si5 0.671730 0.954608 0.105728
Si Si6 0.672255 0.454787 0.720228
Si Si7 0.920812 0.955306 0.986307
Si Si8 0.580711 0.544703 0.840852
O O1 0.061987 0.750000 0.786336
O O2 0.993512 0.019698 0.815082
O O3 0.072109 0.005386 0.709631
O O4 0.128509 0.008039 0.829554
O O5 0.931655 0.750000 0.372211
O O6 0.867078 0.018522 0.408964
O O7 0.003664 0.017939 0.396254
O O8 0.750000 0.021107 0.480975
O O9 0.676613 0.750000 0.469119
O O10 0.623814 0.994818 0.534644
O O11 0.580222 0.250000 0.600923
O O12 0.623913 0.517895 0.661886
O O13 0.750000 0.019631 0.107795
O O14 0.675148 0.750000 0.099623
O O15 0.628494 0.020413 0.043637
O O16 0.750000 0.520184 0.714540
O O17 0.674579 0.250000 0.714731
O O18 0.637999 0.497716 0.788639
O O19 0.915318 0.750000 0.986332
O O20 0.904135 0.017048 0.913638
O O21 0.000000 0.000000 0.000000
O O22 0.576708 0.750000 0.843559
#
# Coordination Sequence:
#
# PCOD9451301 Si02
#       8
#     8   8   8   8   8   8   8   8
#     4  11  22  37  59  88 118 149 190 240 291 340
#     4  10  21  38  60  84 112 151 194 235 282 340
#     4  10  22  38  56  82 115 147 184 233 287 342
#     4  10  20  36  59  83 110 148 191 234 280 336
#     4  10  22  39  60  86 116 155 199 239 286 347
#     4  10  21  36  55  82 114 148 188 230 276 335
#     4  10  20  36  59  85 113 148 190 235 284 339
#     4  10  21  36  56  84 115 148 186 231 283 339
#
# _framework density 20.387553
#
# number of rings (size 3 to 8) (size 9 to 14) (size 15 to 20)
#    0.000    1.875    2.500    1.125    0.000    4.750 
#    0.000    2.500    0.000    0.000    0.000    0.000 
#    0.000    0.000    0.000    0.000    0.000    0.000 
#
# Total GULP energy -357530.319200 kJ/mol
# GULP energy per Si atom -5586.411238 kJ/mol
# Density = 2.034115 g / cm^3
# Si number density = 20.387553 Si / 1000 Ang^3
#
#
#
# Elastic Constant Matrix: (Units=GPa)
#
#
# Indices 1 2 3 4 5 6 
#
# 1 124.9125 11.5010 71.5116 0.0000 0.0000 0.0000
# 2 11.5010 18.7311 4.7411 0.0000 0.0000 0.0000
# 3 71.5116 4.7411 147.9628 0.0000 0.0000 0.0000
# 4 0.0000 0.0000 0.0000 22.2581 0.0000 0.0000
# 5 0.0000 0.0000 0.0000 0.0000 27.1453 0.0000
# 6 0.0000 0.0000 0.0000 0.0000 0.0000 20.1028
#
#
#
# Elastic Compliance Matrix: (Units=1/GPa)
#
#
# Indices 1 2 3 4 5 6 
#
# 1 0.011657 -0.005778 -0.005449 0.000000 0.000000 0.000000
# 2 -0.005778 0.056688 0.000976 0.000000 0.000000 0.000000
# 3 -0.005449 0.000976 0.009361 0.000000 0.000000 0.000000
# 4 0.000000 0.000000 0.000000 0.044927 0.000000 0.000000
# 5 0.000000 0.000000 0.000000 0.000000 0.036839 0.000000
# 6 0.000000 0.000000 0.000000 0.000000 0.000000 0.049744
#
#
# Mechanical properties :
#
#
# Convention : Reuss Voigt Hill
#
# Bulk Modulus (GPa) = 17.48133 51.90154 34.69144
# Shear Modulus (GPa) = 20.09764 27.49143 23.79453
#
# Velocity S-wave (km/s) = 3.14312 3.67610 3.42001
# Velocity P-wave (km/s) = 4.66534 6.59780 5.71386
#
# Compressibility (1/GPa) = 0.05720388
#
# Stress axis : x y z
#
# Youngs Moduli (GPa) = 85.78519 17.64046 106.83055
#
# Poissons Ratio (x) = 0.10193 0.58210
# Poissons Ratio (y) = 0.49569 -0.10429
# Poissons Ratio (z) = 0.46743 -0.01722
#
# Static dielectric constant tensor:
#      x y z
#    x 1.717260 0.000000 0.000000 
#    y 0.000000 1.746890 0.000000 
#    z 0.000000 0.000000 1.700810 
# 
# From -- ./inp_files/30750.got.cif
#   From: 2010.05.17/outbox.cif.g08.bks.cpg/sg59_16_cif.got.tgz:30750.got - 2010.06.03 14:40:33.
