data_PCOD9451764
_publ_section_title
;
Structure prediction by ZEFSAII (Michael W. Deem and Ramdas Pophale) SiO2 
 PCOD9451764
Probable space group: P M M N
;
_chemical_formula_sum "Si O2"
_cell_formula_units_Z 56
_cell_length_a 14.527755
_cell_length_b 14.350153
_cell_length_c 13.006854
_cell_angle_alpha 90.000000
_cell_angle_beta 90.000000
_cell_angle_gamma 90.000000
_cell_volume 2711.610482
_symmetry_space_group_name_H-M "P M M N"
_symmetry_group_IT_number 59
_space_group.IT_coordinate_system_code '2'
_symmetry_cell_setting 'orthorhombic'
loop_
_space_group_symop_operation_xyz
x,y,z
1/2-x,1/2-y,z
1/2+x,-y,-z
-x,1/2+y,-z
-x,-y,-z
1/2+x,1/2+y,-z
1/2-x,y,z
x,1/2-y,z
loop_
_atom_site_type_symbol
_atom_site_label
_atom_site_fract_x
_atom_site_fract_y
_atom_site_fract_z
Si Si1 0.360527 0.640569 0.270995
Si Si2 0.147017 0.863050 0.509519
Si Si3 0.640036 0.856942 0.413846
Si Si4 0.642921 0.855231 0.995529
Si Si5 0.544455 0.967745 0.823159
Si Si6 0.963256 0.637501 0.618167
Si Si7 0.644712 0.961002 0.204189
O O1 0.250000 0.629493 0.255917
O O2 0.382291 0.750000 0.256192
O O3 0.378669 0.615859 0.391167
O O4 0.417231 0.571279 0.199033
O O5 0.250000 0.899444 0.531710
O O6 0.151641 0.750000 0.512708
O O7 0.067910 0.890105 0.588790
O O8 0.750000 0.855459 0.424718
O O9 0.607773 0.750000 0.399012
O O10 0.595891 0.891940 0.519097
O O11 0.618924 0.915269 0.312768
O O12 0.750000 0.860159 0.963494
O O13 0.609819 0.750000 0.981107
O O14 0.586218 0.925364 0.925591
O O15 0.640783 0.883390 0.114803
O O16 0.571021 0.907529 0.722962
O O17 0.434002 0.967010 0.825879
O O18 0.958527 0.750000 0.626109
O O19 0.750000 0.995795 0.208588
#
# Coordination Sequence:
#
# PCOD9451764 Si02
#       7
#     8   8   8   8   8   8   8
#     4   9  19  35  54  79 112 149 189 232 280 337
#     4   8  15  30  50  71 103 151 198 231 264 322
#     4   9  18  34  56  82 114 152 195 243 290 335
#     4  10  22  42  66  88 112 146 191 243 297 352
#     4  12  23  36  58  89 120 152 188 234 291 356
#     4  10  21  35  52  81 120 154 186 228 283 345
#     4  10  22  39  59  84 114 152 200 248 287 330
#
# _framework density 20.651935000000002
#
# number of rings (size 3 to 8) (size 9 to 14) (size 15 to 20)
#    0.000    2.286    0.000    3.429    0.000    8.000 
#    0.000    4.286    0.000    1.286    0.000    2.000 
#    0.000    0.000    0.000    0.143    0.000    0.000 
#
# Total GULP energy -313030.917619 kJ/mol
# GULP energy per Si atom -5589.837815 kJ/mol
# Density = 2.060493 g / cm^3
# Si number density = 20.651935 Si / 1000 Ang^3
#
#
#
# Elastic Constant Matrix: (Units=GPa)
#
#
# Indices 1 2 3 4 5 6 
#
# 1 38.9691 21.2448 18.6187 0.0000 0.0000 0.0000
# 2 21.2448 72.1801 34.1541 0.0000 0.0000 0.0000
# 3 18.6187 34.1541 64.5276 0.0000 0.0000 0.0000
# 4 0.0000 0.0000 0.0000 23.0948 0.0000 0.0000
# 5 0.0000 0.0000 0.0000 0.0000 34.5179 0.0000
# 6 0.0000 0.0000 0.0000 0.0000 0.0000 19.5740
#
#
#
# Elastic Compliance Matrix: (Units=1/GPa)
#
#
# Indices 1 2 3 4 5 6 
#
# 1 0.032052 -0.006748 -0.005677 0.000000 0.000000 0.000000
# 2 -0.006748 0.019904 -0.008588 0.000000 0.000000 0.000000
# 3 -0.005677 -0.008588 0.021681 0.000000 0.000000 0.000000
# 4 0.000000 0.000000 0.000000 0.043300 0.000000 0.000000
# 5 0.000000 0.000000 0.000000 0.000000 0.028971 0.000000
# 6 0.000000 0.000000 0.000000 0.000000 0.000000 0.051088
#
#
# Mechanical properties :
#
#
# Convention : Reuss Voigt Hill
#
# Bulk Modulus (GPa) = 31.63370 35.96800 33.80085
# Shear Modulus (GPa) = 20.03539 22.21461 21.12500
#
# Velocity S-wave (km/s) = 3.11810 3.28329 3.20176
# Velocity P-wave (km/s) = 5.32111 5.64158 5.48369
#
# Compressibility (1/GPa) = 0.03161185
#
# Stress axis : x y z
#
# Youngs Moduli (GPa) = 31.19893 50.24105 46.12373
#
# Poissons Ratio (x) = 0.33902 0.26183
# Poissons Ratio (y) = 0.21053 0.39611
# Poissons Ratio (z) = 0.17711 0.43147
#
# Static dielectric constant tensor:
#      x y z
#    x 1.761000 0.000000 0.000000 
#    y 0.000000 1.748850 0.000000 
#    z 0.000000 0.000000 1.701940 
# 
# From -- ./inp_files/16912.got.cif
#   From: 2010.05.17/outbox.cif.g08.bks.cpg/sg59_9_cif.got.tgz:16912.got - 2010.06.03 14:40:33.
