data_PCOD9451750
_publ_section_title
;
Structure prediction by ZEFSAII (Michael W. Deem and Ramdas Pophale) SiO2 
 PCOD9451750
Probable space group: P M M N
;
_chemical_formula_sum "Si O2"
_cell_formula_units_Z 64
_cell_length_a 19.368751
_cell_length_b 9.045073
_cell_length_c 21.162971
_cell_angle_alpha 90.000000
_cell_angle_beta 90.000000
_cell_angle_gamma 90.000000
_cell_volume 3707.578278
_symmetry_space_group_name_H-M "P M M N"
_symmetry_group_IT_number 59
_space_group.IT_coordinate_system_code '2'
_symmetry_cell_setting 'orthorhombic'
loop_
_space_group_symop_operation_xyz
x,y,z
1/2-x,1/2-y,z
1/2+x,-y,-z
-x,1/2+y,-z
-x,-y,-z
1/2+x,1/2+y,-z
1/2-x,y,z
x,1/2-y,z
loop_
_atom_site_type_symbol
_atom_site_label
_atom_site_fract_x
_atom_site_fract_y
_atom_site_fract_z
Si Si1 0.578324 0.573923 0.611269
Si Si2 0.829735 0.071795 0.504103
Si Si3 0.417136 0.927981 0.618832
Si Si4 0.579481 0.926438 0.247737
Si Si5 0.833847 0.078539 0.997540
Si Si6 0.569590 0.571882 0.755761
Si Si7 0.832323 0.072808 0.138233
Si Si8 0.170293 0.427613 0.130948
O O1 0.585218 0.750000 0.602164
O O2 0.626894 0.491942 0.562218
O O3 0.497134 0.536297 0.602608
O O4 0.595179 0.540191 0.684552
O O5 0.750000 0.023432 0.505301
O O6 0.831045 0.250000 0.507302
O O7 0.867605 0.030062 0.438762
O O8 0.413746 0.750000 0.628370
O O9 0.399046 0.007981 0.684112
O O10 0.579181 0.750000 0.249423
O O11 0.502787 0.989878 0.235715
O O12 0.628393 0.987458 0.192801
O O13 0.750000 0.072619 0.998675
O O14 0.853472 0.250000 0.990504
O O15 0.856149 0.989267 0.935981
O O16 0.855751 0.027223 0.067377
O O17 0.558119 0.750000 0.758925
O O18 0.623360 0.528608 0.809896
O O19 0.750000 0.048735 0.142990
O O20 0.843801 0.250000 0.143706
O O21 0.250000 0.476256 0.139534
O O22 0.170265 0.250000 0.128010
#
# Coordination Sequence:
#
# PCOD9451750 Si02
#       8
#     8   8   8   8   8   8   8   8
#     4   9  18  33  54  75  96 131 174 211 245 288
#     4  10  21  35  52  77 106 132 161 202 250 299
#     4   9  19  37  56  72  97 136 175 203 240 303
#     4  11  22  34  52  79 106 130 165 215 260 295
#     4   8  15  29  49  73 100 131 168 207 249 302
#     4   9  19  36  54  73 102 139 174 204 245 307
#     4   9  18  34  55  75  99 136 174 205 248 309
#     4   9  17  30  51  77 102 131 169 213 256 297
#
# _framework density 17.261942000000001
#
# number of rings (size 3 to 8) (size 9 to 14) (size 15 to 20)
#    0.000    2.750    0.000    3.000    0.000    5.000 
#    0.000    4.375    0.000    1.500    0.000    0.000 
#    0.000    0.000    0.000    0.000    0.000    0.000 
#
# Total GULP energy -356825.559506 kJ/mol
# GULP energy per Si atom -5575.399367 kJ/mol
# Density = 1.722265 g / cm^3
# Si number density = 17.261942 Si / 1000 Ang^3
#
#
#
# Elastic Constant Matrix: (Units=GPa)
#
#
# Indices 1 2 3 4 5 6 
#
# 1 67.8571 40.1732 89.5176 0.0000 0.0000 0.0000
# 2 40.1732 35.4638 61.6641 0.0000 0.0000 0.0000
# 3 89.5176 61.6641 172.8627 0.0000 0.0000 0.0000
# 4 0.0000 0.0000 0.0000 33.8941 0.0000 0.0000
# 5 0.0000 0.0000 0.0000 0.0000 36.8242 0.0000
# 6 0.0000 0.0000 0.0000 0.0000 0.0000 17.7591
#
#
#
# Elastic Compliance Matrix: (Units=1/GPa)
#
#
# Indices 1 2 3 4 5 6 
#
# 1 0.060761 -0.037179 -0.018203 0.000000 0.000000 0.000000
# 2 -0.037179 0.097007 -0.015351 0.000000 0.000000 0.000000
# 3 -0.018203 -0.015351 0.020687 0.000000 0.000000 0.000000
# 4 0.000000 0.000000 0.000000 0.029504 0.000000 0.000000
# 5 0.000000 0.000000 0.000000 0.000000 0.027156 0.000000
# 6 0.000000 0.000000 0.000000 0.000000 0.000000 0.056309
#
#
# Mechanical properties :
#
#
# Convention : Reuss Voigt Hill
#
# Bulk Modulus (GPa) = 27.03507 73.21038 50.12273
# Shear Modulus (GPa) = 11.23042 23.35074 17.29058
#
# Velocity S-wave (km/s) = 2.55343 3.68194 3.16833
# Velocity P-wave (km/s) = 4.93852 7.78326 6.51798
#
# Compressibility (1/GPa) = 0.03698899
#
# Stress axis : x y z
#
# Youngs Moduli (GPa) = 16.45790 10.30858 48.33889
#
# Poissons Ratio (x) = 0.38327 0.87989
# Poissons Ratio (y) = 0.61189 0.74205
# Poissons Ratio (z) = 0.29958 0.15825
#
# Static dielectric constant tensor:
#      x y z
#    x 1.573280 0.000000 0.000000 
#    y 0.000000 1.577980 0.000000 
#    z 0.000000 0.000000 1.580680 
# 
# From -- ./inp_files/30652.got.cif
#   From: 2010.05.17/outbox.cif.g08.bks.cpg/sg59_16_cif.got.tgz:30652.got - 2010.06.03 14:40:33.
