data_PCOD9451074
_publ_section_title
;
Structure prediction by ZEFSAII (Michael W. Deem and Ramdas Pophale) SiO2 
 PCOD9451074
Probable space group: P M M N
;
_chemical_formula_sum "Si O2"
_cell_formula_units_Z 64
_cell_length_a 18.926903
_cell_length_b 8.654620
_cell_length_c 21.814013
_cell_angle_alpha 90.000000
_cell_angle_beta 90.000000
_cell_angle_gamma 90.000000
_cell_volume 3573.247742
_symmetry_space_group_name_H-M "P M M N"
_symmetry_group_IT_number 59
_space_group.IT_coordinate_system_code '2'
_symmetry_cell_setting 'orthorhombic'
loop_
_space_group_symop_operation_xyz
x,y,z
1/2-x,1/2-y,z
1/2+x,-y,-z
-x,1/2+y,-z
-x,-y,-z
1/2+x,1/2+y,-z
1/2-x,y,z
x,1/2-y,z
loop_
_atom_site_type_symbol
_atom_site_label
_atom_site_fract_x
_atom_site_fract_y
_atom_site_fract_z
Si Si1 0.578829 0.064788 0.497186
Si Si2 0.969620 0.565874 0.063024
Si Si3 0.668603 0.064984 0.744138
Si Si4 0.331732 0.938808 0.621574
Si Si5 0.395610 0.562657 0.750739
Si Si6 0.169685 0.936869 0.880464
Si Si7 0.166843 0.433650 0.390219
Si Si8 0.961781 0.564536 0.814466
O O1 0.576262 0.250000 0.496171
O O2 0.620891 0.012593 0.436135
O O3 0.500000 0.000000 0.500000
O O4 0.621230 0.008786 0.556553
O O5 0.971847 0.750000 0.062337
O O6 0.889817 0.509014 0.076352
O O7 0.015136 0.502336 0.120156
O O8 0.000000 0.500000 0.000000
O O9 0.750000 0.019159 0.756864
O O10 0.664800 0.250000 0.744592
O O11 0.650493 0.003420 0.676333
O O12 0.612924 0.996044 0.791423
O O13 0.250000 0.987224 0.615621
O O14 0.331790 0.750000 0.622264
O O15 0.364840 0.992280 0.686191
O O16 0.394143 0.750000 0.748420
O O17 0.349468 0.518313 0.810240
O O18 0.476022 0.517505 0.766598
O O19 0.250000 0.980602 0.894952
O O20 0.163945 0.750000 0.883749
O O21 0.250000 0.462190 0.402071
O O22 0.155006 0.250000 0.388631
O O23 0.961765 0.750000 0.817869
#
# Coordination Sequence:
#
# PCOD9451074 Si02
#       8
#     8   8   8   8   8   8   8   8
#     4  11  23  36  52  76 107 144 187 236 286 339
#     4  11  22  38  59  83 116 154 194 236 279 330
#     4  10  21  37  58  85 115 146 184 233 289 343
#     4   9  17  30  50  76 105 137 176 223 274 328
#     4   8  15  28  50  81 111 140 174 219 270 324
#     4   9  17  32  56  85 116 148 185 228 277 335
#     4  10  21  38  59  79 103 141 188 237 289 344
#     4  10  20  35  58  86 116 149 185 226 275 332
#
# _framework density 17.910875999999998
#
# number of rings (size 3 to 8) (size 9 to 14) (size 15 to 20)
#    0.000    2.250    0.000    4.125    1.750    3.750 
#    0.000    0.625    0.000    4.500    0.000    0.000 
#    0.000    0.000    0.000    0.000    0.000    0.000 
#
# Total GULP energy -357272.158900 kJ/mol
# GULP energy per Si atom -5582.377483 kJ/mol
# Density = 1.787011 g / cm^3
# Si number density = 17.910876 Si / 1000 Ang^3
#
#
#
# Elastic Constant Matrix: (Units=GPa)
#
#
# Indices 1 2 3 4 5 6 
#
# 1 149.8023 53.9836 117.2213 0.0000 0.0000 0.0000
# 2 53.9836 56.4672 44.9702 0.0000 0.0000 0.0000
# 3 117.2213 44.9702 134.1945 0.0000 0.0000 0.0000
# 4 0.0000 0.0000 0.0000 23.4284 0.0000 0.0000
# 5 0.0000 0.0000 0.0000 0.0000 25.8251 0.0000
# 6 0.0000 0.0000 0.0000 0.0000 0.0000 29.4318
#
#
#
# Elastic Compliance Matrix: (Units=1/GPa)
#
#
# Indices 1 2 3 4 5 6 
#
# 1 0.023704 -0.008418 -0.017885 0.000000 0.000000 0.000000
# 2 -0.008418 0.027146 -0.001744 0.000000 0.000000 0.000000
# 3 -0.017885 -0.001744 0.023659 0.000000 0.000000 0.000000
# 4 0.000000 0.000000 0.000000 0.042683 0.000000 0.000000
# 5 0.000000 0.000000 0.000000 0.000000 0.038722 0.000000
# 6 0.000000 0.000000 0.000000 0.000000 0.000000 0.033977
#
#
# Mechanical properties :
#
#
# Convention : Reuss Voigt Hill
#
# Bulk Modulus (GPa) = 54.30146 85.86827 70.08487
# Shear Modulus (GPa) = 19.83158 24.02299 21.92728
#
# Velocity S-wave (km/s) = 3.33113 3.66628 3.50272
# Velocity P-wave (km/s) = 6.72150 8.12208 7.45476
#
# Compressibility (1/GPa) = 0.01841571
#
# Stress axis : x y z
#
# Youngs Moduli (GPa) = 42.18654 36.83816 42.26702
#
# Poissons Ratio (x) = 0.31011 0.75595
# Poissons Ratio (y) = 0.35513 0.07370
# Poissons Ratio (z) = 0.75451 0.06423
#
# Static dielectric constant tensor:
#      x y z
#    x 1.605570 0.000000 0.000000 
#    y 0.000000 1.607920 0.000000 
#    z 0.000000 0.000000 1.580830 
# 
# From -- ./inp_files/30773.got.cif
#   From: 2010.05.17/outbox.cif.g08.bks.cpg/sg59_16_cif.got.tgz:30773.got - 2010.06.03 14:40:33.
