data_PCOD9451329
_publ_section_title
;
Structure prediction by ZEFSAII (Michael W. Deem and Ramdas Pophale) SiO2 
 PCOD9451329
Probable space group: P M M N
;
_chemical_formula_sum "Si O2"
_cell_formula_units_Z 40
_cell_length_a 8.015548
_cell_length_b 24.965998
_cell_length_c 9.950507
_cell_angle_alpha 90.000000
_cell_angle_beta 90.000000
_cell_angle_gamma 90.000000
_cell_volume 1991.257204
_symmetry_space_group_name_H-M "P M M N"
_symmetry_group_IT_number 59
_space_group.IT_coordinate_system_code '2'
_symmetry_cell_setting 'orthorhombic'
loop_
_space_group_symop_operation_xyz
x,y,z
1/2-x,1/2-y,z
1/2+x,-y,-z
-x,1/2+y,-z
-x,-y,-z
1/2+x,1/2+y,-z
1/2-x,y,z
x,1/2-y,z
loop_
_atom_site_type_symbol
_atom_site_label
_atom_site_fract_x
_atom_site_fract_y
_atom_site_fract_z
Si Si1 0.545779 0.750000 0.288588
Si Si2 0.951506 0.028746 0.136726
Si Si3 0.948729 0.750000 0.978449
Si Si4 0.950818 0.540269 0.384354
Si Si5 0.048257 0.154706 0.515555
Si Si6 0.448964 0.850675 0.794747
O O1 0.750000 0.750000 0.284169
O O2 0.493036 0.800419 0.378906
O O3 0.487435 0.750000 0.133377
O O4 0.750000 0.031279 0.144932
O O5 0.012593 0.089885 0.161436
O O6 0.014185 0.987998 0.250562
O O7 0.000000 0.000000 0.000000
O O8 0.750000 0.750000 0.986899
O O9 0.997841 0.696884 0.894877
O O10 0.750000 0.544352 0.374089
O O11 0.014295 0.598255 0.426763
O O12 0.000000 0.500000 0.500000
O O13 0.250000 0.154856 0.515971
O O14 0.998390 0.161407 0.359852
O O15 0.250000 0.852815 0.798618
#
# Coordination Sequence:
#
# PCOD9451329 Si02
#       6
#     4   8   4   8   8   8
#     4   9  21  39  60  88 114 143 192 249 294 338
#     4  10  23  39  58  87 124 161 198 242 294 351
#     4  11  24  41  64  88 116 157 200 245 296 354
#     4  10  20  36  59  87 119 154 193 240 289 346
#     4  10  20  37  63  89 115 152 200 245 290 352
#     4  11  23  41  61  87 123 159 196 244 297 353
#
# _framework density 20.087812
#
# number of rings (size 3 to 8) (size 9 to 14) (size 15 to 20)
#    0.000    1.800    2.000    1.500    2.800    3.200 
#    0.000    2.000    0.000    0.000    0.000    0.000 
#    0.000    0.000    0.000    0.000    0.000    0.000 
#
# Total GULP energy -223247.610951 kJ/mol
# GULP energy per Si atom -5581.190274 kJ/mol
# Density = 2.004209 g / cm^3
# Si number density = 20.087812 Si / 1000 Ang^3
#
#
#
# Elastic Constant Matrix: (Units=GPa)
#
#
# Indices 1 2 3 4 5 6 
#
# 1 21.1351 15.2790 9.1822 0.0000 0.0000 0.0000
# 2 15.2790 207.0444 134.3595 0.0000 0.0000 0.0000
# 3 9.1822 134.3595 241.4821 0.0000 0.0000 0.0000
# 4 0.0000 0.0000 0.0000 36.5560 0.0000 0.0000
# 5 0.0000 0.0000 0.0000 0.0000 18.8231 0.0000
# 6 0.0000 0.0000 0.0000 0.0000 0.0000 16.0131
#
#
#
# Elastic Compliance Matrix: (Units=1/GPa)
#
#
# Indices 1 2 3 4 5 6 
#
# 1 0.049990 -0.003843 0.000237 0.000000 0.000000 0.000000
# 2 -0.003843 0.007855 -0.004224 0.000000 0.000000 0.000000
# 3 0.000237 -0.004224 0.006482 0.000000 0.000000 0.000000
# 4 0.000000 0.000000 0.000000 0.027355 0.000000 0.000000
# 5 0.000000 0.000000 0.000000 0.000000 0.053126 0.000000
# 6 0.000000 0.000000 0.000000 0.000000 0.000000 0.062449
#
#
# Mechanical properties :
#
#
# Convention : Reuss Voigt Hill
#
# Bulk Modulus (GPa) = 20.54775 87.47811 54.01293
# Shear Modulus (GPa) = 20.90831 35.00117 27.95474
#
# Velocity S-wave (km/s) = 3.22971 4.17874 3.73450
# Velocity P-wave (km/s) = 4.91520 8.18077 6.74849
#
# Compressibility (1/GPa) = 0.04866713
#
# Stress axis : x y z
#
# Youngs Moduli (GPa) = 20.00411 127.31151 154.26395
#
# Poissons Ratio (x) = 0.48928 -0.03663
# Poissons Ratio (y) = 0.07688 0.65164
# Poissons Ratio (z) = -0.00475 0.53779
#
# Static dielectric constant tensor:
#      x y z
#    x 1.738180 0.000000 0.000000 
#    y 0.000000 1.737970 0.000000 
#    z 0.000000 0.000000 1.615350 
# 
# From -- ./inp_files/5939.got.cif
#   From: 2010.05.17/outbox.cif.g08.bks.cpg/sg59_3_cif.got.tgz:5939.got - 2010.06.03 14:40:33.
