data_PCOD9451373
_publ_section_title
;
Structure prediction by ZEFSAII (Michael W. Deem and Ramdas Pophale) SiO2 
 PCOD9451373
Probable space group: P M M N
;
_chemical_formula_sum "Si O2"
_cell_formula_units_Z 64
_cell_length_a 8.480033
_cell_length_b 29.524206
_cell_length_c 12.933466
_cell_angle_alpha 90.000000
_cell_angle_beta 90.000000
_cell_angle_gamma 90.000000
_cell_volume 3238.103268
_symmetry_space_group_name_H-M "P M M N"
_symmetry_group_IT_number 59
_space_group.IT_coordinate_system_code '2'
_symmetry_cell_setting 'orthorhombic'
loop_
_space_group_symop_operation_xyz
x,y,z
1/2-x,1/2-y,z
1/2+x,-y,-z
-x,1/2+y,-z
-x,-y,-z
1/2+x,1/2+y,-z
1/2-x,y,z
x,1/2-y,z
loop_
_atom_site_type_symbol
_atom_site_label
_atom_site_fract_x
_atom_site_fract_y
_atom_site_fract_z
Si Si1 0.060616 0.548971 0.031594
Si Si2 0.058558 0.633461 0.891693
Si Si3 0.559347 0.699082 0.500911
Si Si4 0.939001 0.123184 0.342486
Si Si5 0.059812 0.155343 0.711816
Si Si6 0.437162 0.055300 0.740771
Si Si7 0.064062 0.476423 0.396299
Si Si8 0.559319 0.302039 0.924510
O O1 0.250000 0.549235 0.044039
O O2 0.979920 0.561098 0.139541
O O3 0.018857 0.585643 0.944653
O O4 0.000000 0.500000 0.000000
O O5 0.250000 0.636237 0.888392
O O6 0.002435 0.634481 0.773853
O O7 0.004383 0.672012 0.971957
O O8 0.750000 0.698256 0.502367
O O9 0.506964 0.750000 0.527547
O O10 0.499249 0.660962 0.578532
O O11 0.509670 0.686255 0.384186
O O12 0.750000 0.123960 0.341495
O O13 0.991323 0.072788 0.374906
O O14 0.250000 0.156482 0.719109
O O15 0.015458 0.103069 0.689348
O O16 0.993584 0.172457 0.820700
O O17 0.250000 0.048831 0.727665
O O18 0.522746 0.011745 0.694548
O O19 0.250000 0.470851 0.405902
O O20 0.000000 0.500000 0.500000
O O21 0.750000 0.302475 0.925901
O O22 0.505610 0.250000 0.922235
#
# Coordination Sequence:
#
# PCOD9451373 Si02
#       8
#     8   8   8   8   8   8   8   8
#     4  11  21  36  58  84 118 160 204 253 309 367
#     4   9  20  38  58  84 120 159 200 250 306 365
#     4  10  22  41  63  88 122 164 209 261 323 383
#     4  11  23  41  65  92 124 164 211 262 313 379
#     4  10  21  38  61  88 121 159 200 254 313 372
#     4  11  22  37  59  90 125 162 206 255 309 374
#     4  12  25  42  64  92 125 165 210 260 316 377
#     4  10  20  36  60  88 119 157 202 253 308 367
#
# _framework density 19.764655999999999
#
# number of rings (size 3 to 8) (size 9 to 14) (size 15 to 20)
#    0.000    1.500    1.250    4.125    0.000    4.500 
#    0.000    4.375    0.000    0.000    0.000    0.000 
#    0.000    0.000    0.000    0.000    0.000    0.000 
#
# Total GULP energy -357701.095500 kJ/mol
# GULP energy per Si atom -5589.079617 kJ/mol
# Density = 1.971967 g / cm^3
# Si number density = 19.764656 Si / 1000 Ang^3
#
#
#
# Elastic Constant Matrix: (Units=GPa)
#
#
# Indices 1 2 3 4 5 6 
#
# 1 25.3299 24.1028 13.2282 0.0000 0.0000 0.0000
# 2 24.1028 165.6738 66.2828 0.0000 0.0000 0.0000
# 3 13.2282 66.2828 134.8338 0.0000 0.0000 0.0000
# 4 0.0000 0.0000 0.0000 35.1161 0.0000 0.0000
# 5 0.0000 0.0000 0.0000 0.0000 23.8055 0.0000
# 6 0.0000 0.0000 0.0000 0.0000 0.0000 26.6387
#
#
#
# Elastic Compliance Matrix: (Units=1/GPa)
#
#
# Indices 1 2 3 4 5 6 
#
# 1 0.046073 -0.006093 -0.001525 0.000000 0.000000 0.000000
# 2 -0.006093 0.008319 -0.003492 0.000000 0.000000 0.000000
# 3 -0.001525 -0.003492 0.009283 0.000000 0.000000 0.000000
# 4 0.000000 0.000000 0.000000 0.028477 0.000000 0.000000
# 5 0.000000 0.000000 0.000000 0.000000 0.042007 0.000000
# 6 0.000000 0.000000 0.000000 0.000000 0.000000 0.037539
#
#
# Mechanical properties :
#
#
# Convention : Reuss Voigt Hill
#
# Bulk Modulus (GPa) = 24.12208 59.22943 41.67575
# Shear Modulus (GPa) = 24.06893 31.92697 27.99795
#
# Velocity S-wave (km/s) = 3.49345 4.02351 3.76781
# Velocity P-wave (km/s) = 5.33886 7.18451 6.32932
#
# Compressibility (1/GPa) = 0.04145580
#
# Stress axis : x y z
#
# Youngs Moduli (GPa) = 21.70468 120.20055 107.72639
#
# Poissons Ratio (x) = 0.73235 0.16428
# Poissons Ratio (y) = 0.13224 0.37618
# Poissons Ratio (z) = 0.03310 0.41974
#
# Static dielectric constant tensor:
#      x y z
#    x 1.685890 0.000000 0.000000 
#    y 0.000000 1.704780 0.000000 
#    z 0.000000 0.000000 1.689670 
# 
# From -- ./inp_files/15036.got.cif
#   From: 2010.05.17/outbox.cif.g08.bks.cpg/sg59_8_cif.got.tgz:15036.got - 2010.06.03 14:40:33.
