data_PCOD9451275
_publ_section_title
;
Structure prediction by ZEFSAII (Michael W. Deem and Ramdas Pophale) SiO2 
 PCOD9451275
Probable space group: P M M N
;
_chemical_formula_sum "Si O2"
_cell_formula_units_Z 64
_cell_length_a 13.538681
_cell_length_b 19.558970
_cell_length_c 13.109687
_cell_angle_alpha 90.000000
_cell_angle_beta 90.000000
_cell_angle_gamma 90.000000
_cell_volume 3471.479931
_symmetry_space_group_name_H-M "P M M N"
_symmetry_group_IT_number 59
_space_group.IT_coordinate_system_code '2'
_symmetry_cell_setting 'orthorhombic'
loop_
_space_group_symop_operation_xyz
x,y,z
1/2-x,1/2-y,z
1/2+x,-y,-z
-x,1/2+y,-z
-x,-y,-z
1/2+x,1/2+y,-z
1/2-x,y,z
x,1/2-y,z
loop_
_atom_site_type_symbol
_atom_site_label
_atom_site_fract_x
_atom_site_fract_y
_atom_site_fract_z
Si Si1 0.131255 0.531353 0.035988
Si Si2 0.520303 0.670719 0.238008
Si Si3 0.866081 0.326928 0.069667
Si Si4 0.063415 0.328780 0.175716
Si Si5 0.631664 0.888145 0.041900
Si Si6 0.131423 0.327260 0.550759
Si Si7 0.869430 0.580453 0.634141
Si Si8 0.867936 0.446315 0.735412
O O1 0.250000 0.527827 0.028655
O O2 0.107801 0.608566 0.001627
O O3 0.096527 0.467366 0.968769
O O4 0.108721 0.520384 0.154275
O O5 0.493793 0.750000 0.227510
O O6 0.576556 0.646712 0.136110
O O7 0.591053 0.662534 0.335944
O O8 0.426275 0.624019 0.262467
O O9 0.750000 0.332602 0.097068
O O10 0.879585 0.250000 0.024522
O O11 0.944625 0.331664 0.160729
O O12 0.092223 0.250000 0.193063
O O13 0.097441 0.375280 0.268613
O O14 0.108000 0.353139 0.067044
O O15 0.750000 0.885648 0.057851
O O16 0.250000 0.330291 0.553544
O O17 0.103511 0.250000 0.517587
O O18 0.095869 0.382772 0.468840
O O19 0.750000 0.580703 0.634244
O O20 0.899645 0.501827 0.651573
O O21 0.750000 0.435663 0.729590
#
# Coordination Sequence:
#
# PCOD9451275 Si02
#       8
#     8   8   8   8   8   8   8   8
#     4   9  18  33  52  75 107 149 185 216 268 327
#     4  11  24  38  56  82 110 149 191 224 272 332
#     4   9  19  34  50  72 107 150 193 229 260 315
#     4  11  21  31  53  85 111 142 180 223 279 332
#     4  11  22  35  53  82 117 146 176 224 282 338
#     4   9  19  38  61  82 110 146 181 221 270 331
#     4  10  20  36  58  84 111 141 180 227 280 332
#     4  10  21  37  57  81 110 145 185 233 279 321
#
# _framework density 18.435941
#
# number of rings (size 3 to 8) (size 9 to 14) (size 15 to 20)
#    0.000    2.000    1.250    2.250    1.750    6.000 
#    0.000    1.250    0.000    0.750    0.000    1.750 
#    0.000    0.000    0.000    0.000    0.000    0.000 
#
# Total GULP energy -357081.971994 kJ/mol
# GULP energy per Si atom -5579.405812 kJ/mol
# Density = 1.839398 g / cm^3
# Si number density = 18.435941 Si / 1000 Ang^3
#
#
#
# Elastic Constant Matrix: (Units=GPa)
#
#
# Indices 1 2 3 4 5 6 
#
# 1 49.2757 32.6522 16.1075 0.0000 0.0000 0.0000
# 2 32.6522 140.9127 54.2418 0.0000 0.0000 0.0000
# 3 16.1075 54.2418 81.4732 0.0000 0.0000 0.0000
# 4 0.0000 0.0000 0.0000 25.8010 0.0000 0.0000
# 5 0.0000 0.0000 0.0000 0.0000 18.8165 0.0000
# 6 0.0000 0.0000 0.0000 0.0000 0.0000 29.1982
#
#
#
# Elastic Compliance Matrix: (Units=1/GPa)
#
#
# Indices 1 2 3 4 5 6 
#
# 1 0.024095 -0.005042 -0.001407 0.000000 0.000000 0.000000
# 2 -0.005042 0.010597 -0.006058 0.000000 0.000000 0.000000
# 3 -0.001407 -0.006058 0.016586 0.000000 0.000000 0.000000
# 4 0.000000 0.000000 0.000000 0.038758 0.000000 0.000000
# 5 0.000000 0.000000 0.000000 0.000000 0.053145 0.000000
# 6 0.000000 0.000000 0.000000 0.000000 0.000000 0.034249
#
#
# Mechanical properties :
#
#
# Convention : Reuss Voigt Hill
#
# Bulk Modulus (GPa) = 38.07605 53.07384 45.57494
# Shear Modulus (GPa) = 23.67459 26.00716 24.84087
#
# Velocity S-wave (km/s) = 3.58740 3.75997 3.67470
# Velocity P-wave (km/s) = 6.15282 6.90656 6.54056
#
# Compressibility (1/GPa) = 0.02626323
#
# Stress axis : x y z
#
# Youngs Moduli (GPa) = 41.50287 94.36790 60.29363
#
# Poissons Ratio (x) = 0.47576 0.08484
# Poissons Ratio (y) = 0.20924 0.36527
# Poissons Ratio (z) = 0.05840 0.57170
#
# Static dielectric constant tensor:
#      x y z
#    x 1.656730 0.000000 0.000000 
#    y 0.000000 1.669610 0.000000 
#    z 0.000000 0.000000 1.605260 
# 
# From -- ./inp_files/17198.got.cif
#   From: 2010.05.17/outbox.cif.g08.bks.cpg/sg59_9_cif.got.tgz:17198.got - 2010.06.03 14:40:33.
