data_PCOD9451828
_publ_section_title
;
Structure prediction by ZEFSAII (Michael W. Deem and Ramdas Pophale) SiO2 
 PCOD9451828
Probable space group: P M M N
;
_chemical_formula_sum "Si O2"
_cell_formula_units_Z 56
_cell_length_a 9.358933
_cell_length_b 14.997545
_cell_length_c 19.129482
_cell_angle_alpha 90.000000
_cell_angle_beta 90.000000
_cell_angle_gamma 90.000000
_cell_volume 2685.033583
_symmetry_space_group_name_H-M "P M M N"
_symmetry_group_IT_number 59
_space_group.IT_coordinate_system_code '2'
_symmetry_cell_setting 'orthorhombic'
loop_
_space_group_symop_operation_xyz
x,y,z
1/2-x,1/2-y,z
1/2+x,-y,-z
-x,1/2+y,-z
-x,-y,-z
1/2+x,1/2+y,-z
1/2-x,y,z
x,1/2-y,z
loop_
_atom_site_type_symbol
_atom_site_label
_atom_site_fract_x
_atom_site_fract_y
_atom_site_fract_z
Si Si1 0.423689 0.096987 0.496168
Si Si2 0.090239 0.144077 0.067414
Si Si3 0.410226 0.856350 0.063102
Si Si4 0.418444 0.390982 0.646844
Si Si5 0.912733 0.392353 0.204867
Si Si6 0.418114 0.892748 0.639425
Si Si7 0.914392 0.607158 0.202321
O O1 0.250000 0.089097 0.493790
O O2 0.465175 0.141922 0.570409
O O3 0.485532 0.138616 0.425092
O O4 0.500000 0.000000 0.500000
O O5 0.250000 0.106832 0.067679
O O6 0.101311 0.250000 0.055820
O O7 0.014228 0.132469 0.141615
O O8 0.996506 0.107405 0.003514
O O9 0.250000 0.892646 0.066473
O O10 0.399491 0.750000 0.053328
O O11 0.493485 0.870082 0.135207
O O12 0.250000 0.371215 0.651293
O O13 0.431487 0.498932 0.642945
O O14 0.476108 0.361476 0.722355
O O15 0.750000 0.361535 0.191736
O O16 0.956336 0.360832 0.282541
O O17 0.908704 0.499853 0.206911
O O18 0.250000 0.873411 0.627316
O O19 0.750000 0.638470 0.193666
#
# Coordination Sequence:
#
# PCOD9451828 Si02
#       7
#     8   8   8   8   8   8   8
#     4   9  14  21  35  56  85 121 156 188 225 268
#     4  10  21  36  53  72  93 120 157 196 231 275
#     4  10  21  36  52  70  93 121 154 192 235 282
#     4   7  12  23  38  58  87 120 150 183 223 266
#     4   9  18  32  50  72  99 128 155 190 237 283
#     4   8  14  25  39  59  89 121 152 185 224 272
#     4   9  17  31  50  71  96 125 157 192 231 277
#
# _framework density 20.856349000000002
#
# number of rings (size 3 to 8) (size 9 to 14) (size 15 to 20)
#    0.000    3.143    0.000    3.857    0.000    3.429 
#    0.000    6.429    0.000    0.000    0.000    1.000 
#    0.000    1.143    0.000    0.000    0.000    0.000 
#
# Total GULP energy -312032.389204 kJ/mol
# GULP energy per Si atom -5572.006950 kJ/mol
# Density = 2.080888 g / cm^3
# Si number density = 20.856349 Si / 1000 Ang^3
#
#
#
# Elastic Constant Matrix: (Units=GPa)
#
#
# Indices 1 2 3 4 5 6 
#
# 1 124.1228 7.0572 123.1355 0.0000 0.0000 0.0000
# 2 7.0572 52.9715 2.3366 0.0000 0.0000 0.0000
# 3 123.1355 2.3366 246.6812 0.0000 0.0000 0.0000
# 4 0.0000 0.0000 0.0000 40.3869 0.0000 0.0000
# 5 0.0000 0.0000 0.0000 0.0000 39.1717 0.0000
# 6 0.0000 0.0000 0.0000 0.0000 0.0000 7.3870
#
#
#
# Elastic Compliance Matrix: (Units=1/GPa)
#
#
# Indices 1 2 3 4 5 6 
#
# 1 0.016129 -0.001794 -0.008034 0.000000 0.000000 0.000000
# 2 -0.001794 0.019086 0.000715 0.000000 0.000000 0.000000
# 3 -0.008034 0.000715 0.008057 0.000000 0.000000 0.000000
# 4 0.000000 0.000000 0.000000 0.024761 0.000000 0.000000
# 5 0.000000 0.000000 0.000000 0.000000 0.025529 0.000000
# 6 0.000000 0.000000 0.000000 0.000000 0.000000 0.135372
#
#
# Mechanical properties :
#
#
# Convention : Reuss Voigt Hill
#
# Bulk Modulus (GPa) = 39.92848 76.53715 58.23281
# Shear Modulus (GPa) = 19.56889 36.80554 28.18721
#
# Velocity S-wave (km/s) = 3.06644 4.20541 3.68025
# Velocity P-wave (km/s) = 5.63236 7.76901 6.78532
#
# Compressibility (1/GPa) = 0.02504478
#
# Stress axis : x y z
#
# Youngs Moduli (GPa) = 62.00202 52.39550 124.11126
#
# Poissons Ratio (x) = 0.09402 0.99709
# Poissons Ratio (y) = 0.11125 -0.08873
# Poissons Ratio (z) = 0.49811 -0.03746
#
# Static dielectric constant tensor:
#      x y z
#    x 1.735330 0.000000 0.000000 
#    y 0.000000 1.805670 0.000000 
#    z 0.000000 0.000000 1.785930 
# 
# From -- ./inp_files/26064.got.cif
#   From: 2010.05.17/outbox.cif.g08.bks.cpg/sg59_14_cif.got.tgz:26064.got - 2010.06.03 14:40:33.
