data_PCOD9451547
_publ_section_title
;
Structure prediction by ZEFSAII (Michael W. Deem and Ramdas Pophale) SiO2 
 PCOD9451547
Probable space group: P M M N
;
_chemical_formula_sum "Si O2"
_cell_formula_units_Z 64
_cell_length_a 22.771619
_cell_length_b 14.337604
_cell_length_c 10.258599
_cell_angle_alpha 90.000000
_cell_angle_beta 90.000000
_cell_angle_gamma 90.000000
_cell_volume 3349.334662
_symmetry_space_group_name_H-M "P M M N"
_symmetry_group_IT_number 59
_space_group.IT_coordinate_system_code '2'
_symmetry_cell_setting 'orthorhombic'
loop_
_space_group_symop_operation_xyz
x,y,z
1/2-x,1/2-y,z
1/2+x,-y,-z
-x,1/2+y,-z
-x,-y,-z
1/2+x,1/2+y,-z
1/2-x,y,z
x,1/2-y,z
loop_
_atom_site_type_symbol
_atom_site_label
_atom_site_fract_x
_atom_site_fract_y
_atom_site_fract_z
Si Si1 0.868419 0.636358 0.864411
Si Si2 0.494697 0.143889 0.214015
Si Si3 0.617419 0.642766 0.357054
Si Si4 0.128340 0.639298 0.789413
Si Si5 0.136902 0.854250 0.478452
Si Si6 0.181279 0.458783 0.878251
Si Si7 0.818570 0.950334 0.601348
Si Si8 0.999161 0.110688 0.514752
O O1 0.866433 0.750000 0.868690
O O2 0.836910 0.598556 0.735178
O O3 0.936726 0.603824 0.852677
O O4 0.837883 0.590297 0.988448
O O5 0.498348 0.250000 0.167288
O O6 0.560345 0.105968 0.195115
O O7 0.484503 0.146201 0.370138
O O8 0.635491 0.750000 0.345851
O O9 0.641740 0.586227 0.235228
O O10 0.644601 0.596738 0.485898
O O11 0.547435 0.638354 0.379637
O O12 0.132796 0.750000 0.820049
O O13 0.143532 0.630796 0.635069
O O14 0.168001 0.569414 0.871996
O O15 0.158418 0.750000 0.447353
O O16 0.066751 0.858176 0.454538
O O17 0.166464 0.939591 0.403642
O O18 0.250000 0.442482 0.853001
O O19 0.750000 0.937276 0.576844
O O20 0.000000 0.000000 0.500000
#
# Coordination Sequence:
#
# PCOD9451547 Si02
#       8
#     8   8   8   8   8   8   8   8
#     4  11  24  43  64  85 118 165 206 250 311 370
#     4   9  17  34  60  89 116 146 194 246 301 366
#     4  12  23  37  60  90 120 152 198 258 307 351
#     4   9  19  38  65  93 122 157 197 249 309 366
#     4  10  20  37  63  95 127 158 194 248 315 370
#     4  12  26  42  58  85 124 167 210 247 297 363
#     4  12  24  39  60  89 118 158 212 251 293 357
#     4  11  17  33  61  92 124 153 190 249 313 370
#
# _framework density 19.108271999999999
#
# number of rings (size 3 to 8) (size 9 to 14) (size 15 to 20)
#    0.000    1.250    3.750    4.125    0.000    4.000 
#    0.000    1.875    0.000    3.000    0.000    0.000 
#    0.000    0.000    0.000    0.000    0.000    0.000 
#
# Total GULP energy -357344.532106 kJ/mol
# GULP energy per Si atom -5583.508314 kJ/mol
# Density = 1.906478 g / cm^3
# Si number density = 19.108272 Si / 1000 Ang^3
#
#
#
# Elastic Constant Matrix: (Units=GPa)
#
#
# Indices 1 2 3 4 5 6 
#
# 1 25.5242 -1.9534 -2.3364 0.0000 0.0000 0.0000
# 2 -1.9534 119.0072 22.8554 0.0000 0.0000 0.0000
# 3 -2.3364 22.8554 43.2145 0.0000 0.0000 0.0000
# 4 0.0000 0.0000 0.0000 26.2078 0.0000 0.0000
# 5 0.0000 0.0000 0.0000 0.0000 -3.0720 0.0000
# 6 0.0000 0.0000 0.0000 0.0000 0.0000 -1.5219
#
#
#
# Elastic Compliance Matrix: (Units=1/GPa)
#
#
# Indices 1 2 3 4 5 6 
#
# 1 0.039381 0.000264 0.001989 0.000000 0.000000 0.000000
# 2 0.000264 0.009355 -0.004933 0.000000 0.000000 0.000000
# 3 0.001989 -0.004933 0.025857 0.000000 0.000000 0.000000
# 4 0.000000 0.000000 0.000000 0.038157 0.000000 0.000000
# 5 0.000000 0.000000 0.000000 0.000000 -0.325526 0.000000
# 6 0.000000 0.000000 0.000000 0.000000 0.000000 -0.657091
#
#
# Mechanical properties :
#
#
# Convention : Reuss Voigt Hill
#
# Bulk Modulus (GPa) = 14.44388 24.98634 19.71511
# Shear Modulus (GPa) = -5.94226 15.60150 4.82962
#
# Velocity S-wave (km/s) = -1.76537 2.86051 1.59154
# Velocity P-wave (km/s) = 1.84932 4.90047 3.70369
#
# Compressibility (1/GPa) = 0.06923348
#
# Stress axis : x y z
#
# Youngs Moduli (GPa) = 25.39308 106.89906 38.67417
#
# Poissons Ratio (x) = -0.02826 -0.07694
# Poissons Ratio (y) = -0.00671 0.19079
# Poissons Ratio (z) = -0.05052 0.52736
#
# Static dielectric constant tensor:
#      x y z
#    x 1.704270 0.000000 0.000000 
#    y 0.000000 1.693950 0.000000 
#    z 0.000000 0.000000 1.630000 
# 
# From -- ./inp_files/12217.got.cif
#   From: 2010.05.17/outbox.cif.g08.bks.cpg/sg59_7_cif.got.tgz:12217.got - 2010.06.03 14:40:33.
