data_PCOD9451284
_publ_section_title
;
Structure prediction by ZEFSAII (Michael W. Deem and Ramdas Pophale) SiO2 
 PCOD9451284
Probable space group: P M M N
;
_chemical_formula_sum "Si O2"
_cell_formula_units_Z 48
_cell_length_a 8.918160
_cell_length_b 16.202479
_cell_length_c 17.042835
_cell_angle_alpha 90.000000
_cell_angle_beta 90.000000
_cell_angle_gamma 90.000000
_cell_volume 2462.626601
_symmetry_space_group_name_H-M "P M M N"
_symmetry_group_IT_number 59
_space_group.IT_coordinate_system_code '2'
_symmetry_cell_setting 'orthorhombic'
loop_
_space_group_symop_operation_xyz
x,y,z
1/2-x,1/2-y,z
1/2+x,-y,-z
-x,1/2+y,-z
-x,-y,-z
1/2+x,1/2+y,-z
1/2-x,y,z
x,1/2-y,z
loop_
_atom_site_type_symbol
_atom_site_label
_atom_site_fract_x
_atom_site_fract_y
_atom_site_fract_z
Si Si1 0.925886 0.569970 0.215701
Si Si2 0.571376 0.151869 0.469113
Si Si3 0.930334 0.420949 0.953989
Si Si4 0.427480 0.250000 0.202720
Si Si5 0.924217 0.105947 0.299609
Si Si6 0.920746 0.848659 0.371052
Si Si7 0.567954 0.750000 0.980064
O O1 0.750000 0.589640 0.197245
O O2 0.931124 0.480720 0.256173
O O3 0.983225 0.628565 0.285777
O O4 0.021121 0.572040 0.136894
O O5 0.750000 0.144920 0.476624
O O6 0.536149 0.250000 0.458640
O O7 0.521843 0.106085 0.389786
O O8 0.500858 0.121303 0.550339
O O9 0.750000 0.421236 0.962981
O O10 0.000000 0.500000 0.000000
O O11 0.999527 0.334175 0.984230
O O12 0.250000 0.250000 0.204457
O O13 0.487579 0.328851 0.248323
O O14 0.472914 0.250000 0.111977
O O15 0.750000 0.132476 0.302854
O O16 0.750000 0.880803 0.371659
O O17 0.918180 0.750000 0.376517
O O18 0.750000 0.750000 0.988888
#
# Coordination Sequence:
#
# PCOD9451284 Si02
#       7
#     8   8   8   4   8   8   4
#     4  10  22  39  61  88 119 161 205 252 306 365
#     4   9  17  32  53  79 113 156 200 245 296 351
#     4  12  26  45  68  97 131 168 212 264 323 387
#     4  11  23  37  59  90 117 146 191 245 304 363
#     4  10  20  36  58  84 118 159 201 243 298 361
#     4   9  19  35  55  82 117 158 200 245 300 358
#     4  11  25  45  69  96 127 166 211 263 324 387
#
# _framework density 19.491384
#
# number of rings (size 3 to 8) (size 9 to 14) (size 15 to 20)
#    0.000    1.833    0.833    3.000    1.167    6.667 
#    0.000    0.000    0.000    0.000    0.000    0.000 
#    0.000    0.000    0.000    0.000    0.000    0.000 
#
# Total GULP energy -267977.618061 kJ/mol
# GULP energy per Si atom -5582.867043 kJ/mol
# Density = 1.944702 g / cm^3
# Si number density = 19.491384 Si / 1000 Ang^3
#
#
#
# Elastic Constant Matrix: (Units=GPa)
#
#
# Indices 1 2 3 4 5 6 
#
# 1 67.4883 38.8905 67.9969 0.0000 0.0000 0.0000
# 2 38.8905 76.0987 57.2238 0.0000 0.0000 0.0000
# 3 67.9969 57.2238 198.0867 0.0000 0.0000 0.0000
# 4 0.0000 0.0000 0.0000 26.8334 0.0000 0.0000
# 5 0.0000 0.0000 0.0000 0.0000 37.4641 0.0000
# 6 0.0000 0.0000 0.0000 0.0000 0.0000 26.7491
#
#
#
# Elastic Compliance Matrix: (Units=1/GPa)
#
#
# Indices 1 2 3 4 5 6 
#
# 1 0.026366 -0.008519 -0.006589 0.000000 0.000000 0.000000
# 2 -0.008519 0.019540 -0.002720 0.000000 0.000000 0.000000
# 3 -0.006589 -0.002720 0.008096 0.000000 0.000000 0.000000
# 4 0.000000 0.000000 0.000000 0.037267 0.000000 0.000000
# 5 0.000000 0.000000 0.000000 0.000000 0.026692 0.000000
# 6 0.000000 0.000000 0.000000 0.000000 0.000000 0.037384
#
#
# Mechanical properties :
#
#
# Convention : Reuss Voigt Hill
#
# Bulk Modulus (GPa) = 54.51410 74.43291 64.47350
# Shear Modulus (GPa) = 25.36540 30.04682 27.70611
#
# Velocity S-wave (km/s) = 3.61136 3.93051 3.77431
# Velocity P-wave (km/s) = 6.73930 7.67262 7.22105
#
# Compressibility (1/GPa) = 0.01834388
#
# Stress axis : x y z
#
# Youngs Moduli (GPa) = 37.92791 51.17627 123.51538
#
# Poissons Ratio (x) = 0.43598 0.81390
# Poissons Ratio (y) = 0.32312 0.33602
# Poissons Ratio (z) = 0.24993 0.13922
#
# Static dielectric constant tensor:
#      x y z
#    x 1.638910 0.000000 0.000000 
#    y 0.000000 1.609280 0.000000 
#    z 0.000000 0.000000 1.686300 
# 
# From -- ./inp_files/20534.got.cif
#   From: 2010.05.17/outbox.cif.g08.bks.cpg/sg59_11_cif.got.tgz:20534.got - 2010.06.03 14:40:33.
