data_PCOD9451884
_publ_section_title
;
Structure prediction by ZEFSAII (Michael W. Deem and Ramdas Pophale) SiO2 
 PCOD9451884
Probable space group: P M M N
;
_chemical_formula_sum "Si O2"
_cell_formula_units_Z 48
_cell_length_a 7.504430
_cell_length_b 24.417072
_cell_length_c 11.086432
_cell_angle_alpha 90.000000
_cell_angle_beta 90.000000
_cell_angle_gamma 90.000000
_cell_volume 2031.435756
_symmetry_space_group_name_H-M "P M M N"
_symmetry_group_IT_number 59
_space_group.IT_coordinate_system_code '2'
_symmetry_cell_setting 'orthorhombic'
loop_
_space_group_symop_operation_xyz
x,y,z
1/2-x,1/2-y,z
1/2+x,-y,-z
-x,1/2+y,-z
-x,-y,-z
1/2+x,1/2+y,-z
1/2-x,y,z
x,1/2-y,z
loop_
_atom_site_type_symbol
_atom_site_label
_atom_site_fract_x
_atom_site_fract_y
_atom_site_fract_z
Si Si1 0.042066 0.188826 0.827784
Si Si2 0.543723 0.411456 0.699522
Si Si3 0.466850 0.312011 0.296353
Si Si4 0.967149 0.621250 0.944841
Si Si5 0.532453 0.981863 0.809092
Si Si6 0.964335 0.915994 0.568101
O O1 0.250000 0.195251 0.856924
O O2 0.967285 0.250000 0.814796
O O3 0.033913 0.149016 0.713115
O O4 0.965959 0.152223 0.936893
O O5 0.750000 0.405880 0.726926
O O6 0.466050 0.456210 0.792751
O O7 0.527759 0.432868 0.563303
O O8 0.250000 0.310561 0.298400
O O9 0.530955 0.250000 0.306192
O O10 0.514295 0.340693 0.169731
O O11 0.523122 0.354120 0.400192
O O12 0.750000 0.618695 0.948831
O O13 0.028201 0.559280 0.914419
O O14 0.750000 0.983483 0.813117
O O15 0.482318 0.952217 0.682896
O O16 0.750000 0.917302 0.565029
#
# Coordination Sequence:
#
# PCOD9451884 Si02
#       6
#     8   8   8   8   8   8
#     4  10  21  36  54  75  98 128 168 209 246 291
#     4  11  22  34  49  71 103 140 170 199 243 300
#     4   8  13  23  45  76 100 118 151 205 260 297
#     4   8  14  28  51  76  99 122 155 204 256 299
#     4   8  16  31  52  78 103 127 161 208 258 300
#     4   9  17  31  51  74 101 133 169 209 248 289
#
# _framework density 23.628609000000001
#
# number of rings (size 3 to 8) (size 9 to 14) (size 15 to 20)
#    0.000    3.000    0.000    3.500    0.000    3.667 
#    0.000    2.500    0.000    5.000    0.000    0.000 
#    0.000    0.000    0.000    0.000    0.000    0.000 
#
# Total GULP energy -267935.618986 kJ/mol
# GULP energy per Si atom -5581.992062 kJ/mol
# Density = 2.357483 g / cm^3
# Si number density = 23.628609 Si / 1000 Ang^3
#
#
#
# Elastic Constant Matrix: (Units=GPa)
#
#
# Indices 1 2 3 4 5 6 
#
# 1 64.6047 7.1736 -1.2924 0.0000 0.0000 0.0000
# 2 7.1736 141.1182 12.1782 0.0000 0.0000 0.0000
# 3 -1.2924 12.1782 61.2118 0.0000 0.0000 0.0000
# 4 0.0000 0.0000 0.0000 21.9070 0.0000 0.0000
# 5 0.0000 0.0000 0.0000 0.0000 5.8532 0.0000
# 6 0.0000 0.0000 0.0000 0.0000 0.0000 0.9800
#
#
#
# Elastic Compliance Matrix: (Units=1/GPa)
#
#
# Indices 1 2 3 4 5 6 
#
# 1 0.015581 -0.000835 0.000495 0.000000 0.000000 0.000000
# 2 -0.000835 0.007255 -0.001461 0.000000 0.000000 0.000000
# 3 0.000495 -0.001461 0.016638 0.000000 0.000000 0.000000
# 4 0.000000 0.000000 0.000000 0.045647 0.000000 0.000000
# 5 0.000000 0.000000 0.000000 0.000000 0.170847 0.000000
# 6 0.000000 0.000000 0.000000 0.000000 0.000000 1.020392
#
#
# Mechanical properties :
#
#
# Convention : Reuss Voigt Hill
#
# Bulk Modulus (GPa) = 27.87646 33.67261 30.77454
# Shear Modulus (GPa) = 3.87021 22.33974 13.10497
#
# Velocity S-wave (km/s) = 1.28121 3.07816 2.35760
# Velocity P-wave (km/s) = 3.74326 5.18798 4.52367
#
# Compressibility (1/GPa) = 0.03587256
#
# Stress axis : x y z
#
# Youngs Moduli (GPa) = 64.17933 137.84028 60.10401
#
# Poissons Ratio (x) = 0.11507 -0.02976
# Poissons Ratio (y) = 0.05358 0.08781
# Poissons Ratio (z) = -0.03177 0.20138
#
# Static dielectric constant tensor:
#      x y z
#    x 1.925080 0.000000 0.000000 
#    y 0.000000 1.922940 0.000000 
#    z 0.000000 0.000000 1.893430 
# 
# From -- ./inp_files/14300.got.cif
#   From: 2010.05.17/outbox.cif.g08.bks.cpg/sg59_8_cif.got.tgz:14300.got - 2010.06.03 14:40:33.
