data_PCOD9451613
_publ_section_title
;
Structure prediction by ZEFSAII (Michael W. Deem and Ramdas Pophale) SiO2 
 PCOD9451613
Probable space group: P M M N
;
_chemical_formula_sum "Si O2"
_cell_formula_units_Z 34
_cell_length_a 28.635727
_cell_length_b 7.756358
_cell_length_c 7.171692
_cell_angle_alpha 90.000000
_cell_angle_beta 90.000000
_cell_angle_gamma 90.000000
_cell_volume 1592.896981
_symmetry_space_group_name_H-M "P M M N"
_symmetry_group_IT_number 59
_space_group.IT_coordinate_system_code '2'
_symmetry_cell_setting 'orthorhombic'
loop_
_space_group_symop_operation_xyz
x,y,z
1/2-x,1/2-y,z
1/2+x,-y,-z
-x,1/2+y,-z
-x,-y,-z
1/2+x,1/2+y,-z
1/2-x,y,z
x,1/2-y,z
loop_
_atom_site_type_symbol
_atom_site_label
_atom_site_fract_x
_atom_site_fract_y
_atom_site_fract_z
Si Si1 0.891740 0.540742 0.640882
Si Si2 0.092892 0.452601 0.789928
Si Si3 0.507892 0.544906 0.718417
Si Si4 0.750000 0.750000 0.997379
Si Si5 0.174893 0.941448 0.053627
O O1 0.890213 0.750000 0.650614
O O2 0.897291 0.493304 0.424383
O O3 0.939071 0.483807 0.748236
O O4 0.846126 0.468749 0.739218
O O5 0.102515 0.250000 0.806080
O O6 0.037407 0.474940 0.823979
O O7 0.129366 0.545242 0.921848
O O8 0.500000 0.500000 0.500000
O O9 0.507326 0.750000 0.739985
O O10 0.790502 0.596928 0.992294
O O11 0.194965 0.750000 0.035968
#
# Coordination Sequence:
#
# PCOD9451613 Si02
#       5
#     8   8   8   2   8
#     4   9  19  38  62  91 131 172 206 254 314 372
#     4  10  20  38  63  92 132 171 206 259 312 373
#     4   9  17  30  54  89 130 171 207 248 305 372
#     4  12  26  52  66  90 132 154 218 288 318 376
#     4  12  25  43  70  93 119 166 211 264 332 378
#
# _framework density 21.344757000000001
#
# number of rings (size 3 to 8) (size 9 to 14) (size 15 to 20)
#    0.000    1.882    2.353    3.176    0.000    6.588 
#    0.000    2.353    0.000    2.824    0.000    0.000 
#    0.000    0.000    0.000    0.000    0.000    0.000 
#
# Total GULP energy -189370.463482 kJ/mol
# GULP energy per Si atom -5569.719514 kJ/mol
# Density = 2.129618 g / cm^3
# Si number density = 21.344757 Si / 1000 Ang^3
#
#
#
# Elastic Constant Matrix: (Units=GPa)
#
#
# Indices 1 2 3 4 5 6 
#
# 1 116.6977 46.2270 17.9910 0.0000 0.0000 0.0000
# 2 46.2270 124.6676 15.6027 0.0000 0.0000 0.0000
# 3 17.9910 15.6027 49.6041 0.0000 0.0000 0.0000
# 4 0.0000 0.0000 0.0000 18.7200 0.0000 0.0000
# 5 0.0000 0.0000 0.0000 0.0000 -8.3518 0.0000
# 6 0.0000 0.0000 0.0000 0.0000 0.0000 38.6550
#
#
#
# Elastic Compliance Matrix: (Units=1/GPa)
#
#
# Indices 1 2 3 4 5 6 
#
# 1 0.010370 -0.003513 -0.002656 0.000000 0.000000 0.000000
# 2 -0.003513 0.009540 -0.001727 0.000000 0.000000 0.000000
# 3 -0.002656 -0.001727 0.021666 0.000000 0.000000 0.000000
# 4 0.000000 0.000000 0.000000 0.053419 0.000000 0.000000
# 5 0.000000 0.000000 0.000000 0.000000 -0.119735 0.000000
# 6 0.000000 0.000000 0.000000 0.000000 0.000000 0.025870
#
#
# Mechanical properties :
#
#
# Convention : Reuss Voigt Hill
#
# Bulk Modulus (GPa) = 38.78252 50.06786 44.42519
# Shear Modulus (GPa) = 195.95112 23.88122 109.91617
#
# Velocity S-wave (km/s) = 9.59178 3.34853 7.18383
# Velocity P-wave (km/s) = 11.86923 6.20144 9.46933
#
# Compressibility (1/GPa) = 0.02578481
#
# Stress axis : x y z
#
# Youngs Moduli (GPa) = 96.43033 104.82182 46.15495
#
# Poissons Ratio (x) = 0.36822 0.12260
# Poissons Ratio (y) = 0.33874 0.07969
# Poissons Ratio (z) = 0.25614 0.18099
#
# Static dielectric constant tensor:
#      x y z
#    x 1.753110 0.000000 0.000000 
#    y 0.000000 1.761790 0.000000 
#    z 0.000000 0.000000 1.809570 
# 
# From -- ./inp_files/10972.got.cif
#   From: 2010.05.17/outbox.cif.g08.bks.cpg/sg59_6_cif.got.tgz:10972.got - 2010.06.03 14:40:33.
