data_PCOD9451594
_publ_section_title
;
Structure prediction by ZEFSAII (Michael W. Deem and Ramdas Pophale) SiO2 
 PCOD9451594
Probable space group: P M M N
;
_chemical_formula_sum "Si O2"
_cell_formula_units_Z 48
_cell_length_a 31.037517
_cell_length_b 8.554332
_cell_length_c 9.707674
_cell_angle_alpha 90.000000
_cell_angle_beta 90.000000
_cell_angle_gamma 90.000000
_cell_volume 2577.438168
_symmetry_space_group_name_H-M "P M M N"
_symmetry_group_IT_number 59
_space_group.IT_coordinate_system_code '2'
_symmetry_cell_setting 'orthorhombic'
loop_
_space_group_symop_operation_xyz
x,y,z
1/2-x,1/2-y,z
1/2+x,-y,-z
-x,1/2+y,-z
-x,-y,-z
1/2+x,1/2+y,-z
1/2-x,y,z
x,1/2-y,z
loop_
_atom_site_type_symbol
_atom_site_label
_atom_site_fract_x
_atom_site_fract_y
_atom_site_fract_z
Si Si1 0.076455 0.939499 0.652920
Si Si2 0.325718 0.436826 0.347972
Si Si3 0.921388 0.061847 0.661538
Si Si4 0.001454 0.437984 0.154574
Si Si5 0.675124 0.438293 0.345674
Si Si6 0.750000 0.436558 0.842133
Si Si7 0.750000 0.936216 0.151616
O O1 0.076107 0.750000 0.655296
O O2 0.066629 0.986159 0.495373
O O3 0.125610 0.986666 0.684605
O O4 0.040399 0.993866 0.759177
O O5 0.324920 0.250000 0.353224
O O6 0.373632 0.496544 0.312702
O O7 0.314852 0.503751 0.499724
O O8 0.291554 0.498080 0.237870
O O9 0.920017 0.250000 0.667121
O O10 0.956261 0.997713 0.767011
O O11 0.001401 0.250000 0.153529
O O12 0.000000 0.500000 0.000000
O O13 0.677507 0.250000 0.343725
O O14 0.708459 0.507410 0.237436
O O15 0.750000 0.250000 0.835360
O O16 0.750000 0.491091 0.999832
O O17 0.750000 0.750000 0.141470
#
# Coordination Sequence:
#
# PCOD9451594 Si02
#       7
#     8   8   8   8   8   4   4
#     4   8  18  36  60  84 110 144 190 238 283 335
#     4  11  22  39  62  90 118 149 190 242 293 343
#     4  10  20  38  61  86 112 147 192 239 288 346
#     4  11  22  37  55  82 117 154 191 236 290 347
#     4  10  20  39  63  87 113 151 197 241 289 348
#     4  12  25  42  61  84 116 158 196 234 285 348
#     4  12  25  40  57  86 122 156 194 242 291 342
#
# _framework density 18.623142999999999
#
# number of rings (size 3 to 8) (size 9 to 14) (size 15 to 20)
#    0.000    1.667    0.000    6.500    0.000    1.333 
#    0.000   14.167    0.000    0.000    0.000    0.000 
#    0.000    0.000    0.000    0.000    0.000    0.000 
#
# Total GULP energy -268292.821090 kJ/mol
# GULP energy per Si atom -5589.433773 kJ/mol
# Density = 1.858076 g / cm^3
# Si number density = 18.623143 Si / 1000 Ang^3
#
#
#
# Elastic Constant Matrix: (Units=GPa)
#
#
# Indices 1 2 3 4 5 6 
#
# 1 138.0090 40.2662 122.1276 0.0000 0.0000 0.0000
# 2 40.2662 99.0941 36.9604 0.0000 0.0000 0.0000
# 3 122.1276 36.9604 151.7508 0.0000 0.0000 0.0000
# 4 0.0000 0.0000 0.0000 32.1614 0.0000 0.0000
# 5 0.0000 0.0000 0.0000 0.0000 -23.0296 0.0000
# 6 0.0000 0.0000 0.0000 0.0000 0.0000 24.7758
#
#
#
# Elastic Compliance Matrix: (Units=1/GPa)
#
#
# Indices 1 2 3 4 5 6 
#
# 1 0.025979 -0.003034 -0.020168 0.000000 0.000000 0.000000
# 2 -0.003034 0.011454 -0.000348 0.000000 0.000000 0.000000
# 3 -0.020168 -0.000348 0.022906 0.000000 0.000000 0.000000
# 4 0.000000 0.000000 0.000000 0.031093 0.000000 0.000000
# 5 0.000000 0.000000 0.000000 0.000000 -0.043422 0.000000
# 6 0.000000 0.000000 0.000000 0.000000 0.000000 0.040362
#
#
# Mechanical properties :
#
#
# Convention : Reuss Voigt Hill
#
# Bulk Modulus (GPa) = 75.54138 87.50692 81.52415
# Shear Modulus (GPa) = 35.74374 19.41483 27.57929
#
# Velocity S-wave (km/s) = 4.38576 3.23230 3.85244
# Velocity P-wave (km/s) = 8.14234 7.81157 7.97867
#
# Compressibility (1/GPa) = 0.01323778
#
# Stress axis : x y z
#
# Youngs Moduli (GPa) = 38.49326 87.30551 43.65686
#
# Poissons Ratio (x) = 0.26486 0.88049
# Poissons Ratio (y) = 0.11678 0.01520
# Poissons Ratio (z) = 0.77635 0.03040
#
# Static dielectric constant tensor:
#      x y z
#    x 1.639040 0.000000 0.000000 
#    y 0.000000 1.627680 0.000000 
#    z 0.000000 0.000000 1.607860 
# 
# From -- ./inp_files/13076.got.cif
#   From: 2010.05.17/outbox.cif.g08.bks.cpg/sg59_7_cif.got.tgz:13076.got - 2010.06.03 14:40:33.
