data_PCOD9451829
_publ_section_title
;
Structure prediction by ZEFSAII (Michael W. Deem and Ramdas Pophale) SiO2 
 PCOD9451829
Probable space group: P M M N
;
_chemical_formula_sum "Si O2"
_cell_formula_units_Z 56
_cell_length_a 23.572426
_cell_length_b 7.954636
_cell_length_c 17.414899
_cell_angle_alpha 90.000000
_cell_angle_beta 90.000000
_cell_angle_gamma 90.000000
_cell_volume 3265.468904
_symmetry_space_group_name_H-M "P M M N"
_symmetry_group_IT_number 59
_space_group.IT_coordinate_system_code '2'
_symmetry_cell_setting 'orthorhombic'
loop_
_space_group_symop_operation_xyz
x,y,z
1/2-x,1/2-y,z
1/2+x,-y,-z
-x,1/2+y,-z
-x,-y,-z
1/2+x,1/2+y,-z
1/2-x,y,z
x,1/2-y,z
loop_
_atom_site_type_symbol
_atom_site_label
_atom_site_fract_x
_atom_site_fract_y
_atom_site_fract_z
Si Si1 0.368081 0.046472 0.146723
Si Si2 0.181081 0.750000 0.422786
Si Si3 0.512321 0.554855 0.912995
Si Si4 0.812971 0.449708 0.009442
Si Si5 0.105568 0.446068 0.856642
Si Si6 0.682355 0.550322 0.288401
Si Si7 0.181417 0.750000 0.597786
Si Si8 0.681610 0.552889 0.688629
O O1 0.367148 0.250000 0.146026
O O2 0.430854 0.979976 0.124659
O O3 0.346903 0.999408 0.231126
O O4 0.327167 0.986650 0.078740
O O5 0.250000 0.750000 0.425011
O O6 0.160218 0.750000 0.510437
O O7 0.164919 0.580796 0.376743
O O8 0.524305 0.750000 0.918708
O O9 0.455529 0.530219 0.863932
O O10 0.500000 0.500000 0.000000
O O11 0.750000 0.513248 0.028812
O O12 0.814299 0.250000 0.021618
O O13 0.860128 0.527132 0.064567
O O14 0.094486 0.250000 0.847212
O O15 0.145980 0.498267 0.786547
O O16 0.750000 0.531561 0.273095
O O17 0.673099 0.750000 0.305561
O O18 0.666420 0.419642 0.355549
O O19 0.250000 0.750000 0.594351
O O20 0.750000 0.545136 0.697591
O O21 0.667608 0.750000 0.672214
#
# Coordination Sequence:
#
# PCOD9451829 Si02
#       8
#     8   4   8   8   8   8   4   8
#     4  10  21  36  52  71 101 139 179 220 265 311
#     4   9  18  32  52  83 113 139 169 206 262 329
#     4  11  22  36  53  73 100 137 180 229 266 305
#     4  11  23  33  48  74 100 136 179 217 262 314
#     4  11  22  36  52  72 103 140 180 223 265 311
#     4   9  19  34  53  79 110 141 176 217 262 318
#     4   9  18  32  54  81 113 143 167 206 264 327
#     4   9  18  33  53  77 108 140 173 216 263 316
#
# _framework density 17.149144
#
# number of rings (size 3 to 8) (size 9 to 14) (size 15 to 20)
#    0.000    2.000    1.429    2.143    3.000    3.429 
#    0.000    2.857    0.000    0.000    0.000    1.000 
#    0.000    0.000    0.000    0.000    0.000    0.000 
#
# Total GULP energy -312298.791134 kJ/mol
# GULP energy per Si atom -5576.764127 kJ/mol
# Density = 1.711011 g / cm^3
# Si number density = 17.149144 Si / 1000 Ang^3
#
#
#
# Elastic Constant Matrix: (Units=GPa)
#
#
# Indices 1 2 3 4 5 6 
#
# 1 47.6364 8.6027 10.8375 0.0000 0.0000 0.0000
# 2 8.6027 52.2331 42.2111 0.0000 0.0000 0.0000
# 3 10.8375 42.2111 103.8042 0.0000 0.0000 0.0000
# 4 0.0000 0.0000 0.0000 29.3757 0.0000 0.0000
# 5 0.0000 0.0000 0.0000 0.0000 3.4792 0.0000
# 6 0.0000 0.0000 0.0000 0.0000 0.0000 17.4754
#
#
#
# Elastic Compliance Matrix: (Units=1/GPa)
#
#
# Indices 1 2 3 4 5 6 
#
# 1 0.021738 -0.002601 -0.001212 0.000000 0.000000 0.000000
# 2 -0.002601 0.028827 -0.011451 0.000000 0.000000 0.000000
# 3 -0.001212 -0.011451 0.014416 0.000000 0.000000 0.000000
# 4 0.000000 0.000000 0.000000 0.034042 0.000000 0.000000
# 5 0.000000 0.000000 0.000000 0.000000 0.287426 0.000000
# 6 0.000000 0.000000 0.000000 0.000000 0.000000 0.057223
#
#
# Mechanical properties :
#
#
# Convention : Reuss Voigt Hill
#
# Bulk Modulus (GPa) = 29.02396 36.33069 32.67733
# Shear Modulus (GPa) = 10.29477 19.53421 14.91449
#
# Velocity S-wave (km/s) = 2.45278 3.37868 2.95226
# Velocity P-wave (km/s) = 4.99827 6.03753 5.54231
#
# Compressibility (1/GPa) = 0.03445429
#
# Stress axis : x y z
#
# Youngs Moduli (GPa) = 46.00292 34.68981 69.36554
#
# Poissons Ratio (x) = 0.09022 0.08406
# Poissons Ratio (y) = 0.11964 0.79428
# Poissons Ratio (z) = 0.05575 0.39722
#
# Static dielectric constant tensor:
#      x y z
#    x 1.606340 0.000000 0.000000 
#    y 0.000000 1.598820 0.000000 
#    z 0.000000 0.000000 1.302180 
# 
# From -- ./inp_files/21131.got.cif
#   From: 2010.05.17/outbox.cif.g08.bks.cpg/sg59_11_cif.got.tgz:21131.got - 2010.06.03 14:40:33.
