data_PCOD9451957
_publ_section_title
;
Structure prediction by ZEFSAII (Michael W. Deem and Ramdas Pophale) SiO2 
 PCOD9451957
Probable space group: P M M N
;
_chemical_formula_sum "Si O2"
_cell_formula_units_Z 64
_cell_length_a 19.977619
_cell_length_b 8.962620
_cell_length_c 20.572626
_cell_angle_alpha 90.000000
_cell_angle_beta 90.000000
_cell_angle_gamma 90.000000
_cell_volume 3683.565872
_symmetry_space_group_name_H-M "P M M N"
_symmetry_group_IT_number 59
_space_group.IT_coordinate_system_code '2'
_symmetry_cell_setting 'orthorhombic'
loop_
_space_group_symop_operation_xyz
x,y,z
1/2-x,1/2-y,z
1/2+x,-y,-z
-x,1/2+y,-z
-x,-y,-z
1/2+x,1/2+y,-z
1/2-x,y,z
x,1/2-y,z
loop_
_atom_site_type_symbol
_atom_site_label
_atom_site_fract_x
_atom_site_fract_y
_atom_site_fract_z
Si Si1 0.070277 0.071835 0.174963
Si Si2 0.329034 0.572369 0.923615
Si Si3 0.171735 0.572610 0.431582
Si Si4 0.328457 0.571449 0.074530
Si Si5 0.329033 0.072261 0.570416
Si Si6 0.425831 0.072182 0.819629
Si Si7 0.421071 0.571628 0.680102
Si Si8 0.078082 0.072734 0.324982
O O1 0.060821 0.250000 0.170792
O O2 0.091850 0.037660 0.249253
O O3 0.124307 0.015155 0.123741
O O4 0.999286 0.992016 0.163966
O O5 0.250000 0.545020 0.913189
O O6 0.340449 0.750000 0.914695
O O7 0.374091 0.481497 0.874079
O O8 0.343961 0.536643 0.999082
O O9 0.250000 0.539640 0.417368
O O10 0.165020 0.750000 0.440040
O O11 0.154379 0.491513 0.499165
O O12 0.124816 0.515768 0.374006
O O13 0.250000 0.537594 0.085445
O O14 0.336938 0.750000 0.082822
O O15 0.250000 0.042410 0.581679
O O16 0.339222 0.250000 0.571744
O O17 0.373575 0.993977 0.624901
O O18 0.427980 0.250000 0.815294
O O19 0.406719 0.002753 0.749746
O O20 0.413492 0.750000 0.685368
O O21 0.499270 0.540928 0.664374
O O22 0.088311 0.250000 0.334408
#
# Coordination Sequence:
#
# PCOD9451957 Si02
#       8
#     8   8   8   8   8   8   8   8
#     4  10  21  37  56  79 109 144 182 222 267 322
#     4   9  19  37  58  79 107 143 180 220 268 321
#     4  10  21  36  55  80 108 140 178 218 263 315
#     4   9  19  36  57  81 109 141 179 223 270 320
#     4  10  21  37  57  81 109 141 178 220 264 312
#     4  11  22  36  56  81 109 141 179 224 270 317
#     4  10  21  38  58  80 108 141 178 220 266 319
#     4   9  20  37  55  77 105 139 178 218 262 313
#
# _framework density 17.374468
#
# number of rings (size 3 to 8) (size 9 to 14) (size 15 to 20)
#    0.000    2.250    0.000    4.125    0.000    7.500 
#    0.000    3.750    0.000    0.000    0.000    0.000 
#    0.000    0.000    0.000    0.000    0.000    0.000 
#
# Total GULP energy -357333.079216 kJ/mol
# GULP energy per Si atom -5583.329363 kJ/mol
# Density = 1.733492 g / cm^3
# Si number density = 17.374468 Si / 1000 Ang^3
#
#
#
# Elastic Constant Matrix: (Units=GPa)
#
#
# Indices 1 2 3 4 5 6 
#
# 1 89.4638 78.3977 106.1137 0.0000 0.0000 0.0000
# 2 78.3977 99.7289 95.2793 0.0000 0.0000 0.0000
# 3 106.1137 95.2793 146.4388 0.0000 0.0000 0.0000
# 4 0.0000 0.0000 0.0000 36.3597 0.0000 0.0000
# 5 0.0000 0.0000 0.0000 0.0000 41.3208 0.0000
# 6 0.0000 0.0000 0.0000 0.0000 0.0000 33.5480
#
#
#
# Elastic Compliance Matrix: (Units=1/GPa)
#
#
# Indices 1 2 3 4 5 6 
#
# 1 0.097549 -0.024185 -0.054951 0.000000 0.000000 0.000000
# 2 -0.024185 0.032496 -0.003618 0.000000 0.000000 0.000000
# 3 -0.054951 -0.003618 0.049002 0.000000 0.000000 0.000000
# 4 0.000000 0.000000 0.000000 0.027503 0.000000 0.000000
# 5 0.000000 0.000000 0.000000 0.000000 0.024201 0.000000
# 6 0.000000 0.000000 0.000000 0.000000 0.000000 0.029808
#
#
# Mechanical properties :
#
#
# Convention : Reuss Voigt Hill
#
# Bulk Modulus (GPa) = 73.86225 99.46810 86.66517
# Shear Modulus (GPa) = 11.61228 25.96841 18.79034
#
# Velocity S-wave (km/s) = 2.58806 3.87024 3.29217
# Velocity P-wave (km/s) = 7.17879 8.79463 8.02747
#
# Compressibility (1/GPa) = 0.01353872
#
# Stress axis : x y z
#
# Youngs Moduli (GPa) = 10.25129 30.77331 20.40735
#
# Poissons Ratio (x) = 0.74424 1.12140
# Poissons Ratio (y) = 0.24792 0.07384
# Poissons Ratio (z) = 0.56332 0.11134
#
# Static dielectric constant tensor:
#      x y z
#    x 1.568010 0.000000 0.000000 
#    y 0.000000 1.576660 0.000000 
#    z 0.000000 0.000000 1.562400 
# 
# From -- ./inp_files/28273.got.cif
#   From: 2010.05.17/outbox.cif.g08.bks.cpg/sg59_15_cif.got.tgz:28273.got - 2010.06.03 14:40:33.
