data_PCOD9451263
_publ_section_title
;
Structure prediction by ZEFSAII (Michael W. Deem and Ramdas Pophale) SiO2 
 PCOD9451263
Probable space group: P M M N
;
_chemical_formula_sum "Si O2"
_cell_formula_units_Z 64
_cell_length_a 8.623811
_cell_length_b 19.041421
_cell_length_c 21.762684
_cell_angle_alpha 90.000000
_cell_angle_beta 90.000000
_cell_angle_gamma 90.000000
_cell_volume 3573.641980
_symmetry_space_group_name_H-M "P M M N"
_symmetry_group_IT_number 59
_space_group.IT_coordinate_system_code '2'
_symmetry_cell_setting 'orthorhombic'
loop_
_space_group_symop_operation_xyz
x,y,z
1/2-x,1/2-y,z
1/2+x,-y,-z
-x,1/2+y,-z
-x,-y,-z
1/2+x,1/2+y,-z
1/2-x,y,z
x,1/2-y,z
loop_
_atom_site_type_symbol
_atom_site_label
_atom_site_fract_x
_atom_site_fract_y
_atom_site_fract_z
Si Si1 0.564840 0.534961 0.813434
Si Si2 0.564262 0.107255 0.747858
Si Si3 0.562725 0.169023 0.252006
Si Si4 0.061512 0.829461 0.608146
Si Si5 0.937268 0.671015 0.127100
Si Si6 0.936783 0.421673 0.506265
Si Si7 0.063885 0.167932 0.620464
Si Si8 0.564796 0.969710 0.063060
O O1 0.750000 0.533240 0.818840
O O2 0.519821 0.473218 0.765036
O O3 0.509016 0.610451 0.791107
O O4 0.492115 0.514390 0.878621
O O5 0.750000 0.110935 0.742539
O O6 0.509221 0.151861 0.806871
O O7 0.489981 0.136431 0.685730
O O8 0.750000 0.165052 0.249166
O O9 0.519689 0.250000 0.238382
O O10 0.513883 0.153320 0.322420
O O11 0.250000 0.829832 0.608349
O O12 0.011809 0.750000 0.594359
O O13 0.009755 0.880724 0.554899
O O14 0.750000 0.667936 0.133237
O O15 0.980491 0.750000 0.108973
O O16 0.984313 0.610389 0.079195
O O17 0.750000 0.422825 0.507908
O O18 0.000000 0.500000 0.500000
O O19 0.995941 0.379437 0.565685
O O20 0.250000 0.165842 0.617500
O O21 0.014843 0.250000 0.615168
O O22 0.750000 0.971225 0.060489
O O23 0.500000 0.000000 0.000000
#
# Coordination Sequence:
#
# PCOD9451263 Si02
#       8
#     8   8   8   8   8   8   8   8
#     4  10  21  36  55  82 114 146 182 224 271 327
#     4  10  21  35  54  83 114 145 181 225 276 331
#     4   9  18  34  57  83 108 138 181 229 277 330
#     4   8  16  33  56  78 100 134 179 224 273 330
#     4   9  18  34  56  82 111 144 183 225 272 326
#     4  11  23  38  56  80 109 144 185 230 280 336
#     4  11  24  40  57  79 109 146 187 231 280 334
#     4  10  20  36  58  82 111 149 187 226 271 322
#
# _framework density 17.908901
#
# number of rings (size 3 to 8) (size 9 to 14) (size 15 to 20)
#    0.000    2.250    0.000    3.375    1.750    5.500 
#    0.000    1.250    0.000    3.750    0.000    0.000 
#    0.000    0.000    0.000    0.000    0.000    0.000 
#
# Total GULP energy -357190.261517 kJ/mol
# GULP energy per Si atom -5581.097836 kJ/mol
# Density = 1.786814 g / cm^3
# Si number density = 17.908901 Si / 1000 Ang^3
#
#
#
# Elastic Constant Matrix: (Units=GPa)
#
#
# Indices 1 2 3 4 5 6 
#
# 1 40.1294 46.2493 39.0705 0.0000 0.0000 0.0000
# 2 46.2493 161.6973 116.9641 0.0000 0.0000 0.0000
# 3 39.0705 116.9641 125.1729 0.0000 0.0000 0.0000
# 4 0.0000 0.0000 0.0000 24.1765 0.0000 0.0000
# 5 0.0000 0.0000 0.0000 0.0000 29.3231 0.0000
# 6 0.0000 0.0000 0.0000 0.0000 0.0000 27.3836
#
#
#
# Elastic Compliance Matrix: (Units=1/GPa)
#
#
# Indices 1 2 3 4 5 6 
#
# 1 0.038280 -0.007116 -0.005299 0.000000 0.000000 0.000000
# 2 -0.007116 0.020405 -0.016846 0.000000 0.000000 0.000000
# 3 -0.005299 -0.016846 0.025384 0.000000 0.000000 0.000000
# 4 0.000000 0.000000 0.000000 0.041363 0.000000 0.000000
# 5 0.000000 0.000000 0.000000 0.000000 0.034103 0.000000
# 6 0.000000 0.000000 0.000000 0.000000 0.000000 0.036518
#
#
# Mechanical properties :
#
#
# Convention : Reuss Voigt Hill
#
# Bulk Modulus (GPa) = 39.14320 81.28527 60.21423
# Shear Modulus (GPa) = 19.00483 24.49101 21.74792
#
# Velocity S-wave (km/s) = 3.26113 3.70203 3.48855
# Velocity P-wave (km/s) = 6.00702 7.98499 7.06556
#
# Compressibility (1/GPa) = 0.02554722
#
# Stress axis : x y z
#
# Youngs Moduli (GPa) = 26.12352 49.00680 39.39419
#
# Poissons Ratio (x) = 0.34871 0.20876
# Poissons Ratio (y) = 0.18588 0.66364
# Poissons Ratio (z) = 0.13844 0.82558
#
# Static dielectric constant tensor:
#      x y z
#    x 1.607050 0.000000 0.000000 
#    y 0.000000 1.602770 0.000000 
#    z 0.000000 0.000000 1.579050 
# 
# From -- ./inp_files/29497.got.cif
#   From: 2010.05.17/outbox.cif.g08.bks.cpg/sg59_15_cif.got.tgz:29497.got - 2010.06.03 14:40:33.
