data_PCOD9451383
_publ_section_title
;
Structure prediction by ZEFSAII (Michael W. Deem and Ramdas Pophale) SiO2 
 PCOD9451383
Probable space group: P M M N
;
_chemical_formula_sum "Si O2"
_cell_formula_units_Z 64
_cell_length_a 14.783103
_cell_length_b 24.390357
_cell_length_c 7.879702
_cell_angle_alpha 90.000000
_cell_angle_beta 90.000000
_cell_angle_gamma 90.000000
_cell_volume 2841.146010
_symmetry_space_group_name_H-M "P M M N"
_symmetry_group_IT_number 59
_space_group.IT_coordinate_system_code '2'
_symmetry_cell_setting 'orthorhombic'
loop_
_space_group_symop_operation_xyz
x,y,z
1/2-x,1/2-y,z
1/2+x,-y,-z
-x,1/2+y,-z
-x,-y,-z
1/2+x,1/2+y,-z
1/2-x,y,z
x,1/2-y,z
loop_
_atom_site_type_symbol
_atom_site_label
_atom_site_fract_x
_atom_site_fract_y
_atom_site_fract_z
Si Si1 0.359171 0.122179 0.129853
Si Si2 0.959318 0.661404 0.539682
Si Si3 0.849751 0.473971 0.219269
Si Si4 0.992487 0.547743 0.366637
Si Si5 0.651487 0.315695 0.914635
Si Si6 0.149460 0.993762 0.167783
Si Si7 0.853711 0.150675 0.309650
Si Si8 0.451324 0.312201 0.827871
O O1 0.250000 0.124745 0.129572
O O2 0.401281 0.156607 0.287737
O O3 0.384462 0.057275 0.153103
O O4 0.397337 0.147776 0.954556
O O5 0.964111 0.600788 0.463439
O O6 0.923073 0.690699 0.370110
O O7 0.062571 0.677302 0.590172
O O8 0.750000 0.489478 0.281226
O O9 0.915872 0.524488 0.244487
O O10 0.871837 0.415109 0.300849
O O11 0.846613 0.467437 0.017802
O O12 0.000000 0.500000 0.500000
O O13 0.087270 0.546023 0.274149
O O14 0.750000 0.337994 0.855813
O O15 0.655275 0.250000 0.894876
O O16 0.643799 0.329127 0.114863
O O17 0.556467 0.331837 0.830415
O O18 0.250000 0.997245 0.240352
O O19 0.750000 0.159817 0.371233
O O20 0.446948 0.250000 0.897282
#
# Coordination Sequence:
#
# PCOD9451383 Si02
#       8
#     8   8   8   8   8   8   8   8
#     4  11  24  46  70  93 127 171 221 278 337 393
#     4  12  25  41  64  99 133 171 220 266 332 399
#     4  10  21  36  57  86 123 168 215 259 306 369
#     4  12  22  35  58  88 127 170 206 260 309 383
#     4   9  19  38  64  91 122 161 203 253 313 379
#     4  10  22  39  61  90 125 171 221 264 318 383
#     4  10  20  36  60  92 129 168 212 256 309 383
#     4  11  26  45  69  97 127 164 216 278 336 396
#
# _framework density 22.526119999999999
#
# number of rings (size 3 to 8) (size 9 to 14) (size 15 to 20)
#    0.000    1.375    3.750    1.125    1.750    3.750 
#    0.000    0.000    0.000    0.000    0.000    0.000 
#    0.000    0.000    0.000    0.000    0.000    0.000 
#
# Total GULP energy -357329.603271 kJ/mol
# GULP energy per Si atom -5583.275051 kJ/mol
# Density = 2.247485 g / cm^3
# Si number density = 22.526120 Si / 1000 Ang^3
#
#
#
# Elastic Constant Matrix: (Units=GPa)
#
#
# Indices 1 2 3 4 5 6 
#
# 1 79.2372 13.7331 31.5278 0.0000 0.0000 0.0000
# 2 13.7331 73.2015 9.6212 0.0000 0.0000 0.0000
# 3 31.5278 9.6212 93.1980 0.0000 0.0000 0.0000
# 4 0.0000 0.0000 0.0000 25.4918 0.0000 0.0000
# 5 0.0000 0.0000 0.0000 0.0000 26.8938 0.0000
# 6 0.0000 0.0000 0.0000 0.0000 0.0000 20.7062
#
#
#
# Elastic Compliance Matrix: (Units=1/GPa)
#
#
# Indices 1 2 3 4 5 6 
#
# 1 0.014914 -0.002164 -0.004822 0.000000 0.000000 0.000000
# 2 -0.002164 0.014163 -0.000730 0.000000 0.000000 0.000000
# 3 -0.004822 -0.000730 0.012436 0.000000 0.000000 0.000000
# 4 0.000000 0.000000 0.000000 0.039228 0.000000 0.000000
# 5 0.000000 0.000000 0.000000 0.000000 0.037183 0.000000
# 6 0.000000 0.000000 0.000000 0.000000 0.000000 0.048295
#
#
# Mechanical properties :
#
#
# Convention : Reuss Voigt Hill
#
# Bulk Modulus (GPa) = 38.34171 39.48900 38.91535
# Shear Modulus (GPa) = 26.26805 27.33533 26.80169
#
# Velocity S-wave (km/s) = 3.41855 3.48730 3.45310
# Velocity P-wave (km/s) = 5.71313 5.81235 5.76296
#
# Compressibility (1/GPa) = 0.02608126
#
# Stress axis : x y z
#
# Youngs Moduli (GPa) = 67.05118 70.60705 80.40936
#
# Poissons Ratio (x) = 0.15281 0.38772
# Poissons Ratio (y) = 0.14511 0.05870
# Poissons Ratio (z) = 0.32331 0.05154
#
# Static dielectric constant tensor:
#      x y z
#    x 1.697500 0.000000 0.000000 
#    y 0.000000 1.798720 0.000000 
#    z 0.000000 0.000000 1.880300 
# 
# From -- ./inp_files/9550.got.cif
#   From: 2010.05.17/outbox.cif.g08.bks.cpg/sg59_5_cif.got.tgz:9550.got - 2010.06.03 14:40:33.
