data_PCOD9451455
_publ_section_title
;
Structure prediction by ZEFSAII (Michael W. Deem and Ramdas Pophale) SiO2 
 PCOD9451455
Probable space group: P M M N
;
_chemical_formula_sum "Si O2"
_cell_formula_units_Z 48
_cell_length_a 32.151971
_cell_length_b 8.753373
_cell_length_c 9.232751
_cell_angle_alpha 90.000000
_cell_angle_beta 90.000000
_cell_angle_gamma 90.000000
_cell_volume 2598.448775
_symmetry_space_group_name_H-M "P M M N"
_symmetry_group_IT_number 59
_space_group.IT_coordinate_system_code '2'
_symmetry_cell_setting 'orthorhombic'
loop_
_space_group_symop_operation_xyz
x,y,z
1/2-x,1/2-y,z
1/2+x,-y,-z
-x,1/2+y,-z
-x,-y,-z
1/2+x,1/2+y,-z
1/2-x,y,z
x,1/2-y,z
loop_
_atom_site_type_symbol
_atom_site_label
_atom_site_fract_x
_atom_site_fract_y
_atom_site_fract_z
Si Si1 0.750000 0.435640 0.328412
Si Si2 0.668488 0.435262 0.149568
Si Si3 0.414005 0.566615 0.675895
Si Si4 0.670518 0.931744 0.827913
Si Si5 0.250000 0.565931 0.337109
Si Si6 0.999646 0.567495 0.337759
Si Si7 0.408336 0.566142 0.334537
O O1 0.750000 0.250000 0.329686
O O2 0.708466 0.482961 0.243957
O O3 0.750000 0.484391 0.495165
O O4 0.669105 0.250000 0.138112
O O5 0.625972 0.478902 0.231220
O O6 0.670684 0.506011 0.991189
O O7 0.417870 0.750000 0.680659
O O8 0.457414 0.496272 0.730424
O O9 0.407264 0.526383 0.506114
O O10 0.674189 0.750000 0.827022
O O11 0.709153 0.004629 0.742359
O O12 0.628057 0.983736 0.750472
O O13 0.250000 0.750000 0.332444
O O14 0.997434 0.750000 0.345831
O O15 0.045276 0.527952 0.276701
O O16 0.000000 0.500000 0.500000
O O17 0.402743 0.750000 0.323807
#
# Coordination Sequence:
#
# PCOD9451455 Si02
#       7
#     4   8   8   8   4   8   8
#     4   9  19  37  64  88 102 131 184 227 260 316
#     4  10  20  37  59  82 110 147 184 222 273 332
#     4   9  18  33  56  84 111 141 187 236 278 329
#     4  12  25  38  54  83 117 147 182 224 270 323
#     4  11  22  41  66  86 108 141 180 223 270 326
#     4   9  17  30  52  80 110 143 184 231 280 329
#     4   9  18  35  57  81 108 144 187 228 272 329
#
# _framework density 18.472560999999999
#
# number of rings (size 3 to 8) (size 9 to 14) (size 15 to 20)
#    0.000    2.167    0.000    4.750    0.000    7.333 
#    0.000    4.167    0.000    0.000    0.000    0.000 
#    0.000    0.000    0.000    0.000    0.000    0.000 
#
# Total GULP energy -267918.154811 kJ/mol
# GULP energy per Si atom -5581.628225 kJ/mol
# Density = 1.843052 g / cm^3
# Si number density = 18.472561 Si / 1000 Ang^3
#
#
#
# Elastic Constant Matrix: (Units=GPa)
#
#
# Indices 1 2 3 4 5 6 
#
# 1 220.7732 64.8763 100.3793 0.0000 0.0000 0.0000
# 2 64.8763 48.3961 45.0984 0.0000 0.0000 0.0000
# 3 100.3793 45.0984 124.1083 0.0000 0.0000 0.0000
# 4 0.0000 0.0000 0.0000 12.9284 0.0000 0.0000
# 5 0.0000 0.0000 0.0000 0.0000 -21.1114 0.0000
# 6 0.0000 0.0000 0.0000 0.0000 0.0000 33.5654
#
#
#
# Elastic Compliance Matrix: (Units=1/GPa)
#
#
# Indices 1 2 3 4 5 6 
#
# 1 0.008742 -0.007757 -0.004252 0.000000 0.000000 0.000000
# 2 -0.007757 0.038125 -0.007580 0.000000 0.000000 0.000000
# 3 -0.004252 -0.007580 0.014251 0.000000 0.000000 0.000000
# 4 0.000000 0.000000 0.000000 0.077349 0.000000 0.000000
# 5 0.000000 0.000000 0.000000 0.000000 -0.047368 0.000000
# 6 0.000000 0.000000 0.000000 0.000000 0.000000 0.029793
#
#
# Mechanical properties :
#
#
# Convention : Reuss Voigt Hill
#
# Bulk Modulus (GPa) = 45.57876 90.44285 68.01081
# Shear Modulus (GPa) = 29.87167 17.27139 23.57153
#
# Velocity S-wave (km/s) = 4.02566 3.06105 3.57603
# Velocity P-wave (km/s) = 6.80700 7.84604 7.34492
#
# Compressibility (1/GPa) = 0.02194004
#
# Stress axis : x y z
#
# Youngs Moduli (GPa) = 114.38657 26.22985 70.17082
#
# Poissons Ratio (x) = 0.20346 0.29837
# Poissons Ratio (y) = 0.88729 0.53188
# Poissons Ratio (z) = 0.48638 0.19882
#
# Static dielectric constant tensor:
#      x y z
#    x 1.603980 0.000000 0.000000 
#    y 0.000000 1.621580 0.000000 
#    z 0.000000 0.000000 1.607650 
# 
# From -- ./inp_files/13008.got.cif
#   From: 2010.05.17/outbox.cif.g08.bks.cpg/sg59_7_cif.got.tgz:13008.got - 2010.06.03 14:40:33.
