data_PCOD9451814
_publ_section_title
;
Structure prediction by ZEFSAII (Michael W. Deem and Ramdas Pophale) SiO2 
 PCOD9451814
Probable space group: P M M N
;
_chemical_formula_sum "Si O2"
_cell_formula_units_Z 48
_cell_length_a 8.510221
_cell_length_b 14.977816
_cell_length_c 20.258354
_cell_angle_alpha 90.000000
_cell_angle_beta 90.000000
_cell_angle_gamma 90.000000
_cell_volume 2582.221455
_symmetry_space_group_name_H-M "P M M N"
_symmetry_group_IT_number 59
_space_group.IT_coordinate_system_code '2'
_symmetry_cell_setting 'orthorhombic'
loop_
_space_group_symop_operation_xyz
x,y,z
1/2-x,1/2-y,z
1/2+x,-y,-z
-x,1/2+y,-z
-x,-y,-z
1/2+x,1/2+y,-z
1/2-x,y,z
x,1/2-y,z
loop_
_atom_site_type_symbol
_atom_site_label
_atom_site_fract_x
_atom_site_fract_y
_atom_site_fract_z
Si Si1 0.439131 0.014617 0.829027
Si Si2 0.560748 0.853761 0.908347
Si Si3 0.941512 0.853160 0.056524
Si Si4 0.438597 0.750000 0.371389
Si Si5 0.061520 0.750000 0.526510
Si Si6 0.060955 0.437815 0.681554
Si Si7 0.062558 0.056878 0.437569
O O1 0.250000 0.019862 0.828624
O O2 0.497849 0.083947 0.884744
O O3 0.492996 0.038222 0.755535
O O4 0.489411 0.917708 0.853857
O O5 0.750000 0.860104 0.906365
O O6 0.518991 0.750000 0.899343
O O7 0.508336 0.880675 0.982646
O O8 0.750000 0.855073 0.056424
O O9 0.987266 0.750000 0.066794
O O10 0.250000 0.750000 0.367388
O O11 0.482454 0.750000 0.448870
O O12 0.504433 0.660752 0.338279
O O13 0.250000 0.750000 0.531044
O O14 0.997297 0.658466 0.557345
O O15 0.250000 0.440040 0.679478
O O16 0.996070 0.507546 0.628168
O O17 0.250000 0.055803 0.439681
O O18 0.000000 0.000000 0.500000
#
# Coordination Sequence:
#
# PCOD9451814 Si02
#       7
#     8   8   8   4   4   8   8
#     4  10  21  35  56  84 112 151 191 234 286 339
#     4   9  18  34  56  80 108 149 192 238 290 341
#     4   8  15  30  54  82 112 145 188 234 283 341
#     4  11  23  39  63  91 120 155 190 235 294 350
#     4  11  23  41  67  95 120 151 194 247 298 348
#     4  11  24  40  60  88 122 158 196 239 291 350
#     4  12  24  41  65  92 121 157 199 243 292 347
#
# _framework density 18.588645
#
# number of rings (size 3 to 8) (size 9 to 14) (size 15 to 20)
#    0.000    1.833    1.667    4.000    1.167    2.333 
#    1.500    0.000    0.000    1.000    0.000    0.000 
#    0.000    0.000    0.000    0.000    0.000    0.000 
#
# Total GULP energy -268119.620592 kJ/mol
# GULP energy per Si atom -5585.825429 kJ/mol
# Density = 1.854634 g / cm^3
# Si number density = 18.588645 Si / 1000 Ang^3
#
#
#
# Elastic Constant Matrix: (Units=GPa)
#
#
# Indices 1 2 3 4 5 6 
#
# 1 44.2454 37.4539 40.0854 0.0000 0.0000 0.0000
# 2 37.4539 158.8718 107.1415 0.0000 0.0000 0.0000
# 3 40.0854 107.1415 162.1990 0.0000 0.0000 0.0000
# 4 0.0000 0.0000 0.0000 -4.8018 0.0000 0.0000
# 5 0.0000 0.0000 0.0000 0.0000 19.3593 0.0000
# 6 0.0000 0.0000 0.0000 0.0000 0.0000 31.3923
#
#
#
# Elastic Compliance Matrix: (Units=1/GPa)
#
#
# Indices 1 2 3 4 5 6 
#
# 1 0.030329 -0.003778 -0.005000 0.000000 0.000000 0.000000
# 2 -0.003778 0.011822 -0.006875 0.000000 0.000000 0.000000
# 3 -0.005000 -0.006875 0.011942 0.000000 0.000000 0.000000
# 4 0.000000 0.000000 0.000000 -0.208256 0.000000 0.000000
# 5 0.000000 0.000000 0.000000 0.000000 0.051655 0.000000
# 6 0.000000 0.000000 0.000000 0.000000 0.000000 0.031855
#
#
# Mechanical properties :
#
#
# Convention : Reuss Voigt Hill
#
# Bulk Modulus (GPa) = 43.88489 81.63087 62.75788
# Shear Modulus (GPa) = -157.47420 21.23231 -68.12095
#
# Velocity S-wave (km/s) = -9.21407 3.38334 -6.06021
# Velocity P-wave (km/s) = 9.46252 7.69885 3.89017
#
# Compressibility (1/GPa) = 0.02278689
#
# Stress axis : x y z
#
# Youngs Moduli (GPa) = 32.97150 84.59101 83.73657
#
# Poissons Ratio (x) = 0.31962 0.41865
# Poissons Ratio (y) = 0.12458 0.57569
# Poissons Ratio (z) = 0.16485 0.58157
#
# Static dielectric constant tensor:
#      x y z
#    x 1.634610 0.000000 0.000000 
#    y 0.000000 1.630230 0.000000 
#    z 0.000000 0.000000 1.631800 
# 
# From -- ./inp_files/25519.got.cif
#   From: 2010.05.17/outbox.cif.g08.bks.cpg/sg59_13_cif.got.tgz:25519.got - 2010.06.03 14:40:33.
