data_PCOD9451549
_publ_section_title
;
Structure prediction by ZEFSAII (Michael W. Deem and Ramdas Pophale) SiO2 
 PCOD9451549
Probable space group: P M M N
;
_chemical_formula_sum "Si O2"
_cell_formula_units_Z 64
_cell_length_a 28.937690
_cell_length_b 8.658059
_cell_length_c 13.341973
_cell_angle_alpha 90.000000
_cell_angle_beta 90.000000
_cell_angle_gamma 90.000000
_cell_volume 3342.754317
_symmetry_space_group_name_H-M "P M M N"
_symmetry_group_IT_number 59
_space_group.IT_coordinate_system_code '2'
_symmetry_cell_setting 'orthorhombic'
loop_
_space_group_symop_operation_xyz
x,y,z
1/2-x,1/2-y,z
1/2+x,-y,-z
-x,1/2+y,-z
-x,-y,-z
1/2+x,1/2+y,-z
1/2-x,y,z
x,1/2-y,z
loop_
_atom_site_type_symbol
_atom_site_label
_atom_site_fract_x
_atom_site_fract_y
_atom_site_fract_z
Si Si1 0.468355 0.934006 0.089303
Si Si2 0.865376 0.934980 0.923123
Si Si3 0.803311 0.938720 0.735075
Si Si4 0.950455 0.565282 0.230256
Si Si5 0.548207 0.563972 0.461740
Si Si6 0.195945 0.436267 0.674799
Si Si7 0.353542 0.438420 0.468267
Si Si8 0.859873 0.432651 0.137218
O O1 0.464062 0.750000 0.076804
O O2 0.498276 0.965438 0.189310
O O3 0.417784 0.006661 0.090818
O O4 0.500000 0.000000 0.000000
O O5 0.865937 0.750000 0.924535
O O6 0.833115 0.987220 0.831260
O O7 0.847641 0.994241 0.030294
O O8 0.750000 0.988224 0.740140
O O9 0.803319 0.750000 0.734145
O O10 0.827457 0.989930 0.631727
O O11 0.942215 0.750000 0.221763
O O12 0.944750 0.519755 0.345593
O O13 0.912376 0.481306 0.163336
O O14 0.500000 0.500000 0.500000
O O15 0.546481 0.750000 0.464839
O O16 0.593020 0.512782 0.524382
O O17 0.250000 0.475236 0.673184
O O18 0.191539 0.250000 0.680318
O O19 0.171967 0.485957 0.570811
O O20 0.170935 0.505674 0.771351
O O21 0.352935 0.250000 0.467550
O O22 0.856417 0.250000 0.130632
#
# Coordination Sequence:
#
# PCOD9451549 Si02
#       8
#     8   8   8   8   8   8   8   8
#     4  11  22  36  58  86 116 154 196 242 291 349
#     4  11  23  38  59  86 121 160 203 254 301 359
#     4   9  19  36  59  88 118 152 200 255 303 349
#     4  10  21  39  59  80 116 158 198 240 289 357
#     4  10  21  36  56  85 122 158 191 235 289 352
#     4  10  20  37  64  91 116 150 192 240 299 364
#     4   9  17  34  60  89 119 150 191 243 293 347
#     4  12  24  38  59  86 119 156 196 249 303 358
#
# _framework density 19.145886999999998
#
# number of rings (size 3 to 8) (size 9 to 14) (size 15 to 20)
#    0.000    1.750    2.500    2.250    1.750    3.250 
#    0.000    1.250    0.000    2.625    0.000    0.000 
#    0.000    0.000    0.000    0.000    0.000    0.000 
#
# Total GULP energy -357530.516668 kJ/mol
# GULP energy per Si atom -5586.414323 kJ/mol
# Density = 1.910231 g / cm^3
# Si number density = 19.145887 Si / 1000 Ang^3
#
#
#
# Elastic Constant Matrix: (Units=GPa)
#
#
# Indices 1 2 3 4 5 6 
#
# 1 163.4891 34.9616 104.1052 0.0000 0.0000 0.0000
# 2 34.9616 26.8578 36.2359 0.0000 0.0000 0.0000
# 3 104.1052 36.2359 169.7901 0.0000 0.0000 0.0000
# 4 0.0000 0.0000 0.0000 12.3504 0.0000 0.0000
# 5 0.0000 0.0000 0.0000 0.0000 30.1807 0.0000
# 6 0.0000 0.0000 0.0000 0.0000 0.0000 25.4175
#
#
#
# Elastic Compliance Matrix: (Units=1/GPa)
#
#
# Indices 1 2 3 4 5 6 
#
# 1 0.010969 -0.007309 -0.005166 0.000000 0.000000 0.000000
# 2 -0.007309 0.057160 -0.007717 0.000000 0.000000 0.000000
# 3 -0.005166 -0.007717 0.010704 0.000000 0.000000 0.000000
# 4 0.000000 0.000000 0.000000 0.080969 0.000000 0.000000
# 5 0.000000 0.000000 0.000000 0.000000 0.033134 0.000000
# 6 0.000000 0.000000 0.000000 0.000000 0.000000 0.039343
#
#
# Mechanical properties :
#
#
# Convention : Reuss Voigt Hill
#
# Bulk Modulus (GPa) = 26.00889 78.97139 52.49014
# Shear Modulus (GPa) = 17.51445 25.91202 21.71323
#
# Velocity S-wave (km/s) = 3.02783 3.68285 3.37128
# Velocity P-wave (km/s) = 5.08308 7.70852 6.52913
#
# Compressibility (1/GPa) = 0.03844839
#
# Stress axis : x y z
#
# Youngs Moduli (GPa) = 91.16589 17.49481 93.42455
#
# Poissons Ratio (x) = 0.12788 0.48259
# Poissons Ratio (y) = 0.66637 0.72097
# Poissons Ratio (z) = 0.47093 0.13501
#
# Static dielectric constant tensor:
#      x y z
#    x 1.652290 0.000000 0.000000 
#    y 0.000000 1.656360 0.000000 
#    z 0.000000 0.000000 1.664300 
# 
# From -- ./inp_files/19259.got.cif
#   From: 2010.05.17/outbox.cif.g08.bks.cpg/sg59_10_cif.got.tgz:19259.got - 2010.06.03 14:40:33.
