data_PCOD9451984
_publ_section_title
;
Structure prediction by ZEFSAII (Michael W. Deem and Ramdas Pophale) SiO2 
 PCOD9451984
Probable space group: P M M N
;
_chemical_formula_sum "Si O2"
_cell_formula_units_Z 48
_cell_length_a 13.467266
_cell_length_b 11.309706
_cell_length_c 14.347006
_cell_angle_alpha 90.000000
_cell_angle_beta 90.000000
_cell_angle_gamma 90.000000
_cell_volume 2185.204235
_symmetry_space_group_name_H-M "P M M N"
_symmetry_group_IT_number 59
_space_group.IT_coordinate_system_code '2'
_symmetry_cell_setting 'orthorhombic'
loop_
_space_group_symop_operation_xyz
x,y,z
1/2-x,1/2-y,z
1/2+x,-y,-z
-x,1/2+y,-z
-x,-y,-z
1/2+x,1/2+y,-z
1/2-x,y,z
x,1/2-y,z
loop_
_atom_site_type_symbol
_atom_site_label
_atom_site_fract_x
_atom_site_fract_y
_atom_site_fract_z
Si Si1 0.131369 0.614887 0.483305
Si Si2 0.361903 0.482328 0.668698
Si Si3 0.567892 0.114565 0.718216
Si Si4 0.077604 0.622761 0.831851
Si Si5 0.139853 0.077602 0.158346
Si Si6 0.634559 0.884178 0.063739
O O1 0.250000 0.624093 0.489235
O O2 0.090607 0.750000 0.492976
O O3 0.104471 0.528607 0.567856
O O4 0.105795 0.566227 0.381123
O O5 0.250000 0.432521 0.664457
O O6 0.448321 0.401495 0.712892
O O7 0.361690 0.593633 0.739062
O O8 0.593752 0.250000 0.718944
O O9 0.622362 0.054715 0.805079
O O10 0.105928 0.750000 0.873915
O O11 0.088459 0.505736 0.896218
O O12 0.962068 0.630495 0.802640
O O13 0.250000 0.115825 0.188373
O O14 0.134056 0.100793 0.048099
O O15 0.750000 0.884692 0.094663
O O16 0.594611 0.750000 0.084346
#
# Coordination Sequence:
#
# PCOD9451984 Si02
#       6
#     8   8   8   8   8   8
#     4   9  17  32  56  83 112 148 191 242 298 354
#     4  10  21  36  55  81 116 157 197 240 294 354
#     4  10  21  36  56  84 116 152 198 249 299 353
#     4  11  23  38  60  90 121 155 199 249 296 349
#     4  10  22  39  58  82 113 149 191 240 295 354
#     4  10  22  41  64  89 120 159 198 239 296 362
#
# _framework density 21.965910999999998
#
# number of rings (size 3 to 8) (size 9 to 14) (size 15 to 20)
#    0.000    2.000    0.000    3.000    0.000    7.667 
#    0.000    1.667    0.000    1.000    0.000    7.000 
#    0.000    0.000    0.000    0.000    0.000    0.000 
#
# Total GULP energy -267380.431013 kJ/mol
# GULP energy per Si atom -5570.425646 kJ/mol
# Density = 2.191592 g / cm^3
# Si number density = 21.965911 Si / 1000 Ang^3
#
#
#
# Elastic Constant Matrix: (Units=GPa)
#
#
# Indices 1 2 3 4 5 6 
#
# 1 69.4853 20.5594 0.7932 0.0000 0.0000 0.0000
# 2 20.5594 117.5912 38.6156 0.0000 0.0000 0.0000
# 3 0.7932 38.6156 61.5543 0.0000 0.0000 0.0000
# 4 0.0000 0.0000 0.0000 19.3311 0.0000 0.0000
# 5 0.0000 0.0000 0.0000 0.0000 23.7584 0.0000
# 6 0.0000 0.0000 0.0000 0.0000 0.0000 2.6210
#
#
#
# Elastic Compliance Matrix: (Units=1/GPa)
#
#
# Indices 1 2 3 4 5 6 
#
# 1 0.015346 -0.003297 0.001871 0.000000 0.000000 0.000000
# 2 -0.003297 0.011419 -0.007121 0.000000 0.000000 0.000000
# 3 0.001871 -0.007121 0.020689 0.000000 0.000000 0.000000
# 4 0.000000 0.000000 0.000000 0.051730 0.000000 0.000000
# 5 0.000000 0.000000 0.000000 0.000000 0.042090 0.000000
# 6 0.000000 0.000000 0.000000 0.000000 0.000000 0.381537
#
#
# Mechanical properties :
#
#
# Convention : Reuss Voigt Hill
#
# Bulk Modulus (GPa) = 32.93963 40.95191 36.94577
# Shear Modulus (GPa) = 9.09048 21.71962 15.40505
#
# Velocity S-wave (km/s) = 2.03652 3.14791 2.65111
# Velocity P-wave (km/s) = 4.53412 5.64768 5.12126
#
# Compressibility (1/GPa) = 0.03035857
#
# Stress axis : x y z
#
# Youngs Moduli (GPa) = 65.16434 87.57299 48.33463
#
# Poissons Ratio (x) = 0.28876 -0.09043
# Poissons Ratio (y) = 0.21487 0.34420
# Poissons Ratio (z) = -0.12191 0.62362
#
# Static dielectric constant tensor:
#      x y z
#    x 1.843890 0.000000 0.000000 
#    y 0.000000 1.938040 0.000000 
#    z 0.000000 0.000000 1.824180 
# 
# From -- ./inp_files/27391.got.cif
#   From: 2010.05.17/outbox.cif.g08.bks.cpg/sg59_14_cif.got.tgz:27391.got - 2010.06.03 14:40:33.
