data_PCOD9451649
_publ_section_title
;
Structure prediction by ZEFSAII (Michael W. Deem and Ramdas Pophale) SiO2 
 PCOD9451649
Probable space group: P M M N
;
_chemical_formula_sum "Si O2"
_cell_formula_units_Z 64
_cell_length_a 21.417997
_cell_length_b 23.931758
_cell_length_c 5.424948
_cell_angle_alpha 90.000000
_cell_angle_beta 90.000000
_cell_angle_gamma 90.000000
_cell_volume 2780.667338
_symmetry_space_group_name_H-M "P M M N"
_symmetry_group_IT_number 59
_space_group.IT_coordinate_system_code '2'
_symmetry_cell_setting 'orthorhombic'
loop_
_space_group_symop_operation_xyz
x,y,z
1/2-x,1/2-y,z
1/2+x,-y,-z
-x,1/2+y,-z
-x,-y,-z
1/2+x,1/2+y,-z
1/2-x,y,z
x,1/2-y,z
loop_
_atom_site_type_symbol
_atom_site_label
_atom_site_fract_x
_atom_site_fract_y
_atom_site_fract_z
Si Si1 0.915496 0.046385 0.288467
Si Si2 0.820003 0.686369 0.316440
Si Si3 0.563902 0.140966 0.651702
Si Si4 0.050150 0.187638 0.385358
Si Si5 0.025346 0.082354 0.030269
Si Si6 0.678781 0.092670 0.885395
Si Si7 0.831024 0.513209 0.574374
Si Si8 0.335748 0.073175 0.926093
O O1 0.917213 0.108272 0.406964
O O2 0.984164 0.040014 0.185336
O O3 0.901808 0.001918 0.502432
O O4 0.859680 0.055208 0.086771
O O5 0.750000 0.681159 0.434122
O O6 0.823831 0.750000 0.221806
O O7 0.882973 0.678036 0.478558
O O8 0.823262 0.638425 0.111339
O O9 0.511473 0.185655 0.564225
O O10 0.630370 0.142123 0.801977
O O11 0.520863 0.101396 0.816955
O O12 0.052587 0.250000 0.274608
O O13 0.041516 0.137532 0.192849
O O14 0.090475 0.061819 0.930300
O O15 0.750000 0.108296 0.962406
O O16 0.687605 0.049217 0.657547
O O17 0.811306 0.542731 0.320489
O O18 0.816523 0.551437 0.806467
#
# Coordination Sequence:
#
# PCOD9451649 Si02
#       8
#     8   8   8   8   8   8   8   8
#     4   9  20  40  59  96 135 179 226 273 333 414
#     4  10  23  45  69  94 127 173 226 280 347 415
#     4   9  19  38  63  98 132 172 225 276 337 408
#     4  10  20  39  69  98 133 174 224 290 342 402
#     4  10  21  37  62  93 137 175 228 274 344 409
#     4  10  21  41  65  93 136 181 227 277 330 409
#     4  11  24  41  61  98 131 181 226 276 334 393
#     4  12  24  41  66  94 131 175 222 286 336 394
#
# _framework density 23.016055999999999
#
# number of rings (size 3 to 8) (size 9 to 14) (size 15 to 20)
#    0.000    1.875    2.500    0.750    1.750    5.000 
#    0.000    2.500    0.000    6.375    0.000    0.000 
#    0.000    0.000    0.000    0.000    0.000    0.000 
#
# Total GULP energy -356344.910415 kJ/mol
# GULP energy per Si atom -5567.889225 kJ/mol
# Density = 2.296367 g / cm^3
# Si number density = 23.016056 Si / 1000 Ang^3
#
#
#
# Elastic Constant Matrix: (Units=GPa)
#
#
# Indices 1 2 3 4 5 6 
#
# 1 212.7827 40.8277 52.8710 0.0000 0.0000 0.0000
# 2 40.8277 72.5522 38.3290 0.0000 0.0000 0.0000
# 3 52.8710 38.3290 102.0521 0.0000 0.0000 0.0000
# 4 0.0000 0.0000 0.0000 21.1254 0.0000 0.0000
# 5 0.0000 0.0000 0.0000 0.0000 -59.7357 0.0000
# 6 0.0000 0.0000 0.0000 0.0000 0.0000 63.3626
#
#
#
# Elastic Compliance Matrix: (Units=1/GPa)
#
#
# Indices 1 2 3 4 5 6 
#
# 1 0.005623 -0.002028 -0.002152 0.000000 0.000000 0.000000
# 2 -0.002028 0.017926 -0.005682 0.000000 0.000000 0.000000
# 3 -0.002152 -0.005682 0.013048 0.000000 0.000000 0.000000
# 4 0.000000 0.000000 0.000000 0.047336 0.000000 0.000000
# 5 0.000000 0.000000 0.000000 0.000000 -0.016740 0.000000
# 6 0.000000 0.000000 0.000000 0.000000 0.000000 0.015782
#
#
# Mechanical properties :
#
#
# Convention : Reuss Voigt Hill
#
# Bulk Modulus (GPa) = 59.26300 72.38248 65.82274
# Shear Modulus (GPa) = 46.15796 21.97440 34.06618
#
# Velocity S-wave (km/s) = 4.48310 3.09324 3.85139
# Velocity P-wave (km/s) = 7.25273 6.65391 6.95976
#
# Compressibility (1/GPa) = 0.01687394
#
# Stress axis : x y z
#
# Youngs Moduli (GPa) = 177.82988 55.78445 76.64091
#
# Poissons Ratio (x) = 0.11311 0.16491
# Poissons Ratio (y) = 0.36058 0.43549
# Poissons Ratio (z) = 0.38265 0.31698
#
# Static dielectric constant tensor:
#      x y z
#    x 1.931720 0.000000 0.000000 
#    y 0.000000 1.885740 0.000000 
#    z 0.000000 0.000000 1.933450 
# 
# From -- ./inp_files/3545.got.cif
#   From: 2010.05.17/outbox.cif.g08.bks.cpg/sg59_2_cif.got.tgz:3545.got - 2010.06.03 14:40:33.
