data_PCOD9451271
_publ_section_title
;
Structure prediction by ZEFSAII (Michael W. Deem and Ramdas Pophale) SiO2 
 PCOD9451271
Probable space group: P M M N
;
_chemical_formula_sum "Si O2"
_cell_formula_units_Z 64
_cell_length_a 26.182803
_cell_length_b 7.961842
_cell_length_c 14.978302
_cell_angle_alpha 90.000000
_cell_angle_beta 90.000000
_cell_angle_gamma 90.000000
_cell_volume 3122.426871
_symmetry_space_group_name_H-M "P M M N"
_symmetry_group_IT_number 59
_space_group.IT_coordinate_system_code '2'
_symmetry_cell_setting 'orthorhombic'
loop_
_space_group_symop_operation_xyz
x,y,z
1/2-x,1/2-y,z
1/2+x,-y,-z
-x,1/2+y,-z
-x,-y,-z
1/2+x,1/2+y,-z
1/2-x,y,z
x,1/2-y,z
loop_
_atom_site_type_symbol
_atom_site_label
_atom_site_fract_x
_atom_site_fract_y
_atom_site_fract_z
Si Si1 0.690807 0.047132 0.908201
Si Si2 0.903475 0.952247 0.387839
Si Si3 0.639521 0.452047 0.089004
Si Si4 0.808040 0.548632 0.710415
Si Si5 0.692439 0.047056 0.269773
Si Si6 0.399570 0.452019 0.409649
Si Si7 0.494515 0.546559 0.286539
Si Si8 0.977926 0.949887 0.095504
O O1 0.750000 0.995240 0.918562
O O2 0.689343 0.250000 0.907888
O O3 0.673338 0.988789 0.810844
O O4 0.659010 0.985275 0.993015
O O5 0.906931 0.750000 0.389823
O O6 0.906108 0.015707 0.489485
O O7 0.951936 0.011996 0.330043
O O8 0.850256 0.997025 0.341122
O O9 0.644375 0.250000 0.087262
O O10 0.673158 0.513045 0.172422
O O11 0.580704 0.495089 0.103262
O O12 0.750000 0.482294 0.701466
O O13 0.805495 0.750000 0.701174
O O14 0.848282 0.483211 0.638409
O O15 0.750000 0.987716 0.288818
O O16 0.693650 0.250000 0.267042
O O17 0.395280 0.250000 0.415152
O O18 0.447715 0.491361 0.347544
O O19 0.494651 0.750000 0.286254
O O20 0.492470 0.487038 0.183717
O O21 0.979492 0.750000 0.099154
O O22 0.000000 0.000000 0.000000
#
# Coordination Sequence:
#
# PCOD9451271 Si02
#       8
#     8   8   8   8   8   8   8   8
#     4   9  18  33  54  79 107 142 182 222 268 325
#     4  10  21  40  60  84 115 149 191 240 292 343
#     4  10  20  36  58  83 114 150 188 233 284 338
#     4   9  19  36  54  78 113 146 180 227 279 332
#     4  10  21  37  59  88 120 155 195 240 291 347
#     4  10  22  37  60  87 110 146 193 236 287 347
#     4  10  22  40  60  83 115 149 187 238 288 339
#     4  11  24  40  58  84 118 153 188 231 285 342
#
# _framework density 20.496877999999999
#
# number of rings (size 3 to 8) (size 9 to 14) (size 15 to 20)
#    0.000    2.125    1.250    1.125    1.750    5.250 
#    0.000    1.250    0.000    3.750    0.000    0.000 
#    0.000    0.000    0.000    0.000    0.000    0.000 
#
# Total GULP energy -357412.160392 kJ/mol
# GULP energy per Si atom -5584.565006 kJ/mol
# Density = 2.045023 g / cm^3
# Si number density = 20.496878 Si / 1000 Ang^3
#
#
#
# Elastic Constant Matrix: (Units=GPa)
#
#
# Indices 1 2 3 4 5 6 
#
# 1 106.4588 -0.7959 70.9075 0.0000 0.0000 0.0000
# 2 -0.7959 10.0814 7.0949 0.0000 0.0000 0.0000
# 3 70.9075 7.0949 169.6248 0.0000 0.0000 0.0000
# 4 0.0000 0.0000 0.0000 22.4643 0.0000 0.0000
# 5 0.0000 0.0000 0.0000 0.0000 -0.9646 0.0000
# 6 0.0000 0.0000 0.0000 0.0000 0.0000 15.7469
#
#
#
# Elastic Compliance Matrix: (Units=1/GPa)
#
#
# Indices 1 2 3 4 5 6 
#
# 1 0.013268 0.005101 -0.005760 0.000000 0.000000 0.000000
# 2 0.005101 0.104162 -0.006489 0.000000 0.000000 0.000000
# 3 -0.005760 -0.006489 0.008574 0.000000 0.000000 0.000000
# 4 0.000000 0.000000 0.000000 0.044515 0.000000 0.000000
# 5 0.000000 0.000000 0.000000 0.000000 -1.036685 0.000000
# 6 0.000000 0.000000 0.000000 0.000000 0.000000 0.063505
#
#
# Mechanical properties :
#
#
# Convention : Reuss Voigt Hill
#
# Bulk Modulus (GPa) = 8.95189 48.95311 28.95250
# Shear Modulus (GPa) = -6.65664 21.37987 7.36161
#
# Velocity S-wave (km/s) = -1.80408 3.23318 1.89720
# Velocity P-wave (km/s) = 0.19324 6.15410 4.35375
#
# Compressibility (1/GPa) = 0.11170823
#
# Stress axis : x y z
#
# Youngs Moduli (GPa) = 75.37139 9.60045 116.62586
#
# Poissons Ratio (x) = -0.04897 0.67171
# Poissons Ratio (y) = -0.38445 0.75679
# Poissons Ratio (z) = 0.43411 0.06230
#
# Static dielectric constant tensor:
#      x y z
#    x 1.701060 0.000000 0.000000 
#    y 0.000000 1.737310 0.000000 
#    z 0.000000 0.000000 1.731210 
# 
# From -- ./inp_files/24717.got.cif
#   From: 2010.05.17/outbox.cif.g08.bks.cpg/sg59_13_cif.got.tgz:24717.got - 2010.06.03 14:40:33.
