data_PCOD9451112
_publ_section_title
;
Structure prediction by ZEFSAII (Michael W. Deem and Ramdas Pophale) SiO2 
 PCOD9451112
Probable space group: P M M N
;
_chemical_formula_sum "Si O2"
_cell_formula_units_Z 64
_cell_length_a 8.742866
_cell_length_b 23.699453
_cell_length_c 16.027013
_cell_angle_alpha 90.000000
_cell_angle_beta 90.000000
_cell_angle_gamma 90.000000
_cell_volume 3320.815394
_symmetry_space_group_name_H-M "P M M N"
_symmetry_group_IT_number 59
_space_group.IT_coordinate_system_code '2'
_symmetry_cell_setting 'orthorhombic'
loop_
_space_group_symop_operation_xyz
x,y,z
1/2-x,1/2-y,z
1/2+x,-y,-z
-x,1/2+y,-z
-x,-y,-z
1/2+x,1/2+y,-z
1/2-x,y,z
x,1/2-y,z
loop_
_atom_site_type_symbol
_atom_site_label
_atom_site_fract_x
_atom_site_fract_y
_atom_site_fract_z
Si Si1 0.935064 0.816615 0.831492
Si Si2 0.432340 0.311625 0.676009
Si Si3 0.429752 0.428270 0.719417
Si Si4 0.574986 0.182914 0.499668
Si Si5 0.930103 0.992630 0.592023
Si Si6 0.574535 0.470344 0.879487
Si Si7 0.929256 0.908524 0.968336
Si Si8 0.434076 0.619753 0.668760
O O1 0.750000 0.817990 0.826556
O O2 0.980914 0.750000 0.834701
O O3 0.977194 0.854594 0.912760
O O4 0.000149 0.849077 0.750251
O O5 0.250000 0.307221 0.681165
O O6 0.500284 0.250000 0.693925
O O7 0.476833 0.363365 0.733960
O O8 0.475219 0.327592 0.581275
O O9 0.250000 0.431123 0.698003
O O10 0.529093 0.452048 0.644191
O O11 0.463831 0.462871 0.801923
O O12 0.750000 0.164412 0.516042
O O13 0.575674 0.250000 0.486610
O O14 0.522549 0.154499 0.414575
O O15 0.750000 0.983529 0.584997
O O16 0.003274 0.942179 0.646903
O O17 0.000000 0.000000 0.500000
O O18 0.750000 0.461235 0.853798
O O19 0.562358 0.534238 0.913214
O O20 0.527131 0.425782 0.951039
O O21 0.750000 0.901098 0.991883
O O22 0.250000 0.618162 0.675475
#
# Coordination Sequence:
#
# PCOD9451112 Si02
#       8
#     8   8   8   8   8   8   8   8
#     4  10  21  37  58  85 118 157 198 241 295 358
#     4   9  19  35  54  76 102 135 176 220 264 313
#     4  11  22  37  58  83 111 144 183 225 274 333
#     4   9  18  32  50  73 102 138 180 225 270 315
#     4  12  25  40  57  81 116 154 194 241 292 345
#     4  10  20  35  59  87 112 142 182 230 283 337
#     4   9  19  37  58  81 110 143 182 229 281 340
#     4  11  22  36  55  80 112 151 194 238 287 343
#
# _framework density 19.272373999999999
#
# number of rings (size 3 to 8) (size 9 to 14) (size 15 to 20)
#    0.000    1.875    0.000    4.125    0.000    6.750 
#    0.000    1.875    0.000    3.750    0.000    0.000 
#    0.000    0.000    0.000    0.000    0.000    0.000 
#
# Total GULP energy -357108.049036 kJ/mol
# GULP energy per Si atom -5579.813266 kJ/mol
# Density = 1.922851 g / cm^3
# Si number density = 19.272374 Si / 1000 Ang^3
#
#
#
# Elastic Constant Matrix: (Units=GPa)
#
#
# Indices 1 2 3 4 5 6 
#
# 1 28.2918 21.9793 9.7603 0.0000 0.0000 0.0000
# 2 21.9793 92.2736 23.3582 0.0000 0.0000 0.0000
# 3 9.7603 23.3582 32.7242 0.0000 0.0000 0.0000
# 4 0.0000 0.0000 0.0000 31.1561 0.0000 0.0000
# 5 0.0000 0.0000 0.0000 0.0000 25.3517 0.0000
# 6 0.0000 0.0000 0.0000 0.0000 0.0000 22.8906
#
#
#
# Elastic Compliance Matrix: (Units=1/GPa)
#
#
# Indices 1 2 3 4 5 6 
#
# 1 0.044644 -0.008865 -0.006988 0.000000 0.000000 0.000000
# 2 -0.008865 0.014988 -0.008054 0.000000 0.000000 0.000000
# 3 -0.006988 -0.008054 0.038391 0.000000 0.000000 0.000000
# 4 0.000000 0.000000 0.000000 0.032096 0.000000 0.000000
# 5 0.000000 0.000000 0.000000 0.000000 0.039445 0.000000
# 6 0.000000 0.000000 0.000000 0.000000 0.000000 0.043686
#
#
# Mechanical properties :
#
#
# Convention : Reuss Voigt Hill
#
# Bulk Modulus (GPa) = 19.91660 29.27612 24.59636
# Shear Modulus (GPa) = 17.99854 22.42581 20.21218
#
# Velocity S-wave (km/s) = 3.05930 3.41490 3.24198
# Velocity P-wave (km/s) = 4.77868 5.54729 5.17727
#
# Compressibility (1/GPa) = 0.05020938
#
# Stress axis : x y z
#
# Youngs Moduli (GPa) = 22.39962 66.72107 26.04747
#
# Poissons Ratio (x) = 0.59149 0.18201
# Poissons Ratio (y) = 0.19858 0.20979
# Poissons Ratio (z) = 0.15652 0.53737
#
# Static dielectric constant tensor:
#      x y z
#    x 1.653870 0.000000 0.000000 
#    y 0.000000 1.752690 0.000000 
#    z 0.000000 0.000000 1.647520 
# 
# From -- ./inp_files/21558.got.cif
#   From: 2010.05.17/outbox.cif.g08.bks.cpg/sg59_11_cif.got.tgz:21558.got - 2010.06.03 14:40:33.
