data_PCOD9451827
_publ_section_title
;
Structure prediction by ZEFSAII (Michael W. Deem and Ramdas Pophale) SiO2 
 PCOD9451827
Probable space group: P M M N
;
_chemical_formula_sum "Si O2"
_cell_formula_units_Z 56
_cell_length_a 7.715078
_cell_length_b 20.092312
_cell_length_c 18.219287
_cell_angle_alpha 90.000000
_cell_angle_beta 90.000000
_cell_angle_gamma 90.000000
_cell_volume 2824.240078
_symmetry_space_group_name_H-M "P M M N"
_symmetry_group_IT_number 59
_space_group.IT_coordinate_system_code '2'
_symmetry_cell_setting 'orthorhombic'
loop_
_space_group_symop_operation_xyz
x,y,z
1/2-x,1/2-y,z
1/2+x,-y,-z
-x,1/2+y,-z
-x,-y,-z
1/2+x,1/2+y,-z
1/2-x,y,z
x,1/2-y,z
loop_
_atom_site_type_symbol
_atom_site_label
_atom_site_fract_x
_atom_site_fract_y
_atom_site_fract_z
Si Si1 0.548008 0.431991 0.808611
Si Si2 0.462682 0.078978 0.236564
Si Si3 0.955268 0.676561 0.309451
Si Si4 0.543197 0.924973 0.024413
Si Si5 0.456628 0.437213 0.399636
Si Si6 0.962170 0.826675 0.895285
Si Si7 0.960467 0.588349 0.440128
O O1 0.750000 0.435284 0.790987
O O2 0.478422 0.506130 0.791716
O O3 0.474942 0.375108 0.756619
O O4 0.525527 0.415157 0.893779
O O5 0.250000 0.079014 0.236228
O O6 0.522186 0.086947 0.320681
O O7 0.516417 0.135454 0.179098
O O8 0.750000 0.682833 0.321161
O O9 0.026445 0.750000 0.294024
O O10 0.026188 0.643540 0.383829
O O11 0.750000 0.919168 0.027360
O O12 0.480427 0.871599 0.964383
O O13 0.500000 0.000000 0.000000
O O14 0.250000 0.426668 0.398702
O O15 0.523851 0.406335 0.475919
O O16 0.488898 0.516148 0.408382
O O17 0.750000 0.826702 0.895993
O O18 0.018201 0.750000 0.898971
O O19 0.750000 0.589739 0.441921
#
# Coordination Sequence:
#
# PCOD9451827 Si02
#       7
#     8   8   8   8   8   8   8
#     4  11  21  35  55  80 106 135 180 230 272 319
#     4   9  16  29  50  77 105 131 166 216 264 310
#     4  10  21  36  51  72 108 148 182 220 271 329
#     4  11  21  35  56  83 110 142 181 220 266 318
#     4   9  16  28  49  75 102 130 165 215 264 307
#     4   9  18  33  53  77 105 136 169 208 258 314
#     4   9  17  29  47  73 101 132 172 212 258 311
#
# _framework density 19.828341999999999
#
# number of rings (size 3 to 8) (size 9 to 14) (size 15 to 20)
#    0.000    2.286    2.857    0.857    0.000    0.857 
#    0.000    2.143    0.000    5.571    0.000    0.000 
#    0.000    1.143    0.000    0.000    0.000    0.000 
#
# Total GULP energy -312455.216972 kJ/mol
# GULP energy per Si atom -5579.557446 kJ/mol
# Density = 1.978321 g / cm^3
# Si number density = 19.828342 Si / 1000 Ang^3
#
#
#
# Elastic Constant Matrix: (Units=GPa)
#
#
# Indices 1 2 3 4 5 6 
#
# 1 23.4955 -3.4320 -8.8270 0.0000 0.0000 0.0000
# 2 -3.4320 157.4616 94.6754 0.0000 0.0000 0.0000
# 3 -8.8270 94.6754 170.2810 0.0000 0.0000 0.0000
# 4 0.0000 0.0000 0.0000 25.5286 0.0000 0.0000
# 5 0.0000 0.0000 0.0000 0.0000 11.6064 0.0000
# 6 0.0000 0.0000 0.0000 0.0000 0.0000 16.5186
#
#
#
# Elastic Compliance Matrix: (Units=1/GPa)
#
#
# Indices 1 2 3 4 5 6 
#
# 1 0.043446 -0.000612 0.002592 0.000000 0.000000 0.000000
# 2 -0.000612 0.009549 -0.005341 0.000000 0.000000 0.000000
# 3 0.002592 -0.005341 0.008976 0.000000 0.000000 0.000000
# 4 0.000000 0.000000 0.000000 0.039172 0.000000 0.000000
# 5 0.000000 0.000000 0.000000 0.000000 0.086159 0.000000
# 6 0.000000 0.000000 0.000000 0.000000 0.000000 0.060538
#
#
# Mechanical properties :
#
#
# Convention : Reuss Voigt Hill
#
# Bulk Modulus (GPa) = 18.09936 57.34121 37.72029
# Shear Modulus (GPa) = 18.31657 28.65215 23.48436
#
# Velocity S-wave (km/s) = 3.04263 3.80545 3.44522
# Velocity P-wave (km/s) = 4.63588 6.94912 5.90684
#
# Compressibility (1/GPa) = 0.05525056
#
# Stress axis : x y z
#
# Youngs Moduli (GPa) = 23.01717 104.72795 111.40320
#
# Poissons Ratio (x) = 0.06406 -0.28878
# Poissons Ratio (y) = 0.01408 0.59497
# Poissons Ratio (z) = -0.05967 0.55932
#
# Static dielectric constant tensor:
#      x y z
#    x 1.759420 0.000000 0.000000 
#    y 0.000000 1.681250 0.000000 
#    z 0.000000 0.000000 1.697020 
# 
# From -- ./inp_files/26115.got.cif
#   From: 2010.05.17/outbox.cif.g08.bks.cpg/sg59_14_cif.got.tgz:26115.got - 2010.06.03 14:40:33.
