data_PCOD9451317
_publ_section_title
;
Structure prediction by ZEFSAII (Michael W. Deem and Ramdas Pophale) SiO2 
 PCOD9451317
Probable space group: P M M N
;
_chemical_formula_sum "Si O2"
_cell_formula_units_Z 32
_cell_length_a 10.476108
_cell_length_b 8.700729
_cell_length_c 19.526806
_cell_angle_alpha 90.000000
_cell_angle_beta 90.000000
_cell_angle_gamma 90.000000
_cell_volume 1779.864006
_symmetry_space_group_name_H-M "P M M N"
_symmetry_group_IT_number 59
_space_group.IT_coordinate_system_code '2'
_symmetry_cell_setting 'orthorhombic'
loop_
_space_group_symop_operation_xyz
x,y,z
1/2-x,1/2-y,z
1/2+x,-y,-z
-x,1/2+y,-z
-x,-y,-z
1/2+x,1/2+y,-z
1/2-x,y,z
x,1/2-y,z
loop_
_atom_site_type_symbol
_atom_site_label
_atom_site_fract_x
_atom_site_fract_y
_atom_site_fract_z
Si Si1 0.599631 0.433064 0.203543
Si Si2 0.750000 0.063292 0.581530
Si Si3 0.102096 0.065622 0.946729
Si Si4 0.750000 0.064876 0.422936
Si Si5 0.492567 0.065254 0.657730
O O1 0.750000 0.463330 0.218175
O O2 0.581730 0.250000 0.201649
O O3 0.572360 0.503711 0.129292
O O4 0.519530 0.506193 0.264772
O O5 0.750000 0.250000 0.581110
O O6 0.750000 0.015021 0.502342
O O7 0.623079 0.014470 0.621291
O O8 0.250000 0.020343 0.962394
O O9 0.096481 0.250000 0.946906
O O10 0.000000 0.000000 0.000000
O O11 0.750000 0.250000 0.419581
O O12 0.874275 0.001846 0.384741
O O13 0.486169 0.250000 0.657218
#
# Coordination Sequence:
#
# PCOD9451317 Si02
#       5
#     8   4   8   4   8
#     4  10  20  36  59  85 115 150 190 235 282 335
#     4   9  22  39  55  81 116 149 186 237 291 341
#     4  10  21  38  61  89 119 152 192 234 280 337
#     4  11  21  37  59  83 112 147 190 237 285 343
#     4  11  21  37  59  83 112 149 192 236 285 341
#
# _framework density 17.978899999999999
#
# number of rings (size 3 to 8) (size 9 to 14) (size 15 to 20)
#    0.000    1.750    1.250    3.375    0.000    2.500 
#    2.250    6.250    0.000    0.000    0.000    0.000 
#    0.000    0.000    0.000    0.000    0.000    0.000 
#
# Total GULP energy -178770.252617 kJ/mol
# GULP energy per Si atom -5586.570394 kJ/mol
# Density = 1.793798 g / cm^3
# Si number density = 17.978900 Si / 1000 Ang^3
#
#
#
# Elastic Constant Matrix: (Units=GPa)
#
#
# Indices 1 2 3 4 5 6 
#
# 1 147.2218 42.9034 106.4545 0.0000 0.0000 0.0000
# 2 42.9034 58.8244 52.7816 0.0000 0.0000 0.0000
# 3 106.4545 52.7816 176.3941 0.0000 0.0000 0.0000
# 4 0.0000 0.0000 0.0000 35.8065 0.0000 0.0000
# 5 0.0000 0.0000 0.0000 0.0000 34.3704 0.0000
# 6 0.0000 0.0000 0.0000 0.0000 0.0000 10.2543
#
#
#
# Elastic Compliance Matrix: (Units=1/GPa)
#
#
# Indices 1 2 3 4 5 6 
#
# 1 0.012478 -0.003204 -0.006572 0.000000 0.000000 0.000000
# 2 -0.003204 0.024062 -0.005266 0.000000 0.000000 0.000000
# 3 -0.006572 -0.005266 0.011211 0.000000 0.000000 0.000000
# 4 0.000000 0.000000 0.000000 0.027928 0.000000 0.000000
# 5 0.000000 0.000000 0.000000 0.000000 0.029095 0.000000
# 6 0.000000 0.000000 0.000000 0.000000 0.000000 0.097520
#
#
# Mechanical properties :
#
#
# Convention : Reuss Voigt Hill
#
# Bulk Modulus (GPa) = 56.60371 87.41326 72.00848
# Shear Modulus (GPa) = 20.98481 28.10630 24.54555
#
# Velocity S-wave (km/s) = 3.42012 3.95814 3.69893
# Velocity P-wave (km/s) = 6.86645 8.34354 7.64077
#
# Compressibility (1/GPa) = 0.01766669
#
# Stress axis : x y z
#
# Youngs Moduli (GPa) = 80.13879 41.55943 89.19726
#
# Poissons Ratio (x) = 0.13316 0.58620
# Poissons Ratio (y) = 0.25678 0.46973
# Poissons Ratio (z) = 0.52667 0.21886
#
# Static dielectric constant tensor:
#      x y z
#    x 1.596640 0.000000 0.000000 
#    y 0.000000 1.603600 0.000000 
#    z 0.000000 0.000000 1.591500 
# 
# From -- ./inp_files/26722.got.cif
#   From: 2010.05.17/outbox.cif.g08.bks.cpg/sg59_14_cif.got.tgz:26722.got - 2010.06.03 14:40:33.
