data_PCOD9451867
_publ_section_title
;
Structure prediction by ZEFSAII (Michael W. Deem and Ramdas Pophale) SiO2 
 PCOD9451867
Probable space group: P M M N
;
_chemical_formula_sum "Si O2"
_cell_formula_units_Z 64
_cell_length_a 13.624989
_cell_length_b 9.326606
_cell_length_c 24.447146
_cell_angle_alpha 90.000000
_cell_angle_beta 90.000000
_cell_angle_gamma 90.000000
_cell_volume 3106.618735
_symmetry_space_group_name_H-M "P M M N"
_symmetry_group_IT_number 59
_space_group.IT_coordinate_system_code '2'
_symmetry_cell_setting 'orthorhombic'
loop_
_space_group_symop_operation_xyz
x,y,z
1/2-x,1/2-y,z
1/2+x,-y,-z
-x,1/2+y,-z
-x,-y,-z
1/2+x,1/2+y,-z
1/2-x,y,z
x,1/2-y,z
loop_
_atom_site_type_symbol
_atom_site_label
_atom_site_fract_x
_atom_site_fract_y
_atom_site_fract_z
Si Si1 0.362867 0.417233 0.260216
Si Si2 0.130517 0.585824 0.369852
Si Si3 0.139360 0.578263 0.033978
Si Si4 0.130247 0.414317 0.477599
Si Si5 0.369920 0.585394 0.586254
Si Si6 0.453532 0.578216 0.918605
Si Si7 0.632302 0.587548 0.306567
Si Si8 0.441552 0.581570 0.797719
O O1 0.250000 0.447862 0.244915
O O2 0.367272 0.250000 0.278083
O O3 0.392579 0.516758 0.311101
O O4 0.441187 0.433708 0.211978
O O5 0.250000 0.588250 0.371430
O O6 0.097451 0.750000 0.376091
O O7 0.100199 0.486732 0.420584
O O8 0.250000 0.535491 0.048008
O O9 0.130068 0.750000 0.041209
O O10 0.055968 0.498209 0.067883
O O11 0.117272 0.547918 0.969822
O O12 0.250000 0.411546 0.477430
O O13 0.097496 0.250000 0.483022
O O14 0.101692 0.509513 0.529701
O O15 0.250000 0.586650 0.586732
O O16 0.402068 0.750000 0.589419
O O17 0.401814 0.496601 0.639436
O O18 0.468486 0.750000 0.916537
O O19 0.415377 0.534552 0.858909
O O20 0.750000 0.593303 0.310580
O O21 0.595019 0.750000 0.305508
O O22 0.606544 0.505809 0.251110
O O23 0.416936 0.750000 0.791417
#
# Coordination Sequence:
#
# PCOD9451867 Si02
#       8
#     8   8   8   8   8   8   8   8
#     4   9  18  33  51  72 101 136 174 218 268 320
#     4   9  16  26  42  66  95 128 170 217 264 319
#     4   9  18  34  56  82 114 150 183 219 266 315
#     4   9  15  23  39  65  96 129 166 212 268 326
#     4   9  16  27  45  69  97 130 171 219 268 321
#     4   9  19  35  55  82 113 144 183 226 265 312
#     4  10  21  36  53  75 105 141 180 222 269 321
#     4  10  21  36  56  81 108 142 182 223 266 312
#
# _framework density 20.601175000000001
#
# number of rings (size 3 to 8) (size 9 to 14) (size 15 to 20)
#    0.000    2.750    0.000    1.500    0.000    7.500 
#    0.000    2.500    0.000    2.250    0.000    0.000 
#    0.000    0.000    0.000    0.000    0.000    0.000 
#
# Total GULP energy -357621.391934 kJ/mol
# GULP energy per Si atom -5587.834249 kJ/mol
# Density = 2.055429 g / cm^3
# Si number density = 20.601175 Si / 1000 Ang^3
#
#
#
# Elastic Constant Matrix: (Units=GPa)
#
#
# Indices 1 2 3 4 5 6 
#
# 1 45.0475 -3.9139 -13.1966 0.0000 0.0000 0.0000
# 2 -3.9139 82.7476 38.1509 0.0000 0.0000 0.0000
# 3 -13.1966 38.1509 97.6690 0.0000 0.0000 0.0000
# 4 0.0000 0.0000 0.0000 27.6914 0.0000 0.0000
# 5 0.0000 0.0000 0.0000 0.0000 12.9629 0.0000
# 6 0.0000 0.0000 0.0000 0.0000 0.0000 19.1854
#
#
#
# Elastic Compliance Matrix: (Units=1/GPa)
#
#
# Indices 1 2 3 4 5 6 
#
# 1 0.023126 -0.000423 0.003290 0.000000 0.000000 0.000000
# 2 -0.000423 0.014747 -0.005818 0.000000 0.000000 0.000000
# 3 0.003290 -0.005818 0.012956 0.000000 0.000000 0.000000
# 4 0.000000 0.000000 0.000000 0.036112 0.000000 0.000000
# 5 0.000000 0.000000 0.000000 0.000000 0.077143 0.000000
# 6 0.000000 0.000000 0.000000 0.000000 0.000000 0.052123
#
#
# Mechanical properties :
#
#
# Convention : Reuss Voigt Hill
#
# Bulk Modulus (GPa) = 22.25823 29.72720 25.99272
# Shear Modulus (GPa) = 21.08957 25.59619 23.34288
#
# Velocity S-wave (km/s) = 3.20301 3.52868 3.36978
# Velocity P-wave (km/s) = 4.95044 5.57345 5.27116
#
# Compressibility (1/GPa) = 0.04492720
#
# Stress axis : x y z
#
# Youngs Moduli (GPa) = 43.24176 67.80979 77.18668
#
# Poissons Ratio (x) = 0.02868 -0.25393
# Poissons Ratio (y) = 0.01829 0.44904
# Poissons Ratio (z) = -0.14226 0.39449
#
# Static dielectric constant tensor:
#      x y z
#    x 1.789090 0.000000 0.000000 
#    y 0.000000 1.697570 0.000000 
#    z 0.000000 0.000000 1.686350 
# 
# From -- ./inp_files/32221.got.cif
#   From: 2010.05.17/outbox.cif.g08.bks.cpg/sg59_17_cif.got.tgz:32221.got - 2010.06.03 14:40:33.
