data_PCOD9451120
_publ_section_title
;
Structure prediction by ZEFSAII (Michael W. Deem and Ramdas Pophale) SiO2 
 PCOD9451120
Probable space group: P M M N
;
_chemical_formula_sum "Si O2"
_cell_formula_units_Z 64
_cell_length_a 8.965253
_cell_length_b 18.845029
_cell_length_c 20.305758
_cell_angle_alpha 90.000000
_cell_angle_beta 90.000000
_cell_angle_gamma 90.000000
_cell_volume 3430.667008
_symmetry_space_group_name_H-M "P M M N"
_symmetry_group_IT_number 59
_space_group.IT_coordinate_system_code '2'
_symmetry_cell_setting 'orthorhombic'
loop_
_space_group_symop_operation_xyz
x,y,z
1/2-x,1/2-y,z
1/2+x,-y,-z
-x,1/2+y,-z
-x,-y,-z
1/2+x,1/2+y,-z
1/2-x,y,z
x,1/2-y,z
loop_
_atom_site_type_symbol
_atom_site_label
_atom_site_fract_x
_atom_site_fract_y
_atom_site_fract_z
Si Si1 0.928264 0.439838 0.588282
Si Si2 0.573588 0.409923 0.436769
Si Si3 0.427635 0.330831 0.324935
Si Si4 0.429033 0.332348 0.093321
Si Si5 0.570359 0.916358 0.179995
Si Si6 0.071116 0.071598 0.971106
Si Si7 0.428292 0.921731 0.789274
Si Si8 0.070071 0.831348 0.296427
O O1 0.750000 0.453438 0.594549
O O2 0.953476 0.408658 0.515099
O O3 0.974624 0.385048 0.644918
O O4 0.014257 0.514321 0.589753
O O5 0.750000 0.404403 0.425281
O O6 0.488012 0.349680 0.396960
O O7 0.250000 0.338560 0.322623
O O8 0.465560 0.250000 0.306577
O O9 0.502114 0.384877 0.274282
O O10 0.250000 0.337141 0.103855
O O11 0.471629 0.250000 0.098501
O O12 0.509991 0.379971 0.147482
O O13 0.461640 0.364885 0.021624
O O14 0.750000 0.908702 0.182559
O O15 0.522999 0.912528 0.103548
O O16 0.496252 0.859931 0.228227
O O17 0.531473 0.995506 0.204983
O O18 0.250000 0.061419 0.969491
O O19 0.000000 0.000000 0.000000
O O20 0.250000 0.916598 0.787353
O O21 0.250000 0.833198 0.293228
O O22 0.024847 0.750000 0.309220
#
# Coordination Sequence:
#
# PCOD9451120 Si02
#       8
#     8   8   8   8   8   8   8   8
#     4   9  19  37  60  84 114 152 189 233 287 341
#     4  10  20  35  59  88 114 144 190 241 286 338
#     4  11  24  39  54  77 113 153 190 229 279 341
#     4  10  21  36  56  83 113 148 187 227 281 346
#     4  10  22  38  58  85 114 146 186 232 281 335
#     4  10  20  37  59  83 112 147 188 232 279 337
#     4  11  22  37  58  84 112 144 187 235 281 335
#     4  10  22  39  58  83 114 150 194 237 281 338
#
# _framework density 18.655265
#
# number of rings (size 3 to 8) (size 9 to 14) (size 15 to 20)
#    0.000    1.875    1.250    2.250    0.000    8.500 
#    0.000    2.500    0.000    0.000    0.000    0.000 
#    0.000    0.000    0.000    0.000    0.000    0.000 
#
# Total GULP energy -357527.902388 kJ/mol
# GULP energy per Si atom -5586.373475 kJ/mol
# Density = 1.861280 g / cm^3
# Si number density = 18.655265 Si / 1000 Ang^3
#
#
#
# Elastic Constant Matrix: (Units=GPa)
#
#
# Indices 1 2 3 4 5 6 
#
# 1 13.2122 15.7685 16.3627 0.0000 0.0000 0.0000
# 2 15.7685 54.1499 23.5365 0.0000 0.0000 0.0000
# 3 16.3627 23.5365 87.5348 0.0000 0.0000 0.0000
# 4 0.0000 0.0000 0.0000 15.8900 0.0000 0.0000
# 5 0.0000 0.0000 0.0000 0.0000 32.4587 0.0000
# 6 0.0000 0.0000 0.0000 0.0000 0.0000 25.8458
#
#
#
# Elastic Compliance Matrix: (Units=1/GPa)
#
#
# Indices 1 2 3 4 5 6 
#
# 1 0.134215 -0.031908 -0.016509 0.000000 0.000000 0.000000
# 2 -0.031908 0.028497 -0.001698 0.000000 0.000000 0.000000
# 3 -0.016509 -0.001698 0.014967 0.000000 0.000000 0.000000
# 4 0.000000 0.000000 0.000000 0.062933 0.000000 0.000000
# 5 0.000000 0.000000 0.000000 0.000000 0.030808 0.000000
# 6 0.000000 0.000000 0.000000 0.000000 0.000000 0.038691
#
#
# Mechanical properties :
#
#
# Convention : Reuss Voigt Hill
#
# Bulk Modulus (GPa) = 12.91174 29.58137 21.24655
# Shear Modulus (GPa) = 11.46379 21.45415 16.45897
#
# Velocity S-wave (km/s) = 2.48161 3.39489 2.97352
# Velocity P-wave (km/s) = 3.89197 5.59091 4.81694
#
# Compressibility (1/GPa) = 0.07744892
#
# Stress axis : x y z
#
# Youngs Moduli (GPa) = 7.45074 35.09169 66.81556
#
# Poissons Ratio (x) = 1.11969 1.10307
# Poissons Ratio (y) = 0.23774 0.11344
# Poissons Ratio (z) = 0.12301 0.05958
#
# Static dielectric constant tensor:
#      x y z
#    x 1.624120 0.000000 0.000000 
#    y 0.000000 1.622130 0.000000 
#    z 0.000000 0.000000 1.646450 
# 
# From -- ./inp_files/29544.got.cif
#   From: 2010.05.17/outbox.cif.g08.bks.cpg/sg59_15_cif.got.tgz:29544.got - 2010.06.03 14:40:33.
