data_PCOD9451067
_publ_section_title
;
Structure prediction by ZEFSAII (Michael W. Deem and Ramdas Pophale) SiO2 
 PCOD9451067
Probable space group: P M M N
;
_chemical_formula_sum "Si O2"
_cell_formula_units_Z 56
_cell_length_a 17.227572
_cell_length_b 14.440198
_cell_length_c 11.969125
_cell_angle_alpha 90.000000
_cell_angle_beta 90.000000
_cell_angle_gamma 90.000000
_cell_volume 2977.553849
_symmetry_space_group_name_H-M "P M M N"
_symmetry_group_IT_number 59
_space_group.IT_coordinate_system_code '2'
_symmetry_cell_setting 'orthorhombic'
loop_
_space_group_symop_operation_xyz
x,y,z
1/2-x,1/2-y,z
1/2+x,-y,-z
-x,1/2+y,-z
-x,-y,-z
1/2+x,1/2+y,-z
1/2-x,y,z
x,1/2-y,z
loop_
_atom_site_type_symbol
_atom_site_label
_atom_site_fract_x
_atom_site_fract_y
_atom_site_fract_z
Si Si1 0.091760 0.020264 0.486156
Si Si2 0.428309 0.997934 0.241566
Si Si3 0.340544 0.856166 0.624015
Si Si4 0.158148 0.544544 0.026155
Si Si5 0.053687 0.858654 0.843707
Si Si6 0.157876 0.149029 0.908120
Si Si7 0.560621 0.644097 0.317234
O O1 0.103505 0.102488 0.574475
O O2 0.107106 0.038671 0.356214
O O3 0.136076 0.930161 0.531051
O O4 0.000000 0.000000 0.500000
O O5 0.367315 0.956123 0.154822
O O6 0.486779 0.917610 0.283073
O O7 0.480530 0.075046 0.178871
O O8 0.250000 0.865793 0.652374
O O9 0.354382 0.750000 0.587473
O O10 0.391641 0.872648 0.734559
O O11 0.250000 0.564349 0.011623
O O12 0.103456 0.610174 0.951298
O O13 0.141513 0.440463 0.981797
O O14 0.033860 0.750000 0.850714
O O15 0.250000 0.150123 0.891341
O O16 0.134680 0.250000 0.956059
O O17 0.116603 0.139197 0.789461
O O18 0.538164 0.750000 0.337581
#
# Coordination Sequence:
#
# PCOD9451067 Si02
#       7
#     8   8   8   8   8   8   8
#     4  10  20  37  56  82 119 157 198 242 291 352
#     4  11  23  40  57  87 120 160 203 239 299 361
#     4  10  20  36  62  93 122 156 200 251 306 357
#     4  11  23  40  60  84 121 159 197 246 298 361
#     4  11  22  38  62  91 121 155 203 256 302 352
#     4   9  18  34  58  85 112 147 192 242 295 347
#     4  10  20  35  58  86 114 150 195 248 296 343
#
# _framework density 18.807383999999999
#
# number of rings (size 3 to 8) (size 9 to 14) (size 15 to 20)
#    0.000    1.714    4.286    0.857    0.000    7.143 
#    0.000    0.000    0.000    0.000    0.000    2.000 
#    0.000    0.000    0.000    0.000    0.000    0.000 
#
# Total GULP energy -312488.150735 kJ/mol
# GULP energy per Si atom -5580.145549 kJ/mol
# Density = 1.876458 g / cm^3
# Si number density = 18.807384 Si / 1000 Ang^3
#
#
#
# Elastic Constant Matrix: (Units=GPa)
#
#
# Indices 1 2 3 4 5 6 
#
# 1 29.3672 18.9033 16.6550 0.0000 0.0000 0.0000
# 2 18.9033 75.1244 14.5162 0.0000 0.0000 0.0000
# 3 16.6550 14.5162 87.7779 0.0000 0.0000 0.0000
# 4 0.0000 0.0000 0.0000 6.0897 0.0000 0.0000
# 5 0.0000 0.0000 0.0000 0.0000 15.8353 0.0000
# 6 0.0000 0.0000 0.0000 0.0000 0.0000 14.7696
#
#
#
# Elastic Compliance Matrix: (Units=1/GPa)
#
#
# Indices 1 2 3 4 5 6 
#
# 1 0.044207 -0.009816 -0.006764 0.000000 0.000000 0.000000
# 2 -0.009816 0.015930 -0.000772 0.000000 0.000000 0.000000
# 3 -0.006764 -0.000772 0.012804 0.000000 0.000000 0.000000
# 4 0.000000 0.000000 0.000000 0.164211 0.000000 0.000000
# 5 0.000000 0.000000 0.000000 0.000000 0.063150 0.000000
# 6 0.000000 0.000000 0.000000 0.000000 0.000000 0.067707
#
#
# Mechanical properties :
#
#
# Convention : Reuss Voigt Hill
#
# Bulk Modulus (GPa) = 26.15396 32.49094 29.32245
# Shear Modulus (GPa) = 12.03487 16.81859 14.42673
#
# Velocity S-wave (km/s) = 2.53237 2.99365 2.77262
# Velocity P-wave (km/s) = 4.74204 5.40947 5.08672
#
# Compressibility (1/GPa) = 0.03823512
#
# Stress axis : x y z
#
# Youngs Moduli (GPa) = 22.62101 62.77274 78.10353
#
# Poissons Ratio (x) = 0.61621 0.52832
# Poissons Ratio (y) = 0.22206 0.06029
# Poissons Ratio (z) = 0.15302 0.04845
#
# Static dielectric constant tensor:
#      x y z
#    x 1.670250 0.000000 0.000000 
#    y 0.000000 1.666650 0.000000 
#    z 0.000000 0.000000 1.583310 
# 
# From -- ./inp_files/16935.got.cif
#   From: 2010.05.17/outbox.cif.g08.bks.cpg/sg59_9_cif.got.tgz:16935.got - 2010.06.03 14:40:33.
