data_PCOD9451602
_publ_section_title
;
Structure prediction by ZEFSAII (Michael W. Deem and Ramdas Pophale) SiO2 
 PCOD9451602
Probable space group: P M M N
;
_chemical_formula_sum "Si O2"
_cell_formula_units_Z 40
_cell_length_a 18.400098
_cell_length_b 19.040793
_cell_length_c 4.986501
_cell_angle_alpha 90.000000
_cell_angle_beta 90.000000
_cell_angle_gamma 90.000000
_cell_volume 1747.032878
_symmetry_space_group_name_H-M "P M M N"
_symmetry_group_IT_number 59
_space_group.IT_coordinate_system_code '2'
_symmetry_cell_setting 'orthorhombic'
loop_
_space_group_symop_operation_xyz
x,y,z
1/2-x,1/2-y,z
1/2+x,-y,-z
-x,1/2+y,-z
-x,-y,-z
1/2+x,1/2+y,-z
1/2-x,y,z
x,1/2-y,z
loop_
_atom_site_type_symbol
_atom_site_label
_atom_site_fract_x
_atom_site_fract_y
_atom_site_fract_z
Si Si1 0.116002 0.560482 0.921996
Si Si2 0.670201 0.370194 0.561678
Si Si3 0.027289 0.674199 0.697873
Si Si4 0.624242 0.669476 0.410074
Si Si5 0.833525 0.915679 0.908670
O O1 0.156723 0.562932 0.635383
O O2 0.041694 0.604789 0.876925
O O3 0.160852 0.606902 0.133642
O O4 0.115851 0.482946 0.037627
O O5 0.750000 0.340965 0.514257
O O6 0.602279 0.324151 0.469782
O O7 0.018419 0.750000 0.839699
O O8 0.959940 0.665436 0.499693
O O9 0.648050 0.750000 0.448312
O O10 0.662361 0.615749 0.612486
O O11 0.639820 0.644937 0.110224
O O12 0.750000 0.935586 0.967605
#
# Coordination Sequence:
#
# PCOD9451602 Si02
#       5
#     8   8   8   8   8
#     4  10  23  40  67  92 131 167 213 260 318 379
#     4  10  20  38  61  92 129 166 211 258 307 371
#     4   9  24  44  65  94 134 174 215 262 317 382
#     4  11  26  45  68  95 129 170 214 267 328 387
#     4  12  25  43  69  98 129 167 214 271 326 381
#
# _framework density 22.895961
#
# number of rings (size 3 to 8) (size 9 to 14) (size 15 to 20)
#    1.200    0.400    0.000    4.200    2.800    5.200 
#    0.000    0.000    0.000    0.000    0.000    0.000 
#    0.000    0.000    0.000    0.000    0.000    0.000 
#
# Total GULP energy -223192.034327 kJ/mol
# GULP energy per Si atom -5579.800858 kJ/mol
# Density = 2.284385 g / cm^3
# Si number density = 22.895961 Si / 1000 Ang^3
#
#
#
# Elastic Constant Matrix: (Units=GPa)
#
#
# Indices 1 2 3 4 5 6 
#
# 1 83.1844 16.8384 -6.1776 0.0000 0.0000 0.0000
# 2 16.8384 95.7375 -12.8998 0.0000 0.0000 0.0000
# 3 -6.1776 -12.8998 40.9101 0.0000 0.0000 0.0000
# 4 0.0000 0.0000 0.0000 24.8619 0.0000 0.0000
# 5 0.0000 0.0000 0.0000 0.0000 22.6602 0.0000
# 6 0.0000 0.0000 0.0000 0.0000 0.0000 18.2419
#
#
#
# Elastic Compliance Matrix: (Units=1/GPa)
#
#
# Indices 1 2 3 4 5 6 
#
# 1 0.012526 -0.002035 0.001250 0.000000 0.000000 0.000000
# 2 -0.002035 0.011239 0.003237 0.000000 0.000000 0.000000
# 3 0.001250 0.003237 0.025653 0.000000 0.000000 0.000000
# 4 0.000000 0.000000 0.000000 0.040222 0.000000 0.000000
# 5 0.000000 0.000000 0.000000 0.000000 0.044130 0.000000
# 6 0.000000 0.000000 0.000000 0.000000 0.000000 0.054819
#
#
# Mechanical properties :
#
#
# Convention : Reuss Voigt Hill
#
# Bulk Modulus (GPa) = 18.40857 23.92820 21.16839
# Shear Modulus (GPa) = 24.77782 27.95754 26.36768
#
# Velocity S-wave (km/s) = 3.29324 3.49817 3.39725
# Velocity P-wave (km/s) = 4.74532 5.17589 4.96527
#
# Compressibility (1/GPa) = 0.05432253
#
# Stress axis : x y z
#
# Youngs Moduli (GPa) = 79.83279 88.97417 38.98145
#
# Poissons Ratio (x) = 0.18104 -0.04872
# Poissons Ratio (y) = 0.16244 -0.12617
# Poissons Ratio (z) = -0.09979 -0.28798
#
# Static dielectric constant tensor:
#      x y z
#    x 1.847580 0.000000 0.000000 
#    y 0.000000 1.864450 0.000000 
#    z 0.000000 0.000000 1.808170 
# 
# From -- ./inp_files/2629.got.cif
#   From: 2010.05.17/outbox.cif.g08.bks.cpg/sg59_2_cif.got.tgz:2629.got - 2010.06.03 14:40:33.
