data_PCOD9451885
_publ_section_title
;
Structure prediction by ZEFSAII (Michael W. Deem and Ramdas Pophale) SiO2 
 PCOD9451885
Probable space group: P M M N
;
_chemical_formula_sum "Si O2"
_cell_formula_units_Z 64
_cell_length_a 13.919997
_cell_length_b 9.350684
_cell_length_c 26.926087
_cell_angle_alpha 90.000000
_cell_angle_beta 90.000000
_cell_angle_gamma 90.000000
_cell_volume 3504.739691
_symmetry_space_group_name_H-M "P M M N"
_symmetry_group_IT_number 59
_space_group.IT_coordinate_system_code '2'
_symmetry_cell_setting 'orthorhombic'
loop_
_space_group_symop_operation_xyz
x,y,z
1/2-x,1/2-y,z
1/2+x,-y,-z
-x,1/2+y,-z
-x,-y,-z
1/2+x,1/2+y,-z
1/2-x,y,z
x,1/2-y,z
loop_
_atom_site_type_symbol
_atom_site_label
_atom_site_fract_x
_atom_site_fract_y
_atom_site_fract_z
Si Si1 0.860366 0.920573 0.825802
Si Si2 0.134058 0.585399 0.879439
Si Si3 0.132957 0.586368 0.074174
Si Si4 0.637027 0.578416 0.321005
Si Si5 0.858117 0.420964 0.520213
Si Si6 0.632468 0.914202 0.023345
Si Si7 0.547224 0.079315 0.227456
Si Si8 0.447294 0.421647 0.572876
O O1 0.750000 0.958417 0.814563
O O2 0.864664 0.750000 0.834954
O O3 0.935113 0.953009 0.782272
O O4 0.891226 0.000064 0.876080
O O5 0.250000 0.584480 0.878771
O O6 0.102920 0.750000 0.888568
O O7 0.102592 0.484651 0.924569
O O8 0.098074 0.542666 0.824956
O O9 0.250000 0.588128 0.072767
O O10 0.100403 0.750000 0.076309
O O11 0.102087 0.507497 0.023970
O O12 0.750000 0.544169 0.324493
O O13 0.628010 0.750000 0.315992
O O14 0.591501 0.503119 0.273422
O O15 0.584991 0.535419 0.372191
O O16 0.750000 0.457514 0.536077
O O17 0.862310 0.250000 0.511638
O O18 0.884832 0.501475 0.469423
O O19 0.941837 0.455193 0.559659
O O20 0.750000 0.915029 0.023328
O O21 0.602265 0.750000 0.018486
O O22 0.558834 0.250000 0.234528
O O23 0.434218 0.250000 0.568724
#
# Coordination Sequence:
#
# PCOD9451885 Si02
#       8
#     8   8   8   8   8   8   8   8
#     4   9  18  34  54  73  95 124 159 203 255 307
#     4   9  17  30  47  67  93 123 155 195 244 296
#     4   9  16  27  46  71  96 123 157 197 242 296
#     4  10  21  36  54  77 106 139 173 211 255 302
#     4   9  17  30  51  80 112 145 182 223 263 303
#     4   9  16  26  43  68  96 125 156 191 237 296
#     4  10  21  36  54  75  98 128 168 212 257 304
#     4   9  18  33  52  76 109 147 183 218 260 309
#
# _framework density 18.260984000000001
#
# number of rings (size 3 to 8) (size 9 to 14) (size 15 to 20)
#    0.000    2.750    0.000    1.500    0.000    6.000 
#    0.000    2.500    0.000    0.750    0.000    0.000 
#    0.000    0.000    0.000    0.000    0.000    0.000 
#
# Total GULP energy -357263.180943 kJ/mol
# GULP energy per Si atom -5582.237202 kJ/mol
# Density = 1.821942 g / cm^3
# Si number density = 18.260984 Si / 1000 Ang^3
#
#
#
# Elastic Constant Matrix: (Units=GPa)
#
#
# Indices 1 2 3 4 5 6 
#
# 1 105.5479 36.7466 70.7099 0.0000 0.0000 0.0000
# 2 36.7466 52.4193 64.7961 0.0000 0.0000 0.0000
# 3 70.7099 64.7961 155.7320 0.0000 0.0000 0.0000
# 4 0.0000 0.0000 0.0000 34.4498 0.0000 0.0000
# 5 0.0000 0.0000 0.0000 0.0000 24.8436 0.0000
# 6 0.0000 0.0000 0.0000 0.0000 0.0000 16.8239
#
#
#
# Elastic Compliance Matrix: (Units=1/GPa)
#
#
# Indices 1 2 3 4 5 6 
#
# 1 0.014019 -0.004034 -0.004687 0.000000 0.000000 0.000000
# 2 -0.004034 0.040439 -0.014994 0.000000 0.000000 0.000000
# 3 -0.004687 -0.014994 0.014788 0.000000 0.000000 0.000000
# 4 0.000000 0.000000 0.000000 0.029028 0.000000 0.000000
# 5 0.000000 0.000000 0.000000 0.000000 0.040252 0.000000
# 6 0.000000 0.000000 0.000000 0.000000 0.000000 0.059439
#
#
# Mechanical properties :
#
#
# Convention : Reuss Voigt Hill
#
# Bulk Modulus (GPa) = 45.83744 73.13384 59.48564
# Shear Modulus (GPa) = 19.78896 24.65323 22.22110
#
# Velocity S-wave (km/s) = 3.29549 3.67829 3.49214
# Velocity P-wave (km/s) = 6.29572 7.62731 6.99328
#
# Compressibility (1/GPa) = 0.02181623
#
# Stress axis : x y z
#
# Youngs Moduli (GPa) = 71.33402 24.72846 67.62252
#
# Poissons Ratio (x) = 0.09975 0.31693
# Poissons Ratio (y) = 0.28776 1.01394
# Poissons Ratio (z) = 0.33432 0.37078
#
# Static dielectric constant tensor:
#      x y z
#    x 1.685500 0.000000 0.000000 
#    y 0.000000 1.609710 0.000000 
#    z 0.000000 0.000000 1.571630 
# 
# From -- ./inp_files/32149.got.cif
#   From: 2010.05.17/outbox.cif.g08.bks.cpg/sg59_17_cif.got.tgz:32149.got - 2010.06.03 14:40:33.
