data_PCOD9451852
_publ_section_title
;
Structure prediction by ZEFSAII (Michael W. Deem and Ramdas Pophale) SiO2 
 PCOD9451852
Probable space group: P M M N
;
_chemical_formula_sum "Si O2"
_cell_formula_units_Z 48
_cell_length_a 9.388739
_cell_length_b 8.691090
_cell_length_c 32.016246
_cell_angle_alpha 90.000000
_cell_angle_beta 90.000000
_cell_angle_gamma 90.000000
_cell_volume 2612.473668
_symmetry_space_group_name_H-M "P M M N"
_symmetry_group_IT_number 59
_space_group.IT_coordinate_system_code '2'
_symmetry_cell_setting 'orthorhombic'
loop_
_space_group_symop_operation_xyz
x,y,z
1/2-x,1/2-y,z
1/2+x,-y,-z
-x,1/2+y,-z
-x,-y,-z
1/2+x,1/2+y,-z
1/2-x,y,z
x,1/2-y,z
loop_
_atom_site_type_symbol
_atom_site_label
_atom_site_fract_x
_atom_site_fract_y
_atom_site_fract_z
Si Si1 0.918979 0.935398 0.697633
Si Si2 0.083912 0.065783 0.619009
Si Si3 0.585591 0.562666 0.791337
Si Si4 0.916838 0.435301 0.127337
Si Si5 0.083811 0.065273 0.460226
Si Si6 0.583434 0.566237 0.039297
O O1 0.750000 0.969282 0.692314
O O2 0.933653 0.750000 0.694493
O O3 0.961343 0.983653 0.744759
O O4 0.012599 0.013462 0.662253
O O5 0.250000 0.018815 0.616956
O O6 0.077791 0.250000 0.615379
O O7 0.994436 0.992625 0.581342
O O8 0.750000 0.517381 0.796367
O O9 0.581326 0.750000 0.791304
O O10 0.495791 0.509821 0.830968
O O11 0.750000 0.474107 0.130763
O O12 0.929518 0.250000 0.125105
O O13 0.971565 0.504082 0.083810
O O14 0.250000 0.017266 0.460718
O O15 0.080002 0.250000 0.461436
O O16 0.000000 0.000000 0.500000
O O17 0.750000 0.520376 0.036194
O O18 0.575418 0.750000 0.039070
O O19 0.500000 0.500000 0.000000
#
# Coordination Sequence:
#
# PCOD9451852 Si02
#       6
#     8   8   8   8   8   8
#     4   9  18  34  56  81 108 140 180 223 266 314
#     4  11  24  39  55  80 113 147 185 226 268 317
#     4   8  15  29  50  76 104 133 169 214 260 308
#     4   9  17  30  49  73 101 133 169 209 255 309
#     4  11  24  41  62  88 115 144 181 223 267 318
#     4  10  21  36  53  74 101 134 171 212 260 312
#
# _framework density 18.373390000000001
#
# number of rings (size 3 to 8) (size 9 to 14) (size 15 to 20)
#    0.000    2.333    0.000    3.500    0.000    9.333 
#    0.000    4.167    0.000    3.000    0.000    0.000 
#    0.000    0.000    0.000    0.000    0.000    0.000 
#
# Total GULP energy -267903.320978 kJ/mol
# GULP energy per Si atom -5581.319187 kJ/mol
# Density = 1.833157 g / cm^3
# Si number density = 18.373390 Si / 1000 Ang^3
#
#
#
# Elastic Constant Matrix: (Units=GPa)
#
#
# Indices 1 2 3 4 5 6 
#
# 1 111.1542 39.0414 105.5548 0.0000 0.0000 0.0000
# 2 39.0414 23.5110 40.4491 0.0000 0.0000 0.0000
# 3 105.5548 40.4491 209.8926 0.0000 0.0000 0.0000
# 4 0.0000 0.0000 0.0000 31.4970 0.0000 0.0000
# 5 0.0000 0.0000 0.0000 0.0000 41.7324 0.0000
# 6 0.0000 0.0000 0.0000 0.0000 0.0000 24.2815
#
#
#
# Elastic Compliance Matrix: (Units=1/GPa)
#
#
# Indices 1 2 3 4 5 6 
#
# 1 0.027916 -0.033216 -0.007638 0.000000 0.000000 0.000000
# 2 -0.033216 0.103152 -0.003174 0.000000 0.000000 0.000000
# 3 -0.007638 -0.003174 0.009217 0.000000 0.000000 0.000000
# 4 0.000000 0.000000 0.000000 0.031749 0.000000 0.000000
# 5 0.000000 0.000000 0.000000 0.000000 0.023962 0.000000
# 6 0.000000 0.000000 0.000000 0.000000 0.000000 0.041184
#
#
# Mechanical properties :
#
#
# Convention : Reuss Voigt Hill
#
# Bulk Modulus (GPa) = 19.14659 79.40537 49.27598
# Shear Modulus (GPa) = 14.59226 30.13634 22.36430
#
# Velocity S-wave (km/s) = 2.82122 4.05435 3.49264
# Velocity P-wave (km/s) = 4.58867 8.07641 6.56827
#
# Compressibility (1/GPa) = 0.05222863
#
# Stress axis : x y z
#
# Youngs Moduli (GPa) = 35.82115 9.69442 108.49303
#
# Poissons Ratio (x) = 0.32201 0.82866
# Poissons Ratio (y) = 1.18985 0.34439
# Poissons Ratio (z) = 0.27360 0.03077
#
# Static dielectric constant tensor:
#      x y z
#    x 1.620110 0.000000 0.000000 
#    y 0.000000 1.624800 0.000000 
#    z 0.000000 0.000000 1.619910 
# 
# From -- ./inp_files/32889.got.cif
#   From: 2010.05.17/outbox.cif.g08.bks.cpg/sg59_17_cif.got.tgz:32889.got - 2010.06.03 14:40:33.
