data_PCOD9451679
_publ_section_title
;
Structure prediction by ZEFSAII (Michael W. Deem and Ramdas Pophale) SiO2 
 PCOD9451679
Probable space group: P M M N
;
_chemical_formula_sum "Si O2"
_cell_formula_units_Z 64
_cell_length_a 19.109961
_cell_length_b 30.663097
_cell_length_c 5.488686
_cell_angle_alpha 90.000000
_cell_angle_beta 90.000000
_cell_angle_gamma 90.000000
_cell_volume 3216.208562
_symmetry_space_group_name_H-M "P M M N"
_symmetry_group_IT_number 59
_space_group.IT_coordinate_system_code '2'
_symmetry_cell_setting 'orthorhombic'
loop_
_space_group_symop_operation_xyz
x,y,z
1/2-x,1/2-y,z
1/2+x,-y,-z
-x,1/2+y,-z
-x,-y,-z
1/2+x,1/2+y,-z
1/2-x,y,z
x,1/2-y,z
loop_
_atom_site_type_symbol
_atom_site_label
_atom_site_fract_x
_atom_site_fract_y
_atom_site_fract_z
Si Si1 0.585635 0.613551 0.207842
Si Si2 0.673754 0.379521 0.117778
Si Si3 0.327514 0.700408 0.507831
Si Si4 0.103690 0.563664 0.517209
Si Si5 0.665953 0.597436 0.698326
Si Si6 0.946922 0.514352 0.209543
Si Si7 0.168572 0.499102 0.154465
Si Si8 0.440682 0.853978 0.262780
O O1 0.633186 0.617622 0.451316
O O2 0.548128 0.566090 0.239614
O O3 0.522194 0.648460 0.198923
O O4 0.628737 0.612452 0.952247
O O5 0.750000 0.382993 0.993632
O O6 0.674859 0.335681 0.281176
O O7 0.662031 0.421207 0.290082
O O8 0.606336 0.374558 0.950054
O O9 0.250000 0.697449 0.383793
O O10 0.334350 0.750000 0.595959
O O11 0.394471 0.687330 0.345418
O O12 0.052146 0.525240 0.600041
O O13 0.139772 0.541876 0.284697
O O14 0.065122 0.609310 0.472655
O O15 0.750000 0.604313 0.710954
O O16 0.653654 0.544799 0.687904
O O17 0.869278 0.509371 0.098099
O O18 0.000000 0.500000 0.000000
O O19 0.250000 0.502259 0.122507
#
# Coordination Sequence:
#
# PCOD9451679 Si02
#       8
#     8   8   8   8   8   8   8   8
#     4  11  23  38  60  84 119 158 202 260 311 365
#     4  10  21  36  53  79 116 155 200 249 301 361
#     4   9  20  40  65  89 117 156 198 240 291 358
#     4  11  21  34  50  73 106 149 205 250 300 355
#     4  10  22  40  60  82 112 156 208 257 309 364
#     4  11  23  35  50  72 106 153 204 251 308 365
#     4  10  21  34  49  71  99 144 201 257 298 336
#     4  11  24  35  56  84 119 152 192 244 308 362
#
# _framework density 19.899207000000001
#
# number of rings (size 3 to 8) (size 9 to 14) (size 15 to 20)
#    0.000    1.625    1.250    3.375    7.000    5.500 
#    0.000    1.250    0.000    0.000    0.000    0.000 
#    0.000    3.000    0.000    0.000    0.000    0.000 
#
# Total GULP energy -356978.638802 kJ/mol
# GULP energy per Si atom -5577.791231 kJ/mol
# Density = 1.985392 g / cm^3
# Si number density = 19.899207 Si / 1000 Ang^3
#
#
#
# Elastic Constant Matrix: (Units=GPa)
#
#
# Indices 1 2 3 4 5 6 
#
# 1 102.6783 33.9822 34.0781 0.0000 0.0000 0.0000
# 2 33.9822 71.3708 11.4581 0.0000 0.0000 0.0000
# 3 34.0781 11.4581 64.3922 0.0000 0.0000 0.0000
# 4 0.0000 0.0000 0.0000 14.6846 0.0000 0.0000
# 5 0.0000 0.0000 0.0000 0.0000 31.8773 0.0000
# 6 0.0000 0.0000 0.0000 0.0000 0.0000 21.7039
#
#
#
# Elastic Compliance Matrix: (Units=1/GPa)
#
#
# Indices 1 2 3 4 5 6 
#
# 1 0.013624 -0.005486 -0.006234 0.000000 0.000000 0.000000
# 2 -0.005486 0.016632 -0.000056 0.000000 0.000000 0.000000
# 3 -0.006234 -0.000056 0.018839 0.000000 0.000000 0.000000
# 4 0.000000 0.000000 0.000000 0.068098 0.000000 0.000000
# 5 0.000000 0.000000 0.000000 0.000000 0.031370 0.000000
# 6 0.000000 0.000000 0.000000 0.000000 0.000000 0.046075
#
#
# Mechanical properties :
#
#
# Convention : Reuss Voigt Hill
#
# Bulk Modulus (GPa) = 39.14981 44.16423 41.65702
# Shear Modulus (GPa) = 22.05508 24.24803 23.15156
#
# Velocity S-wave (km/s) = 3.33279 3.49455 3.41463
# Velocity P-wave (km/s) = 5.87594 6.20682 6.04365
#
# Compressibility (1/GPa) = 0.02554291
#
# Stress axis : x y z
#
# Youngs Moduli (GPa) = 73.40128 60.12352 53.08149
#
# Poissons Ratio (x) = 0.32983 0.33090
# Poissons Ratio (y) = 0.40268 0.00299
# Poissons Ratio (z) = 0.45757 0.00338
#
# Static dielectric constant tensor:
#      x y z
#    x 1.694940 0.000000 0.000000 
#    y 0.000000 1.680960 0.000000 
#    z 0.000000 0.000000 1.628260 
# 
# From -- ./inp_files/3042.got.cif
#   From: 2010.05.17/outbox.cif.g08.bks.cpg/sg59_2_cif.got.tgz:3042.got - 2010.06.03 14:40:33.
