data_PCOD9451166
_publ_section_title
;
Structure prediction by ZEFSAII (Michael W. Deem and Ramdas Pophale) SiO2 
 PCOD9451166
Probable space group: P M M N
;
_chemical_formula_sum "Si O2"
_cell_formula_units_Z 48
_cell_length_a 16.206188
_cell_length_b 7.809410
_cell_length_c 18.073999
_cell_angle_alpha 90.000000
_cell_angle_beta 90.000000
_cell_angle_gamma 90.000000
_cell_volume 2287.459169
_symmetry_space_group_name_H-M "P M M N"
_symmetry_group_IT_number 59
_space_group.IT_coordinate_system_code '2'
_symmetry_cell_setting 'orthorhombic'
loop_
_space_group_symop_operation_xyz
x,y,z
1/2-x,1/2-y,z
1/2+x,-y,-z
-x,1/2+y,-z
-x,-y,-z
1/2+x,1/2+y,-z
1/2-x,y,z
x,1/2-y,z
loop_
_atom_site_type_symbol
_atom_site_label
_atom_site_fract_x
_atom_site_fract_y
_atom_site_fract_z
Si Si1 0.750000 0.942486 0.272485
Si Si2 0.591224 0.043753 0.525847
Si Si3 0.574522 0.458072 0.834586
Si Si4 0.902791 0.044052 0.993756
Si Si5 0.250000 0.550919 0.562823
Si Si6 0.382110 0.547188 0.846542
Si Si7 0.655089 0.040820 0.682425
O O1 0.750000 0.750000 0.299609
O O2 0.750000 0.046429 0.348410
O O3 0.671896 0.971592 0.219132
O O4 0.595623 0.250000 0.526728
O O5 0.665645 0.978914 0.473055
O O6 0.607158 0.982972 0.609544
O O7 0.500000 0.000000 0.500000
O O8 0.574844 0.250000 0.835409
O O9 0.479231 0.514856 0.835139
O O10 0.617372 0.518043 0.759853
O O11 0.618744 0.515560 0.911013
O O12 0.893724 0.250000 0.994927
O O13 0.862375 0.980273 0.070107
O O14 0.000000 0.000000 0.000000
O O15 0.250000 0.750000 0.540615
O O16 0.366352 0.750000 0.845928
O O17 0.750000 0.990184 0.675580
O O18 0.652778 0.250000 0.683645
#
# Coordination Sequence:
#
# PCOD9451166 Si02
#       7
#     4   8   8   8   4   8   8
#     4  12  26  40  56  79 108 144 188 241 288 334
#     4  10  21  38  61  86 114 149 187 228 280 339
#     4   9  17  31  55  86 113 144 190 230 265 320
#     4   8  15  29  50  77 107 143 181 223 267 317
#     4  10  22  42  62  83 116 152 188 235 288 348
#     4  10  20  36  55  78 112 150 186 228 282 336
#     4   9  17  33  56  83 114 144 178 224 273 324
#
# _framework density 20.983982000000001
#
# number of rings (size 3 to 8) (size 9 to 14) (size 15 to 20)
#    0.000    2.500    0.833    1.250    2.333    1.333 
#    1.500    0.000    0.000    1.500    0.000    0.000 
#    0.000    0.000    0.000    0.000    0.000    0.000 
#
# Total GULP energy -267722.105601 kJ/mol
# GULP energy per Si atom -5577.543867 kJ/mol
# Density = 2.093622 g / cm^3
# Si number density = 20.983982 Si / 1000 Ang^3
#
#
#
# Elastic Constant Matrix: (Units=GPa)
#
#
# Indices 1 2 3 4 5 6 
#
# 1 101.5922 -0.2596 82.6531 0.0000 0.0000 0.0000
# 2 -0.2596 29.7494 -1.4176 0.0000 0.0000 0.0000
# 3 82.6531 -1.4176 195.3007 0.0000 0.0000 0.0000
# 4 0.0000 0.0000 0.0000 2.7680 0.0000 0.0000
# 5 0.0000 0.0000 0.0000 0.0000 27.9424 0.0000
# 6 0.0000 0.0000 0.0000 0.0000 0.0000 10.7123
#
#
#
# Elastic Compliance Matrix: (Units=1/GPa)
#
#
# Indices 1 2 3 4 5 6 
#
# 1 0.015013 -0.000172 -0.006355 0.000000 0.000000 0.000000
# 2 -0.000172 0.033628 0.000317 0.000000 0.000000 0.000000
# 3 -0.006355 0.000317 0.007812 0.000000 0.000000 0.000000
# 4 0.000000 0.000000 0.000000 0.361270 0.000000 0.000000
# 5 0.000000 0.000000 0.000000 0.000000 0.035788 0.000000
# 6 0.000000 0.000000 0.000000 0.000000 0.000000 0.093350
#
#
# Mechanical properties :
#
#
# Convention : Reuss Voigt Hill
#
# Bulk Modulus (GPa) = 22.71024 54.28825 38.49924
# Shear Modulus (GPa) = 8.71143 24.66230 16.68687
#
# Velocity S-wave (km/s) = 2.03972 3.43197 2.82302
# Velocity P-wave (km/s) = 4.04888 6.45229 5.38635
#
# Compressibility (1/GPa) = 0.04403300
#
# Stress axis : x y z
#
# Youngs Moduli (GPa) = 66.60873 29.73734 128.00711
#
# Poissons Ratio (x) = 0.00511 0.81347
# Poissons Ratio (y) = 0.01145 -0.04055
# Poissons Ratio (z) = 0.42329 -0.00942
#
# Static dielectric constant tensor:
#      x y z
#    x 1.714220 0.000000 0.000000 
#    y 0.000000 1.775370 0.000000 
#    z 0.000000 0.000000 1.778050 
# 
# From -- ./inp_files/25614.got.cif
#   From: 2010.05.17/outbox.cif.g08.bks.cpg/sg59_13_cif.got.tgz:25614.got - 2010.06.03 14:40:33.
