data_PCOD9451542
_publ_section_title
;
Structure prediction by ZEFSAII (Michael W. Deem and Ramdas Pophale) SiO2 
 PCOD9451542
Probable space group: P M M N
;
_chemical_formula_sum "Si O2"
_cell_formula_units_Z 64
_cell_length_a 25.192815
_cell_length_b 26.503144
_cell_length_c 5.370976
_cell_angle_alpha 90.000000
_cell_angle_beta 90.000000
_cell_angle_gamma 90.000000
_cell_volume 3586.140540
_symmetry_space_group_name_H-M "P M M N"
_symmetry_group_IT_number 59
_space_group.IT_coordinate_system_code '2'
_symmetry_cell_setting 'orthorhombic'
loop_
_space_group_symop_operation_xyz
x,y,z
1/2-x,1/2-y,z
1/2+x,-y,-z
-x,1/2+y,-z
-x,-y,-z
1/2+x,1/2+y,-z
1/2-x,y,z
x,1/2-y,z
loop_
_atom_site_type_symbol
_atom_site_label
_atom_site_fract_x
_atom_site_fract_y
_atom_site_fract_z
Si Si1 0.596602 0.897576 0.777565
Si Si2 0.377862 0.191499 0.583450
Si Si3 0.871353 0.424956 0.210508
Si Si4 0.501958 0.691366 0.301454
Si Si5 0.308917 0.111730 0.846815
Si Si6 0.349077 0.025216 0.538453
Si Si7 0.687743 0.072489 0.702482
Si Si8 0.980855 0.132184 0.182559
O O1 0.609774 0.843221 0.654805
O O2 0.603711 0.941834 0.576318
O O3 0.536425 0.896509 0.867172
O O4 0.643867 0.904830 0.971285
O O5 0.367500 0.250000 0.527983
O O6 0.433757 0.188441 0.732302
O O7 0.330155 0.163650 0.725351
O O8 0.869215 0.485410 0.255627
O O9 0.841303 0.404823 0.458503
O O10 0.930432 0.404015 0.196927
O O11 0.839856 0.412627 0.959324
O O12 0.488915 0.750000 0.338049
O O13 0.487421 0.660739 0.552117
O O14 0.475538 0.669517 0.052832
O O15 0.250000 0.117017 0.954278
O O16 0.309568 0.067155 0.643582
O O17 0.321724 0.987728 0.340453
O O18 0.750000 0.083074 0.703537
#
# Coordination Sequence:
#
# PCOD9451542 Si02
#       8
#     8   8   8   8   8   8   8   8
#     4  10  21  36  54  79 110 154 196 240 310 351
#     4   9  20  37  54  76 106 145 196 248 303 353
#     4  10  22  36  57  88 117 156 190 247 286 339
#     4  10  20  37  63  86 114 155 192 236 295 351
#     4  11  21  36  54  78 108 148 203 253 296 350
#     4   9  22  36  54  82 106 156 197 240 297 340
#     4  10  20  38  58  82 115 154 195 234 281 333
#     4  11  21  38  59  87 125 147 193 243 289 359
#
# _framework density 17.846484
#
# number of rings (size 3 to 8) (size 9 to 14) (size 15 to 20)
#    0.750    1.250    1.250    2.625    0.000    5.250 
#    0.000    1.250    0.000    0.000    0.000    0.000 
#    0.000   35.000    0.000    0.000    0.000    0.000 
#
# Total GULP energy -356480.743039 kJ/mol
# GULP energy per Si atom -5570.011610 kJ/mol
# Density = 1.780587 g / cm^3
# Si number density = 17.846484 Si / 1000 Ang^3
#
#
#
# Elastic Constant Matrix: (Units=GPa)
#
#
# Indices 1 2 3 4 5 6 
#
# 1 130.5192 36.6471 44.9452 0.0000 0.0000 0.0000
# 2 36.6471 30.7833 10.2907 0.0000 0.0000 0.0000
# 3 44.9452 10.2907 93.4115 0.0000 0.0000 0.0000
# 4 0.0000 0.0000 0.0000 11.9479 0.0000 0.0000
# 5 0.0000 0.0000 0.0000 0.0000 22.6636 0.0000
# 6 0.0000 0.0000 0.0000 0.0000 0.0000 1.0289
#
#
#
# Elastic Compliance Matrix: (Units=1/GPa)
#
#
# Indices 1 2 3 4 5 6 
#
# 1 0.013331 -0.014251 -0.004844 0.000000 0.000000 0.000000
# 2 -0.014251 0.048962 0.001463 0.000000 0.000000 0.000000
# 3 -0.004844 0.001463 0.012875 0.000000 0.000000 0.000000
# 4 0.000000 0.000000 0.000000 0.083697 0.000000 0.000000
# 5 0.000000 0.000000 0.000000 0.000000 0.044124 0.000000
# 6 0.000000 0.000000 0.000000 0.000000 0.000000 0.971865
#
#
# Mechanical properties :
#
#
# Convention : Reuss Voigt Hill
#
# Bulk Modulus (GPa) = 25.06067 48.72000 36.89033
# Shear Modulus (GPa) = 4.08690 17.98349 11.03520
#
# Velocity S-wave (km/s) = 1.51493 3.17784 2.48934
# Velocity P-wave (km/s) = 4.13918 6.38934 5.38314
#
# Compressibility (1/GPa) = 0.03990316
#
# Stress axis : x y z
#
# Youngs Moduli (GPa) = 75.01090 20.42402 77.66962
#
# Poissons Ratio (x) = 0.29107 0.37627
# Poissons Ratio (y) = 1.06901 -0.11364
# Poissons Ratio (z) = 0.36339 -0.02988
#
# Static dielectric constant tensor:
#      x y z
#    x 1.606750 0.000000 0.000000 
#    y 0.000000 1.592920 0.000000 
#    z 0.000000 0.000000 1.679100 
# 
# From -- ./inp_files/3965.got.cif
#   From: 2010.05.17/outbox.cif.g08.bks.cpg/sg59_2_cif.got.tgz:3965.got - 2010.06.03 14:40:33.
