data_PCOD9451596
_publ_section_title
;
Structure prediction by ZEFSAII (Michael W. Deem and Ramdas Pophale) SiO2 
 PCOD9451596
Probable space group: P M M N
;
_chemical_formula_sum "Si O2"
_cell_formula_units_Z 64
_cell_length_a 8.686145
_cell_length_b 19.836376
_cell_length_c 19.224803
_cell_angle_alpha 90.000000
_cell_angle_beta 90.000000
_cell_angle_gamma 90.000000
_cell_volume 3312.465051
_symmetry_space_group_name_H-M "P M M N"
_symmetry_group_IT_number 59
_space_group.IT_coordinate_system_code '2'
_symmetry_cell_setting 'orthorhombic'
loop_
_space_group_symop_operation_xyz
x,y,z
1/2-x,1/2-y,z
1/2+x,-y,-z
-x,1/2+y,-z
-x,-y,-z
1/2+x,1/2+y,-z
1/2-x,y,z
x,1/2-y,z
loop_
_atom_site_type_symbol
_atom_site_label
_atom_site_fract_x
_atom_site_fract_y
_atom_site_fract_z
Si Si1 0.567479 0.943434 0.947678
Si Si2 0.072943 0.825663 0.321203
Si Si3 0.428662 0.828926 0.035456
Si Si4 0.070138 0.078519 0.574702
Si Si5 0.570458 0.480367 0.199535
Si Si6 0.935392 0.327647 0.454085
Si Si7 0.073837 0.141229 0.816192
Si Si8 0.937718 0.442678 0.354218
O O1 0.750000 0.944457 0.954561
O O2 0.519340 0.956010 0.868285
O O3 0.499152 0.873422 0.974629
O O4 0.500000 0.000000 0.000000
O O5 0.250000 0.845349 0.334869
O O6 0.050657 0.750000 0.349316
O O7 0.956846 0.877926 0.355647
O O8 0.038687 0.825541 0.239567
O O9 0.250000 0.847832 0.046283
O O10 0.437024 0.750000 0.020196
O O11 0.520797 0.843741 0.106051
O O12 0.250000 0.073819 0.557308
O O13 0.987109 0.123679 0.516828
O O14 0.011233 0.003517 0.594058
O O15 0.750000 0.459786 0.192964
O O16 0.566351 0.561316 0.196954
O O17 0.511870 0.456021 0.275028
O O18 0.750000 0.324598 0.455617
O O19 0.991991 0.250000 0.457853
O O20 0.981408 0.370239 0.385510
O O21 0.250000 0.163586 0.805490
O O22 0.750000 0.446931 0.353521
#
# Coordination Sequence:
#
# PCOD9451596 Si02
#       8
#     8   8   8   8   8   8   8   8
#     4  12  24  39  62  90 121 158 200 247 298 353
#     4  11  23  36  51  77 117 159 196 237 285 346
#     4  11  24  41  61  87 120 158 200 246 297 357
#     4  11  21  36  58  84 114 151 193 239 291 343
#     4  10  20  38  61  87 118 153 197 247 295 349
#     4  10  21  38  60  86 115 150 191 237 293 351
#     4  11  21  35  58  85 118 158 194 239 295 353
#     4   9  19  38  61  84 115 151 193 241 286 345
#
# _framework density 19.320958999999998
#
# number of rings (size 3 to 8) (size 9 to 14) (size 15 to 20)
#    0.000    1.375    2.500    3.750    0.000    5.750 
#    0.000    1.875    0.000    2.250    0.000    0.000 
#    0.000    0.000    0.000    0.000    0.000    0.000 
#
# Total GULP energy -357493.042930 kJ/mol
# GULP energy per Si atom -5585.828796 kJ/mol
# Density = 1.927698 g / cm^3
# Si number density = 19.320959 Si / 1000 Ang^3
#
#
#
# Elastic Constant Matrix: (Units=GPa)
#
#
# Indices 1 2 3 4 5 6 
#
# 1 49.9752 23.9247 13.1561 0.0000 0.0000 0.0000
# 2 23.9247 95.7270 58.2340 0.0000 0.0000 0.0000
# 3 13.1561 58.2340 97.4011 0.0000 0.0000 0.0000
# 4 0.0000 0.0000 0.0000 22.3515 0.0000 0.0000
# 5 0.0000 0.0000 0.0000 0.0000 27.3623 0.0000
# 6 0.0000 0.0000 0.0000 0.0000 0.0000 20.1356
#
#
#
# Elastic Compliance Matrix: (Units=1/GPa)
#
#
# Indices 1 2 3 4 5 6 
#
# 1 0.022746 -0.005997 0.000513 0.000000 0.000000 0.000000
# 2 -0.005997 0.017999 -0.009951 0.000000 0.000000 0.000000
# 3 0.000513 -0.009951 0.016147 0.000000 0.000000 0.000000
# 4 0.000000 0.000000 0.000000 0.044740 0.000000 0.000000
# 5 0.000000 0.000000 0.000000 0.000000 0.036547 0.000000
# 6 0.000000 0.000000 0.000000 0.000000 0.000000 0.049663
#
#
# Mechanical properties :
#
#
# Convention : Reuss Voigt Hill
#
# Bulk Modulus (GPa) = 38.42926 48.19256 43.31091
# Shear Modulus (GPa) = 21.98918 23.82246 22.90582
#
# Velocity S-wave (km/s) = 3.37723 3.51520 3.44691
# Velocity P-wave (km/s) = 5.92796 6.43994 6.18925
#
# Compressibility (1/GPa) = 0.02602184
#
# Stress axis : x y z
#
# Youngs Moduli (GPa) = 43.96429 55.55950 61.93087
#
# Poissons Ratio (x) = 0.33319 -0.03178
# Poissons Ratio (y) = 0.26365 0.61628
# Poissons Ratio (z) = -0.02256 0.55288
#
# Static dielectric constant tensor:
#      x y z
#    x 1.685660 0.000000 0.000000 
#    y 0.000000 1.695720 0.000000 
#    z 0.000000 0.000000 1.676740 
# 
# From -- ./inp_files/26247.got.cif
#   From: 2010.05.17/outbox.cif.g08.bks.cpg/sg59_14_cif.got.tgz:26247.got - 2010.06.03 14:40:33.
