data_PCOD9451833
_publ_section_title
;
Structure prediction by ZEFSAII (Michael W. Deem and Ramdas Pophale) SiO2 
 PCOD9451833
Probable space group: P M M N
;
_chemical_formula_sum "Si O2"
_cell_formula_units_Z 40
_cell_length_a 7.633969
_cell_length_b 9.452637
_cell_length_c 27.118464
_cell_angle_alpha 90.000000
_cell_angle_beta 90.000000
_cell_angle_gamma 90.000000
_cell_volume 1956.899218
_symmetry_space_group_name_H-M "P M M N"
_symmetry_group_IT_number 59
_space_group.IT_coordinate_system_code '2'
_symmetry_cell_setting 'orthorhombic'
loop_
_space_group_symop_operation_xyz
x,y,z
1/2-x,1/2-y,z
1/2+x,-y,-z
-x,1/2+y,-z
-x,-y,-z
1/2+x,1/2+y,-z
1/2-x,y,z
x,1/2-y,z
loop_
_atom_site_type_symbol
_atom_site_label
_atom_site_fract_x
_atom_site_fract_y
_atom_site_fract_z
Si Si1 0.539327 0.410961 0.951182
Si Si2 0.538385 0.911977 0.238343
Si Si3 0.959643 0.910231 0.858147
Si Si4 0.953299 0.577478 0.345747
Si Si5 0.460837 0.410634 0.548159
O O1 0.750000 0.402783 0.946923
O O2 0.472533 0.250000 0.954179
O O3 0.471953 0.493971 0.903086
O O4 0.500000 0.500000 0.000000
O O5 0.750000 0.906698 0.241765
O O6 0.478483 0.750000 0.229066
O O7 0.470891 0.960481 0.292301
O O8 0.492391 0.013501 0.193669
O O9 0.750000 0.901833 0.864368
O O10 0.028825 0.750000 0.859371
O O11 0.750000 0.531263 0.345040
O O12 0.954385 0.750000 0.346721
O O13 0.028615 0.533036 0.398789
O O14 0.500000 0.500000 0.500000
O O15 0.250000 0.404670 0.552996
O O16 0.524994 0.250000 0.541574
#
# Coordination Sequence:
#
# PCOD9451833 Si02
#       5
#     8   8   8   8   8
#     4  10  21  37  57  79 102 131 167 204 242 285
#     4   9  17  31  53  77  96 120 161 208 247 286
#     4  10  21  36  52  72 102 137 166 195 238 289
#     4   7  12  26  47  68  91 121 158 199 241 285
#     4   9  17  30  48  69  94 125 160 199 243 290
#
# _framework density 20.440501999999999
#
# number of rings (size 3 to 8) (size 9 to 14) (size 15 to 20)
#    0.000    3.000    0.000    3.600    0.000    4.000 
#    0.000    2.000    0.000    9.600    0.000    0.000 
#    0.000    0.000    0.000    0.000    0.000    0.000 
#
# Total GULP energy -222977.415084 kJ/mol
# GULP energy per Si atom -5574.435377 kJ/mol
# Density = 2.039398 g / cm^3
# Si number density = 20.440502 Si / 1000 Ang^3
#
#
#
# Elastic Constant Matrix: (Units=GPa)
#
#
# Indices 1 2 3 4 5 6 
#
# 1 39.9003 7.3827 1.9600 0.0000 0.0000 0.0000
# 2 7.3827 136.0254 116.6998 0.0000 0.0000 0.0000
# 3 1.9600 116.6998 242.8302 0.0000 0.0000 0.0000
# 4 0.0000 0.0000 0.0000 34.9255 0.0000 0.0000
# 5 0.0000 0.0000 0.0000 0.0000 26.1077 0.0000
# 6 0.0000 0.0000 0.0000 0.0000 0.0000 18.0455
#
#
#
# Elastic Compliance Matrix: (Units=1/GPa)
#
#
# Indices 1 2 3 4 5 6 
#
# 1 0.025403 -0.002047 0.000779 0.000000 0.000000 0.000000
# 2 -0.002047 0.012674 -0.006074 0.000000 0.000000 0.000000
# 3 0.000779 -0.006074 0.007031 0.000000 0.000000 0.000000
# 4 0.000000 0.000000 0.000000 0.028632 0.000000 0.000000
# 5 0.000000 0.000000 0.000000 0.000000 0.038303 0.000000
# 6 0.000000 0.000000 0.000000 0.000000 0.000000 0.055415
#
#
# Mechanical properties :
#
#
# Convention : Reuss Voigt Hill
#
# Bulk Modulus (GPa) = 32.86988 74.53786 53.70387
# Shear Modulus (GPa) = 26.00312 35.32998 30.66655
#
# Velocity S-wave (km/s) = 3.57057 4.16195 3.87755
# Velocity P-wave (km/s) = 5.75450 7.72274 6.81010
#
# Compressibility (1/GPa) = 0.03042299
#
# Stress axis : x y z
#
# Youngs Moduli (GPa) = 39.36558 78.90150 142.22603
#
# Poissons Ratio (x) = 0.16149 -0.11073
# Poissons Ratio (y) = 0.08057 0.86394
# Poissons Ratio (z) = -0.03065 0.47928
#
# Static dielectric constant tensor:
#      x y z
#    x 1.786240 0.000000 0.000000 
#    y 0.000000 1.700460 0.000000 
#    z 0.000000 0.000000 1.749230 
# 
# From -- ./inp_files/31152.got.cif
#   From: 2010.05.17/outbox.cif.g08.bks.cpg/sg59_16_cif.got.tgz:31152.got - 2010.06.03 14:40:33.
