data_PCOD9451742
_publ_section_title
;
Structure prediction by ZEFSAII (Michael W. Deem and Ramdas Pophale) SiO2 
 PCOD9451742
Probable space group: P M M N
;
_chemical_formula_sum "Si O2"
_cell_formula_units_Z 40
_cell_length_a 7.698102
_cell_length_b 9.202319
_cell_length_c 30.838694
_cell_angle_alpha 90.000000
_cell_angle_beta 90.000000
_cell_angle_gamma 90.000000
_cell_volume 2184.625119
_symmetry_space_group_name_H-M "P M M N"
_symmetry_group_IT_number 59
_space_group.IT_coordinate_system_code '2'
_symmetry_cell_setting 'orthorhombic'
loop_
_space_group_symop_operation_xyz
x,y,z
1/2-x,1/2-y,z
1/2+x,-y,-z
-x,1/2+y,-z
-x,-y,-z
1/2+x,1/2+y,-z
1/2-x,y,z
x,1/2-y,z
loop_
_atom_site_type_symbol
_atom_site_label
_atom_site_fract_x
_atom_site_fract_y
_atom_site_fract_z
Si Si1 0.750000 0.426618 0.302026
Si Si2 0.250000 0.572528 0.797042
Si Si3 0.045842 0.424486 0.368696
Si Si4 0.541503 0.913796 0.956765
Si Si5 0.049861 0.427564 0.137914
Si Si6 0.458484 0.585497 0.456229
O O1 0.750000 0.250000 0.300517
O O2 0.750000 0.478341 0.252533
O O3 0.579172 0.468623 0.329302
O O4 0.250000 0.750000 0.796338
O O5 0.419733 0.527782 0.824242
O O6 0.250000 0.457780 0.360895
O O7 0.032495 0.250000 0.374273
O O8 0.985321 0.501154 0.412983
O O9 0.750000 0.906166 0.953191
O O10 0.472623 0.750000 0.961075
O O11 0.485691 0.975391 0.909946
O O12 0.500000 0.000000 0.000000
O O13 0.250000 0.472438 0.144947
O O14 0.049736 0.250000 0.136193
O O15 0.500000 0.500000 0.500000
O O16 0.250000 0.592326 0.453489
O O17 0.526732 0.750000 0.457746
#
# Coordination Sequence:
#
# PCOD9451742 Si02
#       6
#     4   4   8   8   8   8
#     4   9  18  30  47  73  99 127 169 209 248 301
#     4   9  16  26  44  69  93 125 163 201 252 301
#     4   9  18  33  50  70 102 136 163 202 251 296
#     4   9  18  30  44  67  96 127 165 205 247 298
#     4   8  15  27  41  62  95 127 158 200 246 297
#     4  10  21  35  52  76 104 135 171 209 249 297
#
# _framework density 18.309778000000001
#
# number of rings (size 3 to 8) (size 9 to 14) (size 15 to 20)
#    0.000    3.000    0.000    1.800    2.800    2.400 
#    0.000    4.000    0.000    0.000    0.000    2.800 
#    0.000    3.200    0.000    0.000    0.000    0.000 
#
# Total GULP energy -222894.354609 kJ/mol
# GULP energy per Si atom -5572.358865 kJ/mol
# Density = 1.826810 g / cm^3
# Si number density = 18.309778 Si / 1000 Ang^3
#
#
#
# Elastic Constant Matrix: (Units=GPa)
#
#
# Indices 1 2 3 4 5 6 
#
# 1 83.1094 24.1190 81.5059 0.0000 0.0000 0.0000
# 2 24.1190 30.3299 47.0194 0.0000 0.0000 0.0000
# 3 81.5059 47.0194 222.3414 0.0000 0.0000 0.0000
# 4 0.0000 0.0000 0.0000 20.6773 0.0000 0.0000
# 5 0.0000 0.0000 0.0000 0.0000 34.0708 0.0000
# 6 0.0000 0.0000 0.0000 0.0000 0.0000 11.1091
#
#
#
# Elastic Compliance Matrix: (Units=1/GPa)
#
#
# Indices 1 2 3 4 5 6 
#
# 1 0.019644 -0.006632 -0.005798 0.000000 0.000000 0.000000
# 2 -0.006632 0.051291 -0.008416 0.000000 0.000000 0.000000
# 3 -0.005798 -0.008416 0.008403 0.000000 0.000000 0.000000
# 4 0.000000 0.000000 0.000000 0.048362 0.000000 0.000000
# 5 0.000000 0.000000 0.000000 0.000000 0.029351 0.000000
# 6 0.000000 0.000000 0.000000 0.000000 0.000000 0.090016
#
#
# Mechanical properties :
#
#
# Convention : Reuss Voigt Hill
#
# Bulk Modulus (GPa) = 26.56352 71.22992 48.89672
# Shear Modulus (GPa) = 16.59439 25.38052 20.98746
#
# Velocity S-wave (km/s) = 3.01377 3.72717 3.38929
# Velocity P-wave (km/s) = 5.16234 7.58351 6.48688
#
# Compressibility (1/GPa) = 0.03764561
#
# Stress axis : x y z
#
# Youngs Moduli (GPa) = 50.90730 19.49661 119.00684
#
# Poissons Ratio (x) = 0.12930 0.69006
# Poissons Ratio (y) = 0.33761 1.00152
# Poissons Ratio (z) = 0.29519 0.16408
#
# Static dielectric constant tensor:
#      x y z
#    x 1.627880 0.000000 0.000000 
#    y 0.000000 1.631530 0.000000 
#    z 0.000000 0.000000 1.626380 
# 
# From -- ./inp_files/32385.got.cif
#   From: 2010.05.17/outbox.cif.g08.bks.cpg/sg59_17_cif.got.tgz:32385.got - 2010.06.03 14:40:33.
