data_PCOD9451292
_publ_section_title
;
Structure prediction by ZEFSAII (Michael W. Deem and Ramdas Pophale) SiO2 
 PCOD9451292
Probable space group: P M M N
;
_chemical_formula_sum "Si O2"
_cell_formula_units_Z 64
_cell_length_a 29.954055
_cell_length_b 18.056126
_cell_length_c 6.345233
_cell_angle_alpha 90.000000
_cell_angle_beta 90.000000
_cell_angle_gamma 90.000000
_cell_volume 3431.845863
_symmetry_space_group_name_H-M "P M M N"
_symmetry_group_IT_number 59
_space_group.IT_coordinate_system_code '2'
_symmetry_cell_setting 'orthorhombic'
loop_
_space_group_symop_operation_xyz
x,y,z
1/2-x,1/2-y,z
1/2+x,-y,-z
-x,1/2+y,-z
-x,-y,-z
1/2+x,1/2+y,-z
1/2-x,y,z
x,1/2-y,z
loop_
_atom_site_type_symbol
_atom_site_label
_atom_site_fract_x
_atom_site_fract_y
_atom_site_fract_z
Si Si1 0.797301 0.828329 0.415106
Si Si2 0.300809 0.435305 0.208941
Si Si3 0.431592 0.441778 0.701952
Si Si4 0.123852 0.532628 0.357878
Si Si5 0.368269 0.334595 0.941265
Si Si6 0.596210 0.165655 0.389937
Si Si7 0.506448 0.164026 0.672560
Si Si8 0.941670 0.421650 0.014536
O O1 0.750000 0.828923 0.292154
O O2 0.797547 0.750000 0.538155
O O3 0.796762 0.897280 0.564668
O O4 0.839956 0.827899 0.272022
O O5 0.250000 0.444637 0.125724
O O6 0.330326 0.507666 0.249703
O O7 0.333438 0.378646 0.087157
O O8 0.396641 0.475169 0.531452
O O9 0.408610 0.388585 0.876906
O O10 0.467591 0.389391 0.589357
O O11 0.453565 0.511822 0.824115
O O12 0.127583 0.609451 0.483898
O O13 0.087904 0.543174 0.171871
O O14 0.379559 0.250000 0.010521
O O15 0.611380 0.250000 0.387932
O O16 0.548946 0.162457 0.516873
O O17 0.587131 0.134394 0.157579
O O18 0.492941 0.250000 0.697641
O O19 0.521103 0.126648 0.894583
#
# Coordination Sequence:
#
# PCOD9451292 Si02
#       8
#     8   8   8   8   8   8   8   8
#     4   9  18  32  50  71  99 138 182 227 271 312
#     4  11  21  36  56  80 109 144 190 236 275 328
#     4  11  21  35  54  79 115 149 188 231 277 328
#     4  10  21  37  57  84 112 147 185 227 283 336
#     4  11  21  34  51  75 110 151 191 230 271 318
#     4   9  20  38  60  85 111 141 184 231 279 340
#     4  10  21  36  54  81 112 148 190 230 274 325
#     4  10  20  36  59  79 111 145 186 229 278 333
#
# _framework density 18.648857
#
# number of rings (size 3 to 8) (size 9 to 14) (size 15 to 20)
#    0.000    1.875    2.500    1.875    0.000    7.250 
#    0.000    0.000    0.000    0.375    0.000    0.000 
#    0.000    0.000    0.000    0.000    0.000    0.000 
#
# Total GULP energy -356439.661471 kJ/mol
# GULP energy per Si atom -5569.369710 kJ/mol
# Density = 1.860641 g / cm^3
# Si number density = 18.648857 Si / 1000 Ang^3
#
#
#
# Elastic Constant Matrix: (Units=GPa)
#
#
# Indices 1 2 3 4 5 6 
#
# 1 34.6907 34.4369 2.9259 0.0000 0.0000 0.0000
# 2 34.4369 132.1656 22.9518 0.0000 0.0000 0.0000
# 3 2.9259 22.9518 42.8545 0.0000 0.0000 0.0000
# 4 0.0000 0.0000 0.0000 22.6776 0.0000 0.0000
# 5 0.0000 0.0000 0.0000 0.0000 17.6551 0.0000
# 6 0.0000 0.0000 0.0000 0.0000 0.0000 18.7639
#
#
#
# Elastic Compliance Matrix: (Units=1/GPa)
#
#
# Indices 1 2 3 4 5 6 
#
# 1 0.039250 -0.010762 0.003084 0.000000 0.000000 0.000000
# 2 -0.010762 0.011293 -0.005314 0.000000 0.000000 0.000000
# 3 0.003084 -0.005314 0.025970 0.000000 0.000000 0.000000
# 4 0.000000 0.000000 0.000000 0.044096 0.000000 0.000000
# 5 0.000000 0.000000 0.000000 0.000000 0.056641 0.000000
# 6 0.000000 0.000000 0.000000 0.000000 0.000000 0.053294
#
#
# Mechanical properties :
#
#
# Convention : Reuss Voigt Hill
#
# Bulk Modulus (GPa) = 19.79042 36.70443 28.24743
# Shear Modulus (GPa) = 18.29019 21.77908 20.03463
#
# Velocity S-wave (km/s) = 3.13512 3.42109 3.28122
# Velocity P-wave (km/s) = 4.87242 5.94388 5.43462
#
# Compressibility (1/GPa) = 0.05052949
#
# Stress axis : x y z
#
# Youngs Moduli (GPa) = 25.47790 88.54834 38.50596
#
# Poissons Ratio (x) = 0.95300 -0.11876
# Poissons Ratio (y) = 0.27420 0.20460
# Poissons Ratio (z) = -0.07858 0.47051
#
# Static dielectric constant tensor:
#      x y z
#    x 1.733940 0.000000 0.000000 
#    y 0.000000 1.701980 0.000000 
#    z 0.000000 0.000000 1.659970 
# 
# From -- ./inp_files/3050.got.cif
#   From: 2010.05.17/outbox.cif.g08.bks.cpg/sg59_2_cif.got.tgz:3050.got - 2010.06.03 14:40:33.
