data_PCOD9451902
_publ_section_title
;
Structure prediction by ZEFSAII (Michael W. Deem and Ramdas Pophale) SiO2 
 PCOD9451902
Probable space group: P M M N
;
_chemical_formula_sum "Si O2"
_cell_formula_units_Z 48
_cell_length_a 8.943924
_cell_length_b 9.357593
_cell_length_c 31.834629
_cell_angle_alpha 90.000000
_cell_angle_beta 90.000000
_cell_angle_gamma 90.000000
_cell_volume 2664.354725
_symmetry_space_group_name_H-M "P M M N"
_symmetry_group_IT_number 59
_space_group.IT_coordinate_system_code '2'
_symmetry_cell_setting 'orthorhombic'
loop_
_space_group_symop_operation_xyz
x,y,z
1/2-x,1/2-y,z
1/2+x,-y,-z
-x,1/2+y,-z
-x,-y,-z
1/2+x,1/2+y,-z
1/2-x,y,z
x,1/2-y,z
loop_
_atom_site_type_symbol
_atom_site_label
_atom_site_fract_x
_atom_site_fract_y
_atom_site_fract_z
Si Si1 0.429841 0.083284 0.877227
Si Si2 0.570904 0.418322 0.789554
Si Si3 0.929103 0.081831 0.539411
Si Si4 0.430617 0.916450 0.960937
Si Si5 0.928136 0.080715 0.382649
Si Si6 0.573225 0.579783 0.705756
O O1 0.250000 0.077928 0.874513
O O2 0.473272 0.250000 0.883366
O O3 0.497308 0.032877 0.833056
O O4 0.477091 0.990567 0.917224
O O5 0.750000 0.434783 0.792994
O O6 0.537475 0.250000 0.784749
O O7 0.521355 0.501027 0.747890
O O8 0.750000 0.068113 0.538024
O O9 0.966584 0.250000 0.537746
O O10 0.000000 0.000000 0.500000
O O11 0.991630 0.010638 0.581687
O O12 0.250000 0.925272 0.963358
O O13 0.473095 0.750000 0.961818
O O14 0.500000 0.000000 0.000000
O O15 0.750000 0.063629 0.385622
O O16 0.962581 0.250000 0.388492
O O17 0.985589 0.039373 0.336358
O O18 0.750000 0.548547 0.699749
O O19 0.557688 0.750000 0.711490
#
# Coordination Sequence:
#
# PCOD9451902 Si02
#       6
#     8   8   8   8   8   8
#     4   9  18  33  51  71  99 134 169 208 258 313
#     4   9  18  32  50  73 101 133 171 215 260 307
#     4  11  24  40  59  84 112 143 180 221 266 317
#     4  10  21  36  54  77 104 135 172 214 261 313
#     4  10  21  37  57  82 111 143 181 223 267 316
#     4   9  18  33  52  74 103 139 175 213 261 313
#
# _framework density 18.015618
#
# number of rings (size 3 to 8) (size 9 to 14) (size 15 to 20)
#    0.000    2.333    0.000    2.000    0.000    8.000 
#    0.000    3.333    0.000    0.000    0.000    0.000 
#    0.000    0.000    0.000    0.000    0.000    0.000 
#
# Total GULP energy -267957.444099 kJ/mol
# GULP energy per Si atom -5582.446752 kJ/mol
# Density = 1.797461 g / cm^3
# Si number density = 18.015618 Si / 1000 Ang^3
#
#
#
# Elastic Constant Matrix: (Units=GPa)
#
#
# Indices 1 2 3 4 5 6 
#
# 1 33.7037 50.9587 59.8098 0.0000 0.0000 0.0000
# 2 50.9587 102.5880 108.0502 0.0000 0.0000 0.0000
# 3 59.8098 108.0502 208.0574 0.0000 0.0000 0.0000
# 4 0.0000 0.0000 0.0000 42.2360 0.0000 0.0000
# 5 0.0000 0.0000 0.0000 0.0000 40.0457 0.0000
# 6 0.0000 0.0000 0.0000 0.0000 0.0000 23.1200
#
#
#
# Elastic Compliance Matrix: (Units=1/GPa)
#
#
# Indices 1 2 3 4 5 6 
#
# 1 0.125137 -0.053577 -0.008149 0.000000 0.000000 0.000000
# 2 -0.053577 0.044456 -0.007686 0.000000 0.000000 0.000000
# 3 -0.008149 -0.007686 0.011140 0.000000 0.000000 0.000000
# 4 0.000000 0.000000 0.000000 0.023676 0.000000 0.000000
# 5 0.000000 0.000000 0.000000 0.000000 0.024971 0.000000
# 6 0.000000 0.000000 0.000000 0.000000 0.000000 0.043253
#
#
# Mechanical properties :
#
#
# Convention : Reuss Voigt Hill
#
# Bulk Modulus (GPa) = 23.86030 86.88740 55.37385
# Shear Modulus (GPa) = 11.75292 29.44904 20.60098
#
# Velocity S-wave (km/s) = 2.55693 4.04745 3.38525
# Velocity P-wave (km/s) = 4.68937 8.37712 6.78846
#
# Compressibility (1/GPa) = 0.04191063
#
# Stress axis : x y z
#
# Youngs Moduli (GPa) = 7.99124 22.49427 89.76434
#
# Poissons Ratio (x) = 1.20517 0.73149
# Poissons Ratio (y) = 0.42814 0.68989
# Poissons Ratio (z) = 0.06512 0.17288
#
# Static dielectric constant tensor:
#      x y z
#    x 1.606600 0.000000 0.000000 
#    y 0.000000 1.606450 0.000000 
#    z 0.000000 0.000000 1.588050 
# 
# From -- ./inp_files/32806.got.cif
#   From: 2010.05.17/outbox.cif.g08.bks.cpg/sg59_17_cif.got.tgz:32806.got - 2010.06.03 14:40:33.
