data_PCOD9451863
_publ_section_title
;
Structure prediction by ZEFSAII (Michael W. Deem and Ramdas Pophale) SiO2 
 PCOD9451863
Probable space group: P M M N
;
_chemical_formula_sum "Si O2"
_cell_formula_units_Z 56
_cell_length_a 15.421113
_cell_length_b 7.636895
_cell_length_c 22.274523
_cell_angle_alpha 90.000000
_cell_angle_beta 90.000000
_cell_angle_gamma 90.000000
_cell_volume 2623.257672
_symmetry_space_group_name_H-M "P M M N"
_symmetry_group_IT_number 59
_space_group.IT_coordinate_system_code '2'
_symmetry_cell_setting 'orthorhombic'
loop_
_space_group_symop_operation_xyz
x,y,z
1/2-x,1/2-y,z
1/2+x,-y,-z
-x,1/2+y,-z
-x,-y,-z
1/2+x,1/2+y,-z
1/2-x,y,z
x,1/2-y,z
loop_
_atom_site_type_symbol
_atom_site_label
_atom_site_fract_x
_atom_site_fract_y
_atom_site_fract_z
Si Si1 0.654346 0.535879 0.697019
Si Si2 0.485888 0.452676 0.916651
Si Si3 0.154718 0.037754 0.694861
Si Si4 0.101415 0.460344 0.433934
Si Si5 0.498377 0.047008 0.219099
Si Si6 0.396517 0.460098 0.563975
Si Si7 0.650795 0.454960 0.988975
O O1 0.750000 0.488778 0.717595
O O2 0.648185 0.750000 0.695096
O O3 0.640430 0.474509 0.628473
O O4 0.581138 0.471824 0.742227
O O5 0.483496 0.250000 0.934923
O O6 0.485716 0.463778 0.845249
O O7 0.400272 0.532328 0.947570
O O8 0.576916 0.527686 0.943146
O O9 0.250000 0.990391 0.716767
O O10 0.147486 0.250000 0.694388
O O11 0.143941 0.975933 0.625990
O O12 0.080704 0.966982 0.737543
O O13 0.113144 0.250000 0.434370
O O14 0.134364 0.526485 0.498739
O O15 0.998921 0.500014 0.432177
O O16 0.479507 0.250000 0.206961
O O17 0.384512 0.250000 0.563195
O O18 0.750000 0.526965 0.988928
O O19 0.659659 0.250000 0.974191
#
# Coordination Sequence:
#
# PCOD9451863 Si02
#       7
#     8   8   8   8   8   8   8
#     4   9  18  32  51  76 104 136 178 225 270 320
#     4  10  21  37  59  87 117 149 182 218 264 310
#     4  10  21  36  53  75 104 139 181 229 280 330
#     4   9  16  29  50  74  99 132 172 218 274 332
#     4  11  22  37  56  78 109 147 186 224 265 316
#     4   9  17  29  49  74 100 130 170 222 278 331
#     4   9  19  38  63  90 119 148 180 217 257 308
#
# _framework density 21.347501000000001
#
# number of rings (size 3 to 8) (size 9 to 14) (size 15 to 20)
#    0.000    2.429    1.429    0.857    0.000    2.857 
#    0.000    2.857    0.000    3.429    0.000    4.000 
#    0.000    0.000    0.000    0.000    0.000    0.000 
#
# Total GULP energy -312382.571621 kJ/mol
# GULP energy per Si atom -5578.260208 kJ/mol
# Density = 2.129891 g / cm^3
# Si number density = 21.347501 Si / 1000 Ang^3
#
#
#
# Elastic Constant Matrix: (Units=GPa)
#
#
# Indices 1 2 3 4 5 6 
#
# 1 121.6525 -5.4920 35.4011 0.0000 0.0000 0.0000
# 2 -5.4920 42.9636 -4.3622 0.0000 0.0000 0.0000
# 3 35.4011 -4.3622 110.3052 0.0000 0.0000 0.0000
# 4 0.0000 0.0000 0.0000 -10.1281 0.0000 0.0000
# 5 0.0000 0.0000 0.0000 0.0000 -35.7454 0.0000
# 6 0.0000 0.0000 0.0000 0.0000 0.0000 10.1599
#
#
#
# Elastic Compliance Matrix: (Units=1/GPa)
#
#
# Indices 1 2 3 4 5 6 
#
# 1 0.009099 0.000870 -0.002886 0.000000 0.000000 0.000000
# 2 0.000870 0.023453 0.000648 0.000000 0.000000 0.000000
# 3 -0.002886 0.000648 0.010018 0.000000 0.000000 0.000000
# 4 0.000000 0.000000 0.000000 -0.098736 0.000000 0.000000
# 5 0.000000 0.000000 0.000000 0.000000 -0.027976 0.000000
# 6 0.000000 0.000000 0.000000 0.000000 0.000000 0.098427
#
#
# Mechanical properties :
#
#
# Convention : Reuss Voigt Hill
#
# Bulk Modulus (GPa) = 25.10398 36.22389 30.66393
# Shear Modulus (GPa) = 165.02844 9.48224 87.25534
#
# Velocity S-wave (km/s) = 8.80191 2.10986 6.40020
# Velocity P-wave (km/s) = 10.72769 4.78966 8.30735
#
# Compressibility (1/GPa) = 0.03983433
#
# Stress axis : x y z
#
# Youngs Moduli (GPa) = 109.89961 42.63922 99.82454
#
# Poissons Ratio (x) = -0.03710 0.28808
# Poissons Ratio (y) = -0.09563 -0.06471
# Poissons Ratio (z) = 0.31716 -0.02764
#
# Static dielectric constant tensor:
#      x y z
#    x 1.764350 0.000000 0.000000 
#    y 0.000000 1.849140 0.000000 
#    z 0.000000 0.000000 1.755690 
# 
# From -- ./inp_files/29085.got.cif
#   From: 2010.05.17/outbox.cif.g08.bks.cpg/sg59_15_cif.got.tgz:29085.got - 2010.06.03 14:40:33.
