data_PCOD9451403
_publ_section_title
;
Structure prediction by ZEFSAII (Michael W. Deem and Ramdas Pophale) SiO2 
 PCOD9451403
Probable space group: P M M N
;
_chemical_formula_sum "Si O2"
_cell_formula_units_Z 44
_cell_length_a 17.783458
_cell_length_b 14.478875
_cell_length_c 8.777350
_cell_angle_alpha 90.000000
_cell_angle_beta 90.000000
_cell_angle_gamma 90.000000
_cell_volume 2260.031273
_symmetry_space_group_name_H-M "P M M N"
_symmetry_group_IT_number 59
_space_group.IT_coordinate_system_code '2'
_symmetry_cell_setting 'orthorhombic'
loop_
_space_group_symop_operation_xyz
x,y,z
1/2-x,1/2-y,z
1/2+x,-y,-z
-x,1/2+y,-z
-x,-y,-z
1/2+x,1/2+y,-z
1/2-x,y,z
x,1/2-y,z
loop_
_atom_site_type_symbol
_atom_site_label
_atom_site_fract_x
_atom_site_fract_y
_atom_site_fract_z
Si Si1 0.337127 0.573095 0.240318
Si Si2 0.420093 0.451764 0.488692
Si Si3 0.167146 0.109193 0.072244
Si Si4 0.943747 0.250000 0.778230
Si Si5 0.477115 0.250000 0.437686
Si Si6 0.833144 0.855221 0.282809
Si Si7 0.034543 0.250000 0.105397
O O1 0.250000 0.600824 0.260144
O O2 0.366524 0.512243 0.382733
O O3 0.341686 0.499101 0.103613
O O4 0.391820 0.659060 0.216230
O O5 0.500000 0.500000 0.500000
O O6 0.431378 0.345878 0.437113
O O7 0.384788 0.435287 0.653341
O O8 0.250000 0.135106 0.141673
O O9 0.092413 0.163930 0.117563
O O10 0.172871 0.132471 0.895758
O O11 0.978999 0.250000 0.603291
O O12 0.995042 0.250000 0.935690
O O13 0.513903 0.250000 0.264381
O O14 0.750000 0.863141 0.353026
O O15 0.859318 0.750000 0.309444
#
# Coordination Sequence:
#
# PCOD9451403 Si02
#       7
#     8   8   8   4   4   8   4
#     4  11  25  45  67  93 130 183 230 276 336 401
#     4  12  23  39  63  92 133 168 219 278 330 403
#     4  10  21  38  63  96 133 170 216 271 335 410
#     4  12  27  47  69  93 137 187 228 280 327 405
#     4  12  24  42  62 106 132 163 224 283 340 397
#     4  10  20  36  61  93 132 172 208 268 342 404
#     4  12  23  39  69 101 135 170 214 277 357 390
#
# _framework density 19.468758999999999
#
# number of rings (size 3 to 8) (size 9 to 14) (size 15 to 20)
#    0.000    0.909    5.455    2.182    0.000    2.182 
#    0.000    0.000    0.000    2.182    0.000    0.000 
#    0.000    0.000    0.000    0.000    0.000    0.000 
#
# Total GULP energy -244978.526571 kJ/mol
# GULP energy per Si atom -5567.693786 kJ/mol
# Density = 1.942445 g / cm^3
# Si number density = 19.468759 Si / 1000 Ang^3
#
#
#
# Elastic Constant Matrix: (Units=GPa)
#
#
# Indices 1 2 3 4 5 6 
#
# 1 108.8665 47.2513 50.2891 0.0000 0.0000 0.0000
# 2 47.2513 107.0794 31.7007 0.0000 0.0000 0.0000
# 3 50.2891 31.7007 100.4171 0.0000 0.0000 0.0000
# 4 0.0000 0.0000 0.0000 28.7844 0.0000 0.0000
# 5 0.0000 0.0000 0.0000 0.0000 26.7474 0.0000
# 6 0.0000 0.0000 0.0000 0.0000 0.0000 40.9094
#
#
#
# Elastic Compliance Matrix: (Units=1/GPa)
#
#
# Indices 1 2 3 4 5 6 
#
# 1 0.013598 -0.004395 -0.005422 0.000000 0.000000 0.000000
# 2 -0.004395 0.011722 -0.001500 0.000000 0.000000 0.000000
# 3 -0.005422 -0.001500 0.013147 0.000000 0.000000 0.000000
# 4 0.000000 0.000000 0.000000 0.034741 0.000000 0.000000
# 5 0.000000 0.000000 0.000000 0.000000 0.037387 0.000000
# 6 0.000000 0.000000 0.000000 0.000000 0.000000 0.024444
#
#
# Mechanical properties :
#
#
# Convention : Reuss Voigt Hill
#
# Bulk Modulus (GPa) = 63.15706 63.87168 63.51437
# Shear Modulus (GPa) = 30.68396 31.76303 31.22349
#
# Velocity S-wave (km/s) = 3.97427 4.04355 4.00906
# Velocity P-wave (km/s) = 7.31918 7.39452 7.35695
#
# Compressibility (1/GPa) = 0.01583354
#
# Stress axis : x y z
#
# Youngs Moduli (GPa) = 73.54045 85.30791 76.06071
#
# Poissons Ratio (x) = 0.37494 0.41243
# Poissons Ratio (y) = 0.32322 0.11405
# Poissons Ratio (z) = 0.39876 0.12792
#
# Static dielectric constant tensor:
#      x y z
#    x 1.733210 0.000000 0.000000 
#    y 0.000000 1.648850 0.000000 
#    z 0.000000 0.000000 1.745030 
# 
# From -- ./inp_files/10211.got.cif
#   From: 2010.05.17/outbox.cif.g08.bks.cpg/sg59_6_cif.got.tgz:10211.got - 2010.06.03 14:40:33.
