data_PCOD9451617
_publ_section_title
;
Structure prediction by ZEFSAII (Michael W. Deem and Ramdas Pophale) SiO2 
 PCOD9451617
Probable space group: P M M N
;
_chemical_formula_sum "Si O2"
_cell_formula_units_Z 48
_cell_length_a 23.889657
_cell_length_b 17.074450
_cell_length_c 5.192261
_cell_angle_alpha 90.000000
_cell_angle_beta 90.000000
_cell_angle_gamma 90.000000
_cell_volume 2117.937561
_symmetry_space_group_name_H-M "P M M N"
_symmetry_group_IT_number 59
_space_group.IT_coordinate_system_code '2'
_symmetry_cell_setting 'orthorhombic'
loop_
_space_group_symop_operation_xyz
x,y,z
1/2-x,1/2-y,z
1/2+x,-y,-z
-x,1/2+y,-z
-x,-y,-z
1/2+x,1/2+y,-z
1/2-x,y,z
x,1/2-y,z
loop_
_atom_site_type_symbol
_atom_site_label
_atom_site_fract_x
_atom_site_fract_y
_atom_site_fract_z
Si Si1 0.686881 0.949343 0.483074
Si Si2 0.188020 0.878313 0.263711
Si Si3 0.418101 0.088665 0.255824
Si Si4 0.529703 0.838868 0.248660
Si Si5 0.386932 0.541523 0.901159
Si Si6 0.421536 0.665444 0.531448
O O1 0.750000 0.921175 0.429786
O O2 0.649298 0.972911 0.236164
O O3 0.692229 0.033779 0.621235
O O4 0.647228 0.897172 0.666252
O O5 0.250000 0.844993 0.250052
O O6 0.141907 0.835295 0.431619
O O7 0.158605 0.894561 0.991875
O O8 0.446219 0.138355 0.028367
O O9 0.417702 0.000730 0.138443
O O10 0.449275 0.104538 0.523104
O O11 0.548414 0.750000 0.308459
O O12 0.462938 0.839789 0.287329
O O13 0.426872 0.589329 0.711249
O O14 0.434198 0.750000 0.658162
#
# Coordination Sequence:
#
# PCOD9451617 Si02
#       6
#     8   8   8   8   8   8
#     4   9  18  37  64  96 127 160 206 258 321 385
#     4   9  19  36  59  89 126 166 212 262 317 378
#     4  11  22  42  67 100 125 170 218 268 328 388
#     4  11  25  44  66  91 131 175 217 267 331 400
#     4  10  20  38  64 100 130 168 218 273 324 389
#     4  10  24  41  59  88 129 179 224 270 328 383
#
# _framework density 22.663557000000001
#
# number of rings (size 3 to 8) (size 9 to 14) (size 15 to 20)
#    0.000    2.000    1.667    1.000    2.333    3.667 
#    0.000    0.000    0.000    3.000    0.000    0.000 
#    0.000    0.000    0.000    0.000    0.000    0.000 
#
# Total GULP energy -267757.346904 kJ/mol
# GULP energy per Si atom -5578.278061 kJ/mol
# Density = 2.261197 g / cm^3
# Si number density = 22.663557 Si / 1000 Ang^3
#
#
#
# Elastic Constant Matrix: (Units=GPa)
#
#
# Indices 1 2 3 4 5 6 
#
# 1 96.8603 38.3942 19.3644 0.0000 0.0000 0.0000
# 2 38.3942 50.8119 15.1977 0.0000 0.0000 0.0000
# 3 19.3644 15.1977 97.1246 0.0000 0.0000 0.0000
# 4 0.0000 0.0000 0.0000 21.8168 0.0000 0.0000
# 5 0.0000 0.0000 0.0000 0.0000 24.7959 0.0000
# 6 0.0000 0.0000 0.0000 0.0000 0.0000 -675.7563
#
#
#
# Elastic Compliance Matrix: (Units=1/GPa)
#
#
# Indices 1 2 3 4 5 6 
#
# 1 0.014886 -0.010869 -0.001267 0.000000 0.000000 0.000000
# 2 -0.010869 0.028583 -0.002306 0.000000 0.000000 0.000000
# 3 -0.001267 -0.002306 0.010909 0.000000 0.000000 0.000000
# 4 0.000000 0.000000 0.000000 0.045836 0.000000 0.000000
# 5 0.000000 0.000000 0.000000 0.000000 0.040329 0.000000
# 6 0.000000 0.000000 0.000000 0.000000 0.000000 -0.001480
#
#
# Mechanical properties :
#
#
# Convention : Reuss Voigt Hill
#
# Bulk Modulus (GPa) = 39.22371 43.41217 41.31794
# Shear Modulus (GPa) = 28.33745 -114.37269 -43.01762
#
# Velocity S-wave (km/s) = 3.53987 -7.11161 -4.36144
# Velocity P-wave (km/s) = 5.83542 6.94527 2.66314
#
# Compressibility (1/GPa) = 0.02549479
#
# Stress axis : x y z
#
# Youngs Moduli (GPa) = 67.17826 34.98622 91.66360
#
# Poissons Ratio (x) = 0.38026 0.11615
# Poissons Ratio (y) = 0.73015 0.21133
# Poissons Ratio (z) = 0.08513 0.08066
#
# Static dielectric constant tensor:
#      x y z
#    x 1.895450 0.000000 0.000000 
#    y 0.000000 1.844440 0.000000 
#    z 0.000000 0.000000 1.914360 
# 
# From -- ./inp_files/3801.got.cif
#   From: 2010.05.17/outbox.cif.g08.bks.cpg/sg59_2_cif.got.tgz:3801.got - 2010.06.03 14:40:33.
