data_PCOD9451777
_publ_section_title
;
Structure prediction by ZEFSAII (Michael W. Deem and Ramdas Pophale) SiO2 
 PCOD9451777
Probable space group: P M M N
;
_chemical_formula_sum "Si O2"
_cell_formula_units_Z 64
_cell_length_a 9.560968
_cell_length_b 22.473184
_cell_length_c 15.254606
_cell_angle_alpha 90.000000
_cell_angle_beta 90.000000
_cell_angle_gamma 90.000000
_cell_volume 3277.686915
_symmetry_space_group_name_H-M "P M M N"
_symmetry_group_IT_number 59
_space_group.IT_coordinate_system_code '2'
_symmetry_cell_setting 'orthorhombic'
loop_
_space_group_symop_operation_xyz
x,y,z
1/2-x,1/2-y,z
1/2+x,-y,-z
-x,1/2+y,-z
-x,-y,-z
1/2+x,1/2+y,-z
1/2-x,y,z
x,1/2-y,z
loop_
_atom_site_type_symbol
_atom_site_label
_atom_site_fract_x
_atom_site_fract_y
_atom_site_fract_z
Si Si1 0.417344 0.318868 0.522983
Si Si2 0.416132 0.610249 0.619697
Si Si3 0.590856 0.678361 0.759388
Si Si4 0.586166 0.639381 0.281494
Si Si5 0.405945 0.647116 0.117125
Si Si6 0.402648 0.320943 0.041401
Si Si7 0.084812 0.998243 0.739074
Si Si8 0.589218 0.005607 0.909924
O O1 0.250000 0.325824 0.509455
O O2 0.452691 0.250000 0.500790
O O3 0.501148 0.365948 0.464520
O O4 0.446234 0.331597 0.625105
O O5 0.250000 0.615830 0.607107
O O6 0.474063 0.651586 0.697687
O O7 0.446782 0.543938 0.656111
O O8 0.750000 0.661136 0.732509
O O9 0.585413 0.750000 0.756036
O O10 0.570839 0.658383 0.859796
O O11 0.750000 0.649372 0.262990
O O12 0.495454 0.664145 0.201818
O O13 0.563939 0.567749 0.284285
O O14 0.250000 0.670926 0.122769
O O15 0.401141 0.575629 0.111625
O O16 0.480960 0.664840 0.028080
O O17 0.250000 0.343696 0.011943
O O18 0.393758 0.250000 0.047327
O O19 0.250000 0.990485 0.760406
O O20 0.993168 0.981281 0.824497
O O21 0.750000 0.983307 0.918997
O O22 0.500000 0.000000 0.000000
#
# Coordination Sequence:
#
# PCOD9451777 Si02
#       8
#     8   8   8   8   8   8   8   8
#     4  10  22  40  62  87 111 141 187 236 282 340
#     4  11  23  36  55  84 116 146 182 232 286 342
#     4   9  19  36  55  76 106 145 189 234 277 332
#     4   9  19  39  62  80 108 150 190 231 281 335
#     4  10  21  35  53  81 114 144 179 230 285 332
#     4   9  19  35  54  77 106 145 191 230 271 332
#     4   9  20  38  56  80 114 150 190 231 279 337
#     4  10  21  35  53  79 112 150 191 232 274 326
#
# _framework density 19.525964999999999
#
# number of rings (size 3 to 8) (size 9 to 14) (size 15 to 20)
#    0.000    2.375    0.000    2.250    1.750    6.750 
#    0.000    2.500    0.000    0.000    0.000    0.000 
#    0.000    0.000    0.000    0.000    0.000    0.000 
#
# Total GULP energy -357165.886583 kJ/mol
# GULP energy per Si atom -5580.716978 kJ/mol
# Density = 1.948152 g / cm^3
# Si number density = 19.525965 Si / 1000 Ang^3
#
#
#
# Elastic Constant Matrix: (Units=GPa)
#
#
# Indices 1 2 3 4 5 6 
#
# 1 63.2981 6.6813 38.0431 0.0000 0.0000 0.0000
# 2 6.6813 27.3481 -6.0208 0.0000 0.0000 0.0000
# 3 38.0431 -6.0208 66.7601 0.0000 0.0000 0.0000
# 4 0.0000 0.0000 0.0000 30.8689 0.0000 0.0000
# 5 0.0000 0.0000 0.0000 0.0000 -0.9355 0.0000
# 6 0.0000 0.0000 0.0000 0.0000 0.0000 20.6788
#
#
#
# Elastic Compliance Matrix: (Units=1/GPa)
#
#
# Indices 1 2 3 4 5 6 
#
# 1 0.026452 -0.009979 -0.015974 0.000000 0.000000 0.000000
# 2 -0.009979 0.041071 0.009391 0.000000 0.000000 0.000000
# 3 -0.015974 0.009391 0.024928 0.000000 0.000000 0.000000
# 4 0.000000 0.000000 0.000000 0.032395 0.000000 0.000000
# 5 0.000000 0.000000 0.000000 0.000000 -1.068995 0.000000
# 6 0.000000 0.000000 0.000000 0.000000 0.000000 0.048359
#
#
# Mechanical properties :
#
#
# Convention : Reuss Voigt Hill
#
# Bulk Modulus (GPa) = 16.85568 26.09038 21.47303
# Shear Modulus (GPa) = -5.93197 18.03595 6.05199
#
# Velocity S-wave (km/s) = -1.74487 3.04253 1.76244
# Velocity P-wave (km/s) = 2.14283 5.07282 3.89392
#
# Compressibility (1/GPa) = 0.05932718
#
# Stress axis : x y z
#
# Youngs Moduli (GPa) = 37.80450 24.34814 40.11494
#
# Poissons Ratio (x) = 0.24297 0.64078
# Poissons Ratio (y) = 0.37725 -0.37670
# Poissons Ratio (z) = 0.60387 -0.22864
#
# Static dielectric constant tensor:
#      x y z
#    x 1.646080 0.000000 0.000000 
#    y 0.000000 1.715320 0.000000 
#    z 0.000000 0.000000 1.666360 
# 
# From -- ./inp_files/21538.got.cif
#   From: 2010.05.17/outbox.cif.g08.bks.cpg/sg59_11_cif.got.tgz:21538.got - 2010.06.03 14:40:33.
