data_PCOD9451210
_publ_section_title
;
Structure prediction by ZEFSAII (Michael W. Deem and Ramdas Pophale) SiO2 
 PCOD9451210
Probable space group: P M M N
;
_chemical_formula_sum "Si O2"
_cell_formula_units_Z 48
_cell_length_a 31.735404
_cell_length_b 8.335784
_cell_length_c 9.657551
_cell_angle_alpha 90.000000
_cell_angle_beta 90.000000
_cell_angle_gamma 90.000000
_cell_volume 2554.803451
_symmetry_space_group_name_H-M "P M M N"
_symmetry_group_IT_number 59
_space_group.IT_coordinate_system_code '2'
_symmetry_cell_setting 'orthorhombic'
loop_
_space_group_symop_operation_xyz
x,y,z
1/2-x,1/2-y,z
1/2+x,-y,-z
-x,1/2+y,-z
-x,-y,-z
1/2+x,1/2+y,-z
1/2-x,y,z
x,1/2-y,z
loop_
_atom_site_type_symbol
_atom_site_label
_atom_site_fract_x
_atom_site_fract_y
_atom_site_fract_z
Si Si1 0.250000 0.946407 0.160018
Si Si2 0.922462 0.558202 0.338496
Si Si3 0.500080 0.941513 0.842894
Si Si4 0.829330 0.056378 0.658646
Si Si5 0.829442 0.056101 0.339658
Si Si6 0.422304 0.056355 0.343248
Si Si7 0.250000 0.946260 0.841618
O O1 0.250000 0.750000 0.160995
O O2 0.291794 0.998606 0.242034
O O3 0.250000 0.998141 0.000792
O O4 0.924405 0.750000 0.337849
O O5 0.958176 0.492635 0.238147
O O6 0.875491 0.504671 0.297491
O O7 0.929335 0.501644 0.497675
O O8 0.502202 0.750000 0.843776
O O9 0.540795 0.002311 0.757293
O O10 0.500000 0.000000 0.000000
O O11 0.829382 0.250000 0.659800
O O12 0.821917 0.005059 0.499162
O O13 0.875731 0.998368 0.700084
O O14 0.830122 0.250000 0.338153
O O15 0.791758 0.002050 0.240634
O O16 0.422904 0.250000 0.344266
O O17 0.250000 0.750000 0.840708
#
# Coordination Sequence:
#
# PCOD9451210 Si02
#       7
#     4   8   8   8   8   8   4
#     4   9  17  29  46  73 102 130 168 213 254 297
#     4  10  20  36  57  80 105 136 174 218 263 311
#     4  11  23  38  55  78 108 141 174 213 261 315
#     4   9  17  30  51  75 100 131 170 212 256 305
#     4   9  17  31  51  75 101 133 171 213 259 307
#     4   9  20  37  56  78 105 135 172 217 264 310
#     4   9  17  29  48  73 102 134 172 215 258 305
#
# _framework density 18.788136999999999
#
# number of rings (size 3 to 8) (size 9 to 14) (size 15 to 20)
#    0.000    2.500    0.000    2.000    0.000    5.333 
#    0.000    2.500    0.000    5.000    0.000    0.000 
#    0.000    0.000    0.000    0.000    0.000    0.000 
#
# Total GULP energy -267915.350576 kJ/mol
# GULP energy per Si atom -5581.569804 kJ/mol
# Density = 1.874537 g / cm^3
# Si number density = 18.788137 Si / 1000 Ang^3
#
#
#
# Elastic Constant Matrix: (Units=GPa)
#
#
# Indices 1 2 3 4 5 6 
#
# 1 209.5372 24.1666 145.0899 0.0000 0.0000 0.0000
# 2 24.1666 13.2010 21.3976 0.0000 0.0000 0.0000
# 3 145.0899 21.3976 141.3637 0.0000 0.0000 0.0000
# 4 0.0000 0.0000 0.0000 18.9103 0.0000 0.0000
# 5 0.0000 0.0000 0.0000 0.0000 -5.7072 0.0000
# 6 0.0000 0.0000 0.0000 0.0000 0.0000 26.9352
#
#
#
# Elastic Compliance Matrix: (Units=1/GPa)
#
#
# Indices 1 2 3 4 5 6 
#
# 1 0.016629 -0.003681 -0.016511 0.000000 0.000000 0.000000
# 2 -0.003681 0.101194 -0.011540 0.000000 0.000000 0.000000
# 3 -0.016511 -0.011540 0.025766 0.000000 0.000000 0.000000
# 4 0.000000 0.000000 0.000000 0.052881 0.000000 0.000000
# 5 0.000000 0.000000 0.000000 0.000000 -0.175218 0.000000
# 6 0.000000 0.000000 0.000000 0.000000 0.000000 0.037126
#
#
# Mechanical properties :
#
#
# Convention : Reuss Voigt Hill
#
# Bulk Modulus (GPa) = 12.47997 82.82334 47.65166
# Shear Modulus (GPa) = 33.65854 19.59084 26.62469
#
# Velocity S-wave (km/s) = 4.23718 3.23263 3.76852
# Velocity P-wave (km/s) = 5.53129 7.62310 6.65983
#
# Compressibility (1/GPa) = 0.08012842
#
# Stress axis : x y z
#
# Youngs Moduli (GPa) = 60.13487 9.88196 38.81026
#
# Poissons Ratio (x) = 0.03637 0.64078
# Poissons Ratio (y) = 0.22133 0.44786
# Poissons Ratio (z) = 0.99286 0.11404
#
# Static dielectric constant tensor:
#      x y z
#    x 1.624770 0.000000 0.000000 
#    y 0.000000 1.653180 0.000000 
#    z 0.000000 0.000000 1.643030 
# 
# From -- ./inp_files/12994.got.cif
#   From: 2010.05.17/outbox.cif.g08.bks.cpg/sg59_7_cif.got.tgz:12994.got - 2010.06.03 14:40:33.
