data_PCOD9451388
_publ_section_title
;
Structure prediction by ZEFSAII (Michael W. Deem and Ramdas Pophale) SiO2 
 PCOD9451388
Probable space group: P M M N
;
_chemical_formula_sum "Si O2"
_cell_formula_units_Z 64
_cell_length_a 7.839179
_cell_length_b 32.077007
_cell_length_c 12.221965
_cell_angle_alpha 90.000000
_cell_angle_beta 90.000000
_cell_angle_gamma 90.000000
_cell_volume 3073.303538
_symmetry_space_group_name_H-M "P M M N"
_symmetry_group_IT_number 59
_space_group.IT_coordinate_system_code '2'
_symmetry_cell_setting 'orthorhombic'
loop_
_space_group_symop_operation_xyz
x,y,z
1/2-x,1/2-y,z
1/2+x,-y,-z
-x,1/2+y,-z
-x,-y,-z
1/2+x,1/2+y,-z
1/2-x,y,z
x,1/2-y,z
loop_
_atom_site_type_symbol
_atom_site_label
_atom_site_fract_x
_atom_site_fract_y
_atom_site_fract_z
Si Si1 0.543262 0.875846 0.872230
Si Si2 0.457870 0.046271 0.731900
Si Si3 0.951199 0.704573 0.741405
Si Si4 0.047641 0.295698 0.740943
Si Si5 0.445282 0.819014 0.501524
Si Si6 0.547103 0.046982 0.278174
Si Si7 0.959118 0.624231 0.124231
Si Si8 0.050659 0.413164 0.504885
O O1 0.750000 0.875102 0.869850
O O2 0.478478 0.835475 0.805410
O O3 0.489517 0.917949 0.811531
O O4 0.488562 0.874469 0.998120
O O5 0.250000 0.046122 0.735567
O O6 0.515403 0.081923 0.815617
O O7 0.507477 0.060493 0.609654
O O8 0.515017 0.999158 0.753817
O O9 0.750000 0.705861 0.767014
O O10 0.024745 0.750000 0.769836
O O11 0.968693 0.697286 0.611802
O O12 0.250000 0.294474 0.762518
O O13 0.976295 0.250000 0.769299
O O14 0.980373 0.335212 0.808625
O O15 0.023825 0.303651 0.612006
O O16 0.250000 0.805490 0.504123
O O17 0.456525 0.869169 0.503155
O O18 0.750000 0.044812 0.295192
O O19 0.468686 0.061656 0.393022
O O20 0.750000 0.624365 0.127020
O O21 0.250000 0.402735 0.521825
#
# Coordination Sequence:
#
# PCOD9451388 Si02
#       8
#     8   8   8   8   8   8   8   8
#     4  10  21  37  59  82 110 151 194 236 278 324
#     4   9  19  35  58  84 114 149 183 229 282 333
#     4  10  21  37  57  82 113 149 189 231 277 332
#     4  10  20  36  61  88 114 148 189 233 280 332
#     4  12  23  35  56  86 118 150 183 227 283 342
#     4  11  22  36  56  85 117 149 185 228 282 338
#     4   9  18  36  59  83 111 147 194 238 276 323
#     4  11  20  36  61  84 112 148 186 230 282 338
#
# _framework density 20.824497000000001
#
# number of rings (size 3 to 8) (size 9 to 14) (size 15 to 20)
#    0.000    1.750    2.500    2.625    0.000    3.000 
#    0.000    5.000    0.000    0.000    0.000    1.750 
#    0.000    0.000    0.000    0.000    0.000    0.000 
#
# Total GULP energy -357615.247054 kJ/mol
# GULP energy per Si atom -5587.738235 kJ/mol
# Density = 2.077710 g / cm^3
# Si number density = 20.824497 Si / 1000 Ang^3
#
#
#
# Elastic Constant Matrix: (Units=GPa)
#
#
# Indices 1 2 3 4 5 6 
#
# 1 28.3219 -2.1451 -11.2174 0.0000 0.0000 0.0000
# 2 -2.1451 206.5104 78.6132 0.0000 0.0000 0.0000
# 3 -11.2174 78.6132 131.6692 0.0000 0.0000 0.0000
# 4 0.0000 0.0000 0.0000 -16.2819 0.0000 0.0000
# 5 0.0000 0.0000 0.0000 0.0000 -9.0330 0.0000
# 6 0.0000 0.0000 0.0000 0.0000 0.0000 10.4536
#
#
#
# Elastic Compliance Matrix: (Units=1/GPa)
#
#
# Indices 1 2 3 4 5 6 
#
# 1 0.036716 -0.001047 0.003753 0.000000 0.000000 0.000000
# 2 -0.001047 0.006297 -0.003849 0.000000 0.000000 0.000000
# 3 0.003753 -0.003849 0.010212 0.000000 0.000000 0.000000
# 4 0.000000 0.000000 0.000000 -0.061418 0.000000 0.000000
# 5 0.000000 0.000000 0.000000 0.000000 -0.110705 0.000000
# 6 0.000000 0.000000 0.000000 0.000000 0.000000 0.095661
#
#
# Mechanical properties :
#
#
# Convention : Reuss Voigt Hill
#
# Bulk Modulus (GPa) = 19.63130 55.22254 37.42692
# Shear Modulus (GPa) = -1258.67249 17.11112 -620.78068
#
# Velocity S-wave (km/s) = -24.61161 2.86961 -17.28434
# Velocity P-wave (km/s) = 28.25233 6.12823 19.50178
#
# Compressibility (1/GPa) = 0.05093907
#
# Stress axis : x y z
#
# Youngs Moduli (GPa) = 27.23641 158.81709 97.92065
#
# Poissons Ratio (x) = 0.16634 -0.36753
# Poissons Ratio (y) = 0.02853 0.37686
# Poissons Ratio (z) = -0.10223 0.61122
#
# Static dielectric constant tensor:
#      x y z
#    x 1.773250 0.000000 0.000000 
#    y 0.000000 1.753590 0.000000 
#    z 0.000000 0.000000 1.697930 
# 
# From -- ./inp_files/14911.got.cif
#   From: 2010.05.17/outbox.cif.g08.bks.cpg/sg59_8_cif.got.tgz:14911.got - 2010.06.03 14:40:33.
