data_PCOD9451795
_publ_section_title
;
Structure prediction by ZEFSAII (Michael W. Deem and Ramdas Pophale) SiO2 
 PCOD9451795
Probable space group: P M M N
;
_chemical_formula_sum "Si O2"
_cell_formula_units_Z 48
_cell_length_a 10.377041
_cell_length_b 8.688165
_cell_length_c 29.847964
_cell_angle_alpha 90.000000
_cell_angle_beta 90.000000
_cell_angle_gamma 90.000000
_cell_volume 2691.016155
_symmetry_space_group_name_H-M "P M M N"
_symmetry_group_IT_number 59
_space_group.IT_coordinate_system_code '2'
_symmetry_cell_setting 'orthorhombic'
loop_
_space_group_symop_operation_xyz
x,y,z
1/2-x,1/2-y,z
1/2+x,-y,-z
-x,1/2+y,-z
-x,-y,-z
1/2+x,1/2+y,-z
1/2-x,y,z
x,1/2-y,z
loop_
_atom_site_type_symbol
_atom_site_label
_atom_site_fract_x
_atom_site_fract_y
_atom_site_fract_z
Si Si1 0.602337 0.564256 0.362372
Si Si2 0.103108 0.435577 0.534466
Si Si3 0.898721 0.566165 0.707654
Si Si4 0.250000 0.434655 0.048966
Si Si5 0.250000 0.566158 0.948743
Si Si6 0.499552 0.935721 0.099755
Si Si7 0.900564 0.065676 0.804118
O O1 0.750000 0.517756 0.351366
O O2 0.598235 0.750000 0.360633
O O3 0.576696 0.518001 0.413996
O O4 0.497104 0.498838 0.328721
O O5 0.250000 0.483546 0.523513
O O6 0.099676 0.250000 0.533154
O O7 0.000000 0.500000 0.500000
O O8 0.750000 0.513003 0.700346
O O9 0.899369 0.750000 0.705684
O O10 0.937273 0.512721 0.757549
O O11 0.250000 0.250000 0.051653
O O12 0.375224 0.503268 0.073299
O O13 0.250000 0.488282 0.997537
O O14 0.250000 0.750000 0.953765
O O15 0.375157 0.510078 0.921936
O O16 0.504854 0.750000 0.096382
O O17 0.481474 0.976987 0.152089
O O18 0.750000 0.027915 0.813122
O O19 0.908919 0.250000 0.798460
#
# Coordination Sequence:
#
# PCOD9451795 Si02
#       7
#     8   8   8   4   4   8   8
#     4   9  19  37  57  77 106 147 190 229 273 330
#     4   9  19  35  54  78 109 144 185 231 277 328
#     4  10  21  35  54  83 114 142 178 229 279 327
#     4  12  24  40  64  90 116 154 192 232 285 340
#     4  12  26  42  58  86 122 154 190 236 285 338
#     4  11  22  41  64  88 116 150 192 238 283 338
#     4   9  18  36  61  85 109 144 186 227 274 333
#
# _framework density 17.837129000000001
#
# number of rings (size 3 to 8) (size 9 to 14) (size 15 to 20)
#    0.000    2.000    0.833    4.000    0.000    4.333 
#    1.500    5.000    0.000    0.000    0.000    0.000 
#    0.000    0.000    0.000    0.000    0.000    0.000 
#
# Total GULP energy -268019.809566 kJ/mol
# GULP energy per Si atom -5583.746033 kJ/mol
# Density = 1.779653 g / cm^3
# Si number density = 17.837129 Si / 1000 Ang^3
#
#
#
# Elastic Constant Matrix: (Units=GPa)
#
#
# Indices 1 2 3 4 5 6 
#
# 1 126.1192 25.2682 94.2352 0.0000 0.0000 0.0000
# 2 25.2682 34.9044 30.4896 0.0000 0.0000 0.0000
# 3 94.2352 30.4896 145.5824 0.0000 0.0000 0.0000
# 4 0.0000 0.0000 0.0000 32.8528 0.0000 0.0000
# 5 0.0000 0.0000 0.0000 0.0000 28.7633 0.0000
# 6 0.0000 0.0000 0.0000 0.0000 0.0000 35.0108
#
#
#
# Elastic Compliance Matrix: (Units=1/GPa)
#
#
# Indices 1 2 3 4 5 6 
#
# 1 0.015613 -0.003029 -0.009472 0.000000 0.000000 0.000000
# 2 -0.003029 0.035652 -0.005506 0.000000 0.000000 0.000000
# 3 -0.009472 -0.005506 0.014153 0.000000 0.000000 0.000000
# 4 0.000000 0.000000 0.000000 0.030439 0.000000 0.000000
# 5 0.000000 0.000000 0.000000 0.000000 0.034766 0.000000
# 6 0.000000 0.000000 0.000000 0.000000 0.000000 0.028563
#
#
# Mechanical properties :
#
#
# Convention : Reuss Voigt Hill
#
# Bulk Modulus (GPa) = 34.00831 67.39909 50.70370
# Shear Modulus (GPa) = 24.38997 29.76626 27.07812
#
# Velocity S-wave (km/s) = 3.70181 4.08950 3.90048
# Velocity P-wave (km/s) = 6.11380 7.75671 6.98374
#
# Compressibility (1/GPa) = 0.02940458
#
# Stress axis : x y z
#
# Youngs Moduli (GPa) = 64.04777 28.04895 70.65433
#
# Poissons Ratio (x) = 0.08495 0.66925
# Poissons Ratio (y) = 0.19399 0.38903
# Poissons Ratio (z) = 0.60667 0.15444
#
# Static dielectric constant tensor:
#      x y z
#    x 1.599310 0.000000 0.000000 
#    y 0.000000 1.601030 0.000000 
#    z 0.000000 0.000000 1.588970 
# 
# From -- ./inp_files/32944.got.cif
#   From: 2010.05.17/outbox.cif.g08.bks.cpg/sg59_17_cif.got.tgz:32944.got - 2010.06.03 14:40:33.
