data_PCOD9451834
_publ_section_title
;
Structure prediction by ZEFSAII (Michael W. Deem and Ramdas Pophale) SiO2 
 PCOD9451834
Probable space group: P M M N
;
_chemical_formula_sum "Si O2"
_cell_formula_units_Z 64
_cell_length_a 9.584859
_cell_length_b 18.194007
_cell_length_c 21.123358
_cell_angle_alpha 90.000000
_cell_angle_beta 90.000000
_cell_angle_gamma 90.000000
_cell_volume 3683.638857
_symmetry_space_group_name_H-M "P M M N"
_symmetry_group_IT_number 59
_space_group.IT_coordinate_system_code '2'
_symmetry_cell_setting 'orthorhombic'
loop_
_space_group_symop_operation_xyz
x,y,z
1/2-x,1/2-y,z
1/2+x,-y,-z
-x,1/2+y,-z
-x,-y,-z
1/2+x,1/2+y,-z
1/2-x,y,z
x,1/2-y,z
loop_
_atom_site_type_symbol
_atom_site_label
_atom_site_fract_x
_atom_site_fract_y
_atom_site_fract_z
Si Si1 0.915869 0.163765 0.376269
Si Si2 0.586706 0.337187 0.123176
Si Si3 0.410429 0.339610 0.001648
Si Si4 0.083374 0.920652 0.251477
Si Si5 0.586669 0.337433 0.880150
Si Si6 0.589240 0.660646 0.502802
Si Si7 0.415922 0.928753 0.749372
Si Si8 0.914785 0.661583 0.359962
O O1 0.750000 0.159562 0.386849
O O2 0.950994 0.250000 0.366325
O O3 0.948569 0.118177 0.313432
O O4 0.994941 0.136334 0.438814
O O5 0.750000 0.346163 0.106153
O O6 0.563405 0.250000 0.133459
O O7 0.491077 0.362564 0.065066
O O8 0.560452 0.380328 0.187889
O O9 0.250000 0.363312 0.001600
O O10 0.413032 0.250000 0.001583
O O11 0.491175 0.362821 0.938318
O O12 0.250000 0.925607 0.260531
O O13 0.057835 0.879005 0.185065
O O14 0.010744 0.876059 0.308109
O O15 0.010331 0.999515 0.248763
O O16 0.750000 0.347437 0.896515
O O17 0.564307 0.250000 0.870687
O O18 0.750000 0.639085 0.512819
O O19 0.584987 0.750000 0.502223
O O20 0.547484 0.637974 0.431784
O O21 0.250000 0.947175 0.747379
O O22 0.750000 0.644454 0.350320
O O23 0.928342 0.750000 0.356063
#
# Coordination Sequence:
#
# PCOD9451834 Si02
#       8
#     8   8   8   8   8   8   8   8
#     4   9  17  31  53  79 103 129 166 211 254 298
#     4   9  17  32  55  78 100 131 169 207 250 301
#     4   9  17  29  49  79 107 127 156 203 252 297
#     4  11  23  36  51  74 104 136 172 213 254 297
#     4   9  18  34  54  74  98 129 164 203 248 297
#     4   8  15  29  50  77 105 130 160 202 252 303
#     4  10  21  36  52  72 102 138 173 208 250 302
#     4   9  18  34  56  79 103 133 168 206 251 304
#
# _framework density 17.374124999999999
#
# number of rings (size 3 to 8) (size 9 to 14) (size 15 to 20)
#    0.000    2.750    0.000    2.250    0.000    6.250 
#    0.000    3.750    0.000    3.750    0.000    0.000 
#    0.000    0.000    0.000    0.000    0.000    0.000 
#
# Total GULP energy -356871.585063 kJ/mol
# GULP energy per Si atom -5576.118517 kJ/mol
# Density = 1.733458 g / cm^3
# Si number density = 17.374125 Si / 1000 Ang^3
#
#
#
# Elastic Constant Matrix: (Units=GPa)
#
#
# Indices 1 2 3 4 5 6 
#
# 1 99.4145 56.5025 117.7230 0.0000 0.0000 0.0000
# 2 56.5025 46.6733 63.3630 0.0000 0.0000 0.0000
# 3 117.7230 63.3630 190.9998 0.0000 0.0000 0.0000
# 4 0.0000 0.0000 0.0000 -7.7469 0.0000 0.0000
# 5 0.0000 0.0000 0.0000 0.0000 30.1478 0.0000
# 6 0.0000 0.0000 0.0000 0.0000 0.0000 21.4067
#
#
#
# Elastic Compliance Matrix: (Units=1/GPa)
#
#
# Indices 1 2 3 4 5 6 
#
# 1 0.066722 -0.045383 -0.026069 0.000000 0.000000 0.000000
# 2 -0.045383 0.069851 0.004800 0.000000 0.000000 0.000000
# 3 -0.026069 0.004800 0.019711 0.000000 0.000000 0.000000
# 4 0.000000 0.000000 0.000000 -0.129083 0.000000 0.000000
# 5 0.000000 0.000000 0.000000 0.000000 0.033170 0.000000
# 6 0.000000 0.000000 0.000000 0.000000 0.000000 0.046714
#
#
# Mechanical properties :
#
#
# Convention : Reuss Voigt Hill
#
# Bulk Modulus (GPa) = 43.51831 90.25162 66.88497
# Shear Modulus (GPa) = 20.15724 15.39478 17.77601
#
# Velocity S-wave (km/s) = 3.40985 2.97993 3.20211
# Velocity P-wave (km/s) = 6.37220 7.99367 7.22854
#
# Compressibility (1/GPa) = 0.02297883
#
# Stress axis : x y z
#
# Youngs Moduli (GPa) = 14.98746 14.31628 50.73315
#
# Poissons Ratio (x) = 0.64972 1.32256
# Poissons Ratio (y) = 0.68018 -0.24350
# Poissons Ratio (z) = 0.39071 -0.06871
#
# Static dielectric constant tensor:
#      x y z
#    x 1.578970 0.000000 0.000000 
#    y 0.000000 1.572140 0.000000 
#    z 0.000000 0.000000 1.573300 
# 
# From -- ./inp_files/29589.got.cif
#   From: 2010.05.17/outbox.cif.g08.bks.cpg/sg59_15_cif.got.tgz:29589.got - 2010.06.03 14:40:33.
