data_PCOD9451603
_publ_section_title
;
Structure prediction by ZEFSAII (Michael W. Deem and Ramdas Pophale) SiO2 
 PCOD9451603
Probable space group: P M M N
;
_chemical_formula_sum "Si O2"
_cell_formula_units_Z 40
_cell_length_a 8.931247
_cell_length_b 26.293216
_cell_length_c 9.462902
_cell_angle_alpha 90.000000
_cell_angle_beta 90.000000
_cell_angle_gamma 90.000000
_cell_volume 2222.184694
_symmetry_space_group_name_H-M "P M M N"
_symmetry_group_IT_number 59
_space_group.IT_coordinate_system_code '2'
_symmetry_cell_setting 'orthorhombic'
loop_
_space_group_symop_operation_xyz
x,y,z
1/2-x,1/2-y,z
1/2+x,-y,-z
-x,1/2+y,-z
-x,-y,-z
1/2+x,1/2+y,-z
1/2-x,y,z
x,1/2-y,z
loop_
_atom_site_type_symbol
_atom_site_label
_atom_site_fract_x
_atom_site_fract_y
_atom_site_fract_z
Si Si1 0.929292 0.250000 0.586345
Si Si2 0.429835 0.343971 0.418101
Si Si3 0.931052 0.750000 0.103750
Si Si4 0.073529 0.953853 0.916801
Si Si5 0.429069 0.153147 0.086332
Si Si6 0.428177 0.952626 0.580589
O O1 0.750000 0.250000 0.581023
O O2 0.994752 0.200449 0.507708
O O3 0.988013 0.250000 0.746634
O O4 0.250000 0.342662 0.434783
O O5 0.465134 0.336428 0.251180
O O6 0.493610 0.399319 0.458963
O O7 0.750000 0.750000 0.123888
O O8 0.970659 0.799740 0.012283
O O9 0.250000 0.953664 0.942243
O O10 0.047859 0.959664 0.748679
O O11 0.005470 0.899373 0.957883
O O12 0.000000 0.000000 0.000000
O O13 0.250000 0.146644 0.078777
O O14 0.250000 0.949768 0.554777
O O15 0.500000 0.000000 0.500000
#
# Coordination Sequence:
#
# PCOD9451603 Si02
#       6
#     4   8   4   8   8   8
#     4  12  25  38  54  82 116 148 183 226 274 328
#     4  10  20  38  62  84 108 144 186 229 277 330
#     4  10  21  38  58  82 112 144 179 224 274 326
#     4  10  21  36  56  82 112 145 183 225 272 324
#     4   9  19  37  61  84 107 140 184 227 272 327
#     4  10  21  37  57  84 114 147 186 228 274 326
#
# _framework density 18.000305000000001
#
# number of rings (size 3 to 8) (size 9 to 14) (size 15 to 20)
#    0.000    2.000    0.000    3.300    0.000    7.200 
#    0.000    3.000    0.000    0.000    0.000    0.000 
#    0.000    0.000    0.000    0.000    0.000    0.000 
#
# Total GULP energy -223459.086633 kJ/mol
# GULP energy per Si atom -5586.477166 kJ/mol
# Density = 1.795934 g / cm^3
# Si number density = 18.000305 Si / 1000 Ang^3
#
#
#
# Elastic Constant Matrix: (Units=GPa)
#
#
# Indices 1 2 3 4 5 6 
#
# 1 82.9751 100.7418 69.5053 0.0000 0.0000 0.0000
# 2 100.7418 223.4250 113.7570 0.0000 0.0000 0.0000
# 3 69.5053 113.7570 88.5529 0.0000 0.0000 0.0000
# 4 0.0000 0.0000 0.0000 39.9452 0.0000 0.0000
# 5 0.0000 0.0000 0.0000 0.0000 26.1321 0.0000
# 6 0.0000 0.0000 0.0000 0.0000 0.0000 39.3515
#
#
#
# Elastic Compliance Matrix: (Units=1/GPa)
#
#
# Indices 1 2 3 4 5 6 
#
# 1 0.037421 -0.005545 -0.022248 0.000000 0.000000 0.000000
# 2 -0.005545 0.013760 -0.013324 0.000000 0.000000 0.000000
# 3 -0.022248 -0.013324 0.045871 0.000000 0.000000 0.000000
# 4 0.000000 0.000000 0.000000 0.025034 0.000000 0.000000
# 5 0.000000 0.000000 0.000000 0.000000 0.038267 0.000000
# 6 0.000000 0.000000 0.000000 0.000000 0.000000 0.025412
#
#
# Mechanical properties :
#
#
# Convention : Reuss Voigt Hill
#
# Bulk Modulus (GPa) = 67.48661 106.99570 87.24116
# Shear Modulus (GPa) = 18.31906 28.48235 23.40071
#
# Velocity S-wave (km/s) = 3.19362 3.98216 3.60949
# Velocity P-wave (km/s) = 7.15348 8.98407 8.12052
#
# Compressibility (1/GPa) = 0.01481775
#
# Stress axis : x y z
#
# Youngs Moduli (GPa) = 26.72283 72.67436 21.80017
#
# Poissons Ratio (x) = 0.40302 0.48501
# Poissons Ratio (y) = 0.14819 0.29046
# Poissons Ratio (z) = 0.59453 0.96829
#
# Static dielectric constant tensor:
#      x y z
#    x 1.599190 0.000000 0.000000 
#    y 0.000000 1.582220 0.000000 
#    z 0.000000 0.000000 1.601180 
# 
# From -- ./inp_files/5917.got.cif
#   From: 2010.05.17/outbox.cif.g08.bks.cpg/sg59_3_cif.got.tgz:5917.got - 2010.06.03 14:40:33.
