data_PCOD9451715
_publ_section_title
;
Structure prediction by ZEFSAII (Michael W. Deem and Ramdas Pophale) SiO2 
 PCOD9451715
Probable space group: P M M N
;
_chemical_formula_sum "Si O2"
_cell_formula_units_Z 64
_cell_length_a 8.976025
_cell_length_b 23.444752
_cell_length_c 16.952000
_cell_angle_alpha 90.000000
_cell_angle_beta 90.000000
_cell_angle_gamma 90.000000
_cell_volume 3567.390409
_symmetry_space_group_name_H-M "P M M N"
_symmetry_group_IT_number 59
_space_group.IT_coordinate_system_code '2'
_symmetry_cell_setting 'orthorhombic'
loop_
_space_group_symop_operation_xyz
x,y,z
1/2-x,1/2-y,z
1/2+x,-y,-z
-x,1/2+y,-z
-x,-y,-z
1/2+x,1/2+y,-z
1/2-x,y,z
x,1/2-y,z
loop_
_atom_site_type_symbol
_atom_site_label
_atom_site_fract_x
_atom_site_fract_y
_atom_site_fract_z
Si Si1 0.427720 0.465261 0.121730
Si Si2 0.931385 0.183720 0.388180
Si Si3 0.071740 0.483039 0.582817
Si Si4 0.927474 0.183273 0.855819
Si Si5 0.070205 0.923348 0.715492
Si Si6 0.071831 0.919148 0.035320
Si Si7 0.073338 0.864290 0.440009
Si Si8 0.584416 0.683553 0.300545
O O1 0.250000 0.460949 0.128477
O O2 0.500858 0.441567 0.201399
O O3 0.464835 0.531110 0.098993
O O4 0.486385 0.431300 0.045371
O O5 0.750000 0.184842 0.388462
O O6 0.980636 0.250000 0.380157
O O7 0.976181 0.138451 0.320379
O O8 0.975643 0.156656 0.473095
O O9 0.250000 0.482605 0.576706
O O10 0.031404 0.528486 0.650264
O O11 0.000000 0.500000 0.500000
O O12 0.007135 0.420273 0.593658
O O13 0.750000 0.179642 0.841052
O O14 0.961904 0.250000 0.870500
O O15 0.962961 0.142235 0.928384
O O16 0.011264 0.159687 0.778695
O O17 0.250000 0.922508 0.722654
O O18 0.250000 0.923012 0.020848
O O19 0.250000 0.873632 0.443565
O O20 0.025089 0.819568 0.374493
O O21 0.750000 0.660061 0.317227
O O22 0.600807 0.750000 0.283087
#
# Coordination Sequence:
#
# PCOD9451715 Si02
#       8
#     8   8   8   8   8   8   8   8
#     4  10  21  36  57  84 110 140 178 223 275 332
#     4   9  18  35  58  80 104 141 190 236 275 319
#     4  11  22  37  55  81 113 147 183 226 279 331
#     4   9  18  34  56  81 109 143 184 228 273 329
#     4  10  21  38  57  81 111 143 183 228 275 328
#     4   9  19  37  58  82 109 139 178 222 271 331
#     4  11  21  35  55  80 109 146 192 235 277 327
#     4  10  21  35  50  76 114 150 186 228 275 328
#
# _framework density 17.940284999999999
#
# number of rings (size 3 to 8) (size 9 to 14) (size 15 to 20)
#    0.000    2.125    1.250    1.875    1.750    3.250 
#    0.000    0.625    0.000    5.625    0.000    0.000 
#    0.000    0.000    0.000    0.000    0.000    0.000 
#
# Total GULP energy -356713.026037 kJ/mol
# GULP energy per Si atom -5573.641032 kJ/mol
# Density = 1.789945 g / cm^3
# Si number density = 17.940285 Si / 1000 Ang^3
#
#
#
# Elastic Constant Matrix: (Units=GPa)
#
#
# Indices 1 2 3 4 5 6 
#
# 1 31.3304 35.0205 41.5023 0.0000 0.0000 0.0000
# 2 35.0205 104.9519 66.0736 0.0000 0.0000 0.0000
# 3 41.5023 66.0736 126.1432 0.0000 0.0000 0.0000
# 4 0.0000 0.0000 0.0000 24.2581 0.0000 0.0000
# 5 0.0000 0.0000 0.0000 0.0000 30.7809 0.0000
# 6 0.0000 0.0000 0.0000 0.0000 0.0000 24.4053
#
#
#
# Elastic Compliance Matrix: (Units=1/GPa)
#
#
# Indices 1 2 3 4 5 6 
#
# 1 0.065928 -0.012448 -0.015171 0.000000 0.000000 0.000000
# 2 -0.012448 0.016566 -0.004582 0.000000 0.000000 0.000000
# 3 -0.015171 -0.004582 0.015319 0.000000 0.000000 0.000000
# 4 0.000000 0.000000 0.000000 0.041223 0.000000 0.000000
# 5 0.000000 0.000000 0.000000 0.000000 0.032488 0.000000
# 6 0.000000 0.000000 0.000000 0.000000 0.000000 0.040975
#
#
# Mechanical properties :
#
#
# Convention : Reuss Voigt Hill
#
# Bulk Modulus (GPa) = 29.92938 60.84647 45.38792
# Shear Modulus (GPa) = 17.35881 23.87748 20.61814
#
# Velocity S-wave (km/s) = 3.11398 3.65217 3.39376
# Velocity P-wave (km/s) = 5.44501 7.19543 6.38053
#
# Compressibility (1/GPa) = 0.03341199
#
# Stress axis : x y z
#
# Youngs Moduli (GPa) = 15.16800 60.36288 65.27913
#
# Poissons Ratio (x) = 0.75140 0.99033
# Poissons Ratio (y) = 0.18881 0.29911
# Poissons Ratio (z) = 0.23011 0.27658
#
# Static dielectric constant tensor:
#      x y z
#    x 1.623500 0.000000 0.000000 
#    y 0.000000 1.680450 0.000000 
#    z 0.000000 0.000000 1.647080 
# 
# From -- ./inp_files/21487.got.cif
#   From: 2010.05.17/outbox.cif.g08.bks.cpg/sg59_11_cif.got.tgz:21487.got - 2010.06.03 14:40:33.
