data_PCOD9451444
_publ_section_title
;
Structure prediction by ZEFSAII (Michael W. Deem and Ramdas Pophale) SiO2 
 PCOD9451444
Probable space group: P M M N
;
_chemical_formula_sum "Si O2"
_cell_formula_units_Z 64
_cell_length_a 17.401430
_cell_length_b 20.369278
_cell_length_c 8.966335
_cell_angle_alpha 90.000000
_cell_angle_beta 90.000000
_cell_angle_gamma 90.000000
_cell_volume 3178.158374
_symmetry_space_group_name_H-M "P M M N"
_symmetry_group_IT_number 59
_space_group.IT_coordinate_system_code '2'
_symmetry_cell_setting 'orthorhombic'
loop_
_space_group_symop_operation_xyz
x,y,z
1/2-x,1/2-y,z
1/2+x,-y,-z
-x,1/2+y,-z
-x,-y,-z
1/2+x,1/2+y,-z
1/2-x,y,z
x,1/2-y,z
loop_
_atom_site_type_symbol
_atom_site_label
_atom_site_fract_x
_atom_site_fract_y
_atom_site_fract_z
Si Si1 0.835804 0.380423 0.456181
Si Si2 0.972723 0.429818 0.068550
Si Si3 0.019965 0.676375 0.427265
Si Si4 0.932165 0.598695 0.662745
Si Si5 0.339066 0.321077 0.103813
Si Si6 0.840940 0.173610 0.132109
Si Si7 0.086113 0.371660 0.833544
Si Si8 0.160796 0.033042 0.604181
O O1 0.750000 0.369101 0.518213
O O2 0.846921 0.334136 0.312019
O O3 0.838299 0.454717 0.396107
O O4 0.904988 0.369565 0.571308
O O5 0.892524 0.387852 0.070294
O O6 0.001337 0.434809 0.239625
O O7 0.000000 0.500000 0.000000
O O8 0.025354 0.384303 0.964327
O O9 0.048038 0.750000 0.428738
O O10 0.972337 0.657679 0.574357
O O11 0.960675 0.665837 0.293247
O O12 0.874131 0.625240 0.786377
O O13 0.888852 0.556071 0.538709
O O14 0.250000 0.318390 0.138399
O O15 0.375612 0.250000 0.134440
O O16 0.348788 0.335603 0.928295
O O17 0.750000 0.165354 0.094816
O O18 0.863113 0.250000 0.092436
O O19 0.122456 0.434757 0.750517
O O20 0.250000 0.055366 0.592063
#
# Coordination Sequence:
#
# PCOD9451444 Si02
#       8
#     8   8   8   8   8   8   8   8
#     4  10  21  36  60  89 116 153 199 253 310 367
#     4  11  23  39  61  93 124 166 212 267 321 382
#     4  11  22  37  58  87 120 155 196 250 307 365
#     4  10  22  36  60  87 118 156 208 252 306 367
#     4  10  20  37  58  83 116 154 199 248 300 365
#     4  10  21  40  66  94 127 169 218 270 322 385
#     4  10  23  36  58  86 121 157 197 247 313 377
#     4  10  21  39  61  88 124 160 201 255 315 378
#
# _framework density 20.137449
#
# number of rings (size 3 to 8) (size 9 to 14) (size 15 to 20)
#    0.000    1.750    1.250    2.625    1.750    4.250 
#    0.000    3.750    0.000    6.000    0.000    0.000 
#    0.000    0.000    0.000    0.000    0.000    0.000 
#
# Total GULP energy -356419.645649 kJ/mol
# GULP energy per Si atom -5569.056963 kJ/mol
# Density = 2.009162 g / cm^3
# Si number density = 20.137449 Si / 1000 Ang^3
#
#
#
# Elastic Constant Matrix: (Units=GPa)
#
#
# Indices 1 2 3 4 5 6 
#
# 1 107.2325 27.0669 18.8677 0.0000 0.0000 0.0000
# 2 27.0669 68.2510 -1.9754 0.0000 0.0000 0.0000
# 3 18.8677 -1.9754 67.2748 0.0000 0.0000 0.0000
# 4 0.0000 0.0000 0.0000 12.4275 0.0000 0.0000
# 5 0.0000 0.0000 0.0000 0.0000 25.5775 0.0000
# 6 0.0000 0.0000 0.0000 0.0000 0.0000 26.8596
#
#
#
# Elastic Compliance Matrix: (Units=1/GPa)
#
#
# Indices 1 2 3 4 5 6 
#
# 1 0.011019 -0.004463 -0.003221 0.000000 0.000000 0.000000
# 2 -0.004463 0.016472 0.001735 0.000000 0.000000 0.000000
# 3 -0.003221 0.001735 0.015819 0.000000 0.000000 0.000000
# 4 0.000000 0.000000 0.000000 0.080467 0.000000 0.000000
# 5 0.000000 0.000000 0.000000 0.000000 0.039097 0.000000
# 6 0.000000 0.000000 0.000000 0.000000 0.000000 0.037231
#
#
# Mechanical properties :
#
#
# Convention : Reuss Voigt Hill
#
# Bulk Modulus (GPa) = 31.83544 36.74185 34.28865
# Shear Modulus (GPa) = 22.47469 26.22619 24.35044
#
# Velocity S-wave (km/s) = 3.34438 3.61274 3.48114
# Velocity P-wave (km/s) = 5.54586 5.97391 5.76386
#
# Compressibility (1/GPa) = 0.03141153
#
# Stress axis : x y z
#
# Youngs Moduli (GPa) = 90.75336 60.70909 63.21583
#
# Poissons Ratio (x) = 0.27095 0.20364
# Poissons Ratio (y) = 0.40504 -0.10970
# Poissons Ratio (z) = 0.29235 -0.10535
#
# Static dielectric constant tensor:
#      x y z
#    x 1.777410 0.000000 0.000000 
#    y 0.000000 1.768080 0.000000 
#    z 0.000000 0.000000 1.697300 
# 
# From -- ./inp_files/10671.got.cif
#   From: 2010.05.17/outbox.cif.g08.bks.cpg/sg59_6_cif.got.tgz:10671.got - 2010.06.03 14:40:33.
