data_PCOD9451108
_publ_section_title
;
Structure prediction by ZEFSAII (Michael W. Deem and Ramdas Pophale) SiO2 
 PCOD9451108
Probable space group: P M M N
;
_chemical_formula_sum "Si O2"
_cell_formula_units_Z 64
_cell_length_a 8.919233
_cell_length_b 28.959847
_cell_length_c 12.640755
_cell_angle_alpha 90.000000
_cell_angle_beta 90.000000
_cell_angle_gamma 90.000000
_cell_volume 3265.102251
_symmetry_space_group_name_H-M "P M M N"
_symmetry_group_IT_number 59
_space_group.IT_coordinate_system_code '2'
_symmetry_cell_setting 'orthorhombic'
loop_
_space_group_symop_operation_xyz
x,y,z
1/2-x,1/2-y,z
1/2+x,-y,-z
-x,1/2+y,-z
-x,-y,-z
1/2+x,1/2+y,-z
1/2-x,y,z
x,1/2-y,z
loop_
_atom_site_type_symbol
_atom_site_label
_atom_site_fract_x
_atom_site_fract_y
_atom_site_fract_z
Si Si1 0.570101 0.475544 0.101636
Si Si2 0.573845 0.999014 0.335124
Si Si3 0.070497 0.868434 0.872459
Si Si4 0.076461 0.668233 0.502730
Si Si5 0.430395 0.195889 0.949663
Si Si6 0.423569 0.072743 0.484566
Si Si7 0.928168 0.699094 0.707560
Si Si8 0.080165 0.194435 0.708374
O O1 0.750000 0.475869 0.089436
O O2 0.534475 0.501659 0.211738
O O3 0.522762 0.421891 0.115748
O O4 0.500000 0.500000 0.000000
O O5 0.750000 0.013338 0.343050
O O6 0.470901 0.035339 0.397151
O O7 0.561466 0.951718 0.400902
O O8 0.250000 0.867632 0.867278
O O9 0.005557 0.842510 0.769918
O O10 0.011755 0.837854 0.969949
O O11 0.250000 0.678021 0.520938
O O12 0.034506 0.615293 0.523407
O O13 0.977055 0.696502 0.585804
O O14 0.029299 0.678444 0.382966
O O15 0.250000 0.193174 0.964588
O O16 0.471816 0.250000 0.964199
O O17 0.462060 0.181957 0.828230
O O18 0.250000 0.086840 0.470313
O O19 0.750000 0.694731 0.717425
O O20 0.971260 0.750000 0.750454
O O21 0.250000 0.177350 0.686830
O O22 0.085203 0.250000 0.706796
#
# Coordination Sequence:
#
# PCOD9451108 Si02
#       8
#     8   8   8   8   8   8   8   8
#     4  10  23  41  59  82 114 151 191 238 291 346
#     4   9  19  38  60  82 110 143 184 235 287 337
#     4  11  23  38  59  89 122 153 190 241 298 352
#     4  12  24  36  54  83 119 153 186 230 286 344
#     4   9  19  37  60  84 112 151 198 242 285 342
#     4  10  20  35  59  86 110 144 188 232 281 339
#     4  11  24  41  62  88 119 157 200 242 286 345
#     4   9  19  37  58  78 105 144 188 233 279 329
#
# _framework density 19.601223999999998
#
# number of rings (size 3 to 8) (size 9 to 14) (size 15 to 20)
#    0.000    1.875    0.000    4.500    0.000    9.000 
#    0.000    5.000    0.000    0.000    0.000    0.000 
#    0.000    0.000    0.000    0.000    0.000    0.000 
#
# Total GULP energy -357538.362244 kJ/mol
# GULP energy per Si atom -5586.536910 kJ/mol
# Density = 1.955661 g / cm^3
# Si number density = 19.601224 Si / 1000 Ang^3
#
#
#
# Elastic Constant Matrix: (Units=GPa)
#
#
# Indices 1 2 3 4 5 6 
#
# 1 31.4544 18.0944 30.5649 0.0000 0.0000 0.0000
# 2 18.0944 60.9516 34.2088 0.0000 0.0000 0.0000
# 3 30.5649 34.2088 106.6957 0.0000 0.0000 0.0000
# 4 0.0000 0.0000 0.0000 120.2095 0.0000 0.0000
# 5 0.0000 0.0000 0.0000 0.0000 -67.3051 0.0000
# 6 0.0000 0.0000 0.0000 0.0000 0.0000 25.6520
#
#
#
# Elastic Compliance Matrix: (Units=1/GPa)
#
#
# Indices 1 2 3 4 5 6 
#
# 1 0.046900 -0.007783 -0.010940 0.000000 0.000000 0.000000
# 2 -0.007783 0.021298 -0.004599 0.000000 0.000000 0.000000
# 3 -0.010940 -0.004599 0.013981 0.000000 0.000000 0.000000
# 4 0.000000 0.000000 0.000000 0.008319 0.000000 0.000000
# 5 0.000000 0.000000 0.000000 0.000000 -0.014858 0.000000
# 6 0.000000 0.000000 0.000000 0.000000 0.000000 0.038983
#
#
# Mechanical properties :
#
#
# Convention : Reuss Voigt Hill
#
# Bulk Modulus (GPa) = 28.14126 40.53756 34.33941
# Shear Modulus (GPa) = 28.88304 23.46021 26.17162
#
# Velocity S-wave (km/s) = 3.84283 3.46334 3.65801
# Velocity P-wave (km/s) = 5.83762 6.05962 5.94966
#
# Compressibility (1/GPa) = 0.03553502
#
# Stress axis : x y z
#
# Youngs Moduli (GPa) = 21.32208 46.95242 71.52599
#
# Poissons Ratio (x) = 0.36543 0.78249
# Poissons Ratio (y) = 0.16595 0.32895
# Poissons Ratio (z) = 0.23326 0.21594
#
# Static dielectric constant tensor:
#      x y z
#    x 1.658110 0.000000 0.000000 
#    y 0.000000 1.693280 0.000000 
#    z 0.000000 0.000000 1.693840 
# 
# From -- ./inp_files/14946.got.cif
#   From: 2010.05.17/outbox.cif.g08.bks.cpg/sg59_8_cif.got.tgz:14946.got - 2010.06.03 14:40:33.
