data_PCOD9451671
_publ_section_title
;
Structure prediction by ZEFSAII (Michael W. Deem and Ramdas Pophale) SiO2 
 PCOD9451671
Probable space group: P M M N
;
_chemical_formula_sum "Si O2"
_cell_formula_units_Z 48
_cell_length_a 7.574628
_cell_length_b 19.245834
_cell_length_c 16.955812
_cell_angle_alpha 90.000000
_cell_angle_beta 90.000000
_cell_angle_gamma 90.000000
_cell_volume 2471.818835
_symmetry_space_group_name_H-M "P M M N"
_symmetry_group_IT_number 59
_space_group.IT_coordinate_system_code '2'
_symmetry_cell_setting 'orthorhombic'
loop_
_space_group_symop_operation_xyz
x,y,z
1/2-x,1/2-y,z
1/2+x,-y,-z
-x,1/2+y,-z
-x,-y,-z
1/2+x,1/2+y,-z
1/2-x,y,z
x,1/2-y,z
loop_
_atom_site_type_symbol
_atom_site_label
_atom_site_fract_x
_atom_site_fract_y
_atom_site_fract_z
Si Si1 0.750000 0.168344 0.921807
Si Si2 0.541389 0.588116 0.174603
Si Si3 0.458595 0.673754 0.509715
Si Si4 0.537687 0.597255 0.355386
Si Si5 0.750000 0.331638 0.110490
Si Si6 0.964672 0.058695 0.369587
Si Si7 0.546059 0.926065 0.812448
O O1 0.750000 0.250000 0.901344
O O2 0.579647 0.130326 0.885146
O O3 0.750000 0.162169 0.016083
O O4 0.750000 0.602068 0.165416
O O5 0.485236 0.606987 0.264483
O O6 0.510779 0.505182 0.167035
O O7 0.250000 0.676738 0.526481
O O8 0.534051 0.750000 0.525480
O O9 0.478984 0.653252 0.418617
O O10 0.530006 0.612294 0.564811
O O11 0.750000 0.596487 0.355410
O O12 0.475627 0.520649 0.382531
O O13 0.750000 0.250000 0.131370
O O14 0.580929 0.371329 0.145757
O O15 0.750000 0.057700 0.369666
O O16 0.022898 0.079989 0.282026
O O17 0.750000 0.916501 0.833676
#
# Coordination Sequence:
#
# PCOD9451671 Si02
#       7
#     4   8   8   8   4   8   8
#     4  11  26  44  66  97 130 170 207 251 324 386
#     4  10  21  42  67  96 127 163 214 265 313 372
#     4  10  21  33  49  79 116 158 204 247 299 360
#     4   9  19  34  56  80 113 155 199 254 305 354
#     4  11  26  46  64  93 138 168 197 259 326 382
#     4   9  18  36  57  82 118 156 201 256 309 358
#     4  11  21  40  69  98 123 162 217 262 311 378
#
# _framework density 19.418899
#
# number of rings (size 3 to 8) (size 9 to 14) (size 15 to 20)
#    0.000    2.000    2.500    1.500    1.167    5.000 
#    0.000    3.333    0.000    0.000    0.000    0.000 
#    0.000    0.000    0.000    0.000    0.000    0.000 
#
# Total GULP energy -268104.948103 kJ/mol
# GULP energy per Si atom -5585.519752 kJ/mol
# Density = 1.937470 g / cm^3
# Si number density = 19.418899 Si / 1000 Ang^3
#
#
#
# Elastic Constant Matrix: (Units=GPa)
#
#
# Indices 1 2 3 4 5 6 
#
# 1 89.8777 17.7270 14.5041 0.0000 0.0000 0.0000
# 2 17.7270 69.4867 42.6995 0.0000 0.0000 0.0000
# 3 14.5041 42.6995 49.7864 0.0000 0.0000 0.0000
# 4 0.0000 0.0000 0.0000 137.2921 0.0000 0.0000
# 5 0.0000 0.0000 0.0000 0.0000 4.7701 0.0000
# 6 0.0000 0.0000 0.0000 0.0000 0.0000 15.6414
#
#
#
# Elastic Compliance Matrix: (Units=1/GPa)
#
#
# Indices 1 2 3 4 5 6 
#
# 1 0.011792 -0.001897 -0.001808 0.000000 0.000000 0.000000
# 2 -0.001897 0.030732 -0.025805 0.000000 0.000000 0.000000
# 3 -0.001808 -0.025805 0.042744 0.000000 0.000000 0.000000
# 4 0.000000 0.000000 0.000000 0.007284 0.000000 0.000000
# 5 0.000000 0.000000 0.000000 0.000000 0.209641 0.000000
# 6 0.000000 0.000000 0.000000 0.000000 0.000000 0.063933
#
#
# Mechanical properties :
#
#
# Convention : Reuss Voigt Hill
#
# Bulk Modulus (GPa) = 38.09808 39.89021 38.99415
# Shear Modulus (GPa) = 11.52347 40.48872 26.00609
#
# Velocity S-wave (km/s) = 2.43865 4.57115 3.66350
# Velocity P-wave (km/s) = 5.25272 6.96040 6.16596
#
# Compressibility (1/GPa) = 0.02624804
#
# Stress axis : x y z
#
# Youngs Moduli (GPa) = 84.80158 32.53889 23.39483
#
# Poissons Ratio (x) = 0.06173 0.04230
# Poissons Ratio (y) = 0.16088 0.60371
# Poissons Ratio (z) = 0.15334 0.83967
#
# Static dielectric constant tensor:
#      x y z
#    x 1.707970 0.000000 0.000000 
#    y 0.000000 1.672300 0.000000 
#    z 0.000000 0.000000 1.653090 
# 
# From -- ./inp_files/20564.got.cif
#   From: 2010.05.17/outbox.cif.g08.bks.cpg/sg59_11_cif.got.tgz:20564.got - 2010.06.03 14:40:33.
