data_PCOD9451053
_publ_section_title
;
Structure prediction by ZEFSAII (Michael W. Deem and Ramdas Pophale) SiO2 
 PCOD9451053
Probable space group: P M M N
;
_chemical_formula_sum "Si O2"
_cell_formula_units_Z 48
_cell_length_a 29.001685
_cell_length_b 7.858527
_cell_length_c 10.385133
_cell_angle_alpha 90.000000
_cell_angle_beta 90.000000
_cell_angle_gamma 90.000000
_cell_volume 2366.881110
_symmetry_space_group_name_H-M "P M M N"
_symmetry_group_IT_number 59
_space_group.IT_coordinate_system_code '2'
_symmetry_cell_setting 'orthorhombic'
loop_
_space_group_symop_operation_xyz
x,y,z
1/2-x,1/2-y,z
1/2+x,-y,-z
-x,1/2+y,-z
-x,-y,-z
1/2+x,1/2+y,-z
1/2-x,y,z
x,1/2-y,z
loop_
_atom_site_type_symbol
_atom_site_label
_atom_site_fract_x
_atom_site_fract_y
_atom_site_fract_z
Si Si1 0.001608 0.455391 0.151354
Si Si2 0.102347 0.041603 0.231996
Si Si3 0.652735 0.550497 0.513410
Si Si4 0.250000 0.042327 0.595260
Si Si5 0.350546 0.449150 0.966842
Si Si6 0.750000 0.451073 0.103399
Si Si7 0.907555 0.053544 0.275289
O O1 0.000415 0.250000 0.157373
O O2 0.956604 0.518574 0.227739
O O3 0.049500 0.514356 0.214128
O O4 0.000000 0.500000 0.000000
O O5 0.101536 0.250000 0.236500
O O6 0.128204 0.978840 0.359498
O O7 0.129616 0.992381 0.103144
O O8 0.660551 0.750000 0.539131
O O9 0.702903 0.481175 0.472722
O O10 0.618174 0.534883 0.393076
O O11 0.250000 0.250000 0.596224
O O12 0.250000 0.986918 0.743762
O O13 0.362304 0.250000 0.951657
O O14 0.296083 0.471765 0.956528
O O15 0.374498 0.544050 0.848739
O O16 0.750000 0.250000 0.082670
O O17 0.913943 0.250000 0.312895
#
# Coordination Sequence:
#
# PCOD9451053 Si02
#       7
#     8   8   8   4   8   4   8
#     4  10  20  36  58  85 118 155 197 241 293 349
#     4   9  20  38  60  87 117 152 196 247 290 341
#     4  10  21  38  60  84 115 153 197 242 291 351
#     4  10  20  35  58  84 110 150 198 235 286 352
#     4  11  21  37  62  87 114 150 197 241 285 343
#     4  12  24  37  58  88 122 150 188 243 296 344
#     4  11  22  35  56  87 120 153 193 241 292 346
#
# _framework density 20.279852000000002
#
# number of rings (size 3 to 8) (size 9 to 14) (size 15 to 20)
#    0.000    1.667    3.333    1.750    0.000    2.000 
#    0.000    5.000    0.000    1.000    0.000    0.000 
#    0.000    0.000    0.000    0.000    0.000    0.000 
#
# Total GULP energy -268146.151371 kJ/mol
# GULP energy per Si atom -5586.378154 kJ/mol
# Density = 2.023369 g / cm^3
# Si number density = 20.279852 Si / 1000 Ang^3
#
#
#
# Elastic Constant Matrix: (Units=GPa)
#
#
# Indices 1 2 3 4 5 6 
#
# 1 155.6213 -11.4320 46.6595 0.0000 0.0000 0.0000
# 2 -11.4320 28.5305 -10.0364 0.0000 0.0000 0.0000
# 3 46.6595 -10.0364 96.7043 0.0000 0.0000 0.0000
# 4 0.0000 0.0000 0.0000 -26.9279 0.0000 0.0000
# 5 0.0000 0.0000 0.0000 0.0000 28.1601 0.0000
# 6 0.0000 0.0000 0.0000 0.0000 0.0000 -2.7199
#
#
#
# Elastic Compliance Matrix: (Units=1/GPa)
#
#
# Indices 1 2 3 4 5 6 
#
# 1 0.007603 0.001823 -0.003479 0.000000 0.000000 0.000000
# 2 0.001823 0.036815 0.002941 0.000000 0.000000 0.000000
# 3 -0.003479 0.002941 0.012325 0.000000 0.000000 0.000000
# 4 0.000000 0.000000 0.000000 -0.037136 0.000000 0.000000
# 5 0.000000 0.000000 0.000000 0.000000 0.035511 0.000000
# 6 0.000000 0.000000 0.000000 0.000000 0.000000 -0.367666
#
#
# Mechanical properties :
#
#
# Convention : Reuss Voigt Hill
#
# Bulk Modulus (GPa) = 16.85986 36.80428 26.83207
# Shear Modulus (GPa) = -16.92924 16.74679 -0.09122
#
# Velocity S-wave (km/s) = -2.89239 2.87676 -0.21232
# Velocity P-wave (km/s) = 1.68016 5.40573 3.63311
#
# Compressibility (1/GPa) = 0.05931246
#
# Stress axis : x y z
#
# Youngs Moduli (GPa) = 131.52871 27.16267 81.13729
#
# Poissons Ratio (x) = -0.04950 0.28229
# Poissons Ratio (y) = -0.23971 -0.23866
# Poissons Ratio (z) = 0.45762 -0.07990
#
# Static dielectric constant tensor:
#      x y z
#    x 1.722100 0.000000 0.000000 
#    y 0.000000 1.749060 0.000000 
#    z 0.000000 0.000000 1.670580 
# 
# From -- ./inp_files/13068.got.cif
#   From: 2010.05.17/outbox.cif.g08.bks.cpg/sg59_7_cif.got.tgz:13068.got - 2010.06.03 14:40:33.
