data_PCOD9451143
_publ_section_title
;
Structure prediction by ZEFSAII (Michael W. Deem and Ramdas Pophale) SiO2 
 PCOD9451143
Probable space group: P M M N
;
_chemical_formula_sum "Si O2"
_cell_formula_units_Z 58
_cell_length_a 27.396228
_cell_length_b 7.761056
_cell_length_c 12.647733
_cell_angle_alpha 90.000000
_cell_angle_beta 90.000000
_cell_angle_gamma 90.000000
_cell_volume 2689.207277
_symmetry_space_group_name_H-M "P M M N"
_symmetry_group_IT_number 59
_space_group.IT_coordinate_system_code '2'
_symmetry_cell_setting 'orthorhombic'
loop_
_space_group_symop_operation_xyz
x,y,z
1/2-x,1/2-y,z
1/2+x,-y,-z
-x,1/2+y,-z
-x,-y,-z
1/2+x,1/2+y,-z
1/2-x,y,z
x,1/2-y,z
loop_
_atom_site_type_symbol
_atom_site_label
_atom_site_fract_x
_atom_site_fract_y
_atom_site_fract_z
Si Si1 0.115347 0.039044 0.061993
Si Si2 0.194626 0.457386 0.232512
Si Si3 0.825645 0.553170 0.308899
Si Si4 0.155549 0.946959 0.464317
Si Si5 0.411939 0.455605 0.835704
Si Si6 0.750000 0.250000 0.258812
Si Si7 0.046081 0.456890 0.427806
Si Si8 0.976674 0.546024 0.807351
O O1 0.117094 0.250000 0.062585
O O2 0.158010 0.979736 0.140898
O O3 0.063193 0.981078 0.109459
O O4 0.116796 0.983275 0.940269
O O5 0.250000 0.522166 0.221204
O O6 0.195868 0.250000 0.224307
O O7 0.174191 0.498237 0.348963
O O8 0.814636 0.750000 0.272963
O O9 0.823428 0.548964 0.436043
O O10 0.880391 0.509692 0.268484
O O11 0.791733 0.403887 0.264581
O O12 0.170168 0.750000 0.481338
O O13 0.097117 0.965678 0.465357
O O14 0.416198 0.250000 0.843689
O O15 0.467083 0.520055 0.834342
O O16 0.052370 0.250000 0.426388
O O17 0.035037 0.521993 0.309444
O O18 0.000000 0.500000 0.500000
O O19 0.968360 0.750000 0.801923
#
# Coordination Sequence:
#
# PCOD9451143 Si02
#       8
#     8   8   8   8   8   2   8   8
#     4   9  18  39  62  92 127 167 220 275 332 401
#     4  10  21  39  66  92 121 166 219 276 335 395
#     4  11  25  45  69 100 133 176 223 278 340 400
#     4  12  24  40  63  92 132 172 217 274 330 398
#     4  10  22  39  64  94 130 169 219 272 329 408
#     4  12  26  48  72  98 134 176 230 284 330 404
#     4  11  22  37  58  89 127 172 216 267 332 405
#     4  10  20  35  61  89 127 171 215 269 333 402
#
# _framework density 21.567693999999999
#
# number of rings (size 3 to 8) (size 9 to 14) (size 15 to 20)
#    0.000    1.517    2.069    3.103    1.931    3.586 
#    1.241    0.690    0.000    0.000    0.000    0.000 
#    0.000    0.000    0.000    0.000    0.000    0.000 
#
# Total GULP energy -323565.295364 kJ/mol
# GULP energy per Si atom -5578.711989 kJ/mol
# Density = 2.151861 g / cm^3
# Si number density = 21.567694 Si / 1000 Ang^3
#
#
#
# Elastic Constant Matrix: (Units=GPa)
#
#
# Indices 1 2 3 4 5 6 
#
# 1 96.2775 16.3371 0.9906 0.0000 0.0000 0.0000
# 2 16.3371 69.9229 5.4995 0.0000 0.0000 0.0000
# 3 0.9906 5.4995 73.1011 0.0000 0.0000 0.0000
# 4 0.0000 0.0000 0.0000 9.9926 0.0000 0.0000
# 5 0.0000 0.0000 0.0000 0.0000 -0.4046 0.0000
# 6 0.0000 0.0000 0.0000 0.0000 0.0000 -34.5560
#
#
#
# Elastic Compliance Matrix: (Units=1/GPa)
#
#
# Indices 1 2 3 4 5 6 
#
# 1 0.010816 -0.002530 0.000044 0.000000 0.000000 0.000000
# 2 -0.002530 0.014979 -0.001093 0.000000 0.000000 0.000000
# 3 0.000044 -0.001093 0.013761 0.000000 0.000000 0.000000
# 4 0.000000 0.000000 0.000000 0.100074 0.000000 0.000000
# 5 0.000000 0.000000 0.000000 0.000000 -2.471857 0.000000
# 6 0.000000 0.000000 0.000000 0.000000 0.000000 -0.028939
#
#
# Mechanical properties :
#
#
# Convention : Reuss Voigt Hill
#
# Bulk Modulus (GPa) = 30.86702 31.66179 31.26440
# Shear Modulus (GPa) = -2.13383 9.43802 3.65210
#
# Velocity S-wave (km/s) = -0.99575 2.09416 1.30269
# Velocity P-wave (km/s) = 3.60843 4.53425 4.09757
#
# Compressibility (1/GPa) = 0.03239704
#
# Stress axis : x y z
#
# Youngs Moduli (GPa) = 92.45925 66.76179 72.66762
#
# Poissons Ratio (x) = 0.16894 -0.00318
# Poissons Ratio (y) = 0.23396 0.07940
# Poissons Ratio (z) = -0.00405 0.07294
#
# Static dielectric constant tensor:
#      x y z
#    x 1.760640 0.000000 0.000000 
#    y 0.000000 1.796850 0.000000 
#    z 0.000000 0.000000 1.787570 
# 
# From -- ./inp_files/18918.got.cif
#   From: 2010.05.17/outbox.cif.g08.bks.cpg/sg59_10_cif.got.tgz:18918.got - 2010.06.03 14:40:33.
