data_PCOD9451283
_publ_section_title
;
Structure prediction by ZEFSAII (Michael W. Deem and Ramdas Pophale) SiO2 
 PCOD9451283
Probable space group: P M M N
;
_chemical_formula_sum "Si O2"
_cell_formula_units_Z 48
_cell_length_a 8.966644
_cell_length_b 14.898914
_cell_length_c 17.955033
_cell_angle_alpha 90.000000
_cell_angle_beta 90.000000
_cell_angle_gamma 90.000000
_cell_volume 2398.671353
_symmetry_space_group_name_H-M "P M M N"
_symmetry_group_IT_number 59
_space_group.IT_coordinate_system_code '2'
_symmetry_cell_setting 'orthorhombic'
loop_
_space_group_symop_operation_xyz
x,y,z
1/2-x,1/2-y,z
1/2+x,-y,-z
-x,1/2+y,-z
-x,-y,-z
1/2+x,1/2+y,-z
1/2-x,y,z
x,1/2-y,z
loop_
_atom_site_type_symbol
_atom_site_label
_atom_site_fract_x
_atom_site_fract_y
_atom_site_fract_z
Si Si1 0.931457 0.250000 0.880957
Si Si2 0.568857 0.250000 0.705918
Si Si3 0.413697 0.854835 0.869893
Si Si4 0.427734 0.610540 0.418627
Si Si5 0.926759 0.597804 0.014087
Si Si6 0.428000 0.101856 0.428785
Si Si7 0.583084 0.854847 0.732765
O O1 0.750000 0.250000 0.887104
O O2 0.975540 0.250000 0.793000
O O3 0.995632 0.161645 0.923753
O O4 0.750000 0.250000 0.708203
O O5 0.522021 0.164597 0.654795
O O6 0.250000 0.891387 0.891465
O O7 0.392296 0.750000 0.855270
O O8 0.478398 0.897950 0.794883
O O9 0.534488 0.859046 0.934558
O O10 0.250000 0.622207 0.423200
O O11 0.498506 0.640025 0.496926
O O12 0.459217 0.504261 0.417889
O O13 0.750000 0.593223 0.027231
O O14 0.000000 0.500000 0.000000
O O15 0.250000 0.114310 0.435549
O O16 0.477784 0.142271 0.350578
O O17 0.750000 0.895828 0.733289
O O18 0.599936 0.750000 0.751119
#
# Coordination Sequence:
#
# PCOD9451283 Si02
#       7
#     4   4   8   8   8   8   8
#     4  11  23  43  67  94 129 164 211 269 324 387
#     4   9  20  37  59  84 115 158 201 247 304 371
#     4  10  20  36  58  84 118 153 191 240 297 359
#     4   9  18  34  53  75 105 146 194 237 290 352
#     4  12  25  42  66  94 125 164 209 256 315 380
#     4   9  18  32  51  77 110 147 189 242 293 345
#     4   9  18  31  49  76 109 143 182 226 284 350
#
# _framework density 20.011078000000001
#
# number of rings (size 3 to 8) (size 9 to 14) (size 15 to 20)
#    0.000    2.167    0.833    2.250    1.167    2.667 
#    0.000    5.000    0.000    0.000    0.000    0.000 
#    0.000    0.000    0.000    0.000    0.000    0.000 
#
# Total GULP energy -267307.218866 kJ/mol
# GULP energy per Si atom -5568.900393 kJ/mol
# Density = 1.996553 g / cm^3
# Si number density = 20.011078 Si / 1000 Ang^3
#
#
#
# Elastic Constant Matrix: (Units=GPa)
#
#
# Indices 1 2 3 4 5 6 
#
# 1 75.8487 41.4970 47.8648 0.0000 0.0000 0.0000
# 2 41.4970 69.5520 56.0535 0.0000 0.0000 0.0000
# 3 47.8648 56.0535 164.8081 0.0000 0.0000 0.0000
# 4 0.0000 0.0000 0.0000 41.8974 0.0000 0.0000
# 5 0.0000 0.0000 0.0000 0.0000 31.6417 0.0000
# 6 0.0000 0.0000 0.0000 0.0000 0.0000 18.1477
#
#
#
# Elastic Compliance Matrix: (Units=1/GPa)
#
#
# Indices 1 2 3 4 5 6 
#
# 1 0.020263 -0.010121 -0.002443 0.000000 0.000000 0.000000
# 2 -0.010121 0.024862 -0.005517 0.000000 0.000000 0.000000
# 3 -0.002443 -0.005517 0.008653 0.000000 0.000000 0.000000
# 4 0.000000 0.000000 0.000000 0.023868 0.000000 0.000000
# 5 0.000000 0.000000 0.000000 0.000000 0.031604 0.000000
# 6 0.000000 0.000000 0.000000 0.000000 0.000000 0.055103
#
#
# Mechanical properties :
#
#
# Convention : Reuss Voigt Hill
#
# Bulk Modulus (GPa) = 56.75988 66.78214 61.77101
# Shear Modulus (GPa) = 24.22647 29.32360 26.77504
#
# Velocity S-wave (km/s) = 3.48322 3.83217 3.66185
# Velocity P-wave (km/s) = 6.67854 7.28187 6.98672
#
# Compressibility (1/GPa) = 0.01761808
#
# Stress axis : x y z
#
# Youngs Moduli (GPa) = 49.35170 40.22188 115.56259
#
# Poissons Ratio (x) = 0.40708 0.28227
# Poissons Ratio (y) = 0.49948 0.63751
# Poissons Ratio (z) = 0.12055 0.22189
#
# Static dielectric constant tensor:
#      x y z
#    x 1.665350 0.000000 0.000000 
#    y 0.000000 1.591970 0.000000 
#    z 0.000000 0.000000 1.720800 
# 
# From -- ./inp_files/25620.got.cif
#   From: 2010.05.17/outbox.cif.g08.bks.cpg/sg59_13_cif.got.tgz:25620.got - 2010.06.03 14:40:33.
