data_PCOD9451097
_publ_section_title
;
Structure prediction by ZEFSAII (Michael W. Deem and Ramdas Pophale) SiO2 
 PCOD9451097
Probable space group: P M M N
;
_chemical_formula_sum "Si O2"
_cell_formula_units_Z 48
_cell_length_a 8.792553
_cell_length_b 16.539769
_cell_length_c 16.777922
_cell_angle_alpha 90.000000
_cell_angle_beta 90.000000
_cell_angle_gamma 90.000000
_cell_volume 2439.959432
_symmetry_space_group_name_H-M "P M M N"
_symmetry_group_IT_number 59
_space_group.IT_coordinate_system_code '2'
_symmetry_cell_setting 'orthorhombic'
loop_
_space_group_symop_operation_xyz
x,y,z
1/2-x,1/2-y,z
1/2+x,-y,-z
-x,1/2+y,-z
-x,-y,-z
1/2+x,1/2+y,-z
1/2-x,y,z
x,1/2-y,z
loop_
_atom_site_type_symbol
_atom_site_label
_atom_site_fract_x
_atom_site_fract_y
_atom_site_fract_z
Si Si1 0.572844 0.089284 0.800409
Si Si2 0.432722 0.078455 0.454836
Si Si3 0.576465 0.250000 0.696455
Si Si4 0.930750 0.750000 0.472128
Si Si5 0.425444 0.653196 0.876489
Si Si6 0.069578 0.562459 0.719412
Si Si7 0.429710 0.153269 0.958396
O O1 0.750000 0.064469 0.798778
O O2 0.557438 0.172336 0.751815
O O3 0.518903 0.105885 0.890118
O O4 0.469810 0.024584 0.755604
O O5 0.250000 0.074741 0.461585
O O6 0.487257 0.164822 0.490973
O O7 0.482712 0.075142 0.362915
O O8 0.500000 0.000000 0.500000
O O9 0.750000 0.250000 0.665340
O O10 0.467333 0.250000 0.621217
O O11 0.750000 0.750000 0.485046
O O12 0.250000 0.626248 0.886947
O O13 0.427499 0.750000 0.875535
O O14 0.478636 0.622080 0.790900
O O15 0.521135 0.626739 0.953103
O O16 0.250000 0.571449 0.705596
O O17 0.250000 0.143019 0.947379
O O18 0.463979 0.250000 0.951193
#
# Coordination Sequence:
#
# PCOD9451097 Si02
#       7
#     8   8   4   4   8   8   8
#     4  11  22  38  60  87 122 162 202 248 302 363
#     4  11  24  44  66  93 127 165 206 257 315 376
#     4  10  22  38  60  89 116 151 200 245 294 361
#     4  10  24  42  64  91 122 161 202 249 312 373
#     4   9  20  39  61  84 117 160 204 249 299 359
#     4  11  24  40  61  91 122 157 202 254 306 361
#     4  10  20  35  58  89 121 157 202 252 304 355
#
# _framework density 19.672459
#
# number of rings (size 3 to 8) (size 9 to 14) (size 15 to 20)
#    0.000    1.667    0.833    3.000    1.167    8.000 
#    0.000    0.000    0.000    0.000    0.000    0.000 
#    0.000    0.000    0.000    0.000    0.000    0.000 
#
# Total GULP energy -268173.890110 kJ/mol
# GULP energy per Si atom -5586.956044 kJ/mol
# Density = 1.962768 g / cm^3
# Si number density = 19.672459 Si / 1000 Ang^3
#
#
#
# Elastic Constant Matrix: (Units=GPa)
#
#
# Indices 1 2 3 4 5 6 
#
# 1 28.7835 23.5946 27.0600 0.0000 0.0000 0.0000
# 2 23.5946 66.2063 36.3189 0.0000 0.0000 0.0000
# 3 27.0600 36.3189 124.5721 0.0000 0.0000 0.0000
# 4 0.0000 0.0000 0.0000 29.4287 0.0000 0.0000
# 5 0.0000 0.0000 0.0000 0.0000 38.9221 0.0000
# 6 0.0000 0.0000 0.0000 0.0000 0.0000 22.8361
#
#
#
# Elastic Compliance Matrix: (Units=1/GPa)
#
#
# Indices 1 2 3 4 5 6 
#
# 1 0.054140 -0.015288 -0.007303 0.000000 0.000000 0.000000
# 2 -0.015288 0.022297 -0.003180 0.000000 0.000000 0.000000
# 3 -0.007303 -0.003180 0.010541 0.000000 0.000000 0.000000
# 4 0.000000 0.000000 0.000000 0.033980 0.000000 0.000000
# 5 0.000000 0.000000 0.000000 0.000000 0.025692 0.000000
# 6 0.000000 0.000000 0.000000 0.000000 0.000000 0.043790
#
#
# Mechanical properties :
#
#
# Convention : Reuss Voigt Hill
#
# Bulk Modulus (GPa) = 28.22000 43.72322 35.97161
# Shear Modulus (GPa) = 19.70091 27.07660 23.38876
#
# Velocity S-wave (km/s) = 3.16800 3.71397 3.45180
# Velocity P-wave (km/s) = 5.26856 6.37694 5.84906
#
# Compressibility (1/GPa) = 0.03543587
#
# Stress axis : x y z
#
# Youngs Moduli (GPa) = 18.47059 44.84909 94.86782
#
# Poissons Ratio (x) = 0.68566 0.69285
# Poissons Ratio (y) = 0.28238 0.30166
# Poissons Ratio (z) = 0.13490 0.14261
#
# Static dielectric constant tensor:
#      x y z
#    x 1.665120 0.000000 0.000000 
#    y 0.000000 1.693580 0.000000 
#    z 0.000000 0.000000 1.654130 
# 
# From -- ./inp_files/20595.got.cif
#   From: 2010.05.17/outbox.cif.g08.bks.cpg/sg59_11_cif.got.tgz:20595.got - 2010.06.03 14:40:33.
