data_PCOD9451478
_publ_section_title
;
Structure prediction by ZEFSAII (Michael W. Deem and Ramdas Pophale) SiO2 
 PCOD9451478
Probable space group: P M M N
;
_chemical_formula_sum "Si O2"
_cell_formula_units_Z 56
_cell_length_a 8.050152
_cell_length_b 15.552964
_cell_length_c 22.567735
_cell_angle_alpha 90.000000
_cell_angle_beta 90.000000
_cell_angle_gamma 90.000000
_cell_volume 2825.564470
_symmetry_space_group_name_H-M "P M M N"
_symmetry_group_IT_number 59
_space_group.IT_coordinate_system_code '2'
_symmetry_cell_setting 'orthorhombic'
loop_
_space_group_symop_operation_xyz
x,y,z
1/2-x,1/2-y,z
1/2+x,-y,-z
-x,1/2+y,-z
-x,-y,-z
1/2+x,1/2+y,-z
1/2-x,y,z
x,1/2-y,z
loop_
_atom_site_type_symbol
_atom_site_label
_atom_site_fract_x
_atom_site_fract_y
_atom_site_fract_z
Si Si1 0.450663 0.488725 0.706692
Si Si2 0.052094 0.564541 0.162061
Si Si3 0.546702 0.345483 0.360891
Si Si4 0.949224 0.657808 0.381394
Si Si5 0.051987 0.250000 0.886037
Si Si6 0.049145 0.057975 0.056557
Si Si7 0.953161 0.750000 0.977048
Si Si8 0.448482 0.901513 0.508294
O O1 0.250000 0.489271 0.703740
O O2 0.498593 0.461565 0.772277
O O3 0.509068 0.581868 0.684785
O O4 0.513673 0.419880 0.658375
O O5 0.250000 0.561942 0.159152
O O6 0.987874 0.494914 0.113963
O O7 0.000220 0.661508 0.145349
O O8 0.750000 0.346648 0.361748
O O9 0.492825 0.250000 0.344926
O O10 0.492461 0.367764 0.427967
O O11 0.750000 0.657235 0.375389
O O12 0.013229 0.750000 0.360363
O O13 0.987272 0.646803 0.450483
O O14 0.250000 0.250000 0.888130
O O15 0.991631 0.250000 0.954192
O O16 0.250000 0.060806 0.058263
O O17 0.993087 0.157905 0.050667
O O18 0.000000 0.000000 0.000000
O O19 0.750000 0.750000 0.975809
O O20 0.250000 0.895263 0.508524
O O21 0.500000 0.000000 0.500000
#
# Coordination Sequence:
#
# PCOD9451478 Si02
#       8
#     8   8   8   8   4   8   4   8
#     4  10  21  39  59  79 110 155 199 233 279 348
#     4  11  24  39  57  88 124 153 189 244 295 335
#     4   9  18  35  59  82 106 143 193 244 289 340
#     4  10  21  37  56  82 113 146 187 234 285 342
#     4  11  21  37  65  91 115 155 198 227 276 357
#     4  10  20  37  60  85 117 150 188 235 286 336
#     4   9  18  35  61  89 113 151 194 227 276 349
#     4  11  20  34  57  84 114 146 186 235 295 350
#
# _framework density 19.819047999999999
#
# number of rings (size 3 to 8) (size 9 to 14) (size 15 to 20)
#    0.000    1.857    2.857    1.500    1.000    2.000 
#    1.286    0.357    0.000    1.714    0.000    0.000 
#    0.000    0.000    0.000    0.000    0.000    0.000 
#
# Total GULP energy -312637.297905 kJ/mol
# GULP energy per Si atom -5582.808891 kJ/mol
# Density = 1.977394 g / cm^3
# Si number density = 19.819048 Si / 1000 Ang^3
#
#
#
# Elastic Constant Matrix: (Units=GPa)
#
#
# Indices 1 2 3 4 5 6 
#
# 1 10.1794 16.6896 6.6911 0.0000 0.0000 0.0000
# 2 16.6896 226.4858 99.3493 0.0000 0.0000 0.0000
# 3 6.6911 99.3493 140.6280 0.0000 0.0000 0.0000
# 4 0.0000 0.0000 0.0000 -2.8758 0.0000 0.0000
# 5 0.0000 0.0000 0.0000 0.0000 23.1904 0.0000
# 6 0.0000 0.0000 0.0000 0.0000 0.0000 8.2444
#
#
#
# Elastic Compliance Matrix: (Units=1/GPa)
#
#
# Indices 1 2 3 4 5 6 
#
# 1 0.111789 -0.008556 0.000726 0.000000 0.000000 0.000000
# 2 -0.008556 0.007053 -0.004576 0.000000 0.000000 0.000000
# 3 0.000726 -0.004576 0.010309 0.000000 0.000000 0.000000
# 4 0.000000 0.000000 0.000000 -0.347735 0.000000 0.000000
# 5 0.000000 0.000000 0.000000 0.000000 0.043121 0.000000
# 6 0.000000 0.000000 0.000000 0.000000 0.000000 0.121295
#
#
# Mechanical properties :
#
#
# Convention : Reuss Voigt Hill
#
# Bulk Modulus (GPa) = 9.58414 69.19480 39.38947
# Shear Modulus (GPa) = 921.98118 22.68268 472.33193
#
# Velocity S-wave (km/s) = 21.59188 3.38670 15.45444
# Velocity P-wave (km/s) = 25.02916 7.09098 18.39485
#
# Compressibility (1/GPa) = 0.10433901
#
# Stress axis : x y z
#
# Youngs Moduli (GPa) = 8.94542 141.78665 97.00360
#
# Poissons Ratio (x) = 1.21312 -0.07038
# Poissons Ratio (y) = 0.07654 0.44384
# Poissons Ratio (z) = -0.00649 0.64875
#
# Static dielectric constant tensor:
#      x y z
#    x 1.700300 0.000000 0.000000 
#    y 0.000000 1.723760 0.000000 
#    z 0.000000 0.000000 1.674420 
# 
# From -- ./inp_files/29229.got.cif
#   From: 2010.05.17/outbox.cif.g08.bks.cpg/sg59_15_cif.got.tgz:29229.got - 2010.06.03 14:40:33.
