data_PCOD9451015
_publ_section_title
;
Structure prediction by ZEFSAII (Michael W. Deem and Ramdas Pophale) SiO2 
 PCOD9451015
Probable space group: P M M N
;
_chemical_formula_sum "Si O2"
_cell_formula_units_Z 48
_cell_length_a 15.731253
_cell_length_b 7.812826
_cell_length_c 19.455975
_cell_angle_alpha 90.000000
_cell_angle_beta 90.000000
_cell_angle_gamma 90.000000
_cell_volume 2391.247161
_symmetry_space_group_name_H-M "P M M N"
_symmetry_group_IT_number 59
_space_group.IT_coordinate_system_code '2'
_symmetry_cell_setting 'orthorhombic'
loop_
_space_group_symop_operation_xyz
x,y,z
1/2-x,1/2-y,z
1/2+x,-y,-z
-x,1/2+y,-z
-x,-y,-z
1/2+x,1/2+y,-z
1/2-x,y,z
x,1/2-y,z
loop_
_atom_site_type_symbol
_atom_site_label
_atom_site_fract_x
_atom_site_fract_y
_atom_site_fract_z
Si Si1 0.094308 0.455459 0.328480
Si Si2 0.154043 0.543265 0.174813
Si Si3 0.750000 0.545397 0.420514
Si Si4 0.750000 0.960310 0.577767
Si Si5 0.903607 0.046408 0.321349
Si Si6 0.155361 0.453146 0.830613
Si Si7 0.501245 0.043539 0.920195
O O1 0.092363 0.250000 0.335824
O O2 0.123098 0.496131 0.251045
O O3 0.166028 0.518466 0.381209
O O4 0.998104 0.519725 0.338971
O O5 0.250000 0.479767 0.163659
O O6 0.156109 0.750000 0.171177
O O7 0.085432 0.480831 0.119385
O O8 0.750000 0.750000 0.422100
O O9 0.750000 0.482870 0.498902
O O10 0.666482 0.490271 0.378822
O O11 0.750000 0.750000 0.578435
O O12 0.909327 0.250000 0.312530
O O13 0.872781 0.974718 0.248281
O O14 0.250000 0.526107 0.840330
O O15 0.160351 0.250000 0.843732
O O16 0.082164 0.523063 0.880334
O O17 0.501251 0.250000 0.913976
O O18 0.500000 0.000000 0.000000
#
# Coordination Sequence:
#
# PCOD9451015 Si02
#       7
#     8   8   4   4   8   8   8
#     4  10  20  36  60  86 114 148 189 236 284 338
#     4  10  20  35  57  85 114 146 188 234 281 336
#     4  11  23  39  59  81 114 159 194 229 283 344
#     4   9  20  39  59  83 116 153 192 231 281 342
#     4  11  22  35  57  89 117 144 188 243 289 333
#     4  10  20  36  59  83 109 148 192 231 278 339
#     4  10  22  38  55  81 117 150 187 234 283 337
#
# _framework density 20.073208000000001
#
# number of rings (size 3 to 8) (size 9 to 14) (size 15 to 20)
#    0.000    1.833    3.333    0.750    0.000    3.333 
#    0.000    1.667    0.000    0.000    0.000    0.000 
#    0.000    0.000    0.000    0.000    0.000    0.000 
#
# Total GULP energy -268109.047065 kJ/mol
# GULP energy per Si atom -5585.605147 kJ/mol
# Density = 2.002752 g / cm^3
# Si number density = 20.073208 Si / 1000 Ang^3
#
#
#
# Elastic Constant Matrix: (Units=GPa)
#
#
# Indices 1 2 3 4 5 6 
#
# 1 251.6767 5.8637 120.4835 0.0000 0.0000 0.0000
# 2 5.8637 19.9005 -15.0292 0.0000 0.0000 0.0000
# 3 120.4835 -15.0292 174.9131 0.0000 0.0000 0.0000
# 4 0.0000 0.0000 0.0000 21.4313 0.0000 0.0000
# 5 0.0000 0.0000 0.0000 0.0000 37.5715 0.0000
# 6 0.0000 0.0000 0.0000 0.0000 0.0000 16.0030
#
#
#
# Elastic Compliance Matrix: (Units=1/GPa)
#
#
# Indices 1 2 3 4 5 6 
#
# 1 0.006470 -0.005638 -0.004941 0.000000 0.000000 0.000000
# 2 -0.005638 0.058650 0.008923 0.000000 0.000000 0.000000
# 3 -0.004941 0.008923 0.009887 0.000000 0.000000 0.000000
# 4 0.000000 0.000000 0.000000 0.046661 0.000000 0.000000
# 5 0.000000 0.000000 0.000000 0.000000 0.026616 0.000000
# 6 0.000000 0.000000 0.000000 0.000000 0.000000 0.062488
#
#
# Mechanical properties :
#
#
# Convention : Reuss Voigt Hill
#
# Bulk Modulus (GPa) = 13.94791 74.34734 44.14763
# Shear Modulus (GPa) = 21.00983 37.34598 29.17791
#
# Velocity S-wave (km/s) = 3.23872 4.31802 3.81671
# Velocity P-wave (km/s) = 4.57705 7.87267 6.43926
#
# Compressibility (1/GPa) = 0.07169531
#
# Stress axis : x y z
#
# Youngs Moduli (GPa) = 154.55462 17.05024 101.13813
#
# Poissons Ratio (x) = 0.09613 0.49975
# Poissons Ratio (y) = 0.87140 -0.90247
# Poissons Ratio (z) = 0.76369 -0.15214
#
# Static dielectric constant tensor:
#      x y z
#    x 1.728900 0.000000 0.000000 
#    y 0.000000 1.738180 0.000000 
#    z 0.000000 0.000000 1.647010 
# 
# From -- ./inp_files/27465.got.cif
#   From: 2010.05.17/outbox.cif.g08.bks.cpg/sg59_14_cif.got.tgz:27465.got - 2010.06.03 14:40:33.
