data_PCOD9451731
_publ_section_title
;
Structure prediction by ZEFSAII (Michael W. Deem and Ramdas Pophale) SiO2 
 PCOD9451731
Probable space group: P M M N
;
_chemical_formula_sum "Si O2"
_cell_formula_units_Z 48
_cell_length_a 8.787421
_cell_length_b 30.185561
_cell_length_c 10.387626
_cell_angle_alpha 90.000000
_cell_angle_beta 90.000000
_cell_angle_gamma 90.000000
_cell_volume 2755.351376
_symmetry_space_group_name_H-M "P M M N"
_symmetry_group_IT_number 59
_space_group.IT_coordinate_system_code '2'
_symmetry_cell_setting 'orthorhombic'
loop_
_space_group_symop_operation_xyz
x,y,z
1/2-x,1/2-y,z
1/2+x,-y,-z
-x,1/2+y,-z
-x,-y,-z
1/2+x,1/2+y,-z
1/2-x,y,z
x,1/2-y,z
loop_
_atom_site_type_symbol
_atom_site_label
_atom_site_fract_x
_atom_site_fract_y
_atom_site_fract_z
Si Si1 0.933431 0.199111 0.384837
Si Si2 0.066086 0.870654 0.397253
Si Si3 0.432747 0.969164 0.110875
Si Si4 0.068029 0.467940 0.608094
Si Si5 0.068390 0.865544 0.102984
Si Si6 0.431613 0.301061 0.107773
O O1 0.750000 0.198322 0.377251
O O2 0.980169 0.250000 0.411773
O O3 0.978869 0.165438 0.497028
O O4 0.999699 0.186294 0.246310
O O5 0.250000 0.876989 0.402312
O O6 0.029477 0.855508 0.251815
O O7 0.987396 0.917829 0.419021
O O8 0.250000 0.973385 0.117629
O O9 0.503332 0.979789 0.250424
O O10 0.468409 0.917451 0.082639
O O11 0.500000 0.000000 0.000000
O O12 0.250000 0.470354 0.608897
O O13 0.000000 0.500000 0.500000
O O14 0.250000 0.860511 0.088090
O O15 0.987554 0.833669 0.002905
O O16 0.250000 0.302188 0.115886
O O17 0.479230 0.250000 0.081866
#
# Coordination Sequence:
#
# PCOD9451731 Si02
#       6
#     8   8   8   8   8   8
#     4   9  18  34  56  79 104 137 175 215 262 315
#     4   9  19  36  56  80 108 135 172 221 267 315
#     4  10  21  38  58  82 110 140 177 220 268 320
#     4  11  22  37  57  80 108 143 181 221 267 317
#     4   9  19  35  55  78 105 137 172 213 260 313
#     4  10  21  35  51  75 107 140 176 218 260 306
#
# _framework density 17.420646000000001
#
# number of rings (size 3 to 8) (size 9 to 14) (size 15 to 20)
#    0.000    2.333    0.000    3.500    0.000    7.000 
#    0.000    3.333    0.000    2.000    0.000    0.000 
#    0.000    0.000    0.000    0.000    0.000    0.000 
#
# Total GULP energy -267907.157467 kJ/mol
# GULP energy per Si atom -5581.399114 kJ/mol
# Density = 1.738100 g / cm^3
# Si number density = 17.420646 Si / 1000 Ang^3
#
#
#
# Elastic Constant Matrix: (Units=GPa)
#
#
# Indices 1 2 3 4 5 6 
#
# 1 59.3149 54.9568 68.5394 0.0000 0.0000 0.0000
# 2 54.9568 103.8604 126.4851 0.0000 0.0000 0.0000
# 3 68.5394 126.4851 182.8065 0.0000 0.0000 0.0000
# 4 0.0000 0.0000 0.0000 41.9872 0.0000 0.0000
# 5 0.0000 0.0000 0.0000 0.0000 24.9223 0.0000
# 6 0.0000 0.0000 0.0000 0.0000 0.0000 30.4127
#
#
#
# Elastic Compliance Matrix: (Units=1/GPa)
#
#
# Indices 1 2 3 4 5 6 
#
# 1 0.033173 -0.015291 -0.001858 0.000000 0.000000 0.000000
# 2 -0.015291 0.068231 -0.041477 0.000000 0.000000 0.000000
# 3 -0.001858 -0.041477 0.034865 0.000000 0.000000 0.000000
# 4 0.000000 0.000000 0.000000 0.023817 0.000000 0.000000
# 5 0.000000 0.000000 0.000000 0.000000 0.040125 0.000000
# 6 0.000000 0.000000 0.000000 0.000000 0.000000 0.032881
#
#
# Mechanical properties :
#
#
# Convention : Reuss Voigt Hill
#
# Bulk Modulus (GPa) = 52.58009 93.99382 73.28696
# Shear Modulus (GPa) = 14.01810 25.86449 19.94129
#
# Velocity S-wave (km/s) = 2.83977 3.85736 3.38700
# Velocity P-wave (km/s) = 6.40317 8.59718 7.57998
#
# Compressibility (1/GPa) = 0.01901860
#
# Stress axis : x y z
#
# Youngs Moduli (GPa) = 30.14488 14.65604 28.68226
#
# Poissons Ratio (x) = 0.22410 0.05328
# Poissons Ratio (y) = 0.46094 1.18964
# Poissons Ratio (z) = 0.05600 0.60788
#
# Static dielectric constant tensor:
#      x y z
#    x 1.585260 0.000000 0.000000 
#    y 0.000000 1.576820 0.000000 
#    z 0.000000 0.000000 1.564390 
# 
# From -- ./inp_files/6225.got.cif
#   From: 2010.05.17/outbox.cif.g08.bks.cpg/sg59_4_cif.got.tgz:6225.got - 2010.06.03 14:40:33.
