data_PCOD9451171
_publ_section_title
;
Structure prediction by ZEFSAII (Michael W. Deem and Ramdas Pophale) SiO2 
 PCOD9451171
Probable space group: P M M N
;
_chemical_formula_sum "Si O2"
_cell_formula_units_Z 40
_cell_length_a 10.476354
_cell_length_b 7.904714
_cell_length_c 24.270014
_cell_angle_alpha 90.000000
_cell_angle_beta 90.000000
_cell_angle_gamma 90.000000
_cell_volume 2009.862528
_symmetry_space_group_name_H-M "P M M N"
_symmetry_group_IT_number 59
_space_group.IT_coordinate_system_code '2'
_symmetry_cell_setting 'orthorhombic'
loop_
_space_group_symop_operation_xyz
x,y,z
1/2-x,1/2-y,z
1/2+x,-y,-z
-x,1/2+y,-z
-x,-y,-z
1/2+x,1/2+y,-z
1/2-x,y,z
x,1/2-y,z
loop_
_atom_site_type_symbol
_atom_site_label
_atom_site_fract_x
_atom_site_fract_y
_atom_site_fract_z
Si Si1 0.894151 0.048173 0.544408
Si Si2 0.250000 0.951884 0.083373
Si Si3 0.106707 0.546333 0.753455
Si Si4 0.477502 0.454730 0.876330
Si Si5 0.750000 0.545111 0.044155
Si Si6 0.393664 0.452452 0.330534
O O1 0.750000 0.985502 0.530926
O O2 0.889041 0.250000 0.546625
O O3 0.926273 0.984998 0.605739
O O4 0.000000 0.000000 0.500000
O O5 0.250000 0.750000 0.092382
O O6 0.380945 0.018912 0.109591
O O7 0.250000 0.983237 0.018164
O O8 0.250000 0.481699 0.742847
O O9 0.110487 0.750000 0.747742
O O10 0.067402 0.506538 0.815866
O O11 0.000384 0.480122 0.711043
O O12 0.478823 0.250000 0.878230
O O13 0.374792 0.511548 0.921924
O O14 0.750000 0.750000 0.043153
O O15 0.250000 0.520047 0.320569
O O16 0.388096 0.250000 0.322915
#
# Coordination Sequence:
#
# PCOD9451171 Si02
#       6
#     8   4   8   8   4   8
#     4  10  21  37  58  86 118 153 192 232 278 330
#     4  10  22  36  54  80 106 136 175 218 267 322
#     4  10  21  36  55  80 108 141 182 225 271 322
#     4  10  21  37  54  77 108 139 174 219 271 323
#     4  10  20  36  56  76 104 140 175 216 267 324
#     4   9  19  36  56  79 111 148 185 229 276 322
#
# _framework density 19.901859000000002
#
# number of rings (size 3 to 8) (size 9 to 14) (size 15 to 20)
#    0.000    2.200    1.000    1.200    1.400    4.400 
#    0.000    2.000    0.000    0.000    0.000    0.000 
#    0.000    0.000    0.000    0.000    0.000    0.000 
#
# Total GULP energy -223355.839551 kJ/mol
# GULP energy per Si atom -5583.895989 kJ/mol
# Density = 1.985656 g / cm^3
# Si number density = 19.901859 Si / 1000 Ang^3
#
#
#
# Elastic Constant Matrix: (Units=GPa)
#
#
# Indices 1 2 3 4 5 6 
#
# 1 178.2594 7.9123 93.0843 0.0000 0.0000 0.0000
# 2 7.9123 15.4886 -8.7456 0.0000 0.0000 0.0000
# 3 93.0843 -8.7456 108.5018 0.0000 0.0000 0.0000
# 4 0.0000 0.0000 0.0000 31.3694 0.0000 0.0000
# 5 0.0000 0.0000 0.0000 0.0000 45.8774 0.0000
# 6 0.0000 0.0000 0.0000 0.0000 0.0000 5.8643
#
#
#
# Elastic Compliance Matrix: (Units=1/GPa)
#
#
# Indices 1 2 3 4 5 6 
#
# 1 0.012147 -0.012665 -0.011441 0.000000 0.000000 0.000000
# 2 -0.012665 0.080849 0.017382 0.000000 0.000000 0.000000
# 3 -0.011441 0.017382 0.020433 0.000000 0.000000 0.000000
# 4 0.000000 0.000000 0.000000 0.031878 0.000000 0.000000
# 5 0.000000 0.000000 0.000000 0.000000 0.021797 0.000000
# 6 0.000000 0.000000 0.000000 0.000000 0.000000 0.170523
#
#
# Mechanical properties :
#
#
# Convention : Reuss Voigt Hill
#
# Bulk Modulus (GPa) = 10.00205 54.08354 32.04279
# Shear Modulus (GPa) = 13.00719 30.62214 21.81467
#
# Velocity S-wave (km/s) = 2.55927 3.92683 3.31435
# Velocity P-wave (km/s) = 3.71076 6.91333 5.54814
#
# Compressibility (1/GPa) = 0.09997953
#
# Stress axis : x y z
#
# Youngs Moduli (GPa) = 82.32811 12.36878 48.93996
#
# Poissons Ratio (x) = 0.15666 0.55994
# Poissons Ratio (y) = 1.04272 -0.85069
# Poissons Ratio (z) = 0.94195 -0.21500
#
# Static dielectric constant tensor:
#      x y z
#    x 1.728420 0.000000 0.000000 
#    y 0.000000 1.712310 0.000000 
#    z 0.000000 0.000000 1.640700 
# 
# From -- ./inp_files/31164.got.cif
#   From: 2010.05.17/outbox.cif.g08.bks.cpg/sg59_16_cif.got.tgz:31164.got - 2010.06.03 14:40:33.
