data_PCOD9451178
_publ_section_title
;
Structure prediction by ZEFSAII (Michael W. Deem and Ramdas Pophale) SiO2 
 PCOD9451178
Probable space group: P M M N
;
_chemical_formula_sum "Si O2"
_cell_formula_units_Z 48
_cell_length_a 8.223941
_cell_length_b 10.136564
_cell_length_c 29.260883
_cell_angle_alpha 90.000000
_cell_angle_beta 90.000000
_cell_angle_gamma 90.000000
_cell_volume 2439.260484
_symmetry_space_group_name_H-M "P M M N"
_symmetry_group_IT_number 59
_space_group.IT_coordinate_system_code '2'
_symmetry_cell_setting 'orthorhombic'
loop_
_space_group_symop_operation_xyz
x,y,z
1/2-x,1/2-y,z
1/2+x,-y,-z
-x,1/2+y,-z
-x,-y,-z
1/2+x,1/2+y,-z
1/2-x,y,z
x,1/2-y,z
loop_
_atom_site_type_symbol
_atom_site_label
_atom_site_fract_x
_atom_site_fract_y
_atom_site_fract_z
Si Si1 0.055514 0.900427 0.038941
Si Si2 0.446274 0.250000 0.533164
Si Si3 0.445833 0.895821 0.294075
Si Si4 0.445417 0.099252 0.218776
Si Si5 0.554722 0.250000 0.428876
Si Si6 0.056540 0.099603 0.858451
Si Si7 0.946927 0.969854 0.395011
O O1 0.250000 0.904531 0.042587
O O2 0.006186 0.750000 0.027442
O O3 0.983647 0.930767 0.088819
O O4 0.000000 0.000000 0.000000
O O5 0.250000 0.250000 0.530294
O O6 0.513524 0.250000 0.482334
O O7 0.497434 0.123849 0.563126
O O8 0.250000 0.895274 0.290858
O O9 0.504336 0.750000 0.279277
O O10 0.492549 0.918163 0.346545
O O11 0.507500 0.013922 0.261999
O O12 0.250000 0.107249 0.222616
O O13 0.507598 0.250000 0.216782
O O14 0.484436 0.010534 0.174721
O O15 0.750000 0.250000 0.424860
O O16 0.493967 0.382725 0.405051
O O17 0.250000 0.100516 0.852449
O O18 0.995223 0.250000 0.849056
O O19 0.750000 0.967988 0.393891
#
# Coordination Sequence:
#
# PCOD9451178 Si02
#       7
#     8   4   8   8   4   8   8
#     4  10  21  37  59  87 119 158 201 245 293 343
#     4  10  20  36  56  78 106 142 182 222 263 320
#     4  10  21  37  58  83 109 142 185 228 273 330
#     4  10  22  39  59  85 116 148 186 235 288 342
#     4  10  22  36  54  80 110 142 176 220 271 322
#     4  10  21  38  60  86 116 153 198 242 287 343
#     4  10  21  37  55  79 110 142 178 220 270 326
#
# _framework density 19.678094999999999
#
# number of rings (size 3 to 8) (size 9 to 14) (size 15 to 20)
#    0.000    2.000    0.833    2.000    1.167    5.667 
#    0.000    0.000    0.000    0.000    0.000    0.000 
#    0.000    0.000    0.000    0.000    0.000    0.000 
#
# Total GULP energy -268078.749963 kJ/mol
# GULP energy per Si atom -5584.973958 kJ/mol
# Density = 1.963331 g / cm^3
# Si number density = 19.678095 Si / 1000 Ang^3
#
#
#
# Elastic Constant Matrix: (Units=GPa)
#
#
# Indices 1 2 3 4 5 6 
#
# 1 7.9923 14.0490 -2.8510 0.0000 0.0000 0.0000
# 2 14.0490 162.6241 68.4333 0.0000 0.0000 0.0000
# 3 -2.8510 68.4333 90.5913 0.0000 0.0000 0.0000
# 4 0.0000 0.0000 0.0000 37.4187 0.0000 0.0000
# 5 0.0000 0.0000 0.0000 0.0000 29.4503 0.0000
# 6 0.0000 0.0000 0.0000 0.0000 0.0000 12.9354
#
#
#
# Elastic Compliance Matrix: (Units=1/GPa)
#
#
# Indices 1 2 3 4 5 6 
#
# 1 0.180637 -0.026384 0.025616 0.000000 0.000000 0.000000
# 2 -0.026384 0.012869 -0.010551 0.000000 0.000000 0.000000
# 3 0.025616 -0.010551 0.019815 0.000000 0.000000 0.000000
# 4 0.000000 0.000000 0.000000 0.026725 0.000000 0.000000
# 5 0.000000 0.000000 0.000000 0.000000 0.033956 0.000000
# 6 0.000000 0.000000 0.000000 0.000000 0.000000 0.077307
#
#
# Mechanical properties :
#
#
# Convention : Reuss Voigt Hill
#
# Bulk Modulus (GPa) = 5.24437 46.71891 25.98164
# Shear Modulus (GPa) = 11.42836 28.06595 19.74716
#
# Velocity S-wave (km/s) = 2.41252 3.78067 3.17126
# Velocity P-wave (km/s) = 3.22974 6.54608 5.16151
#
# Compressibility (1/GPa) = 0.19068079
#
# Stress axis : x y z
#
# Youngs Moduli (GPa) = 5.53597 77.70869 50.46595
#
# Poissons Ratio (x) = 2.05030 -1.29273
# Poissons Ratio (y) = 0.14606 0.53248
# Poissons Ratio (z) = -0.14181 0.81993
#
# Static dielectric constant tensor:
#      x y z
#    x 1.687140 0.000000 0.000000 
#    y 0.000000 1.713280 0.000000 
#    z 0.000000 0.000000 1.638740 
# 
# From -- ./inp_files/33010.got.cif
#   From: 2010.05.17/outbox.cif.g08.bks.cpg/sg59_17_cif.got.tgz:33010.got - 2010.06.03 14:40:33.
