data_PCOD9451972
_publ_section_title
;
Structure prediction by ZEFSAII (Michael W. Deem and Ramdas Pophale) SiO2 
 PCOD9451972
Probable space group: P M M N
;
_chemical_formula_sum "Si O2"
_cell_formula_units_Z 48
_cell_length_a 10.003978
_cell_length_b 8.058508
_cell_length_c 29.459271
_cell_angle_alpha 90.000000
_cell_angle_beta 90.000000
_cell_angle_gamma 90.000000
_cell_volume 2374.922079
_symmetry_space_group_name_H-M "P M M N"
_symmetry_group_IT_number 59
_space_group.IT_coordinate_system_code '2'
_symmetry_cell_setting 'orthorhombic'
loop_
_space_group_symop_operation_xyz
x,y,z
1/2-x,1/2-y,z
1/2+x,-y,-z
-x,1/2+y,-z
-x,-y,-z
1/2+x,1/2+y,-z
1/2-x,y,z
x,1/2-y,z
loop_
_atom_site_type_symbol
_atom_site_label
_atom_site_fract_x
_atom_site_fract_y
_atom_site_fract_z
Si Si1 0.403856 0.046561 0.778455
Si Si2 0.597587 0.050902 0.858724
Si Si3 0.098099 0.448152 0.039983
Si Si4 0.039453 0.555019 0.402353
Si Si5 0.250000 0.062688 0.473875
Si Si6 0.601123 0.452362 0.699652
Si Si7 0.250000 0.559538 0.572555
O O1 0.250000 0.991848 0.779322
O O2 0.402185 0.250000 0.778608
O O3 0.491034 0.991220 0.821779
O O4 0.485104 0.993355 0.733669
O O5 0.750000 0.987472 0.851677
O O6 0.603563 0.250000 0.854048
O O7 0.557069 0.010924 0.910225
O O8 0.250000 0.509571 0.031762
O O9 0.101441 0.250000 0.041712
O O10 0.000000 0.500000 0.000000
O O11 0.072523 0.750000 0.404981
O O12 0.883326 0.527693 0.409915
O O13 0.122635 0.466936 0.441829
O O14 0.079422 0.494236 0.352244
O O15 0.250000 0.250000 0.491365
O O16 0.250000 0.948508 0.517880
O O17 0.750000 0.501431 0.715155
O O18 0.598019 0.250000 0.699399
O O19 0.250000 0.750000 0.587465
#
# Coordination Sequence:
#
# PCOD9451972 Si02
#       7
#     8   8   8   8   4   8   4
#     4   9  17  28  48  81 115 143 180 232 283 328
#     4   9  17  31  51  76 109 148 188 232 281 334
#     4  10  21  36  55  80 110 147 191 238 286 340
#     4  11  22  39  62  90 119 153 195 241 289 343
#     4  12  24  42  64  88 118 154 194 238 287 348
#     4   9  17  31  53  82 113 145 183 230 278 329
#     4  12  26  42  60  86 120 156 192 238 293 348
#
# _framework density 20.211189000000001
#
# number of rings (size 3 to 8) (size 9 to 14) (size 15 to 20)
#    0.000    2.000    0.833    3.500    1.167    3.667 
#    0.000    1.667    0.000    2.000    0.000    0.000 
#    0.000    0.000    0.000    0.000    0.000    0.000 
#
# Total GULP energy -268150.097015 kJ/mol
# GULP energy per Si atom -5586.460354 kJ/mol
# Density = 2.016519 g / cm^3
# Si number density = 20.211189 Si / 1000 Ang^3
#
#
#
# Elastic Constant Matrix: (Units=GPa)
#
#
# Indices 1 2 3 4 5 6 
#
# 1 135.1565 -3.2666 64.7112 0.0000 0.0000 0.0000
# 2 -3.2666 24.6931 -4.7948 0.0000 0.0000 0.0000
# 3 64.7112 -4.7948 109.6975 0.0000 0.0000 0.0000
# 4 0.0000 0.0000 0.0000 16.5339 0.0000 0.0000
# 5 0.0000 0.0000 0.0000 0.0000 33.5054 0.0000
# 6 0.0000 0.0000 0.0000 0.0000 0.0000 19.1412
#
#
#
# Elastic Compliance Matrix: (Units=1/GPa)
#
#
# Indices 1 2 3 4 5 6 
#
# 1 0.010312 0.000185 -0.006075 0.000000 0.000000 0.000000
# 2 0.000185 0.040847 0.001677 0.000000 0.000000 0.000000
# 3 -0.006075 0.001677 0.012773 0.000000 0.000000 0.000000
# 4 0.000000 0.000000 0.000000 0.060482 0.000000 0.000000
# 5 0.000000 0.000000 0.000000 0.000000 0.029846 0.000000
# 6 0.000000 0.000000 0.000000 0.000000 0.000000 0.052243
#
#
# Mechanical properties :
#
#
# Convention : Reuss Voigt Hill
#
# Bulk Modulus (GPa) = 18.01671 42.53854 30.27763
# Shear Modulus (GPa) = 21.41948 28.02924 24.72436
#
# Velocity S-wave (km/s) = 3.25896 3.72804 3.50137
# Velocity P-wave (km/s) = 4.80569 6.29474 5.59993
#
# Compressibility (1/GPa) = 0.05550402
#
# Stress axis : x y z
#
# Youngs Moduli (GPa) = 96.97517 24.48157 78.29057
#
# Poissons Ratio (x) = -0.00452 0.47561
# Poissons Ratio (y) = -0.01789 -0.13126
# Poissons Ratio (z) = 0.58912 -0.04104
#
# Static dielectric constant tensor:
#      x y z
#    x 1.708830 0.000000 0.000000 
#    y 0.000000 1.720500 0.000000 
#    z 0.000000 0.000000 1.685350 
# 
# From -- ./inp_files/32975.got.cif
#   From: 2010.05.17/outbox.cif.g08.bks.cpg/sg59_17_cif.got.tgz:32975.got - 2010.06.03 14:40:33.
