data_PCOD9451576
_publ_section_title
;
Structure prediction by ZEFSAII (Michael W. Deem and Ramdas Pophale) SiO2 
 PCOD9451576
Probable space group: P M M N
;
_chemical_formula_sum "Si O2"
_cell_formula_units_Z 48
_cell_length_a 7.931579
_cell_length_b 10.070390
_cell_length_c 29.585509
_cell_angle_alpha 90.000000
_cell_angle_beta 90.000000
_cell_angle_gamma 90.000000
_cell_volume 2363.115722
_symmetry_space_group_name_H-M "P M M N"
_symmetry_group_IT_number 59
_space_group.IT_coordinate_system_code '2'
_symmetry_cell_setting 'orthorhombic'
loop_
_space_group_symop_operation_xyz
x,y,z
1/2-x,1/2-y,z
1/2+x,-y,-z
-x,1/2+y,-z
-x,-y,-z
1/2+x,1/2+y,-z
1/2-x,y,z
x,1/2-y,z
loop_
_atom_site_type_symbol
_atom_site_label
_atom_site_fract_x
_atom_site_fract_y
_atom_site_fract_z
Si Si1 0.545900 0.102748 0.204758
Si Si2 0.548411 0.599223 0.641013
Si Si3 0.951150 0.099667 0.460475
Si Si4 0.547636 0.098740 0.717834
Si Si5 0.951298 0.034181 0.104356
Si Si6 0.048219 0.750000 0.070076
Si Si7 0.456421 0.750000 0.966703
O O1 0.750000 0.101735 0.204507
O O2 0.491131 0.250000 0.220524
O O3 0.488174 0.985059 0.237118
O O4 0.485731 0.080734 0.153292
O O5 0.750000 0.605882 0.647307
O O6 0.481316 0.750000 0.647873
O O7 0.515526 0.560401 0.589165
O O8 0.481296 0.491276 0.676352
O O9 0.750000 0.103966 0.458093
O O10 0.014069 0.250000 0.469478
O O11 0.000000 0.000000 0.500000
O O12 0.750000 0.107412 0.712947
O O13 0.482238 0.250000 0.718946
O O14 0.750000 0.053475 0.105516
O O15 0.989452 0.881848 0.095120
O O16 0.013291 0.123089 0.062487
O O17 0.250000 0.750000 0.068918
O O18 0.984304 0.750000 0.018219
O O19 0.250000 0.750000 0.968352
#
# Coordination Sequence:
#
# PCOD9451576 Si02
#       7
#     8   8   8   8   8   4   4
#     4  10  21  38  60  82 104 139 188 232 271 324
#     4   9  18  35  57  79 109 152 196 232 273 330
#     4  10  21  36  56  84 117 153 193 238 285 331
#     4  10  22  38  57  84 117 149 179 222 282 339
#     4  10  20  38  60  80 106 146 186 223 272 330
#     4  11  23  35  53  85 117 143 175 225 278 325
#     4   9  18  37  61  81 107 143 187 229 268 323
#
# _framework density 20.312166000000001
#
# number of rings (size 3 to 8) (size 9 to 14) (size 15 to 20)
#    0.000    2.167    0.833    1.750    1.167    4.333 
#    0.000    4.583    0.000    0.000    0.000    0.000 
#    0.000    0.000    0.000    0.000    0.000    0.000 
#
# Total GULP energy -268039.375518 kJ/mol
# GULP energy per Si atom -5584.153657 kJ/mol
# Density = 2.026593 g / cm^3
# Si number density = 20.312166 Si / 1000 Ang^3
#
#
#
# Elastic Constant Matrix: (Units=GPa)
#
#
# Indices 1 2 3 4 5 6 
#
# 1 14.9902 1.7925 1.5336 0.0000 0.0000 0.0000
# 2 1.7925 147.6131 73.1654 0.0000 0.0000 0.0000
# 3 1.5336 73.1654 114.9786 0.0000 0.0000 0.0000
# 4 0.0000 0.0000 0.0000 35.1296 0.0000 0.0000
# 5 0.0000 0.0000 0.0000 0.0000 25.8337 0.0000
# 6 0.0000 0.0000 0.0000 0.0000 0.0000 6.0265
#
#
#
# Elastic Compliance Matrix: (Units=1/GPa)
#
#
# Indices 1 2 3 4 5 6 
#
# 1 0.066831 -0.000540 -0.000548 0.000000 0.000000 0.000000
# 2 -0.000540 0.009900 -0.006293 0.000000 0.000000 0.000000
# 3 -0.000548 -0.006293 0.012709 0.000000 0.000000 0.000000
# 4 0.000000 0.000000 0.000000 0.028466 0.000000 0.000000
# 5 0.000000 0.000000 0.000000 0.000000 0.038709 0.000000
# 6 0.000000 0.000000 0.000000 0.000000 0.000000 0.165934
#
#
# Mechanical properties :
#
#
# Convention : Reuss Voigt Hill
#
# Bulk Modulus (GPa) = 13.39064 47.84055 30.61560
# Shear Modulus (GPa) = 13.80442 26.80397 20.30420
#
# Velocity S-wave (km/s) = 2.60977 3.63657 3.16509
# Velocity P-wave (km/s) = 3.96080 6.42158 5.33501
#
# Compressibility (1/GPa) = 0.07467903
#
# Stress axis : x y z
#
# Youngs Moduli (GPa) = 14.96312 101.01052 78.68585
#
# Poissons Ratio (x) = 0.05455 0.04310
# Poissons Ratio (y) = 0.00808 0.49513
# Poissons Ratio (z) = 0.00820 0.63561
#
# Static dielectric constant tensor:
#      x y z
#    x 1.734910 0.000000 0.000000 
#    y 0.000000 1.705400 0.000000 
#    z 0.000000 0.000000 1.698800 
# 
# From -- ./inp_files/32962.got.cif
#   From: 2010.05.17/outbox.cif.g08.bks.cpg/sg59_17_cif.got.tgz:32962.got - 2010.06.03 14:40:33.
