data_PCOD9451751
_publ_section_title
;
Structure prediction by ZEFSAII (Michael W. Deem and Ramdas Pophale) SiO2 
 PCOD9451751
Probable space group: P M M N
;
_chemical_formula_sum "Si O2"
_cell_formula_units_Z 40
_cell_length_a 13.034546
_cell_length_b 18.542825
_cell_length_c 6.834922
_cell_angle_alpha 90.000000
_cell_angle_beta 90.000000
_cell_angle_gamma 90.000000
_cell_volume 1651.982230
_symmetry_space_group_name_H-M "P M M N"
_symmetry_group_IT_number 59
_space_group.IT_coordinate_system_code '2'
_symmetry_cell_setting 'orthorhombic'
loop_
_space_group_symop_operation_xyz
x,y,z
1/2-x,1/2-y,z
1/2+x,-y,-z
-x,1/2+y,-z
-x,-y,-z
1/2+x,1/2+y,-z
1/2-x,y,z
x,1/2-y,z
loop_
_atom_site_type_symbol
_atom_site_label
_atom_site_fract_x
_atom_site_fract_y
_atom_site_fract_z
Si Si1 0.363891 0.141913 0.594753
Si Si2 0.098118 0.328653 0.049353
Si Si3 0.591633 0.013748 0.285571
Si Si4 0.564310 0.328607 0.340672
Si Si5 0.139847 0.486725 0.165870
O O1 0.250000 0.166553 0.538585
O O2 0.459796 0.168827 0.469466
O O3 0.363572 0.054753 0.603003
O O4 0.384604 0.164151 0.819375
O O5 0.136284 0.250000 0.110558
O O6 0.979398 0.330829 0.117817
O O7 0.143397 0.399647 0.148134
O O8 0.614799 0.093265 0.368968
O O9 0.468510 0.998140 0.270163
O O10 0.628007 0.011742 0.060012
O O11 0.614022 0.250000 0.373749
O O12 0.250000 0.513678 0.239038
#
# Coordination Sequence:
#
# PCOD9451751 Si02
#       5
#     8   8   8   8   8
#     4  11  22  35  54  79 108 144 182 219 265 323
#     4   9  18  32  49  73 107 140 169 210 265 319
#     4   9  18  34  52  75 109 141 177 223 268 318
#     4  10  21  35  52  77 108 140 176 220 271 324
#     4   9  17  30  53  81 105 138 182 221 263 320
#
# _framework density 24.213336000000002
#
# number of rings (size 3 to 8) (size 9 to 14) (size 15 to 20)
#    0.000    2.400    0.000    4.800    0.000    6.800 
#    0.000    6.000    0.000    2.400    0.000    0.000 
#    0.000    0.000    0.000    0.000    0.000    0.000 
#
# Total GULP energy -223403.935428 kJ/mol
# GULP energy per Si atom -5585.098386 kJ/mol
# Density = 2.415823 g / cm^3
# Si number density = 24.213336 Si / 1000 Ang^3
#
#
#
# Elastic Constant Matrix: (Units=GPa)
#
#
# Indices 1 2 3 4 5 6 
#
# 1 102.1539 21.3279 15.0761 0.0000 0.0000 0.0000
# 2 21.3279 201.7528 5.0444 0.0000 0.0000 0.0000
# 3 15.0761 5.0444 66.7296 0.0000 0.0000 0.0000
# 4 0.0000 0.0000 0.0000 23.7267 0.0000 0.0000
# 5 0.0000 0.0000 0.0000 0.0000 10.1298 0.0000
# 6 0.0000 0.0000 0.0000 0.0000 0.0000 -0.4980
#
#
#
# Elastic Compliance Matrix: (Units=1/GPa)
#
#
# Indices 1 2 3 4 5 6 
#
# 1 0.010339 -0.001036 -0.002257 0.000000 0.000000 0.000000
# 2 -0.001036 0.005070 -0.000149 0.000000 0.000000 0.000000
# 3 -0.002257 -0.000149 0.015507 0.000000 0.000000 0.000000
# 4 0.000000 0.000000 0.000000 0.042147 0.000000 0.000000
# 5 0.000000 0.000000 0.000000 0.000000 0.098719 0.000000
# 6 0.000000 0.000000 0.000000 0.000000 0.000000 -2.007971
#
#
# Mechanical properties :
#
#
# Convention : Reuss Voigt Hill
#
# Bulk Modulus (GPa) = 41.61523 50.39256 46.00390
# Shear Modulus (GPa) = -2.74530 28.61753 12.93612
#
# Velocity S-wave (km/s) = -1.06595 3.44159 2.31391
# Velocity P-wave (km/s) = 3.96348 6.05391 5.11659
#
# Compressibility (1/GPa) = 0.02402966
#
# Stress axis : x y z
#
# Youngs Moduli (GPa) = 96.72382 197.24411 64.48635
#
# Poissons Ratio (x) = 0.20444 0.14558
# Poissons Ratio (y) = 0.10025 0.00961
# Poissons Ratio (z) = 0.21835 0.02941
#
# Static dielectric constant tensor:
#      x y z
#    x 1.927710 0.000000 0.000000 
#    y 0.000000 1.950510 0.000000 
#    z 0.000000 0.000000 2.013740 
# 
# From -- ./inp_files/8822.got.cif
#   From: 2010.05.17/outbox.cif.g08.bks.cpg/sg59_5_cif.got.tgz:8822.got - 2010.06.03 14:40:33.
