data_PCOD9451609
_publ_section_title
;
Structure prediction by ZEFSAII (Michael W. Deem and Ramdas Pophale) SiO2 
 PCOD9451609
Probable space group: P M M N
;
_chemical_formula_sum "Si O2"
_cell_formula_units_Z 48
_cell_length_a 16.043448
_cell_length_b 8.976473
_cell_length_c 17.053740
_cell_angle_alpha 90.000000
_cell_angle_beta 90.000000
_cell_angle_gamma 90.000000
_cell_volume 2455.970112
_symmetry_space_group_name_H-M "P M M N"
_symmetry_group_IT_number 59
_space_group.IT_coordinate_system_code '2'
_symmetry_cell_setting 'orthorhombic'
loop_
_space_group_symop_operation_xyz
x,y,z
1/2-x,1/2-y,z
1/2+x,-y,-z
-x,1/2+y,-z
-x,-y,-z
1/2+x,1/2+y,-z
1/2-x,y,z
x,1/2-y,z
loop_
_atom_site_type_symbol
_atom_site_label
_atom_site_fract_x
_atom_site_fract_y
_atom_site_fract_z
Si Si1 0.750000 0.928256 0.410470
Si Si2 0.750000 0.071154 0.580673
Si Si3 0.652479 0.077496 0.155106
Si Si4 0.152633 0.576429 0.155339
Si Si5 0.090514 0.571263 0.674847
Si Si6 0.917601 0.070892 0.678428
Si Si7 0.409472 0.073890 0.999854
O O1 0.750000 0.750000 0.403753
O O2 0.750000 0.981587 0.500210
O O3 0.832673 0.995662 0.369947
O O4 0.750000 0.250000 0.565446
O O5 0.833975 0.037504 0.629498
O O6 0.750000 0.069724 0.175989
O O7 0.633098 0.250000 0.135270
O O8 0.601752 0.035362 0.232613
O O9 0.634957 0.979238 0.079473
O O10 0.250000 0.569719 0.176985
O O11 0.132668 0.750000 0.138553
O O12 0.100400 0.528142 0.231063
O O13 0.136453 0.483210 0.077652
O O14 0.095680 0.750000 0.666175
O O15 0.000661 0.510066 0.649138
O O16 0.929474 0.250000 0.676189
O O17 0.416278 0.250000 0.001213
O O18 0.500000 0.000000 0.000000
#
# Coordination Sequence:
#
# PCOD9451609 Si02
#       7
#     4   4   8   8   8   8   8
#     4  12  26  44  68  97 128 163 208 259 314 379
#     4  10  22  44  70  95 130 167 206 257 314 377
#     4  10  21  40  63  87 120 162 207 255 313 373
#     4  10  20  38  63  90 123 164 208 256 313 370
#     4  11  23  42  67  96 129 168 210 258 318 378
#     4  10  21  40  67  98 128 167 213 259 312 373
#     4  12  25  38  54  83 121 164 213 262 311 364
#
# _framework density 19.544212000000002
#
# number of rings (size 3 to 8) (size 9 to 14) (size 15 to 20)
#    0.000    1.333    1.667    4.250    0.000    8.667 
#    0.000    0.000    0.000    0.000    0.000    0.000 
#    0.000    0.000    0.000    0.000    0.000    0.000 
#
# Total GULP energy -268375.346666 kJ/mol
# GULP energy per Si atom -5591.153056 kJ/mol
# Density = 1.949973 g / cm^3
# Si number density = 19.544212 Si / 1000 Ang^3
#
#
#
# Elastic Constant Matrix: (Units=GPa)
#
#
# Indices 1 2 3 4 5 6 
#
# 1 137.4236 57.8147 55.4382 0.0000 0.0000 0.0000
# 2 57.8147 85.8790 66.8809 0.0000 0.0000 0.0000
# 3 55.4382 66.8809 109.3789 0.0000 0.0000 0.0000
# 4 0.0000 0.0000 0.0000 15.9294 0.0000 0.0000
# 5 0.0000 0.0000 0.0000 0.0000 5.0188 0.0000
# 6 0.0000 0.0000 0.0000 0.0000 0.0000 31.4461
#
#
#
# Elastic Compliance Matrix: (Units=1/GPa)
#
#
# Indices 1 2 3 4 5 6 
#
# 1 0.010351 -0.005503 -0.001881 0.000000 0.000000 0.000000
# 2 -0.005503 0.025156 -0.012593 0.000000 0.000000 0.000000
# 3 -0.001881 -0.012593 0.017796 0.000000 0.000000 0.000000
# 4 0.000000 0.000000 0.000000 0.062777 0.000000 0.000000
# 5 0.000000 0.000000 0.000000 0.000000 0.199249 0.000000
# 6 0.000000 0.000000 0.000000 0.000000 0.000000 0.031800
#
#
# Mechanical properties :
#
#
# Convention : Reuss Voigt Hill
#
# Bulk Modulus (GPa) = 74.91440 76.99435 75.95438
# Shear Modulus (GPa) = 12.77029 20.64871 16.70950
#
# Velocity S-wave (km/s) = 2.55895 3.25393 2.92714
# Velocity P-wave (km/s) = 6.86622 7.32106 7.09728
#
# Compressibility (1/GPa) = 0.01334857
#
# Stress axis : x y z
#
# Youngs Moduli (GPa) = 96.60945 39.75189 56.19247
#
# Poissons Ratio (x) = 0.21876 0.10572
# Poissons Ratio (y) = 0.53167 0.70761
# Poissons Ratio (z) = 0.18175 0.50058
#
# Static dielectric constant tensor:
#      x y z
#    x 1.684970 0.000000 0.000000 
#    y 0.000000 1.659420 0.000000 
#    z 0.000000 0.000000 1.689670 
# 
# From -- ./inp_files/27471.got.cif
#   From: 2010.05.17/outbox.cif.g08.bks.cpg/sg59_14_cif.got.tgz:27471.got - 2010.06.03 14:40:33.
