data_PCOD9451978
_publ_section_title
;
Structure prediction by ZEFSAII (Michael W. Deem and Ramdas Pophale) SiO2 
 PCOD9451978
Probable space group: P M M N
;
_chemical_formula_sum "Si O2"
_cell_formula_units_Z 48
_cell_length_a 9.258813
_cell_length_b 8.886604
_cell_length_c 31.665002
_cell_angle_alpha 90.000000
_cell_angle_beta 90.000000
_cell_angle_gamma 90.000000
_cell_volume 2605.377513
_symmetry_space_group_name_H-M "P M M N"
_symmetry_group_IT_number 59
_space_group.IT_coordinate_system_code '2'
_symmetry_cell_setting 'orthorhombic'
loop_
_space_group_symop_operation_xyz
x,y,z
1/2-x,1/2-y,z
1/2+x,-y,-z
-x,1/2+y,-z
-x,-y,-z
1/2+x,1/2+y,-z
1/2-x,y,z
x,1/2-y,z
loop_
_atom_site_type_symbol
_atom_site_label
_atom_site_fract_x
_atom_site_fract_y
_atom_site_fract_z
Si Si1 0.079099 0.429248 0.619709
Si Si2 0.080103 0.930219 0.709357
Si Si3 0.082194 0.431687 0.205340
Si Si4 0.581755 0.431699 0.960016
Si Si5 0.081993 0.068394 0.874315
Si Si6 0.080554 0.069991 0.459891
O O1 0.250000 0.463367 0.614096
O O2 0.061194 0.250000 0.617605
O O3 0.037253 0.489450 0.665962
O O4 0.989762 0.507122 0.582790
O O5 0.250000 0.961743 0.717193
O O6 0.065024 0.750000 0.703852
O O7 0.987846 0.976822 0.749941
O O8 0.250000 0.475798 0.203044
O O9 0.073954 0.250000 0.203019
O O10 0.993696 0.500252 0.166679
O O11 0.750000 0.476360 0.959538
O O12 0.575348 0.250000 0.962512
O O13 0.502705 0.477645 0.916695
O O14 0.500000 0.500000 0.000000
O O15 0.250000 0.023888 0.876705
O O16 0.075822 0.250000 0.871765
O O17 0.250000 0.031982 0.461551
O O18 0.066222 0.250000 0.461043
O O19 0.000000 0.000000 0.500000
#
# Coordination Sequence:
#
# PCOD9451978 Si02
#       6
#     8   8   8   8   8   8
#     4  10  21  37  58  85 115 146 183 226 272 325
#     4   9  18  34  55  78 108 147 186 224 268 318
#     4  10  21  36  55  81 112 145 182 225 272 323
#     4  10  21  37  57  81 109 142 180 222 270 324
#     4  10  21  37  57  80 107 141 181 225 273 324
#     4  11  24  40  59  84 113 146 185 228 274 325
#
# _framework density 18.423431999999998
#
# number of rings (size 3 to 8) (size 9 to 14) (size 15 to 20)
#    0.000    2.000    0.000    3.000    0.000    9.333 
#    0.000    3.333    0.000    0.000    0.000    0.000 
#    0.000    0.000    0.000    0.000    0.000    0.000 
#
# Total GULP energy -268194.496263 kJ/mol
# GULP energy per Si atom -5587.385339 kJ/mol
# Density = 1.838150 g / cm^3
# Si number density = 18.423432 Si / 1000 Ang^3
#
#
#
# Elastic Constant Matrix: (Units=GPa)
#
#
# Indices 1 2 3 4 5 6 
#
# 1 169.1141 57.3684 134.2068 0.0000 0.0000 0.0000
# 2 57.3684 26.1528 57.1587 0.0000 0.0000 0.0000
# 3 134.2068 57.1587 208.8396 0.0000 0.0000 0.0000
# 4 0.0000 0.0000 0.0000 41.1995 0.0000 0.0000
# 5 0.0000 0.0000 0.0000 0.0000 42.8526 0.0000
# 6 0.0000 0.0000 0.0000 0.0000 0.0000 27.7578
#
#
#
# Elastic Compliance Matrix: (Units=1/GPa)
#
#
# Indices 1 2 3 4 5 6 
#
# 1 0.023616 -0.046377 -0.002483 0.000000 0.000000 0.000000
# 2 -0.046377 0.186232 -0.021168 0.000000 0.000000 0.000000
# 3 -0.002483 -0.021168 0.012178 0.000000 0.000000 0.000000
# 4 0.000000 0.000000 0.000000 0.024272 0.000000 0.000000
# 5 0.000000 0.000000 0.000000 0.000000 0.023336 0.000000
# 6 0.000000 0.000000 0.000000 0.000000 0.000000 0.036026
#
#
# Mechanical properties :
#
#
# Convention : Reuss Voigt Hill
#
# Bulk Modulus (GPa) = 12.19958 100.17492 56.18725
# Shear Modulus (GPa) = 10.56994 32.72015 21.64505
#
# Velocity S-wave (km/s) = 2.39785 4.21884 3.43135
# Velocity P-wave (km/s) = 3.78185 8.84439 6.80168
#
# Compressibility (1/GPa) = 0.08197006
#
# Stress axis : x y z
#
# Youngs Moduli (GPa) = 42.34370 5.36965 82.11594
#
# Poissons Ratio (x) = 0.24903 0.20393
# Poissons Ratio (y) = 1.96376 1.73823
# Poissons Ratio (z) = 0.10516 0.11366
#
# Static dielectric constant tensor:
#      x y z
#    x 1.619860 0.000000 0.000000 
#    y 0.000000 1.621640 0.000000 
#    z 0.000000 0.000000 1.591500 
# 
# From -- ./inp_files/32807.got.cif
#   From: 2010.05.17/outbox.cif.g08.bks.cpg/sg59_17_cif.got.tgz:32807.got - 2010.06.03 14:40:33.
