data_PCOD9451532
_publ_section_title
;
Structure prediction by ZEFSAII (Michael W. Deem and Ramdas Pophale) SiO2 
 PCOD9451532
Probable space group: P M M N
;
_chemical_formula_sum "Si O2"
_cell_formula_units_Z 48
_cell_length_a 7.799740
_cell_length_b 19.213036
_cell_length_c 14.481109
_cell_angle_alpha 90.000000
_cell_angle_beta 90.000000
_cell_angle_gamma 90.000000
_cell_volume 2170.090996
_symmetry_space_group_name_H-M "P M M N"
_symmetry_group_IT_number 59
_space_group.IT_coordinate_system_code '2'
_symmetry_cell_setting 'orthorhombic'
loop_
_space_group_symop_operation_xyz
x,y,z
1/2-x,1/2-y,z
1/2+x,-y,-z
-x,1/2+y,-z
-x,-y,-z
1/2+x,1/2+y,-z
1/2-x,y,z
x,1/2-y,z
loop_
_atom_site_type_symbol
_atom_site_label
_atom_site_fract_x
_atom_site_fract_y
_atom_site_fract_z
Si Si1 0.045105 0.250000 0.279919
Si Si2 0.550819 0.324182 0.853611
Si Si3 0.452767 0.750000 0.505133
Si Si4 0.953912 0.491279 0.393910
Si Si5 0.456976 0.522170 0.103279
Si Si6 0.954346 0.644654 0.346811
Si Si7 0.449340 0.399486 0.235472
O O1 0.250000 0.250000 0.264681
O O2 0.974749 0.178103 0.236921
O O3 0.022388 0.250000 0.391022
O O4 0.750000 0.324694 0.882616
O O5 0.474744 0.250000 0.886475
O O6 0.474826 0.399292 0.880617
O O7 0.541722 0.323386 0.742515
O O8 0.250000 0.750000 0.513317
O O9 0.505382 0.815986 0.442048
O O10 0.750000 0.483291 0.385046
O O11 0.008096 0.564405 0.349499
O O12 0.000000 0.500000 0.500000
O O13 0.039478 0.428337 0.339856
O O14 0.250000 0.525461 0.116379
O O15 0.523947 0.461371 0.171868
O O16 0.500000 0.500000 0.000000
O O17 0.750000 0.648666 0.333799
O O18 0.250000 0.393144 0.208859
#
# Coordination Sequence:
#
# PCOD9451532 Si02
#       7
#     4   8   4   8   8   8   8
#     4  10  22  40  60  83 116 157 206 257 300 348
#     4  10  20  37  62  90 119 152 192 242 303 361
#     4  12  24  36  54  83 122 165 206 247 296 358
#     4  11  23  36  55  84 117 156 202 250 299 361
#     4  10  22  41  65  92 122 156 198 249 310 373
#     4  11  22  35  54  83 118 155 199 247 298 351
#     4  10  21  40  63  85 116 158 203 254 306 358
#
# _framework density 22.118887999999998
#
# number of rings (size 3 to 8) (size 9 to 14) (size 15 to 20)
#    0.000    1.500    2.500    2.750    0.000    8.000 
#    1.500    0.000    0.000    0.000    0.000    0.000 
#    0.000    0.000    0.000    0.000    0.000    0.000 
#
# Total GULP energy -268066.045519 kJ/mol
# GULP energy per Si atom -5584.709282 kJ/mol
# Density = 2.206854 g / cm^3
# Si number density = 22.118888 Si / 1000 Ang^3
#
#
#
# Elastic Constant Matrix: (Units=GPa)
#
#
# Indices 1 2 3 4 5 6 
#
# 1 37.0148 12.6943 -13.2771 0.0000 0.0000 0.0000
# 2 12.6943 231.8873 59.4093 0.0000 0.0000 0.0000
# 3 -13.2771 59.4093 81.9961 0.0000 0.0000 0.0000
# 4 0.0000 0.0000 0.0000 26.9578 0.0000 0.0000
# 5 0.0000 0.0000 0.0000 0.0000 24.0118 0.0000
# 6 0.0000 0.0000 0.0000 0.0000 0.0000 8.9377
#
#
#
# Elastic Compliance Matrix: (Units=1/GPa)
#
#
# Indices 1 2 3 4 5 6 
#
# 1 0.031029 -0.003666 0.007681 0.000000 0.000000 0.000000
# 2 -0.003666 0.005729 -0.004744 0.000000 0.000000 0.000000
# 3 0.007681 -0.004744 0.016877 0.000000 0.000000 0.000000
# 4 0.000000 0.000000 0.000000 0.037095 0.000000 0.000000
# 5 0.000000 0.000000 0.000000 0.000000 0.041646 0.000000
# 6 0.000000 0.000000 0.000000 0.000000 0.000000 0.111885
#
#
# Mechanical properties :
#
#
# Convention : Reuss Voigt Hill
#
# Bulk Modulus (GPa) = 19.16657 52.06126 35.61391
# Shear Modulus (GPa) = 19.00329 31.45289 25.22809
#
# Velocity S-wave (km/s) = 2.93429 3.77502 3.38089
# Velocity P-wave (km/s) = 4.49045 6.52604 5.60149
#
# Compressibility (1/GPa) = 0.05217417
#
# Stress axis : x y z
#
# Youngs Moduli (GPa) = 32.22824 174.56157 59.25289
#
# Poissons Ratio (x) = 0.64002 -0.45511
# Poissons Ratio (y) = 0.11816 0.28111
# Poissons Ratio (z) = -0.24754 0.82817
#
# Static dielectric constant tensor:
#      x y z
#    x 1.791830 0.000000 0.000000 
#    y 0.000000 1.891650 0.000000 
#    z 0.000000 0.000000 1.752070 
# 
# From -- ./inp_files/20505.got.cif
#   From: 2010.05.17/outbox.cif.g08.bks.cpg/sg59_11_cif.got.tgz:20505.got - 2010.06.03 14:40:33.
