data_PCOD9451068
_publ_section_title
;
Structure prediction by ZEFSAII (Michael W. Deem and Ramdas Pophale) SiO2 
 PCOD9451068
Probable space group: P M M N
;
_chemical_formula_sum "Si O2"
_cell_formula_units_Z 64
_cell_length_a 14.793359
_cell_length_b 9.341805
_cell_length_c 23.646808
_cell_angle_alpha 90.000000
_cell_angle_beta 90.000000
_cell_angle_gamma 90.000000
_cell_volume 3267.910242
_symmetry_space_group_name_H-M "P M M N"
_symmetry_group_IT_number 59
_space_group.IT_coordinate_system_code '2'
_symmetry_cell_setting 'orthorhombic'
loop_
_space_group_symop_operation_xyz
x,y,z
1/2-x,1/2-y,z
1/2+x,-y,-z
-x,1/2+y,-z
-x,-y,-z
1/2+x,1/2+y,-z
1/2-x,y,z
x,1/2-y,z
loop_
_atom_site_type_symbol
_atom_site_label
_atom_site_fract_x
_atom_site_fract_y
_atom_site_fract_z
Si Si1 0.348632 0.581403 0.773714
Si Si2 0.587255 0.418723 0.682413
Si Si3 0.973082 0.580749 0.916551
Si Si4 0.968426 0.078747 0.805383
Si Si5 0.642378 0.919819 0.030727
Si Si6 0.354184 0.407092 0.420441
Si Si7 0.591124 0.418926 0.349640
Si Si8 0.641333 0.089792 0.477278
O O1 0.250000 0.541254 0.796904
O O2 0.365211 0.750000 0.786458
O O3 0.431486 0.485682 0.794323
O O4 0.346392 0.568461 0.705451
O O5 0.600725 0.250000 0.675422
O O6 0.590741 0.452933 0.749158
O O7 0.645362 0.506476 0.637882
O O8 0.488512 0.471123 0.663308
O O9 0.984332 0.750000 0.906549
O O10 0.936029 0.499379 0.861676
O O11 0.071183 0.511172 0.931868
O O12 0.902189 0.563351 0.968220
O O13 0.972505 0.250000 0.811779
O O14 0.750000 0.957984 0.033019
O O15 0.635612 0.750000 0.045271
O O16 0.250000 0.390156 0.435827
O O17 0.394550 0.250000 0.413137
O O18 0.397027 0.490229 0.473178
O O19 0.564669 0.250000 0.349110
O O20 0.626325 0.451829 0.412161
O O21 0.750000 0.097242 0.484157
O O22 0.605340 0.250000 0.485471
#
# Coordination Sequence:
#
# PCOD9451068 Si02
#       8
#     8   8   8   8   8   8   8   8
#     4   9  17  30  49  73 101 134 174 218 261 309
#     4  10  21  36  53  72  96 129 168 208 252 303
#     4  10  20  35  58  86 115 148 185 224 265 310
#     4  10  21  36  53  75 105 141 178 215 258 305
#     4   9  19  37  60  86 117 151 184 220 264 311
#     4  10  21  36  53  72  93 120 158 206 259 312
#     4   9  17  30  49  72  98 128 162 204 255 309
#     4   9  17  30  49  72  97 126 160 200 251 310
#
# _framework density 19.584382000000002
#
# number of rings (size 3 to 8) (size 9 to 14) (size 15 to 20)
#    0.000    2.500    0.000    1.875    0.000    6.250 
#    0.000    0.625    0.000    4.500    0.000    0.000 
#    0.000    0.000    0.000    0.000    0.000    0.000 
#
# Total GULP energy -356540.413500 kJ/mol
# GULP energy per Si atom -5570.943961 kJ/mol
# Density = 1.953981 g / cm^3
# Si number density = 19.584382 Si / 1000 Ang^3
#
#
#
# Elastic Constant Matrix: (Units=GPa)
#
#
# Indices 1 2 3 4 5 6 
#
# 1 33.4937 0.4228 -8.1496 0.0000 0.0000 0.0000
# 2 0.4228 75.7398 57.7633 0.0000 0.0000 0.0000
# 3 -8.1496 57.7633 105.3594 0.0000 0.0000 0.0000
# 4 0.0000 0.0000 0.0000 31.0113 0.0000 0.0000
# 5 0.0000 0.0000 0.0000 0.0000 -54.8299 0.0000
# 6 0.0000 0.0000 0.0000 0.0000 0.0000 17.2403
#
#
#
# Elastic Compliance Matrix: (Units=1/GPa)
#
#
# Indices 1 2 3 4 5 6 
#
# 1 0.030940 -0.003434 0.004276 0.000000 0.000000 0.000000
# 2 -0.003434 0.023072 -0.012915 0.000000 0.000000 0.000000
# 3 0.004276 -0.012915 0.016902 0.000000 0.000000 0.000000
# 4 0.000000 0.000000 0.000000 0.032246 0.000000 0.000000
# 5 0.000000 0.000000 0.000000 0.000000 -0.018238 0.000000
# 6 0.000000 0.000000 0.000000 0.000000 0.000000 0.058004
#
#
# Mechanical properties :
#
#
# Convention : Reuss Voigt Hill
#
# Bulk Modulus (GPa) = 21.38163 34.96287 28.17225
# Shear Modulus (GPa) = 27.37317 9.65476 18.51396
#
# Velocity S-wave (km/s) = 3.74264 2.22273 3.07798
# Velocity P-wave (km/s) = 5.44223 4.94758 5.20079
#
# Compressibility (1/GPa) = 0.04676912
#
# Stress axis : x y z
#
# Youngs Moduli (GPa) = 32.32062 43.34327 59.16294
#
# Poissons Ratio (x) = 0.14882 -0.25296
# Poissons Ratio (y) = 0.11097 0.76407
# Poissons Ratio (z) = -0.13819 0.55976
#
# Static dielectric constant tensor:
#      x y z
#    x 1.763390 0.000000 0.000000 
#    y 0.000000 1.684480 0.000000 
#    z 0.000000 0.000000 1.713150 
# 
# From -- ./inp_files/32122.got.cif
#   From: 2010.05.17/outbox.cif.g08.bks.cpg/sg59_17_cif.got.tgz:32122.got - 2010.06.03 14:40:33.
