data_PCOD9451447
_publ_section_title
;
Structure prediction by ZEFSAII (Michael W. Deem and Ramdas Pophale) SiO2 
 PCOD9451447
Probable space group: P M M N
;
_chemical_formula_sum "Si O2"
_cell_formula_units_Z 48
_cell_length_a 13.803754
_cell_length_b 15.713862
_cell_length_c 11.868600
_cell_angle_alpha 90.000000
_cell_angle_beta 90.000000
_cell_angle_gamma 90.000000
_cell_volume 2574.421414
_symmetry_space_group_name_H-M "P M M N"
_symmetry_group_IT_number 59
_space_group.IT_coordinate_system_code '2'
_symmetry_cell_setting 'orthorhombic'
loop_
_space_group_symop_operation_xyz
x,y,z
1/2-x,1/2-y,z
1/2+x,-y,-z
-x,1/2+y,-z
-x,-y,-z
1/2+x,1/2+y,-z
1/2-x,y,z
x,1/2-y,z
loop_
_atom_site_type_symbol
_atom_site_label
_atom_site_fract_x
_atom_site_fract_y
_atom_site_fract_z
Si Si1 0.637890 0.517388 0.720761
Si Si2 0.136120 0.852675 0.759242
Si Si3 0.358289 0.349644 0.861338
Si Si4 0.971322 0.582932 0.930945
Si Si5 0.001978 0.592807 0.556854
Si Si6 0.483774 0.652424 0.315483
O O1 0.750000 0.511779 0.702850
O O2 0.608196 0.553101 0.841559
O O3 0.591235 0.586003 0.635799
O O4 0.593853 0.422261 0.706513
O O5 0.250000 0.876282 0.773826
O O6 0.131151 0.750000 0.753265
O O7 0.064155 0.882448 0.860535
O O8 0.090768 0.889430 0.642469
O O9 0.250000 0.388130 0.869311
O O10 0.346865 0.250000 0.840909
O O11 0.422884 0.379696 0.755639
O O12 0.420491 0.359022 0.975234
O O13 0.000000 0.500000 0.000000
O O14 0.000000 0.500000 0.500000
O O15 0.999027 0.653523 0.449539
O O16 0.459242 0.750000 0.279744
#
# Coordination Sequence:
#
# PCOD9451447 Si02
#       6
#     8   8   8   8   8   8
#     4  10  21  37  56  83 114 149 193 235 285 339
#     4  10  22  40  64  91 118 154 198 245 299 354
#     4  10  21  37  58  83 114 155 197 236 284 343
#     4  11  21  39  58  84 117 154 192 241 290 341
#     4   9  20  37  56  84 117 151 190 237 287 340
#     4  10  20  37  58  84 117 151 189 235 288 343
#
# _framework density 18.644966
#
# number of rings (size 3 to 8) (size 9 to 14) (size 15 to 20)
#    0.000    2.000    1.667    1.500    0.000    5.000 
#    0.000    0.000    0.000    9.500    0.000    0.000 
#    0.000    0.000    0.000    0.000    0.000    0.000 
#
# Total GULP energy -267265.164466 kJ/mol
# GULP energy per Si atom -5568.024260 kJ/mol
# Density = 1.860253 g / cm^3
# Si number density = 18.644966 Si / 1000 Ang^3
#
#
#
# Elastic Constant Matrix: (Units=GPa)
#
#
# Indices 1 2 3 4 5 6 
#
# 1 148.6032 20.5076 43.8484 0.0000 0.0000 0.0000
# 2 20.5076 43.1687 -7.4389 0.0000 0.0000 0.0000
# 3 43.8484 -7.4389 94.0214 0.0000 0.0000 0.0000
# 4 0.0000 0.0000 0.0000 32.2875 0.0000 0.0000
# 5 0.0000 0.0000 0.0000 0.0000 1.5315 0.0000
# 6 0.0000 0.0000 0.0000 0.0000 0.0000 27.4629
#
#
#
# Elastic Compliance Matrix: (Units=1/GPa)
#
#
# Indices 1 2 3 4 5 6 
#
# 1 0.008722 -0.004911 -0.004456 0.000000 0.000000 0.000000
# 2 -0.004911 0.026251 0.004367 0.000000 0.000000 0.000000
# 3 -0.004456 0.004367 0.013060 0.000000 0.000000 0.000000
# 4 0.000000 0.000000 0.000000 0.030972 0.000000 0.000000
# 5 0.000000 0.000000 0.000000 0.000000 0.652944 0.000000
# 6 0.000000 0.000000 0.000000 0.000000 0.000000 0.036413
#
#
# Mechanical properties :
#
#
# Convention : Reuss Voigt Hill
#
# Bulk Modulus (GPa) = 26.29360 44.40304 35.34832
# Shear Modulus (GPa) = 6.32081 27.51482 16.91782
#
# Velocity S-wave (km/s) = 1.84322 3.84568 3.01552
# Velocity P-wave (km/s) = 4.32005 6.60195 5.57891
#
# Compressibility (1/GPa) = 0.03803208
#
# Stress axis : x y z
#
# Youngs Moduli (GPa) = 114.65252 38.09418 76.57171
#
# Poissons Ratio (x) = 0.18709 0.34122
# Poissons Ratio (y) = 0.56310 -0.33442
# Poissons Ratio (z) = 0.51092 -0.16637
#
# Static dielectric constant tensor:
#      x y z
#    x 1.642650 0.000000 0.000000 
#    y 0.000000 2.012610 0.000000 
#    z 0.000000 0.000000 1.574160 
# 
# From -- ./inp_files/15756.got.cif
#   From: 2010.05.17/outbox.cif.g08.bks.cpg/sg59_8_cif.got.tgz:15756.got - 2010.06.03 14:40:33.
