data_PCOD9451886
_publ_section_title
;
Structure prediction by ZEFSAII (Michael W. Deem and Ramdas Pophale) SiO2 
 PCOD9451886
Probable space group: P M M N
;
_chemical_formula_sum "Si O2"
_cell_formula_units_Z 48
_cell_length_a 9.685866
_cell_length_b 7.527342
_cell_length_c 32.557547
_cell_angle_alpha 90.000000
_cell_angle_beta 90.000000
_cell_angle_gamma 90.000000
_cell_volume 2373.732528
_symmetry_space_group_name_H-M "P M M N"
_symmetry_group_IT_number 59
_space_group.IT_coordinate_system_code '2'
_symmetry_cell_setting 'orthorhombic'
loop_
_space_group_symop_operation_xyz
x,y,z
1/2-x,1/2-y,z
1/2+x,-y,-z
-x,1/2+y,-z
-x,-y,-z
1/2+x,1/2+y,-z
1/2-x,y,z
x,1/2-y,z
loop_
_atom_site_type_symbol
_atom_site_label
_atom_site_fract_x
_atom_site_fract_y
_atom_site_fract_z
Si Si1 0.592943 0.463425 0.293075
Si Si2 0.907845 0.537757 0.385451
Si Si3 0.593283 0.536606 0.960901
Si Si4 0.909823 0.967939 0.782748
Si Si5 0.907177 0.036701 0.539767
Si Si6 0.081749 0.042965 0.127763
O O1 0.750000 0.530713 0.289963
O O2 0.597251 0.250000 0.289773
O O3 0.542858 0.504576 0.339018
O O4 0.499683 0.528436 0.255691
O O5 0.750000 0.468181 0.389404
O O6 0.899677 0.750000 0.390751
O O7 0.010988 0.468584 0.420184
O O8 0.750000 0.471506 0.967326
O O9 0.600669 0.750000 0.956622
O O10 0.539736 0.467567 0.916592
O O11 0.500000 0.500000 0.000000
O O12 0.750000 0.018989 0.777707
O O13 0.912350 0.750000 0.783689
O O14 0.959866 0.030728 0.827806
O O15 0.750000 0.969117 0.536014
O O16 0.897967 0.250000 0.543598
O O17 0.000000 0.000000 0.500000
O O18 0.250000 0.038336 0.127484
O O19 0.039642 0.250000 0.128206
#
# Coordination Sequence:
#
# PCOD9451886 Si02
#       6
#     8   8   8   8   8   8
#     4   9  17  28  43  66  93 116 142 182 227 264
#     4   9  18  33  50  66  90 126 159 183 217 270
#     4   9  17  29  45  65  89 117 150 188 230 276
#     4   8  13  23  41  63  85 110 142 180 221 264
#     4  10  21  36  54  76 100 126 158 196 236 276
#     4   7  11  22  40  60  82 110 143 178 218 265
#
# _framework density 20.221316999999999
#
# number of rings (size 3 to 8) (size 9 to 14) (size 15 to 20)
#    0.000    3.333    0.000    2.500    0.000    2.667 
#    0.000    2.500    0.000    4.000    0.000    4.667 
#    0.000    0.000    0.000    0.000    0.000    0.000 
#
# Total GULP energy -267458.061116 kJ/mol
# GULP energy per Si atom -5572.042940 kJ/mol
# Density = 2.017529 g / cm^3
# Si number density = 20.221317 Si / 1000 Ang^3
#
#
#
# Elastic Constant Matrix: (Units=GPa)
#
#
# Indices 1 2 3 4 5 6 
#
# 1 93.4997 4.8587 116.8992 0.0000 0.0000 0.0000
# 2 4.8587 51.0180 2.2580 0.0000 0.0000 0.0000
# 3 116.8992 2.2580 256.5793 0.0000 0.0000 0.0000
# 4 0.0000 0.0000 0.0000 17.6708 0.0000 0.0000
# 5 0.0000 0.0000 0.0000 0.0000 37.0859 0.0000
# 6 0.0000 0.0000 0.0000 0.0000 0.0000 8.9892
#
#
#
# Elastic Compliance Matrix: (Units=1/GPa)
#
#
# Indices 1 2 3 4 5 6 
#
# 1 0.025030 -0.001880 -0.011387 0.000000 0.000000 0.000000
# 2 -0.001880 0.019750 0.000683 0.000000 0.000000 0.000000
# 3 -0.011387 0.000683 0.009080 0.000000 0.000000 0.000000
# 4 0.000000 0.000000 0.000000 0.056591 0.000000 0.000000
# 5 0.000000 0.000000 0.000000 0.000000 0.026964 0.000000
# 6 0.000000 0.000000 0.000000 0.000000 0.000000 0.111245
#
#
# Mechanical properties :
#
#
# Convention : Reuss Voigt Hill
#
# Bulk Modulus (GPa) = 34.85482 72.12543 53.49012
# Shear Modulus (GPa) = 17.64343 31.22123 24.43233
#
# Velocity S-wave (km/s) = 2.95704 3.93361 3.47975
# Velocity P-wave (km/s) = 5.37893 7.50843 6.53106
#
# Compressibility (1/GPa) = 0.02869044
#
# Stress axis : x y z
#
# Youngs Moduli (GPa) = 39.95202 50.63363 110.13755
#
# Poissons Ratio (x) = 0.09518 1.25417
# Poissons Ratio (y) = 0.07510 -0.07518
# Poissons Ratio (z) = 0.45495 -0.03456
#
# Static dielectric constant tensor:
#      x y z
#    x 1.696990 0.000000 0.000000 
#    y 0.000000 1.797840 0.000000 
#    z 0.000000 0.000000 1.735720 
# 
# From -- ./inp_files/32482.got.cif
#   From: 2010.05.17/outbox.cif.g08.bks.cpg/sg59_17_cif.got.tgz:32482.got - 2010.06.03 14:40:33.
