data_PCOD9451636
_publ_section_title
;
Structure prediction by ZEFSAII (Michael W. Deem and Ramdas Pophale) SiO2 
 PCOD9451636
Probable space group: P M M N
;
_chemical_formula_sum "Si O2"
_cell_formula_units_Z 56
_cell_length_a 15.024927
_cell_length_b 20.182936
_cell_length_c 9.249850
_cell_angle_alpha 90.000000
_cell_angle_beta 90.000000
_cell_angle_gamma 90.000000
_cell_volume 2804.990558
_symmetry_space_group_name_H-M "P M M N"
_symmetry_group_IT_number 59
_space_group.IT_coordinate_system_code '2'
_symmetry_cell_setting 'orthorhombic'
loop_
_space_group_symop_operation_xyz
x,y,z
1/2-x,1/2-y,z
1/2+x,-y,-z
-x,1/2+y,-z
-x,-y,-z
1/2+x,1/2+y,-z
1/2-x,y,z
x,1/2-y,z
loop_
_atom_site_type_symbol
_atom_site_label
_atom_site_fract_x
_atom_site_fract_y
_atom_site_fract_z
Si Si1 0.945982 0.829174 0.203665
Si Si2 0.750000 0.829585 0.185778
Si Si3 0.963830 0.323009 0.095354
Si Si4 0.346761 0.146302 0.211878
Si Si5 0.151407 0.991351 0.157884
Si Si6 0.353952 0.551533 0.825866
Si Si7 0.750000 0.670733 0.516073
Si Si8 0.483675 0.040918 0.647638
O O1 0.943568 0.750000 0.241934
O O2 0.848854 0.848259 0.135003
O O3 0.962920 0.880309 0.334641
O O4 0.017213 0.837599 0.074547
O O5 0.750000 0.750000 0.180416
O O6 0.750000 0.852962 0.353442
O O7 0.923289 0.250000 0.106756
O O8 0.906121 0.378837 0.172940
O O9 0.062592 0.321295 0.163634
O O10 0.250000 0.173909 0.158923
O O11 0.350791 0.070463 0.166780
O O12 0.332980 0.148831 0.385331
O O13 0.250000 0.968779 0.205072
O O14 0.073215 0.966586 0.258642
O O15 0.139472 0.971910 0.991918
O O16 0.250000 0.557513 0.788007
O O17 0.404556 0.498581 0.727655
O O18 0.750000 0.750000 0.511242
O O19 0.500000 0.000000 0.500000
#
# Coordination Sequence:
#
# PCOD9451636 Si02
#       8
#     8   4   8   8   8   8   4   8
#     4  10  23  39  59  90 129 167 209 260 323 392
#     4   9  20  35  51  79 125 168 194 239 313 390
#     4  11  21  37  62  89 123 166 212 269 323 374
#     4   9  19  30  53  85 118 151 197 249 311 376
#     4  10  20  39  63  87 124 160 202 262 315 370
#     4  11  24  43  64  91 123 165 215 268 314 372
#     4   9  18  31  49  77 121 162 194 233 299 390
#     4  12  25  40  66  96 129 168 214 260 320 388
#
# _framework density 19.964416
#
# number of rings (size 3 to 8) (size 9 to 14) (size 15 to 20)
#    0.429    1.286    2.857    1.714    4.000    0.857 
#    0.000    0.714    0.000    0.429    0.000    0.000 
#    0.000    0.000    0.000    0.000    0.000    0.000 
#
# Total GULP energy -312293.325868 kJ/mol
# GULP energy per Si atom -5576.666533 kJ/mol
# Density = 1.991898 g / cm^3
# Si number density = 19.964416 Si / 1000 Ang^3
#
#
#
# Elastic Constant Matrix: (Units=GPa)
#
#
# Indices 1 2 3 4 5 6 
#
# 1 115.1835 43.6131 41.1140 0.0000 0.0000 0.0000
# 2 43.6131 117.6935 26.8059 0.0000 0.0000 0.0000
# 3 41.1140 26.8059 53.6361 0.0000 0.0000 0.0000
# 4 0.0000 0.0000 0.0000 -183.6306 0.0000 0.0000
# 5 0.0000 0.0000 0.0000 0.0000 13.1389 0.0000
# 6 0.0000 0.0000 0.0000 0.0000 0.0000 4.1702
#
#
#
# Elastic Compliance Matrix: (Units=1/GPa)
#
#
# Indices 1 2 3 4 5 6 
#
# 1 0.012728 -0.002815 -0.008350 0.000000 0.000000 0.000000
# 2 -0.002815 0.010211 -0.002945 0.000000 0.000000 0.000000
# 3 -0.008350 -0.002945 0.026516 0.000000 0.000000 0.000000
# 4 0.000000 0.000000 0.000000 -0.005446 0.000000 0.000000
# 5 0.000000 0.000000 0.000000 0.000000 0.076110 0.000000
# 6 0.000000 0.000000 0.000000 0.000000 0.000000 0.239799
#
#
# Mechanical properties :
#
#
# Convention : Reuss Voigt Hill
#
# Bulk Modulus (GPa) = 47.09118 56.61990 51.85554
# Shear Modulus (GPa) = 12.65132 -21.59896 -4.47382
#
# Velocity S-wave (km/s) = 2.52006 -3.29275 -1.49859
# Velocity P-wave (km/s) = 5.66625 3.73707 4.79959
#
# Compressibility (1/GPa) = 0.02123540
#
# Stress axis : x y z
#
# Youngs Moduli (GPa) = 78.56713 97.93803 37.71239
#
# Poissons Ratio (x) = 0.27568 0.31489
# Poissons Ratio (y) = 0.22115 0.11107
# Poissons Ratio (z) = 0.65601 0.28846
#
# Static dielectric constant tensor:
#      x y z
#    x 1.732570 0.000000 0.000000 
#    y 0.000000 1.745940 0.000000 
#    z 0.000000 0.000000 1.741410 
# 
# From -- ./inp_files/9421.got.cif
#   From: 2010.05.17/outbox.cif.g08.bks.cpg/sg59_5_cif.got.tgz:9421.got - 2010.06.03 14:40:33.
