data_PCOD9451931
_publ_section_title
;
Structure prediction by ZEFSAII (Michael W. Deem and Ramdas Pophale) SiO2 
 PCOD9451931
Probable space group: P M M N
;
_chemical_formula_sum "Si O2"
_cell_formula_units_Z 64
_cell_length_a 8.125958
_cell_length_b 15.111958
_cell_length_c 27.096813
_cell_angle_alpha 90.000000
_cell_angle_beta 90.000000
_cell_angle_gamma 90.000000
_cell_volume 3327.465225
_symmetry_space_group_name_H-M "P M M N"
_symmetry_group_IT_number 59
_space_group.IT_coordinate_system_code '2'
_symmetry_cell_setting 'orthorhombic'
loop_
_space_group_symop_operation_xyz
x,y,z
1/2-x,1/2-y,z
1/2+x,-y,-z
-x,1/2+y,-z
-x,-y,-z
1/2+x,1/2+y,-z
1/2-x,y,z
x,1/2-y,z
loop_
_atom_site_type_symbol
_atom_site_label
_atom_site_fract_x
_atom_site_fract_y
_atom_site_fract_z
Si Si1 0.551341 0.851608 0.129493
Si Si2 0.444171 0.501771 0.316264
Si Si3 0.445065 0.498314 0.056314
Si Si4 0.551699 0.645916 0.239818
Si Si5 0.944359 0.512194 0.427477
Si Si6 0.553528 0.350953 0.494247
Si Si7 0.950716 0.851785 0.757509
Si Si8 0.951039 0.648310 0.868629
O O1 0.750000 0.852470 0.129694
O O2 0.498533 0.750000 0.122781
O O3 0.497391 0.881223 0.184427
O O4 0.490484 0.913917 0.086318
O O5 0.250000 0.489615 0.324175
O O6 0.473229 0.586715 0.281894
O O7 0.524853 0.510927 0.369468
O O8 0.509000 0.418749 0.284267
O O9 0.250000 0.489205 0.055952
O O10 0.512889 0.417067 0.089175
O O11 0.500000 0.500000 0.000000
O O12 0.750000 0.636626 0.242407
O O13 0.514255 0.750000 0.245365
O O14 0.750000 0.516253 0.437185
O O15 0.008948 0.421324 0.453113
O O16 0.020555 0.597509 0.454586
O O17 0.750000 0.344507 0.487760
O O18 0.487992 0.250000 0.492354
O O19 0.750000 0.854147 0.757346
O O20 0.999430 0.750000 0.748992
O O21 0.002992 0.877701 0.813068
O O22 0.750000 0.646503 0.868683
O O23 0.999714 0.750000 0.876949
#
# Coordination Sequence:
#
# PCOD9451931 Si02
#       8
#     8   8   8   8   8   8   8   8
#     4   9  19  37  58  77 101 136 175 216 266 321
#     4  11  21  32  51  80 112 142 172 212 257 302
#     4  11  22  34  51  77 105 135 174 218 265 316
#     4   9  19  36  56  77 103 138 177 215 262 319
#     4  10  21  36  54  79 109 140 174 212 259 313
#     4   9  19  38  61  80 101 134 177 223 266 307
#     4   8  15  29  49  74 102 131 166 207 251 301
#     4   8  15  30  51  72  96 129 168 209 254 305
#
# _framework density 19.233858999999999
#
# number of rings (size 3 to 8) (size 9 to 14) (size 15 to 20)
#    0.000    2.625    0.000    3.375    0.000    4.250 
#    0.000    2.500    0.000    2.250    0.000    8.750 
#    0.000    0.000    0.000    0.000    0.000    0.000 
#
# Total GULP energy -357039.875120 kJ/mol
# GULP energy per Si atom -5578.748049 kJ/mol
# Density = 1.919008 g / cm^3
# Si number density = 19.233859 Si / 1000 Ang^3
#
#
#
# Elastic Constant Matrix: (Units=GPa)
#
#
# Indices 1 2 3 4 5 6 
#
# 1 9.6796 1.9409 -2.1707 0.0000 0.0000 0.0000
# 2 1.9409 99.8667 62.2094 0.0000 0.0000 0.0000
# 3 -2.1707 62.2094 136.9294 0.0000 0.0000 0.0000
# 4 0.0000 0.0000 0.0000 2779.9912 0.0000 0.0000
# 5 0.0000 0.0000 0.0000 0.0000 13.5055 0.0000
# 6 0.0000 0.0000 0.0000 0.0000 0.0000 14.4625
#
#
#
# Elastic Compliance Matrix: (Units=1/GPa)
#
#
# Indices 1 2 3 4 5 6 
#
# 1 0.104981 -0.004291 0.003614 0.000000 0.000000 0.000000
# 2 -0.004291 0.014141 -0.006493 0.000000 0.000000 0.000000
# 3 0.003614 -0.006493 0.010310 0.000000 0.000000 0.000000
# 4 0.000000 0.000000 0.000000 0.000360 0.000000 0.000000
# 5 0.000000 0.000000 0.000000 0.000000 0.074044 0.000000
# 6 0.000000 0.000000 0.000000 0.000000 0.000000 0.069144
#
#
# Mechanical properties :
#
#
# Convention : Reuss Voigt Hill
#
# Bulk Modulus (GPa) = 8.68873 41.15945 24.92409
# Shear Modulus (GPa) = 15.35228 573.89157 294.62193
#
# Velocity S-wave (km/s) = 2.82829 17.29229 12.38997
# Velocity P-wave (km/s) = 3.89780 20.49741 14.75359
#
# Compressibility (1/GPa) = 0.11509166
#
# Stress axis : x y z
#
# Youngs Moduli (GPa) = 9.52555 70.71560 96.99291
#
# Poissons Ratio (x) = 0.30347 -0.35052
# Poissons Ratio (y) = 0.04088 0.62974
# Poissons Ratio (z) = -0.03442 0.45913
#
# Static dielectric constant tensor:
#      x y z
#    x 1.765580 0.000000 0.000000 
#    y 0.000000 1.676490 0.000000 
#    z 0.000000 0.000000 1.692160 
# 
# From -- ./inp_files/31455.got.cif
#   From: 2010.05.17/outbox.cif.g08.bks.cpg/sg59_16_cif.got.tgz:31455.got - 2010.06.03 14:40:33.
