data_PCOD9451899
_publ_section_title
;
Structure prediction by ZEFSAII (Michael W. Deem and Ramdas Pophale) SiO2 
 PCOD9451899
Probable space group: P M M N
;
_chemical_formula_sum "Si O2"
_cell_formula_units_Z 48
_cell_length_a 7.870371
_cell_length_b 10.273098
_cell_length_c 31.410656
_cell_angle_alpha 90.000000
_cell_angle_beta 90.000000
_cell_angle_gamma 90.000000
_cell_volume 2539.648678
_symmetry_space_group_name_H-M "P M M N"
_symmetry_group_IT_number 59
_space_group.IT_coordinate_system_code '2'
_symmetry_cell_setting 'orthorhombic'
loop_
_space_group_symop_operation_xyz
x,y,z
1/2-x,1/2-y,z
1/2+x,-y,-z
-x,1/2+y,-z
-x,-y,-z
1/2+x,1/2+y,-z
1/2-x,y,z
x,1/2-y,z
loop_
_atom_site_type_symbol
_atom_site_label
_atom_site_fract_x
_atom_site_fract_y
_atom_site_fract_z
Si Si1 0.045012 0.398452 0.297233
Si Si2 0.957626 0.399355 0.631971
Si Si3 0.452465 0.602531 0.036075
Si Si4 0.953419 0.602627 0.131834
Si Si5 0.954728 0.398088 0.201050
Si Si6 0.045795 0.603169 0.464229
O O1 0.250000 0.395942 0.299710
O O2 0.983688 0.250000 0.303980
O O3 0.982286 0.498714 0.332821
O O4 0.997699 0.437685 0.249265
O O5 0.750000 0.401719 0.632438
O O6 0.007862 0.250000 0.640987
O O7 0.012165 0.431801 0.583678
O O8 0.250000 0.609093 0.037550
O O9 0.517986 0.750000 0.027632
O O10 0.513521 0.563037 0.083110
O O11 0.500000 0.500000 0.000000
O O12 0.750000 0.608702 0.137362
O O13 0.020956 0.750000 0.137482
O O14 0.020157 0.499546 0.166081
O O15 0.750000 0.393857 0.197558
O O16 0.018300 0.250000 0.194654
O O17 0.250000 0.608586 0.462458
O O18 0.984233 0.750000 0.473936
O O19 0.000000 0.500000 0.500000
#
# Coordination Sequence:
#
# PCOD9451899 Si02
#       6
#     8   8   8   8   8   8
#     4   9  17  29  46  68  91 116 151 192 230 273
#     4   8  15  29  47  66  90 120 153 190 232 278
#     4  10  21  36  54  77 104 133 166 204 246 292
#     4   9  18  33  51  70  95 127 161 197 237 282
#     4   9  18  32  48  67  94 126 156 189 234 284
#     4   9  18  32  49  70  96 125 159 199 242 290
#
# _framework density 18.900251000000001
#
# number of rings (size 3 to 8) (size 9 to 14) (size 15 to 20)
#    0.000    3.000    0.000    1.500    0.000    4.000 
#    0.000    4.167    0.000    3.000    0.000    0.000 
#    0.000    0.000    0.000    0.000    0.000    0.000 
#
# Total GULP energy -267603.489317 kJ/mol
# GULP energy per Si atom -5575.072694 kJ/mol
# Density = 1.885723 g / cm^3
# Si number density = 18.900251 Si / 1000 Ang^3
#
#
#
# Elastic Constant Matrix: (Units=GPa)
#
#
# Indices 1 2 3 4 5 6 
#
# 1 17.3515 5.8828 2.1007 0.0000 0.0000 0.0000
# 2 5.8828 133.7026 146.7233 0.0000 0.0000 0.0000
# 3 2.1007 146.7233 194.4913 0.0000 0.0000 0.0000
# 4 0.0000 0.0000 0.0000 44.3698 0.0000 0.0000
# 5 0.0000 0.0000 0.0000 0.0000 26.5154 0.0000
# 6 0.0000 0.0000 0.0000 0.0000 0.0000 13.7432
#
#
#
# Elastic Compliance Matrix: (Units=1/GPa)
#
#
# Indices 1 2 3 4 5 6 
#
# 1 0.060510 -0.011300 0.007871 0.000000 0.000000 0.000000
# 2 -0.011300 0.045560 -0.034248 0.000000 0.000000 0.000000
# 3 0.007871 -0.034248 0.030893 0.000000 0.000000 0.000000
# 4 0.000000 0.000000 0.000000 0.022538 0.000000 0.000000
# 5 0.000000 0.000000 0.000000 0.000000 0.037714 0.000000
# 6 0.000000 0.000000 0.000000 0.000000 0.000000 0.072763
#
#
# Mechanical properties :
#
#
# Convention : Reuss Voigt Hill
#
# Bulk Modulus (GPa) = 16.23138 72.77324 44.50231
# Shear Modulus (GPa) = 13.66610 29.64824 21.65717
#
# Velocity S-wave (km/s) = 2.69190 3.96494 3.38874
# Velocity P-wave (km/s) = 4.27415 7.71676 6.23766
#
# Compressibility (1/GPa) = 0.06160904
#
# Stress axis : x y z
#
# Youngs Moduli (GPa) = 16.52617 21.94915 32.36957
#
# Poissons Ratio (x) = 0.24803 -0.25479
# Poissons Ratio (y) = 0.18675 1.10860
# Poissons Ratio (z) = -0.13008 0.75172
#
# Static dielectric constant tensor:
#      x y z
#    x 1.687280 0.000000 0.000000 
#    y 0.000000 1.664610 0.000000 
#    z 0.000000 0.000000 1.628300 
# 
# From -- ./inp_files/32839.got.cif
#   From: 2010.05.17/outbox.cif.g08.bks.cpg/sg59_17_cif.got.tgz:32839.got - 2010.06.03 14:40:33.
