data_PCOD9451929
_publ_section_title
;
Structure prediction by ZEFSAII (Michael W. Deem and Ramdas Pophale) SiO2 
 PCOD9451929
Probable space group: P M M N
;
_chemical_formula_sum "Si O2"
_cell_formula_units_Z 40
_cell_length_a 8.514322
_cell_length_b 14.481032
_cell_length_c 16.734059
_cell_angle_alpha 90.000000
_cell_angle_beta 90.000000
_cell_angle_gamma 90.000000
_cell_volume 2063.245372
_symmetry_space_group_name_H-M "P M M N"
_symmetry_group_IT_number 59
_space_group.IT_coordinate_system_code '2'
_symmetry_cell_setting 'orthorhombic'
loop_
_space_group_symop_operation_xyz
x,y,z
1/2-x,1/2-y,z
1/2+x,-y,-z
-x,1/2+y,-z
-x,-y,-z
1/2+x,1/2+y,-z
1/2-x,y,z
x,1/2-y,z
loop_
_atom_site_type_symbol
_atom_site_label
_atom_site_fract_x
_atom_site_fract_y
_atom_site_fract_z
Si Si1 0.437344 0.467383 0.121226
Si Si2 0.563397 0.471418 0.292940
Si Si3 0.059041 0.642550 0.554476
Si Si4 0.060184 0.144527 0.965118
Si Si5 0.561102 0.358320 0.624374
O O1 0.250000 0.470533 0.119840
O O2 0.493765 0.440408 0.208923
O O3 0.500730 0.568836 0.097841
O O4 0.489282 0.396399 0.051696
O O5 0.750000 0.460989 0.289686
O O6 0.501777 0.415419 0.370161
O O7 0.518438 0.576985 0.310961
O O8 0.250000 0.637356 0.553330
O O9 0.017737 0.750000 0.564500
O O10 0.007044 0.613807 0.465484
O O11 0.250000 0.144630 0.962849
O O12 0.006425 0.250000 0.953147
O O13 0.750000 0.369112 0.628586
O O14 0.526689 0.250000 0.634379
#
# Coordination Sequence:
#
# PCOD9451929 Si02
#       5
#     8   8   8   8   8
#     4  10  21  36  54  79 108 135 167 205 249 307
#     4  11  21  32  51  78 107 137 169 211 257 298
#     4   8  16  32  52  74 101 135 175 215 256 303
#     4   9  19  38  61  80 101 131 166 208 256 301
#     4   9  18  34  54  73  98 136 178 217 258 303
#
# _framework density 19.386931000000001
#
# number of rings (size 3 to 8) (size 9 to 14) (size 15 to 20)
#    0.000    2.600    0.000    3.000    0.000    3.200 
#    0.000    1.000    0.000    4.200    0.000    0.000 
#    0.000    0.000    0.000    0.000    0.000    0.000 
#
# Total GULP energy -223178.085085 kJ/mol
# GULP energy per Si atom -5579.452127 kJ/mol
# Density = 1.934281 g / cm^3
# Si number density = 19.386931 Si / 1000 Ang^3
#
#
#
# Elastic Constant Matrix: (Units=GPa)
#
#
# Indices 1 2 3 4 5 6 
#
# 1 6.9517 2.8401 2.1307 0.0000 0.0000 0.0000
# 2 2.8401 33.7153 -15.6247 0.0000 0.0000 0.0000
# 3 2.1307 -15.6247 45.9321 0.0000 0.0000 0.0000
# 4 0.0000 0.0000 0.0000 11.1016 0.0000 0.0000
# 5 0.0000 0.0000 0.0000 0.0000 28.1564 0.0000
# 6 0.0000 0.0000 0.0000 0.0000 0.0000 20.5541
#
#
#
# Elastic Compliance Matrix: (Units=1/GPa)
#
#
# Indices 1 2 3 4 5 6 
#
# 1 0.156119 -0.019597 -0.013908 0.000000 0.000000 0.000000
# 2 -0.019597 0.037671 0.013724 0.000000 0.000000 0.000000
# 3 -0.013908 0.013724 0.027085 0.000000 0.000000 0.000000
# 4 0.000000 0.000000 0.000000 0.090077 0.000000 0.000000
# 5 0.000000 0.000000 0.000000 0.000000 0.035516 0.000000
# 6 0.000000 0.000000 0.000000 0.000000 0.000000 0.048652
#
#
# Mechanical properties :
#
#
# Convention : Reuss Voigt Hill
#
# Bulk Modulus (GPa) = 5.51533 7.25457 6.38495
# Shear Modulus (GPa) = 10.09856 18.44596 14.27226
#
# Velocity S-wave (km/s) = 2.28479 3.08793 2.71621
# Velocity P-wave (km/s) = 3.13231 4.05757 3.62458
#
# Compressibility (1/GPa) = 0.18131276
#
# Stress axis : x y z
#
# Youngs Moduli (GPa) = 6.40535 26.54576 36.92115
#
# Poissons Ratio (x) = 0.52020 0.51350
# Poissons Ratio (y) = 0.12552 -0.50669
# Poissons Ratio (z) = 0.08909 -0.36430
#
# Static dielectric constant tensor:
#      x y z
#    x 1.657420 0.000000 0.000000 
#    y 0.000000 1.677350 0.000000 
#    z 0.000000 0.000000 1.674630 
# 
# From -- ./inp_files/19852.got.cif
#   From: 2010.05.17/outbox.cif.g08.bks.cpg/sg59_10_cif.got.tgz:19852.got - 2010.06.03 14:40:33.
