data_PCOD9451820
_publ_section_title
;
Structure prediction by ZEFSAII (Michael W. Deem and Ramdas Pophale) SiO2 
 PCOD9451820
Probable space group: P M M N
;
_chemical_formula_sum "Si O2"
_cell_formula_units_Z 56
_cell_length_a 21.426456
_cell_length_b 16.309854
_cell_length_c 8.499141
_cell_angle_alpha 90.000000
_cell_angle_beta 90.000000
_cell_angle_gamma 90.000000
_cell_volume 2970.129949
_symmetry_space_group_name_H-M "P M M N"
_symmetry_group_IT_number 59
_space_group.IT_coordinate_system_code '2'
_symmetry_cell_setting 'orthorhombic'
loop_
_space_group_symop_operation_xyz
x,y,z
1/2-x,1/2-y,z
1/2+x,-y,-z
-x,1/2+y,-z
-x,-y,-z
1/2+x,1/2+y,-z
1/2-x,y,z
x,1/2-y,z
loop_
_atom_site_type_symbol
_atom_site_label
_atom_site_fract_x
_atom_site_fract_y
_atom_site_fract_z
Si Si1 0.477684 0.435228 0.133205
Si Si2 0.679075 0.750000 0.766707
Si Si3 0.993917 0.842457 0.391550
Si Si4 0.085168 0.652426 0.663717
Si Si5 0.907020 0.898487 0.148973
Si Si6 0.178294 0.250000 0.852777
Si Si7 0.387275 0.095648 0.391252
Si Si8 0.675574 0.011544 0.329614
O O1 0.535908 0.388916 0.213692
O O2 0.429070 0.459213 0.271390
O O3 0.500000 0.500000 0.000000
O O4 0.433482 0.379149 0.022100
O O5 0.750000 0.750000 0.713443
O O6 0.651505 0.664731 0.700340
O O7 0.678150 0.750000 0.957038
O O8 0.997983 0.750000 0.327712
O O9 0.968176 0.902709 0.259140
O O10 0.938921 0.850368 0.518254
O O11 0.055188 0.861135 0.490487
O O12 0.088861 0.750000 0.690984
O O13 0.150145 0.604209 0.662836
O O14 0.861249 0.826788 0.204337
O O15 0.862522 0.975618 0.178886
O O16 0.250000 0.250000 0.799313
O O17 0.349819 0.040504 0.518487
O O18 0.750000 0.004431 0.316612
#
# Coordination Sequence:
#
# PCOD9451820 Si02
#       8
#     8   4   8   8   8   4   8   8
#     4  11  22  37  61  89 120 148 188 245 304 352
#     4  11  20  33  51  81 119 163 194 220 273 356
#     4   9  18  32  55  83 114 144 185 239 289 338
#     4  10  23  40  62  88 113 150 198 253 305 352
#     4  11  21  35  58  87 120 155 190 236 289 353
#     4  11  22  33  51  85 127 163 190 222 271 358
#     4  10  21  35  57  83 118 155 196 233 289 353
#     4  11  24  41  58  82 115 158 204 247 293 348
#
# _framework density 18.854393999999999
#
# number of rings (size 3 to 8) (size 9 to 14) (size 15 to 20)
#    0.000    1.571    4.286    0.857    4.000    2.000 
#    0.000    2.143    0.000    0.000    0.000    0.000 
#    0.000    0.000    0.000    0.000    0.000    0.000 
#
# Total GULP energy -311812.791381 kJ/mol
# GULP energy per Si atom -5568.085560 kJ/mol
# Density = 1.881148 g / cm^3
# Si number density = 18.854394 Si / 1000 Ang^3
#
#
#
# Elastic Constant Matrix: (Units=GPa)
#
#
# Indices 1 2 3 4 5 6 
#
# 1 87.5545 38.6835 18.7523 0.0000 0.0000 0.0000
# 2 38.6835 82.1435 12.3637 0.0000 0.0000 0.0000
# 3 18.7523 12.3637 56.0174 0.0000 0.0000 0.0000
# 4 0.0000 0.0000 0.0000 21.6645 0.0000 0.0000
# 5 0.0000 0.0000 0.0000 0.0000 22.8668 0.0000
# 6 0.0000 0.0000 0.0000 0.0000 0.0000 28.9627
#
#
#
# Elastic Compliance Matrix: (Units=1/GPa)
#
#
# Indices 1 2 3 4 5 6 
#
# 1 0.015094 -0.006566 -0.003604 0.000000 0.000000 0.000000
# 2 -0.006566 0.015448 -0.001212 0.000000 0.000000 0.000000
# 3 -0.003604 -0.001212 0.019325 0.000000 0.000000 0.000000
# 4 0.000000 0.000000 0.000000 0.046158 0.000000 0.000000
# 5 0.000000 0.000000 0.000000 0.000000 0.043732 0.000000
# 6 0.000000 0.000000 0.000000 0.000000 0.000000 0.034527
#
#
# Mechanical properties :
#
#
# Convention : Reuss Voigt Hill
#
# Bulk Modulus (GPa) = 36.89305 40.59048 38.74176
# Shear Modulus (GPa) = 24.26210 25.09318 24.67764
#
# Velocity S-wave (km/s) = 3.59111 3.65210 3.62173
# Velocity P-wave (km/s) = 6.06668 6.27367 6.17104
#
# Compressibility (1/GPa) = 0.02710538
#
# Stress axis : x y z
#
# Youngs Moduli (GPa) = 66.25038 64.73237 51.74538
#
# Poissons Ratio (x) = 0.42502 0.18648
# Poissons Ratio (y) = 0.43499 0.06270
# Poissons Ratio (z) = 0.23875 0.07843
#
# Static dielectric constant tensor:
#      x y z
#    x 1.653500 0.000000 0.000000 
#    y 0.000000 1.712220 0.000000 
#    z 0.000000 0.000000 1.718110 
# 
# From -- ./inp_files/11468.got.cif
#   From: 2010.05.17/outbox.cif.g08.bks.cpg/sg59_6_cif.got.tgz:11468.got - 2010.06.03 14:40:33.
