data_PCOD9451184
_publ_section_title
;
Structure prediction by ZEFSAII (Michael W. Deem and Ramdas Pophale) SiO2 
 PCOD9451184
Probable space group: P M M N
;
_chemical_formula_sum "Si O2"
_cell_formula_units_Z 48
_cell_length_a 7.740871
_cell_length_b 18.131539
_cell_length_c 16.686522
_cell_angle_alpha 90.000000
_cell_angle_beta 90.000000
_cell_angle_gamma 90.000000
_cell_volume 2342.018514
_symmetry_space_group_name_H-M "P M M N"
_symmetry_group_IT_number 59
_space_group.IT_coordinate_system_code '2'
_symmetry_cell_setting 'orthorhombic'
loop_
_space_group_symop_operation_xyz
x,y,z
1/2-x,1/2-y,z
1/2+x,-y,-z
-x,1/2+y,-z
-x,-y,-z
1/2+x,1/2+y,-z
1/2-x,y,z
x,1/2-y,z
loop_
_atom_site_type_symbol
_atom_site_label
_atom_site_fract_x
_atom_site_fract_y
_atom_site_fract_z
Si Si1 0.546893 0.600876 0.901011
Si Si2 0.958000 0.606984 0.532084
Si Si3 0.958360 0.043078 0.806976
Si Si4 0.950832 0.250000 0.187199
Si Si5 0.539730 0.750000 0.627540
Si Si6 0.043253 0.962219 0.374887
Si Si7 0.958162 0.665194 0.066650
O O1 0.750000 0.585585 0.912519
O O2 0.475075 0.529279 0.855019
O O3 0.530232 0.675295 0.848901
O O4 0.473647 0.621510 0.988331
O O5 0.750000 0.605544 0.535469
O O6 0.017524 0.678707 0.578597
O O7 0.024641 0.535659 0.580652
O O8 0.006668 0.601720 0.438986
O O9 0.750000 0.036753 0.803222
O O10 0.023160 0.045493 0.715360
O O11 0.000386 0.116689 0.855946
O O12 0.750000 0.250000 0.165681
O O13 0.974001 0.250000 0.282256
O O14 0.750000 0.750000 0.631662
O O15 0.250000 0.969490 0.369303
O O16 0.750000 0.668999 0.059157
O O17 0.020922 0.750000 0.068650
#
# Coordination Sequence:
#
# PCOD9451184 Si02
#       7
#     8   8   8   4   4   8   8
#     4  10  20  39  61  80 112 153 190 228 282 341
#     4   9  18  34  57  79 103 141 183 222 269 327
#     4  10  21  36  59  86 110 148 193 233 278 334
#     4  12  24  34  54  89 120 145 182 233 286 333
#     4  10  20  36  56  79 108 143 182 223 272 335
#     4   9  18  34  53  78 109 140 177 222 277 327
#     4  10  21  38  58  81 112 151 189 232 285 332
#
# _framework density 20.495142999999999
#
# number of rings (size 3 to 8) (size 9 to 14) (size 15 to 20)
#    0.000    2.167    0.833    2.250    0.000    5.667 
#    1.500    3.333    0.000    0.000    0.000    0.000 
#    0.000    0.000    0.000    0.000    0.000    0.000 
#
# Total GULP energy -267971.074195 kJ/mol
# GULP energy per Si atom -5582.730712 kJ/mol
# Density = 2.044850 g / cm^3
# Si number density = 20.495143 Si / 1000 Ang^3
#
#
#
# Elastic Constant Matrix: (Units=GPa)
#
#
# Indices 1 2 3 4 5 6 
#
# 1 28.4070 -8.6357 -1.6852 0.0000 0.0000 0.0000
# 2 -8.6357 48.8344 66.0319 0.0000 0.0000 0.0000
# 3 -1.6852 66.0319 196.1342 0.0000 0.0000 0.0000
# 4 0.0000 0.0000 0.0000 28.7712 0.0000 0.0000
# 5 0.0000 0.0000 0.0000 0.0000 18.7880 0.0000
# 6 0.0000 0.0000 0.0000 0.0000 0.0000 19.7623
#
#
#
# Elastic Compliance Matrix: (Units=1/GPa)
#
#
# Indices 1 2 3 4 5 6 
#
# 1 0.038542 0.011689 -0.003604 0.000000 0.000000 0.000000
# 2 0.011689 0.041134 -0.013748 0.000000 0.000000 0.000000
# 3 -0.003604 -0.013748 0.009696 0.000000 0.000000 0.000000
# 4 0.000000 0.000000 0.000000 0.034757 0.000000 0.000000
# 5 0.000000 0.000000 0.000000 0.000000 0.053225 0.000000
# 6 0.000000 0.000000 0.000000 0.000000 0.000000 0.050601
#
#
# Mechanical properties :
#
#
# Convention : Reuss Voigt Hill
#
# Bulk Modulus (GPa) = 12.81296 42.75528 27.78412
# Shear Modulus (GPa) = 18.84677 27.97527 23.41102
#
# Velocity S-wave (km/s) = 3.03573 3.69856 3.38342
# Velocity P-wave (km/s) = 4.30730 6.25664 5.37115
#
# Compressibility (1/GPa) = 0.07804600
#
# Stress axis : x y z
#
# Youngs Moduli (GPa) = 25.94558 24.31086 103.13452
#
# Poissons Ratio (x) = -0.28417 0.37171
# Poissons Ratio (y) = -0.30328 1.41789
# Poissons Ratio (z) = 0.09351 0.33423
#
# Static dielectric constant tensor:
#      x y z
#    x 1.761940 0.000000 0.000000 
#    y 0.000000 1.711150 0.000000 
#    z 0.000000 0.000000 1.716070 
# 
# From -- ./inp_files/20507.got.cif
#   From: 2010.05.17/outbox.cif.g08.bks.cpg/sg59_11_cif.got.tgz:20507.got - 2010.06.03 14:40:33.
