data_PCOD9451324
_publ_section_title
;
Structure prediction by ZEFSAII (Michael W. Deem and Ramdas Pophale) SiO2 
 PCOD9451324
Probable space group: P M M N
;
_chemical_formula_sum "Si O2"
_cell_formula_units_Z 40
_cell_length_a 18.717477
_cell_length_b 11.668667
_cell_length_c 8.873609
_cell_angle_alpha 90.000000
_cell_angle_beta 90.000000
_cell_angle_gamma 90.000000
_cell_volume 1938.067249
_symmetry_space_group_name_H-M "P M M N"
_symmetry_group_IT_number 59
_space_group.IT_coordinate_system_code '2'
_symmetry_cell_setting 'orthorhombic'
loop_
_space_group_symop_operation_xyz
x,y,z
1/2-x,1/2-y,z
1/2+x,-y,-z
-x,1/2+y,-z
-x,-y,-z
1/2+x,1/2+y,-z
1/2-x,y,z
x,1/2-y,z
loop_
_atom_site_type_symbol
_atom_site_label
_atom_site_fract_x
_atom_site_fract_y
_atom_site_fract_z
Si Si1 0.332219 0.456370 0.938532
Si Si2 0.169127 0.614908 0.209427
Si Si3 0.526466 0.875844 0.934158
Si Si4 0.831896 0.878881 0.376381
Si Si5 0.440804 0.456570 0.384008
O O1 0.250000 0.415595 0.947180
O O2 0.350042 0.463263 0.761695
O O3 0.336585 0.571942 0.036622
O O4 0.390527 0.376695 0.016418
O O5 0.250000 0.580769 0.259301
O O6 0.163499 0.750000 0.219809
O O7 0.106891 0.555490 0.304996
O O8 0.496004 0.750000 0.980843
O O9 0.524246 0.888351 0.754070
O O10 0.500000 0.000000 0.000000
O O11 0.750000 0.898664 0.422355
O O12 0.836671 0.750000 0.312622
O O13 0.884223 0.888117 0.515679
O O14 0.500000 0.500000 0.500000
#
# Coordination Sequence:
#
# PCOD9451324 Si02
#       5
#     8   8   8   8   8
#     4   9  19  37  62  89 115 149 196 246 295 350
#     4   9  19  37  59  83 115 157 202 247 298 360
#     4  11  24  41  62  88 120 160 204 251 302 359
#     4  10  20  36  59  86 117 149 184 235 296 353
#     4  11  23  38  57  85 118 156 197 247 300 357
#
# _framework density 20.639119000000001
#
# number of rings (size 3 to 8) (size 9 to 14) (size 15 to 20)
#    0.000    2.000    0.000    3.000    0.000    6.800 
#    0.000    1.000    0.000    3.600    0.000    0.000 
#    0.000    0.000    0.000    0.000    0.000    0.000 
#
# Total GULP energy -222989.569220 kJ/mol
# GULP energy per Si atom -5574.739231 kJ/mol
# Density = 2.059214 g / cm^3
# Si number density = 20.639119 Si / 1000 Ang^3
#
#
#
# Elastic Constant Matrix: (Units=GPa)
#
#
# Indices 1 2 3 4 5 6 
#
# 1 66.6924 33.1552 36.1938 0.0000 0.0000 0.0000
# 2 33.1552 114.1285 35.4882 0.0000 0.0000 0.0000
# 3 36.1938 35.4882 113.4121 0.0000 0.0000 0.0000
# 4 0.0000 0.0000 0.0000 13.1340 0.0000 0.0000
# 5 0.0000 0.0000 0.0000 0.0000 43.1988 0.0000
# 6 0.0000 0.0000 0.0000 0.0000 0.0000 16.1785
#
#
#
# Elastic Compliance Matrix: (Units=1/GPa)
#
#
# Indices 1 2 3 4 5 6 
#
# 1 0.019796 -0.004195 -0.005005 0.000000 0.000000 0.000000
# 2 -0.004195 0.010595 -0.001977 0.000000 0.000000 0.000000
# 3 -0.005005 -0.001977 0.011033 0.000000 0.000000 0.000000
# 4 0.000000 0.000000 0.000000 0.076138 0.000000 0.000000
# 5 0.000000 0.000000 0.000000 0.000000 0.023149 0.000000
# 6 0.000000 0.000000 0.000000 0.000000 0.000000 0.061811
#
#
# Mechanical properties :
#
#
# Convention : Reuss Voigt Hill
#
# Bulk Modulus (GPa) = 52.43393 55.98972 54.21183
# Shear Modulus (GPa) = 21.62335 27.12863 24.37599
#
# Velocity S-wave (km/s) = 3.24031 3.62944 3.44038
# Velocity P-wave (km/s) = 6.28170 6.68959 6.48885
#
# Compressibility (1/GPa) = 0.01907162
#
# Stress axis : x y z
#
# Youngs Moduli (GPa) = 50.51614 94.38172 90.63532
#
# Poissons Ratio (x) = 0.39588 0.45363
# Poissons Ratio (y) = 0.21189 0.17917
# Poissons Ratio (z) = 0.25283 0.18657
#
# Static dielectric constant tensor:
#      x y z
#    x 1.815530 0.000000 0.000000 
#    y 0.000000 1.756580 0.000000 
#    z 0.000000 0.000000 1.735100 
# 
# From -- ./inp_files/7125.got.cif
#   From: 2010.05.17/outbox.cif.g08.bks.cpg/sg59_4_cif.got.tgz:7125.got - 2010.06.03 14:40:33.
