data_PCOD9451600
_publ_section_title
;
Structure prediction by ZEFSAII (Michael W. Deem and Ramdas Pophale) SiO2 
 PCOD9451600
Probable space group: P M M N
;
_chemical_formula_sum "Si O2"
_cell_formula_units_Z 40
_cell_length_a 24.386499
_cell_length_b 13.866813
_cell_length_c 5.012886
_cell_angle_alpha 90.000000
_cell_angle_beta 90.000000
_cell_angle_gamma 90.000000
_cell_volume 1695.172675
_symmetry_space_group_name_H-M "P M M N"
_symmetry_group_IT_number 59
_space_group.IT_coordinate_system_code '2'
_symmetry_cell_setting 'orthorhombic'
loop_
_space_group_symop_operation_xyz
x,y,z
1/2-x,1/2-y,z
1/2+x,-y,-z
-x,1/2+y,-z
-x,-y,-z
1/2+x,1/2+y,-z
1/2-x,y,z
x,1/2-y,z
loop_
_atom_site_type_symbol
_atom_site_label
_atom_site_fract_x
_atom_site_fract_y
_atom_site_fract_z
Si Si1 0.687532 0.098919 0.999308
Si Si2 0.592948 0.858707 0.744054
Si Si3 0.468852 0.430369 0.742346
Si Si4 0.690387 0.523826 0.501236
Si Si5 0.438036 0.861469 0.877916
O O1 0.750000 0.140500 0.046790
O O2 0.687030 0.005767 0.193892
O O3 0.627805 0.142219 0.071381
O O4 0.685920 0.071537 0.687483
O O5 0.604270 0.750000 0.814523
O O6 0.548516 0.869115 0.510475
O O7 0.644546 0.907779 0.610193
O O8 0.571176 0.908890 0.008319
O O9 0.527038 0.394436 0.860590
O O10 0.454885 0.544767 0.693636
O O11 0.750000 0.566107 0.553159
O O12 0.453768 0.750000 0.808698
#
# Coordination Sequence:
#
# PCOD9451600 Si02
#       5
#     8   8   8   8   8
#     4  10  21  40  63  90 127 164 208 266 316 364
#     4  12  22  41  66  93 130 172 212 260 322 378
#     4  11  26  43  62  97 134 162 209 269 315 373
#     4  10  20  38  61  89 126 166 210 264 315 368
#     4  11  23  43  69  95 128 172 215 257 320 384
#
# _framework density 23.596416999999999
#
# number of rings (size 3 to 8) (size 9 to 14) (size 15 to 20)
#    0.000    1.200    4.000    1.800    0.000    5.600 
#    0.000    8.000    0.000    9.600    0.000    0.000 
#    0.000    0.000    0.000    0.000    0.000    0.000 
#
# Total GULP energy -223140.054924 kJ/mol
# GULP energy per Si atom -5578.501373 kJ/mol
# Density = 2.354271 g / cm^3
# Si number density = 23.596417 Si / 1000 Ang^3
#
#
#
# Elastic Constant Matrix: (Units=GPa)
#
#
# Indices 1 2 3 4 5 6 
#
# 1 175.6177 39.4562 -9.2637 0.0000 0.0000 0.0000
# 2 39.4562 128.4247 -5.6801 0.0000 0.0000 0.0000
# 3 -9.2637 -5.6801 51.4461 0.0000 0.0000 0.0000
# 4 0.0000 0.0000 0.0000 14.5667 0.0000 0.0000
# 5 0.0000 0.0000 0.0000 0.0000 21.9231 0.0000
# 6 0.0000 0.0000 0.0000 0.0000 0.0000 1.5442
#
#
#
# Elastic Compliance Matrix: (Units=1/GPa)
#
#
# Indices 1 2 3 4 5 6 
#
# 1 0.006158 -0.001852 0.000904 0.000000 0.000000 0.000000
# 2 -0.001852 0.008382 0.000592 0.000000 0.000000 0.000000
# 3 0.000904 0.000592 0.019666 0.000000 0.000000 0.000000
# 4 0.000000 0.000000 0.000000 0.068650 0.000000 0.000000
# 5 0.000000 0.000000 0.000000 0.000000 0.045614 0.000000
# 6 0.000000 0.000000 0.000000 0.000000 0.000000 0.647589
#
#
# Mechanical properties :
#
#
# Convention : Reuss Voigt Hill
#
# Bulk Modulus (GPa) = 29.85554 44.94591 37.40073
# Shear Modulus (GPa) = 6.18862 29.67188 17.93025
#
# Velocity S-wave (km/s) = 1.62123 3.54994 2.75957
# Velocity P-wave (km/s) = 4.02300 5.99098 5.10276
#
# Compressibility (1/GPa) = 0.03349462
#
# Stress axis : x y z
#
# Youngs Moduli (GPa) = 162.39133 119.30590 50.84912
#
# Poissons Ratio (x) = 0.22095 -0.04599
# Poissons Ratio (y) = 0.30074 -0.03010
# Poissons Ratio (z) = -0.14686 -0.07062
#
# Static dielectric constant tensor:
#      x y z
#    x 1.964890 0.000000 0.000000 
#    y 0.000000 1.886210 0.000000 
#    z 0.000000 0.000000 1.873550 
# 
# From -- ./inp_files/2021.got.cif
#   From: 2010.05.17/outbox.cif.g08.bks.cpg/sg59_2_cif.got.tgz:2021.got - 2010.06.03 14:40:33.
