data_PCOD9451546
_publ_section_title
;
Structure prediction by ZEFSAII (Michael W. Deem and Ramdas Pophale) SiO2 
 PCOD9451546
Probable space group: P M M N
;
_chemical_formula_sum "Si O2"
_cell_formula_units_Z 64
_cell_length_a 26.157707
_cell_length_b 22.446087
_cell_length_c 5.411175
_cell_angle_alpha 90.000000
_cell_angle_beta 90.000000
_cell_angle_gamma 90.000000
_cell_volume 3177.107371
_symmetry_space_group_name_H-M "P M M N"
_symmetry_group_IT_number 59
_space_group.IT_coordinate_system_code '2'
_symmetry_cell_setting 'orthorhombic'
loop_
_space_group_symop_operation_xyz
x,y,z
1/2-x,1/2-y,z
1/2+x,-y,-z
-x,1/2+y,-z
-x,-y,-z
1/2+x,1/2+y,-z
1/2-x,y,z
x,1/2-y,z
loop_
_atom_site_type_symbol
_atom_site_label
_atom_site_fract_x
_atom_site_fract_y
_atom_site_fract_z
Si Si1 0.807378 0.680803 0.564628
Si Si2 0.024263 0.185313 0.462755
Si Si3 0.081858 0.652190 0.316744
Si Si4 0.809912 0.056460 0.165572
Si Si5 0.382000 0.185746 0.833104
Si Si6 0.901822 0.896071 0.780076
Si Si7 0.641035 0.316185 0.180382
Si Si8 0.369078 0.974535 0.333320
O O1 0.750000 0.658112 0.597603
O O2 0.808749 0.750000 0.646949
O O3 0.825500 0.683393 0.279773
O O4 0.851624 0.640765 0.684103
O O5 0.013182 0.250000 0.344498
O O6 0.074942 0.191807 0.625732
O O7 0.043605 0.134082 0.280838
O O8 0.976584 0.167889 0.630430
O O9 0.112386 0.677631 0.555733
O O10 0.092770 0.581609 0.320332
O O11 0.102933 0.676191 0.054998
O O12 0.750000 0.044532 0.181997
O O13 0.820824 0.127806 0.164763
O O14 0.838591 0.030888 0.408078
O O15 0.832645 0.031980 0.907649
O O16 0.387132 0.250000 0.974319
O O17 0.394453 0.120605 0.936266
O O18 0.897297 0.962765 0.692425
O O19 0.663992 0.250000 0.165426
#
# Coordination Sequence:
#
# PCOD9451546 Si02
#       8
#     8   8   8   8   8   8   8   8
#     4   9  19  35  53  77 109 143 188 250 311 356
#     4  10  21  36  59  86 114 152 197 248 304 356
#     4  10  22  40  59  90 126 160 197 242 294 356
#     4  10  22  42  63  88 121 159 200 246 296 351
#     4   9  19  35  53  79 111 143 189 250 302 351
#     4  11  22  36  56  81 113 153 202 246 294 354
#     4  10  20  37  63  93 124 155 194 246 300 353
#     4  10  24  41  61  86 123 162 200 245 294 351
#
# _framework density 20.144110999999999
#
# number of rings (size 3 to 8) (size 9 to 14) (size 15 to 20)
#    0.000    2.125    0.000    3.375    5.250    2.250 
#    0.000    1.875    0.000    4.500    0.000    0.000 
#    0.000    0.000    0.000    0.000    0.000    0.000 
#
# Total GULP energy -356362.306666 kJ/mol
# GULP energy per Si atom -5568.161042 kJ/mol
# Density = 2.009826 g / cm^3
# Si number density = 20.144111 Si / 1000 Ang^3
#
#
#
# Elastic Constant Matrix: (Units=GPa)
#
#
# Indices 1 2 3 4 5 6 
#
# 1 31.6930 -2.6941 -6.2951 0.0000 0.0000 0.0000
# 2 -2.6941 87.6195 0.9033 0.0000 0.0000 0.0000
# 3 -6.2951 0.9033 64.1934 0.0000 0.0000 0.0000
# 4 0.0000 0.0000 0.0000 16.2423 0.0000 0.0000
# 5 0.0000 0.0000 0.0000 0.0000 10.1008 0.0000
# 6 0.0000 0.0000 0.0000 0.0000 0.0000 58.0621
#
#
#
# Elastic Compliance Matrix: (Units=1/GPa)
#
#
# Indices 1 2 3 4 5 6 
#
# 1 0.032260 0.000959 0.003150 0.000000 0.000000 0.000000
# 2 0.000959 0.011443 -0.000067 0.000000 0.000000 0.000000
# 3 0.003150 -0.000067 0.015888 0.000000 0.000000 0.000000
# 4 0.000000 0.000000 0.000000 0.061568 0.000000 0.000000
# 5 0.000000 0.000000 0.000000 0.000000 0.099002 0.000000
# 6 0.000000 0.000000 0.000000 0.000000 0.000000 0.017223
#
#
# Mechanical properties :
#
#
# Convention : Reuss Voigt Hill
#
# Bulk Modulus (GPa) = 14.77629 18.59270 16.68450
# Shear Modulus (GPa) = 19.85250 29.65381 24.75316
#
# Velocity S-wave (km/s) = 3.14271 3.84094 3.50923
# Velocity P-wave (km/s) = 4.52991 5.37776 4.97194
#
# Compressibility (1/GPa) = 0.06767596
#
# Stress axis : x y z
#
# Youngs Moduli (GPa) = 30.99821 87.38836 62.94143
#
# Poissons Ratio (x) = -0.08384 -0.19827
# Poissons Ratio (y) = -0.02974 0.00421
# Poissons Ratio (z) = -0.09765 0.00585
#
# Static dielectric constant tensor:
#      x y z
#    x 1.665700 0.000000 0.000000 
#    y 0.000000 1.697850 0.000000 
#    z 0.000000 0.000000 1.840120 
# 
# From -- ./inp_files/4310.got.cif
#   From: 2010.05.17/outbox.cif.g08.bks.cpg/sg59_3_cif.got.tgz:4310.got - 2010.06.03 14:40:33.
