data_PCOD9451289
_publ_section_title
;
Structure prediction by ZEFSAII (Michael W. Deem and Ramdas Pophale) SiO2 
 PCOD9451289
Probable space group: P M M N
;
_chemical_formula_sum "Si O2"
_cell_formula_units_Z 48
_cell_length_a 24.636899
_cell_length_b 14.319816
_cell_length_c 7.175484
_cell_angle_alpha 90.000000
_cell_angle_beta 90.000000
_cell_angle_gamma 90.000000
_cell_volume 2531.481052
_symmetry_space_group_name_H-M "P M M N"
_symmetry_group_IT_number 59
_space_group.IT_coordinate_system_code '2'
_symmetry_cell_setting 'orthorhombic'
loop_
_space_group_symop_operation_xyz
x,y,z
1/2-x,1/2-y,z
1/2+x,-y,-z
-x,1/2+y,-z
-x,-y,-z
1/2+x,1/2+y,-z
1/2-x,y,z
x,1/2-y,z
loop_
_atom_site_type_symbol
_atom_site_label
_atom_site_fract_x
_atom_site_fract_y
_atom_site_fract_z
Si Si1 0.478716 0.639237 0.688827
Si Si2 0.313895 0.549555 0.659972
Si Si3 0.898308 0.043689 0.029679
Si Si4 0.595847 0.642905 0.836224
Si Si5 0.313069 0.354610 0.471539
Si Si6 0.396713 0.638682 0.372391
O O1 0.468004 0.750000 0.717718
O O2 0.448108 0.582547 0.849599
O O3 0.542716 0.625263 0.708816
O O4 0.450572 0.614553 0.493072
O O5 0.250000 0.570776 0.663400
O O6 0.344539 0.568480 0.853123
O O7 0.321192 0.439673 0.612457
O O8 0.346192 0.604724 0.498659
O O9 0.897184 0.089172 0.826100
O O10 0.903010 0.933119 0.997605
O O11 0.593062 0.750000 0.902452
O O12 0.648191 0.632070 0.705242
O O13 0.250000 0.358304 0.413656
O O14 0.323591 0.250000 0.547556
O O15 0.394731 0.750000 0.348268
#
# Coordination Sequence:
#
# PCOD9451289 Si02
#       6
#     8   8   8   8   8   8
#     4   9  20  38  57  83 119 150 187 234 280 338
#     4  10  22  39  58  83 114 147 187 234 281 335
#     4  11  21  36  58  87 115 152 187 232 286 341
#     4  10  20  36  58  87 116 148 192 236 278 334
#     4   9  18  36  60  82 110 149 188 228 279 335
#     4  10  21  39  60  82 112 152 190 232 287 334
#
# _framework density 18.961231000000002
#
# number of rings (size 3 to 8) (size 9 to 14) (size 15 to 20)
#    0.000    2.167    1.667    1.000    0.000    3.667 
#    3.000    0.000    0.000    0.000    0.000    0.000 
#    0.000    0.000    0.000    0.000    0.000    0.000 
#
# Total GULP energy -267942.583416 kJ/mol
# GULP energy per Si atom -5582.137155 kJ/mol
# Density = 1.891807 g / cm^3
# Si number density = 18.961231 Si / 1000 Ang^3
#
#
#
# Elastic Constant Matrix: (Units=GPa)
#
#
# Indices 1 2 3 4 5 6 
#
# 1 57.0478 22.3203 25.1550 0.0000 0.0000 0.0000
# 2 22.3203 68.1529 42.4719 0.0000 0.0000 0.0000
# 3 25.1550 42.4719 102.1673 0.0000 0.0000 0.0000
# 4 0.0000 0.0000 0.0000 25.7875 0.0000 0.0000
# 5 0.0000 0.0000 0.0000 0.0000 13.2154 0.0000
# 6 0.0000 0.0000 0.0000 0.0000 0.0000 23.2812
#
#
#
# Elastic Compliance Matrix: (Units=1/GPa)
#
#
# Indices 1 2 3 4 5 6 
#
# 1 0.020804 -0.004887 -0.003091 0.000000 0.000000 0.000000
# 2 -0.004887 0.020951 -0.007506 0.000000 0.000000 0.000000
# 3 -0.003091 -0.007506 0.013669 0.000000 0.000000 0.000000
# 4 0.000000 0.000000 0.000000 0.038778 0.000000 0.000000
# 5 0.000000 0.000000 0.000000 0.000000 0.075669 0.000000
# 6 0.000000 0.000000 0.000000 0.000000 0.000000 0.042953
#
#
# Mechanical properties :
#
#
# Convention : Reuss Voigt Hill
#
# Bulk Modulus (GPa) = 40.88945 45.25138 43.07042
# Shear Modulus (GPa) = 19.84550 21.61821 20.73185
#
# Velocity S-wave (km/s) = 3.23868 3.38024 3.31022
# Velocity P-wave (km/s) = 5.96632 6.25713 6.11346
#
# Compressibility (1/GPa) = 0.02445619
#
# Stress axis : x y z
#
# Youngs Moduli (GPa) = 48.06729 47.72952 73.15699
#
# Poissons Ratio (x) = 0.23328 0.22609
# Poissons Ratio (y) = 0.23493 0.54914
# Poissons Ratio (z) = 0.14855 0.35827
#
# Static dielectric constant tensor:
#      x y z
#    x 1.645200 0.000000 0.000000 
#    y 0.000000 1.687160 0.000000 
#    z 0.000000 0.000000 1.618370 
# 
# From -- ./inp_files/2130.got.cif
#   From: 2010.05.17/outbox.cif.g08.bks.cpg/sg59_2_cif.got.tgz:2130.got - 2010.06.03 14:40:33.
