data_PCOD9451909
_publ_section_title
;
Structure prediction by ZEFSAII (Michael W. Deem and Ramdas Pophale) SiO2 
 PCOD9451909
Probable space group: P M M N
;
_chemical_formula_sum "Si O2"
_cell_formula_units_Z 56
_cell_length_a 23.187498
_cell_length_b 8.932494
_cell_length_c 15.042685
_cell_angle_alpha 90.000000
_cell_angle_beta 90.000000
_cell_angle_gamma 90.000000
_cell_volume 3115.673812
_symmetry_space_group_name_H-M "P M M N"
_symmetry_group_IT_number 59
_space_group.IT_coordinate_system_code '2'
_symmetry_cell_setting 'orthorhombic'
loop_
_space_group_symop_operation_xyz
x,y,z
1/2-x,1/2-y,z
1/2+x,-y,-z
-x,1/2+y,-z
-x,-y,-z
1/2+x,1/2+y,-z
1/2-x,y,z
x,1/2-y,z
loop_
_atom_site_type_symbol
_atom_site_label
_atom_site_fract_x
_atom_site_fract_y
_atom_site_fract_z
Si Si1 0.048670 0.430233 0.616456
Si Si2 0.513289 0.074348 0.905210
Si Si3 0.632418 0.570833 0.880182
Si Si4 0.895537 0.573922 0.205233
Si Si5 0.927032 0.930473 0.587179
Si Si6 0.317859 0.572519 0.940662
Si Si7 0.685868 0.932077 0.694254
O O1 0.043046 0.250000 0.622198
O O2 0.092163 0.477215 0.694296
O O3 0.070884 0.468245 0.517755
O O4 0.985222 0.500191 0.627847
O O5 0.525820 0.250000 0.917371
O O6 0.456901 0.060299 0.844754
O O7 0.568675 0.993355 0.864620
O O8 0.500000 0.000000 0.000000
O O9 0.629888 0.750000 0.885749
O O10 0.672242 0.528727 0.796618
O O11 0.655178 0.507012 0.973123
O O12 0.879769 0.750000 0.205513
O O13 0.849532 0.484711 0.147604
O O14 0.930301 0.750000 0.595325
O O15 0.868097 0.981877 0.634160
O O16 0.250000 0.539791 0.936901
O O17 0.326094 0.750000 0.949803
O O18 0.750000 0.984239 0.668523
O O19 0.686267 0.750000 0.689597
#
# Coordination Sequence:
#
# PCOD9451909 Si02
#       7
#     8   8   8   8   8   8   8
#     4   9  18  33  54  81 109 135 170 215 265 316
#     4  11  21  33  51  77 107 139 175 218 265 311
#     4  11  21  34  54  78 105 140 177 215 264 318
#     4  10  21  36  54  77 106 140 175 215 263 313
#     4   9  17  32  55  81 107 137 172 212 261 315
#     4  11  24  39  54  73 100 137 180 223 263 310
#     4   9  18  32  51  77 107 139 177 218 259 310
#
# _framework density 17.97364
#
# number of rings (size 3 to 8) (size 9 to 14) (size 15 to 20)
#    0.000    2.000    1.429    2.571    0.000    2.857 
#    0.000    1.429    0.000    4.714    0.000    0.000 
#    0.000    0.000    0.000    0.000    0.000    0.000 
#
# Total GULP energy -312624.616922 kJ/mol
# GULP energy per Si atom -5582.582445 kJ/mol
# Density = 1.793273 g / cm^3
# Si number density = 17.973640 Si / 1000 Ang^3
#
#
#
# Elastic Constant Matrix: (Units=GPa)
#
#
# Indices 1 2 3 4 5 6 
#
# 1 82.9749 30.8702 21.3810 0.0000 0.0000 0.0000
# 2 30.8702 32.6364 19.0415 0.0000 0.0000 0.0000
# 3 21.3810 19.0415 68.5937 0.0000 0.0000 0.0000
# 4 0.0000 0.0000 0.0000 13.8385 0.0000 0.0000
# 5 0.0000 0.0000 0.0000 0.0000 25.8638 0.0000
# 6 0.0000 0.0000 0.0000 0.0000 0.0000 26.6939
#
#
#
# Elastic Compliance Matrix: (Units=1/GPa)
#
#
# Indices 1 2 3 4 5 6 
#
# 1 0.018664 -0.017016 -0.001094 0.000000 0.000000 0.000000
# 2 -0.017016 0.052075 -0.009152 0.000000 0.000000 0.000000
# 3 -0.001094 -0.009152 0.017460 0.000000 0.000000 0.000000
# 4 0.000000 0.000000 0.000000 0.072262 0.000000 0.000000
# 5 0.000000 0.000000 0.000000 0.000000 0.038664 0.000000
# 6 0.000000 0.000000 0.000000 0.000000 0.000000 0.037462
#
#
# Mechanical properties :
#
#
# Convention : Reuss Voigt Hill
#
# Bulk Modulus (GPa) = 29.69506 36.31005 33.00255
# Shear Modulus (GPa) = 16.53780 20.80674 18.67227
#
# Velocity S-wave (km/s) = 3.03663 3.40608 3.22665
# Velocity P-wave (km/s) = 5.37142 5.97614 5.68183
#
# Compressibility (1/GPa) = 0.03367564
#
# Stress axis : x y z
#
# Youngs Moduli (GPa) = 53.57785 19.20294 57.27283
#
# Poissons Ratio (x) = 0.32676 0.06267
# Poissons Ratio (y) = 0.91168 0.52417
# Poissons Ratio (z) = 0.05863 0.17575
#
# Static dielectric constant tensor:
#      x y z
#    x 1.604030 0.000000 0.000000 
#    y 0.000000 1.606570 0.000000 
#    z 0.000000 0.000000 1.622970 
# 
# From -- ./inp_files/24260.got.cif
#   From: 2010.05.17/outbox.cif.g08.bks.cpg/sg59_13_cif.got.tgz:24260.got - 2010.06.03 14:40:33.
