data_PCOD9451611
_publ_section_title
;
Structure prediction by ZEFSAII (Michael W. Deem and Ramdas Pophale) SiO2 
 PCOD9451611
Probable space group: P M M N
;
_chemical_formula_sum "Si O2"
_cell_formula_units_Z 64
_cell_length_a 24.913157
_cell_length_b 13.995791
_cell_length_c 9.423574
_cell_angle_alpha 90.000000
_cell_angle_beta 90.000000
_cell_angle_gamma 90.000000
_cell_volume 3285.805549
_symmetry_space_group_name_H-M "P M M N"
_symmetry_group_IT_number 59
_space_group.IT_coordinate_system_code '2'
_symmetry_cell_setting 'orthorhombic'
loop_
_space_group_symop_operation_xyz
x,y,z
1/2-x,1/2-y,z
1/2+x,-y,-z
-x,1/2+y,-z
-x,-y,-z
1/2+x,1/2+y,-z
1/2-x,y,z
x,1/2-y,z
loop_
_atom_site_type_symbol
_atom_site_label
_atom_site_fract_x
_atom_site_fract_y
_atom_site_fract_z
Si Si1 0.810980 0.864202 0.314081
Si Si2 0.472636 0.639494 0.587199
Si Si3 0.907283 0.864281 0.103101
Si Si4 0.311715 0.024330 0.406881
Si Si5 0.156339 0.860437 0.608800
Si Si6 0.992759 0.055145 0.721573
Si Si7 0.384531 0.508827 0.137789
Si Si8 0.812637 0.364194 0.070151
O O1 0.750000 0.899243 0.285562
O O2 0.809085 0.750000 0.319644
O O3 0.854293 0.889039 0.195394
O O4 0.827919 0.902870 0.467968
O O5 0.486803 0.750000 0.619332
O O6 0.408083 0.630215 0.599184
O O7 0.497740 0.556985 0.685333
O O8 0.489154 0.611808 0.426979
O O9 0.910506 0.750000 0.088838
O O10 0.958472 0.904231 0.187154
O O11 0.902473 0.918449 0.954965
O O12 0.250000 0.042741 0.367576
O O13 0.317332 0.923344 0.487025
O O14 0.349573 0.024369 0.271764
O O15 0.170750 0.750000 0.590510
O O16 0.174917 0.889872 0.766055
O O17 0.936922 0.062693 0.804224
O O18 0.349650 0.577451 0.036935
O O19 0.750000 0.382205 0.040748
O O20 0.822407 0.250000 0.056927
#
# Coordination Sequence:
#
# PCOD9451611 Si02
#       8
#     8   8   8   8   8   8   8   8
#     4   9  20  40  65  89 115 155 207 260 310 364
#     4  10  21  38  64  96 125 160 207 262 324 381
#     4  11  25  43  65  90 121 167 218 262 313 380
#     4  11  22  37  60  90 124 160 199 253 317 377
#     4  10  20  38  63  91 121 158 207 256 305 369
#     4  11  23  41  63  90 128 168 208 264 318 379
#     4  12  25  40  60  90 131 166 205 258 321 379
#     4  10  22  40  63  91 126 171 217 259 310 379
#
# _framework density 19.477720999999999
#
# number of rings (size 3 to 8) (size 9 to 14) (size 15 to 20)
#    0.000    1.500    1.250    3.750    1.750    5.250 
#    0.000    1.250    0.000    0.000    0.000    0.000 
#    0.000    0.000    0.000    0.000    0.000    0.000 
#
# Total GULP energy -357819.043459 kJ/mol
# GULP energy per Si atom -5590.922554 kJ/mol
# Density = 1.943339 g / cm^3
# Si number density = 19.477721 Si / 1000 Ang^3
#
#
#
# Elastic Constant Matrix: (Units=GPa)
#
#
# Indices 1 2 3 4 5 6 
#
# 1 41.8614 6.9787 26.4441 0.0000 0.0000 0.0000
# 2 6.9787 67.3435 4.9893 0.0000 0.0000 0.0000
# 3 26.4441 4.9893 75.3973 0.0000 0.0000 0.0000
# 4 0.0000 0.0000 0.0000 0.9732 0.0000 0.0000
# 5 0.0000 0.0000 0.0000 0.0000 -57.9743 0.0000
# 6 0.0000 0.0000 0.0000 0.0000 0.0000 16.6373
#
#
#
# Elastic Compliance Matrix: (Units=1/GPa)
#
#
# Indices 1 2 3 4 5 6 
#
# 1 0.031076 -0.002425 -0.010739 0.000000 0.000000 0.000000
# 2 -0.002425 0.015112 -0.000150 0.000000 0.000000 0.000000
# 3 -0.010739 -0.000150 0.017039 0.000000 0.000000 0.000000
# 4 0.000000 0.000000 0.000000 1.027535 0.000000 0.000000
# 5 0.000000 0.000000 0.000000 0.000000 -0.017249 0.000000
# 6 0.000000 0.000000 0.000000 0.000000 0.000000 0.060106
#
#
# Mechanical properties :
#
#
# Convention : Reuss Voigt Hill
#
# Bulk Modulus (GPa) = 27.32173 29.04736 28.18454
# Shear Modulus (GPa) = 4.26459 1.67325 2.96892
#
# Velocity S-wave (km/s) = 1.48129 0.92786 1.23595
# Velocity P-wave (km/s) = 4.12107 4.01166 4.06673
#
# Compressibility (1/GPa) = 0.03660090
#
# Stress axis : x y z
#
# Youngs Moduli (GPa) = 32.17867 66.17432 58.68732
#
# Poissons Ratio (x) = 0.16046 0.63024
# Poissons Ratio (y) = 0.07803 0.00878
# Poissons Ratio (z) = 0.34557 0.00989
#
# Static dielectric constant tensor:
#      x y z
#    x 1.668080 0.000000 0.000000 
#    y 0.000000 1.697160 0.000000 
#    z 0.000000 0.000000 1.641920 
# 
# From -- ./inp_files/9561.got.cif
#   From: 2010.05.17/outbox.cif.g08.bks.cpg/sg59_5_cif.got.tgz:9561.got - 2010.06.03 14:40:33.
