data_PCOD9451242
_publ_section_title
;
Structure prediction by ZEFSAII (Michael W. Deem and Ramdas Pophale) SiO2 
 PCOD9451242
Probable space group: P M M N
;
_chemical_formula_sum "Si O2"
_cell_formula_units_Z 40
_cell_length_a 16.956915
_cell_length_b 7.779274
_cell_length_c 12.106162
_cell_angle_alpha 90.000000
_cell_angle_beta 90.000000
_cell_angle_gamma 90.000000
_cell_volume 1596.953949
_symmetry_space_group_name_H-M "P M M N"
_symmetry_group_IT_number 59
_space_group.IT_coordinate_system_code '2'
_symmetry_cell_setting 'orthorhombic'
loop_
_space_group_symop_operation_xyz
x,y,z
1/2-x,1/2-y,z
1/2+x,-y,-z
-x,1/2+y,-z
-x,-y,-z
1/2+x,1/2+y,-z
1/2-x,y,z
x,1/2-y,z
loop_
_atom_site_type_symbol
_atom_site_label
_atom_site_fract_x
_atom_site_fract_y
_atom_site_fract_z
Si Si1 0.250000 0.456906 0.315072
Si Si2 0.491518 0.955155 0.264300
Si Si3 0.750000 0.960649 0.944358
Si Si4 0.161483 0.957553 0.700157
Si Si5 0.083510 0.446147 0.045735
Si Si6 0.103090 0.549264 0.463066
O O1 0.250000 0.250000 0.325825
O O2 0.250000 0.498685 0.186029
O O3 0.174718 0.531881 0.377150
O O4 0.481138 0.750000 0.261171
O O5 0.469865 0.019217 0.388406
O O6 0.582363 0.994216 0.233702
O O7 0.431574 0.036742 0.177066
O O8 0.750000 0.750000 0.953874
O O9 0.833449 0.030103 0.988098
O O10 0.250000 0.018499 0.731044
O O11 0.165227 0.750000 0.697829
O O12 0.137702 0.024805 0.577172
O O13 0.091598 0.250000 0.014312
O O14 0.000000 0.500000 0.000000
O O15 0.087818 0.750000 0.483497
#
# Coordination Sequence:
#
# PCOD9451242 Si02
#       6
#     4   8   4   8   8   8
#     4  11  19  31  57  90 117 154 199 245 300 348
#     4  11  23  38  60  90 121 157 200 252 307 358
#     4   9  20  39  65  92 121 154 193 249 310 360
#     4  10  21  38  58  81 119 168 208 247 298 356
#     4  11  23  44  68  94 124 157 200 252 311 371
#     4  10  20  36  57  85 122 160 200 248 299 352
#
# _framework density 25.047687
#
# number of rings (size 3 to 8) (size 9 to 14) (size 15 to 20)
#    0.000    1.600    3.000    2.100    0.000    2.000 
#    1.800    2.000    0.000    0.000    0.000    0.000 
#    0.000    0.000    0.000    0.000    0.000    0.000 
#
# Total GULP energy -223450.495188 kJ/mol
# GULP energy per Si atom -5586.262380 kJ/mol
# Density = 2.499068 g / cm^3
# Si number density = 25.047687 Si / 1000 Ang^3
#
#
#
# Elastic Constant Matrix: (Units=GPa)
#
#
# Indices 1 2 3 4 5 6 
#
# 1 233.6685 9.7443 10.4047 0.0000 0.0000 0.0000
# 2 9.7443 49.6873 -9.9591 0.0000 0.0000 0.0000
# 3 10.4047 -9.9591 32.2045 0.0000 0.0000 0.0000
# 4 0.0000 0.0000 0.0000 21.4164 0.0000 0.0000
# 5 0.0000 0.0000 0.0000 0.0000 39.0773 0.0000
# 6 0.0000 0.0000 0.0000 0.0000 0.0000 23.6226
#
#
#
# Elastic Compliance Matrix: (Units=1/GPa)
#
#
# Indices 1 2 3 4 5 6 
#
# 1 0.004411 -0.001227 -0.001805 0.000000 0.000000 0.000000
# 2 -0.001227 0.021797 0.007137 0.000000 0.000000 0.000000
# 3 -0.001805 0.007137 0.033842 0.000000 0.000000 0.000000
# 4 0.000000 0.000000 0.000000 0.046693 0.000000 0.000000
# 5 0.000000 0.000000 0.000000 0.000000 0.025590 0.000000
# 6 0.000000 0.000000 0.000000 0.000000 0.000000 0.042332
#
#
# Mechanical properties :
#
#
# Convention : Reuss Voigt Hill
#
# Bulk Modulus (GPa) = 14.64963 37.32668 25.98816
# Shear Modulus (GPa) = 26.42598 37.18130 31.80364
#
# Velocity S-wave (km/s) = 3.25164 3.85700 3.56718
# Velocity P-wave (km/s) = 4.46754 5.89660 5.23110
#
# Compressibility (1/GPa) = 0.06826111
#
# Stress axis : x y z
#
# Youngs Moduli (GPa) = 226.70212 45.87795 29.54939
#
# Poissons Ratio (x) = 0.05628 0.05332
# Poissons Ratio (y) = 0.27811 -0.21089
# Poissons Ratio (z) = 0.40909 -0.32743
#
# Static dielectric constant tensor:
#      x y z
#    x 3.108550 0.000000 0.000000 
#    y 0.000000 1.895100 0.000000 
#    z 0.000000 0.000000 2.056850 
# 
# From -- ./inp_files/19899.got.cif
#   From: 2010.05.17/outbox.cif.g08.bks.cpg/sg59_10_cif.got.tgz:19899.got - 2010.06.03 14:40:33.
