data_PCOD9451010
_publ_section_title
;
Structure prediction by ZEFSAII (Michael W. Deem and Ramdas Pophale) SiO2 
 PCOD9451010
Probable space group: P M M N
;
_chemical_formula_sum "Si O2"
_cell_formula_units_Z 48
_cell_length_a 24.214174
_cell_length_b 7.624481
_cell_length_c 10.177035
_cell_angle_alpha 90.000000
_cell_angle_beta 90.000000
_cell_angle_gamma 90.000000
_cell_volume 1878.889388
_symmetry_space_group_name_H-M "P M M N"
_symmetry_group_IT_number 59
_space_group.IT_coordinate_system_code '2'
_symmetry_cell_setting 'orthorhombic'
loop_
_space_group_symop_operation_xyz
x,y,z
1/2-x,1/2-y,z
1/2+x,-y,-z
-x,1/2+y,-z
-x,-y,-z
1/2+x,1/2+y,-z
1/2-x,y,z
x,1/2-y,z
loop_
_atom_site_type_symbol
_atom_site_label
_atom_site_fract_x
_atom_site_fract_y
_atom_site_fract_z
Si Si1 0.545896 0.958678 0.673626
Si Si2 0.810688 0.462383 0.884411
Si Si3 0.690519 0.548897 0.307166
Si Si4 0.838144 0.452429 0.588502
Si Si5 0.927168 0.547377 0.962081
Si Si6 0.068858 0.462472 0.753683
O O1 0.554663 0.750000 0.671577
O O2 0.558194 0.032877 0.821167
O O3 0.595135 0.034917 0.586763
O O4 0.481041 0.992353 0.655474
O O5 0.750000 0.515118 0.928559
O O6 0.814511 0.250000 0.888063
O O7 0.819575 0.516742 0.732178
O O8 0.860675 0.538191 0.967113
O O9 0.750000 0.468902 0.268111
O O10 0.690493 0.750000 0.260368
O O11 0.687277 0.549599 0.465583
O O12 0.630733 0.469053 0.271716
O O13 0.821502 0.250000 0.578169
O O14 0.943858 0.750000 0.958132
O O15 0.947618 0.472207 0.099774
O O16 0.071756 0.250000 0.754349
#
# Coordination Sequence:
#
# PCOD9451010 Si02
#       6
#     8   8   8   8   8   8
#     4  10  20  35  57  85 112 138 175 223 272 320
#     4   9  18  32  51  77 107 138 175 222 273 320
#     4  10  22  39  57  78 107 143 181 221 264 313
#     4  10  20  36  58  81 107 140 179 224 273 323
#     4   9  19  34  53  79 109 142 180 220 265 319
#     4  10  21  37  56  79 109 145 181 217 263 319
#
# _framework density 25.547006
#
# number of rings (size 3 to 8) (size 9 to 14) (size 15 to 20)
#    0.000    2.333    0.000    2.000    0.000    5.333 
#    0.000    1.667    0.000    0.000    0.000    0.000 
#    0.000    0.000    0.000    0.000    0.000    0.000 
#
# Total GULP energy -268316.228280 kJ/mol
# GULP energy per Si atom -5589.921422 kJ/mol
# Density = 2.548886 g / cm^3
# Si number density = 25.547006 Si / 1000 Ang^3
#
#
#
# Elastic Constant Matrix: (Units=GPa)
#
#
# Indices 1 2 3 4 5 6 
#
# 1 186.1736 5.1066 11.6875 0.0000 0.0000 0.0000
# 2 5.1066 73.2582 -4.3328 0.0000 0.0000 0.0000
# 3 11.6875 -4.3328 50.3823 0.0000 0.0000 0.0000
# 4 0.0000 0.0000 0.0000 5.0585 0.0000 0.0000
# 5 0.0000 0.0000 0.0000 0.0000 22.3955 0.0000
# 6 0.0000 0.0000 0.0000 0.0000 0.0000 20.6167
#
#
#
# Elastic Compliance Matrix: (Units=1/GPa)
#
#
# Indices 1 2 3 4 5 6 
#
# 1 0.005466 -0.000458 -0.001307 0.000000 0.000000 0.000000
# 2 -0.000458 0.013759 0.001290 0.000000 0.000000 0.000000
# 3 -0.001307 0.001290 0.020262 0.000000 0.000000 0.000000
# 4 0.000000 0.000000 0.000000 0.197685 0.000000 0.000000
# 5 0.000000 0.000000 0.000000 0.000000 0.044652 0.000000
# 6 0.000000 0.000000 0.000000 0.000000 0.000000 0.048504
#
#
# Mechanical properties :
#
#
# Convention : Reuss Voigt Hill
#
# Bulk Modulus (GPa) = 25.95073 37.19297 31.57185
# Shear Modulus (GPa) = 14.52957 29.43766 21.98362
#
# Velocity S-wave (km/s) = 2.38741 3.39823 2.93664
# Velocity P-wave (km/s) = 4.21660 5.47609 4.88709
#
# Compressibility (1/GPa) = 0.03853456
#
# Stress axis : x y z
#
# Youngs Moduli (GPa) = 182.94984 72.68197 49.35244
#
# Poissons Ratio (x) = 0.03331 0.06452
# Poissons Ratio (y) = 0.08385 -0.06364
# Poissons Ratio (z) = 0.23919 -0.09373
#
# Static dielectric constant tensor:
#      x y z
#    x 2.071270 0.000000 0.000000 
#    y 0.000000 1.931480 0.000000 
#    z 0.000000 0.000000 2.016730 
# 
# From -- ./inp_files/14299.got.cif
#   From: 2010.05.17/outbox.cif.g08.bks.cpg/sg59_8_cif.got.tgz:14299.got - 2010.06.03 14:40:33.
