data_PCOD9451896
_publ_section_title
;
Structure prediction by ZEFSAII (Michael W. Deem and Ramdas Pophale) SiO2 
 PCOD9451896
Probable space group: P M M N
;
_chemical_formula_sum "Si O2"
_cell_formula_units_Z 64
_cell_length_a 9.283277
_cell_length_b 31.265060
_cell_length_c 11.915111
_cell_angle_alpha 90.000000
_cell_angle_beta 90.000000
_cell_angle_gamma 90.000000
_cell_volume 3458.268178
_symmetry_space_group_name_H-M "P M M N"
_symmetry_group_IT_number 59
_space_group.IT_coordinate_system_code '2'
_symmetry_cell_setting 'orthorhombic'
loop_
_space_group_symop_operation_xyz
x,y,z
1/2-x,1/2-y,z
1/2+x,-y,-z
-x,1/2+y,-z
-x,-y,-z
1/2+x,1/2+y,-z
1/2-x,y,z
x,1/2-y,z
loop_
_atom_site_type_symbol
_atom_site_label
_atom_site_fract_x
_atom_site_fract_y
_atom_site_fract_z
Si Si1 0.413667 0.301945 0.661305
Si Si2 0.422783 0.021913 0.668877
Si Si3 0.078985 0.371153 0.031470
Si Si4 0.577617 0.559564 0.561791
Si Si5 0.580139 0.641282 0.707942
Si Si6 0.422091 0.800363 0.110186
Si Si7 0.085677 0.698674 0.558761
Si Si8 0.076078 0.036835 0.927150
O O1 0.250000 0.318145 0.669158
O O2 0.407709 0.250000 0.657632
O O3 0.506265 0.312522 0.770684
O O4 0.490572 0.316001 0.547266
O O5 0.250000 0.016018 0.668540
O O6 0.456785 0.056230 0.570699
O O7 0.464726 0.033445 0.795671
O O8 0.498508 0.978791 0.626301
O O9 0.250000 0.364080 0.011260
O O10 0.056424 0.373203 0.164903
O O11 0.039214 0.416299 0.975046
O O12 0.990432 0.331930 0.980407
O O13 0.750000 0.553771 0.573558
O O14 0.540168 0.603519 0.622271
O O15 0.750000 0.650802 0.694733
O O16 0.486077 0.681418 0.671461
O O17 0.250000 0.804615 0.115633
O O18 0.454957 0.750000 0.088828
O O19 0.250000 0.684067 0.547464
O O20 0.085437 0.750000 0.558034
O O21 0.250000 0.031992 0.935829
O O22 0.000000 0.000000 0.000000
#
# Coordination Sequence:
#
# PCOD9451896 Si02
#       8
#     8   8   8   8   8   8   8   8
#     4   9  17  32  56  82 107 138 176 218 269 328
#     4   9  18  33  55  82 109 138 173 215 264 318
#     4  10  22  38  55  79 110 145 190 237 279 332
#     4   9  18  34  55  80 110 140 173 216 266 319
#     4  10  21  36  54  76 104 141 183 227 275 325
#     4  10  21  37  57  82 113 147 184 229 280 332
#     4  10  21  36  54  78 108 140 177 224 275 326
#     4  10  21  37  57  82 112 146 185 229 276 327
#
# _framework density 18.506373
#
# number of rings (size 3 to 8) (size 9 to 14) (size 15 to 20)
#    0.000    2.375    0.000    1.875    0.000    7.500 
#    0.000    5.000    0.000    0.000    0.000    0.000 
#    0.000    0.000    0.000    0.000    0.000    0.000 
#
# Total GULP energy -357117.228919 kJ/mol
# GULP energy per Si atom -5579.956702 kJ/mol
# Density = 1.846425 g / cm^3
# Si number density = 18.506373 Si / 1000 Ang^3
#
#
#
# Elastic Constant Matrix: (Units=GPa)
#
#
# Indices 1 2 3 4 5 6 
#
# 1 56.9813 45.4435 56.1854 0.0000 0.0000 0.0000
# 2 45.4435 65.7688 57.2382 0.0000 0.0000 0.0000
# 3 56.1854 57.2382 130.7923 0.0000 0.0000 0.0000
# 4 0.0000 0.0000 0.0000 30.3479 0.0000 0.0000
# 5 0.0000 0.0000 0.0000 0.0000 24.5268 0.0000
# 6 0.0000 0.0000 0.0000 0.0000 0.0000 28.4108
#
#
#
# Elastic Compliance Matrix: (Units=1/GPa)
#
#
# Indices 1 2 3 4 5 6 
#
# 1 0.045118 -0.023108 -0.009269 0.000000 0.000000 0.000000
# 2 -0.023108 0.036393 -0.006000 0.000000 0.000000 0.000000
# 3 -0.009269 -0.006000 0.014253 0.000000 0.000000 0.000000
# 4 0.000000 0.000000 0.000000 0.032951 0.000000 0.000000
# 5 0.000000 0.000000 0.000000 0.000000 0.040772 0.000000
# 6 0.000000 0.000000 0.000000 0.000000 0.000000 0.035198
#
#
# Mechanical properties :
#
#
# Convention : Reuss Voigt Hill
#
# Bulk Modulus (GPa) = 52.60230 63.47520 58.03875
# Shear Modulus (GPa) = 17.37459 22.96879 20.17169
#
# Velocity S-wave (km/s) = 3.06738 3.52679 3.30508
# Velocity P-wave (km/s) = 6.40552 7.13848 6.78191
#
# Compressibility (1/GPa) = 0.01901058
#
# Stress axis : x y z
#
# Youngs Moduli (GPa) = 22.16395 27.47768 70.15939
#
# Poissons Ratio (x) = 0.63495 0.65032
# Poissons Ratio (y) = 0.51216 0.42095
# Poissons Ratio (z) = 0.20544 0.16486
#
# Static dielectric constant tensor:
#      x y z
#    x 1.624680 0.000000 0.000000 
#    y 0.000000 1.628760 0.000000 
#    z 0.000000 0.000000 1.633550 
# 
# From -- ./inp_files/15048.got.cif
#   From: 2010.05.17/outbox.cif.g08.bks.cpg/sg59_8_cif.got.tgz:15048.got - 2010.06.03 14:40:33.
