data_PCOD9451652
_publ_section_title
;
Structure prediction by ZEFSAII (Michael W. Deem and Ramdas Pophale) SiO2 
 PCOD9451652
Probable space group: P M M N
;
_chemical_formula_sum "Si O2"
_cell_formula_units_Z 40
_cell_length_a 16.331639
_cell_length_b 7.927033
_cell_length_c 14.129292
_cell_angle_alpha 90.000000
_cell_angle_beta 90.000000
_cell_angle_gamma 90.000000
_cell_volume 1829.198507
_symmetry_space_group_name_H-M "P M M N"
_symmetry_group_IT_number 59
_space_group.IT_coordinate_system_code '2'
_symmetry_cell_setting 'orthorhombic'
loop_
_space_group_symop_operation_xyz
x,y,z
1/2-x,1/2-y,z
1/2+x,-y,-z
-x,1/2+y,-z
-x,-y,-z
1/2+x,1/2+y,-z
1/2-x,y,z
x,1/2-y,z
loop_
_atom_site_type_symbol
_atom_site_label
_atom_site_fract_x
_atom_site_fract_y
_atom_site_fract_z
Si Si1 0.912036 0.047210 0.044653
Si Si2 0.916920 0.949060 0.625856
Si Si3 0.750000 0.944764 0.930020
Si Si4 0.430734 0.950472 0.742269
Si Si5 0.750000 0.056298 0.719580
Si Si6 0.341872 0.046123 0.560979
O O1 0.905221 0.250000 0.043610
O O2 0.912475 0.983429 0.153320
O O3 0.832824 0.979875 0.988944
O O4 0.000000 0.000000 0.000000
O O5 0.934138 0.750000 0.615156
O O6 0.903429 0.018901 0.520019
O O7 0.988491 0.023514 0.690764
O O8 0.831290 0.969730 0.679702
O O9 0.750000 0.750000 0.901355
O O10 0.750000 0.048296 0.833019
O O11 0.443263 0.750000 0.754658
O O12 0.361127 0.979911 0.664829
O O13 0.750000 0.250000 0.688317
O O14 0.250000 0.999669 0.532273
O O15 0.346505 0.250000 0.563191
#
# Coordination Sequence:
#
# PCOD9451652 Si02
#       6
#     8   8   4   8   4   8
#     4  11  24  44  67  98 132 167 218 275 330 393
#     4  10  20  40  63  88 125 166 206 251 310 376
#     4  12  26  44  67  92 125 174 219 268 334 390
#     4  10  23  39  62  90 122 164 206 256 314 370
#     4  12  24  38  63  96 123 156 205 264 320 374
#     4  10  21  37  59  89 126 167 208 253 302 366
#
# _framework density 21.867502000000002
#
# number of rings (size 3 to 8) (size 9 to 14) (size 15 to 20)
#    0.000    1.400    1.000    4.200    1.400    5.200 
#    0.000    0.000    0.000    0.000    0.000    0.000 
#    0.000    0.000    0.000    0.000    0.000    0.000 
#
# Total GULP energy -223605.935082 kJ/mol
# GULP energy per Si atom -5590.148377 kJ/mol
# Density = 2.181773 g / cm^3
# Si number density = 21.867502 Si / 1000 Ang^3
#
#
#
# Elastic Constant Matrix: (Units=GPa)
#
#
# Indices 1 2 3 4 5 6 
#
# 1 94.2440 -10.7409 22.8225 0.0000 0.0000 0.0000
# 2 -10.7409 32.1078 -14.9358 0.0000 0.0000 0.0000
# 3 22.8225 -14.9358 142.8215 0.0000 0.0000 0.0000
# 4 0.0000 0.0000 0.0000 24.4755 0.0000 0.0000
# 5 0.0000 0.0000 0.0000 0.0000 24.6035 0.0000
# 6 0.0000 0.0000 0.0000 0.0000 0.0000 27.8066
#
#
#
# Elastic Compliance Matrix: (Units=1/GPa)
#
#
# Indices 1 2 3 4 5 6 
#
# 1 0.011323 0.003097 -0.001486 0.000000 0.000000 0.000000
# 2 0.003097 0.033585 0.003017 0.000000 0.000000 0.000000
# 3 -0.001486 0.003017 0.007555 0.000000 0.000000 0.000000
# 4 0.000000 0.000000 0.000000 0.040857 0.000000 0.000000
# 5 0.000000 0.000000 0.000000 0.000000 0.040645 0.000000
# 6 0.000000 0.000000 0.000000 0.000000 0.000000 0.035963
#
#
# Mechanical properties :
#
#
# Convention : Reuss Voigt Hill
#
# Bulk Modulus (GPa) = 16.20219 29.27387 22.73803
# Shear Modulus (GPa) = 27.58721 33.51228 30.54975
#
# Velocity S-wave (km/s) = 3.55570 3.91898 3.74175
# Velocity P-wave (km/s) = 4.92775 5.82185 5.39336
#
# Compressibility (1/GPa) = 0.06172006
#
# Stress axis : x y z
#
# Youngs Moduli (GPa) = 88.31219 29.77550 132.36824
#
# Poissons Ratio (x) = -0.09221 0.19665
# Poissons Ratio (y) = -0.27350 -0.39940
# Poissons Ratio (z) = 0.13120 -0.08984
#
# Static dielectric constant tensor:
#      x y z
#    x 1.794330 0.000000 0.000000 
#    y 0.000000 1.847400 0.000000 
#    z 0.000000 0.000000 1.814230 
# 
# From -- ./inp_files/23031.got.cif
#   From: 2010.05.17/outbox.cif.g08.bks.cpg/sg59_12_cif.got.tgz:23031.got - 2010.06.03 14:40:33.
