data_PCOD9451209
_publ_section_title
;
Structure prediction by ZEFSAII (Michael W. Deem and Ramdas Pophale) SiO2 
 PCOD9451209
Probable space group: P M M N
;
_chemical_formula_sum "Si O2"
_cell_formula_units_Z 48
_cell_length_a 8.527559
_cell_length_b 19.808811
_cell_length_c 15.472070
_cell_angle_alpha 90.000000
_cell_angle_beta 90.000000
_cell_angle_gamma 90.000000
_cell_volume 2613.554512
_symmetry_space_group_name_H-M "P M M N"
_symmetry_group_IT_number 59
_space_group.IT_coordinate_system_code '2'
_symmetry_cell_setting 'orthorhombic'
loop_
_space_group_symop_operation_xyz
x,y,z
1/2-x,1/2-y,z
1/2+x,-y,-z
-x,1/2+y,-z
-x,-y,-z
1/2+x,1/2+y,-z
1/2-x,y,z
x,1/2-y,z
loop_
_atom_site_type_symbol
_atom_site_label
_atom_site_fract_x
_atom_site_fract_y
_atom_site_fract_z
Si Si1 0.060780 0.172021 0.068716
Si Si2 0.062420 0.936827 0.263071
Si Si3 0.560290 0.070113 0.539423
Si Si4 0.439239 0.172827 0.870614
Si Si5 0.558703 0.327353 0.392188
Si Si6 0.062394 0.585559 0.774035
O O1 0.250000 0.168182 0.073041
O O2 0.016311 0.250000 0.087543
O O3 0.988955 0.121939 0.138188
O O4 0.013701 0.157080 0.969696
O O5 0.250000 0.936302 0.263184
O O6 0.007631 0.923309 0.361477
O O7 0.002987 0.880351 0.197307
O O8 0.005127 0.010755 0.235230
O O9 0.750000 0.068495 0.538569
O O10 0.509693 0.131108 0.477032
O O11 0.500000 0.000000 0.500000
O O12 0.250000 0.171438 0.868587
O O13 0.488792 0.250000 0.851655
O O14 0.750000 0.326199 0.391548
O O15 0.504637 0.250000 0.391117
O O16 0.508719 0.368675 0.307241
O O17 0.250000 0.581437 0.770726
#
# Coordination Sequence:
#
# PCOD9451209 Si02
#       6
#     8   8   8   8   8   8
#     4   9  19  37  59  82 112 148 184 230 286 337
#     4  11  23  36  56  85 114 149 189 233 283 332
#     4  10  20  36  57  79 109 148 185 226 276 332
#     4   9  20  40  62  82 109 148 189 230 281 339
#     4   9  18  33  54  81 110 142 182 226 274 330
#     4  11  21  34  56  83 113 151 189 230 277 334
#
# _framework density 18.365791999999999
#
# number of rings (size 3 to 8) (size 9 to 14) (size 15 to 20)
#    0.000    2.167    1.667    2.500    0.000    4.000 
#    0.000    3.333    0.000    1.500    0.000    0.000 
#    0.000    0.000    0.000    0.000    0.000    0.000 
#
# Total GULP energy -267985.030420 kJ/mol
# GULP energy per Si atom -5583.021467 kJ/mol
# Density = 1.832399 g / cm^3
# Si number density = 18.365792 Si / 1000 Ang^3
#
#
#
# Elastic Constant Matrix: (Units=GPa)
#
#
# Indices 1 2 3 4 5 6 
#
# 1 17.4654 29.5940 33.8968 0.0000 0.0000 0.0000
# 2 29.5940 180.5787 133.7269 0.0000 0.0000 0.0000
# 3 33.8968 133.7269 185.0212 0.0000 0.0000 0.0000
# 4 0.0000 0.0000 0.0000 40.1282 0.0000 0.0000
# 5 0.0000 0.0000 0.0000 0.0000 21.1989 0.0000
# 6 0.0000 0.0000 0.0000 0.0000 0.0000 18.0977
#
#
#
# Elastic Compliance Matrix: (Units=1/GPa)
#
#
# Indices 1 2 3 4 5 6 
#
# 1 0.091357 -0.005546 -0.012729 0.000000 0.000000 0.000000
# 2 -0.005546 0.012252 -0.007839 0.000000 0.000000 0.000000
# 3 -0.012729 -0.007839 0.013403 0.000000 0.000000 0.000000
# 4 0.000000 0.000000 0.000000 0.024920 0.000000 0.000000
# 5 0.000000 0.000000 0.000000 0.000000 0.047172 0.000000
# 6 0.000000 0.000000 0.000000 0.000000 0.000000 0.055256
#
#
# Mechanical properties :
#
#
# Convention : Reuss Voigt Hill
#
# Bulk Modulus (GPa) = 15.43587 86.38895 50.91241
# Shear Modulus (GPa) = 15.71426 28.27478 21.99452
#
# Velocity S-wave (km/s) = 2.92828 3.92795 3.46436
# Velocity P-wave (km/s) = 4.45601 8.22872 6.61694
#
# Compressibility (1/GPa) = 0.06478417
#
# Stress axis : x y z
#
# Youngs Moduli (GPa) = 10.94605 81.61959 74.61151
#
# Poissons Ratio (x) = 0.45263 0.94972
# Poissons Ratio (y) = 0.06070 0.58490
# Poissons Ratio (z) = 0.13933 0.63984
#
# Static dielectric constant tensor:
#      x y z
#    x 1.628180 0.000000 0.000000 
#    y 0.000000 1.597650 0.000000 
#    z 0.000000 0.000000 1.624480 
# 
# From -- ./inp_files/20371.got.cif
#   From: 2010.05.17/outbox.cif.g08.bks.cpg/sg59_11_cif.got.tgz:20371.got - 2010.06.03 14:40:33.
