data_PCOD9451967
_publ_section_title
;
Structure prediction by ZEFSAII (Michael W. Deem and Ramdas Pophale) SiO2 
 PCOD9451967
Probable space group: P M M N
;
_chemical_formula_sum "Si O2"
_cell_formula_units_Z 32
_cell_length_a 8.919991
_cell_length_b 9.339522
_cell_length_c 21.025858
_cell_angle_alpha 90.000000
_cell_angle_beta 90.000000
_cell_angle_gamma 90.000000
_cell_volume 1751.631686
_symmetry_space_group_name_H-M "P M M N"
_symmetry_group_IT_number 59
_space_group.IT_coordinate_system_code '2'
_symmetry_cell_setting 'orthorhombic'
loop_
_space_group_symop_operation_xyz
x,y,z
1/2-x,1/2-y,z
1/2+x,-y,-z
-x,1/2+y,-z
-x,-y,-z
1/2+x,1/2+y,-z
1/2-x,y,z
x,1/2-y,z
loop_
_atom_site_type_symbol
_atom_site_label
_atom_site_fract_x
_atom_site_fract_y
_atom_site_fract_z
Si Si1 0.930919 0.083569 0.059221
Si Si2 0.071327 0.580728 0.321864
Si Si3 0.929509 0.081732 0.440181
Si Si4 0.070855 0.418532 0.813276
O O1 0.750000 0.074817 0.055485
O O2 0.974214 0.250000 0.057761
O O3 0.975852 0.010338 0.125767
O O4 0.000000 0.000000 0.000000
O O5 0.250000 0.563016 0.325457
O O6 0.037320 0.750000 0.331556
O O7 0.992277 0.488672 0.376013
O O8 0.012154 0.541918 0.251765
O O9 0.750000 0.067871 0.442081
O O10 0.967231 0.250000 0.442916
O O11 0.000000 0.000000 0.500000
O O12 0.250000 0.436067 0.804066
O O13 0.042684 0.250000 0.825889
#
# Coordination Sequence:
#
# PCOD9451967 Si02
#       4
#     8   8   8   8
#     4  10  21  36  55  80 110 144 183 228 276 327
#     4  10  21  37  58  85 115 146 182 224 271 325
#     4  11  24  40  59  84 113 146 185 228 273 323
#     4   9  18  34  55  78 108 147 186 224 270 324
#
# _framework density 18.268681000000001
#
# number of rings (size 3 to 8) (size 9 to 14) (size 15 to 20)
#    0.000    2.000    0.000    3.000    0.000   10.000 
#    0.000    5.000    0.000    0.000    0.000    0.000 
#    0.000    0.000    0.000    0.000    0.000    0.000 
#
# Total GULP energy -178794.419052 kJ/mol
# GULP energy per Si atom -5587.325595 kJ/mol
# Density = 1.822710 g / cm^3
# Si number density = 18.268681 Si / 1000 Ang^3
#
#
#
# Elastic Constant Matrix: (Units=GPa)
#
#
# Indices 1 2 3 4 5 6 
#
# 1 45.4892 68.7832 69.1565 0.0000 0.0000 0.0000
# 2 68.7832 142.1030 132.5914 0.0000 0.0000 0.0000
# 3 69.1565 132.5914 198.5814 0.0000 0.0000 0.0000
# 4 0.0000 0.0000 0.0000 42.8421 0.0000 0.0000
# 5 0.0000 0.0000 0.0000 0.0000 41.5143 0.0000
# 6 0.0000 0.0000 0.0000 0.0000 0.0000 27.5427
#
#
#
# Elastic Compliance Matrix: (Units=1/GPa)
#
#
# Indices 1 2 3 4 5 6 
#
# 1 0.084284 -0.035568 -0.005604 0.000000 0.000000 0.000000
# 2 -0.035568 0.033676 -0.010099 0.000000 0.000000 0.000000
# 3 -0.005604 -0.010099 0.013730 0.000000 0.000000 0.000000
# 4 0.000000 0.000000 0.000000 0.023342 0.000000 0.000000
# 5 0.000000 0.000000 0.000000 0.000000 0.024088 0.000000
# 6 0.000000 0.000000 0.000000 0.000000 0.000000 0.036307
#
#
# Mechanical properties :
#
#
# Convention : Reuss Voigt Hill
#
# Bulk Modulus (GPa) = 34.30601 103.02620 68.66611
# Shear Modulus (GPa) = 15.25863 30.08933 22.67398
#
# Velocity S-wave (km/s) = 2.89318 4.06278 3.52680
# Velocity P-wave (km/s) = 5.47540 8.86147 7.36565
#
# Compressibility (1/GPa) = 0.02914941
#
# Stress axis : x y z
#
# Youngs Moduli (GPa) = 11.86468 29.69469 72.83368
#
# Poissons Ratio (x) = 1.05618 0.40812
# Poissons Ratio (y) = 0.42200 0.73552
# Poissons Ratio (z) = 0.06648 0.29987
#
# Static dielectric constant tensor:
#      x y z
#    x 1.613280 0.000000 0.000000 
#    y 0.000000 1.613440 0.000000 
#    z 0.000000 0.000000 1.588450 
# 
# From -- ./inp_files/28569.got.cif
#   From: 2010.05.17/outbox.cif.g08.bks.cpg/sg59_15_cif.got.tgz:28569.got - 2010.06.03 14:40:33.
