data_PCOD9451114
_publ_section_title
;
Structure prediction by ZEFSAII (Michael W. Deem and Ramdas Pophale) SiO2 
 PCOD9451114
Probable space group: P M M N
;
_chemical_formula_sum "Si O2"
_cell_formula_units_Z 58
_cell_length_a 9.869431
_cell_length_b 17.814881
_cell_length_c 17.649899
_cell_angle_alpha 90.000000
_cell_angle_beta 90.000000
_cell_angle_gamma 90.000000
_cell_volume 3103.253582
_symmetry_space_group_name_H-M "P M M N"
_symmetry_group_IT_number 59
_space_group.IT_coordinate_system_code '2'
_symmetry_cell_setting 'orthorhombic'
loop_
_space_group_symop_operation_xyz
x,y,z
1/2-x,1/2-y,z
1/2+x,-y,-z
-x,1/2+y,-z
-x,-y,-z
1/2+x,1/2+y,-z
1/2-x,y,z
x,1/2-y,z
loop_
_atom_site_type_symbol
_atom_site_label
_atom_site_fract_x
_atom_site_fract_y
_atom_site_fract_z
Si Si1 0.896051 0.161632 0.783007
Si Si2 0.911710 0.162370 0.022403
Si Si3 0.414149 0.954539 0.665718
Si Si4 0.590468 0.081281 0.166311
Si Si5 0.590700 0.915675 0.104088
Si Si6 0.586677 0.164177 0.460972
Si Si7 0.750000 0.750000 0.356886
Si Si8 0.489571 0.374147 0.628802
O O1 0.750000 0.133891 0.812879
O O2 0.903549 0.250000 0.798196
O O3 0.023196 0.123008 0.822689
O O4 0.903905 0.147584 0.693765
O O5 0.750000 0.144479 0.015998
O O6 0.927562 0.250000 0.004045
O O7 0.956975 0.145346 0.108765
O O8 0.002223 0.113600 0.965810
O O9 0.250000 0.953371 0.667811
O O10 0.466557 0.932036 0.749661
O O11 0.459877 0.893833 0.603495
O O12 0.453694 0.038851 0.643058
O O13 0.750000 0.096050 0.178216
O O14 0.578325 0.004148 0.119151
O O15 0.750000 0.897349 0.096696
O O16 0.750000 0.164720 0.459396
O O17 0.539827 0.250000 0.447964
O O18 0.540394 0.137894 0.543651
O O19 0.867119 0.683704 0.358257
#
# Coordination Sequence:
#
# PCOD9451114 Si02
#       8
#     8   8   8   8   8   8   2   8
#     4  11  23  36  55  82 120 156 187 231 286 343
#     4  10  21  38  59  85 115 148 190 237 292 346
#     4  10  20  35  59  87 115 147 196 247 289 343
#     4   9  19  36  58  84 114 148 186 240 292 341
#     4  11  22  36  59  85 115 150 190 234 283 346
#     4  10  21  37  57  83 115 153 195 243 294 345
#     4  12  24  32  62  88 114 164 192 248 292 352
#     4  12  21  37  56  84 119 153 198 235 295 346
#
# _framework density 18.690061
#
# number of rings (size 3 to 8) (size 9 to 14) (size 15 to 20)
#    0.000    1.517    3.448    2.069    0.966    3.862 
#    0.000    3.448    0.000    0.000    0.000    0.000 
#    0.000    0.000    0.000    0.000    0.000    0.000 
#
# Total GULP energy -323026.354936 kJ/mol
# GULP energy per Si atom -5569.419913 kJ/mol
# Density = 1.864752 g / cm^3
# Si number density = 18.690061 Si / 1000 Ang^3
#
#
#
# Elastic Constant Matrix: (Units=GPa)
#
#
# Indices 1 2 3 4 5 6 
#
# 1 55.4550 22.7476 24.6680 0.0000 0.0000 0.0000
# 2 22.7476 46.4382 50.1993 0.0000 0.0000 0.0000
# 3 24.6680 50.1993 104.9760 0.0000 0.0000 0.0000
# 4 0.0000 0.0000 0.0000 145.7124 0.0000 0.0000
# 5 0.0000 0.0000 0.0000 0.0000 -14.0819 0.0000
# 6 0.0000 0.0000 0.0000 0.0000 0.0000 21.7770
#
#
#
# Elastic Compliance Matrix: (Units=1/GPa)
#
#
# Indices 1 2 3 4 5 6 
#
# 1 0.022567 -0.011017 -0.000035 0.000000 0.000000 0.000000
# 2 -0.011017 0.049955 -0.021300 0.000000 0.000000 0.000000
# 3 -0.000035 -0.021300 0.019720 0.000000 0.000000 0.000000
# 4 0.000000 0.000000 0.000000 0.006863 0.000000 0.000000
# 5 0.000000 0.000000 0.000000 0.000000 -0.071013 0.000000
# 6 0.000000 0.000000 0.000000 0.000000 0.000000 0.045920
#
#
# Mechanical properties :
#
#
# Convention : Reuss Voigt Hill
#
# Bulk Modulus (GPa) = 36.31149 44.67767 40.49458
# Shear Modulus (GPa) = 33.80785 37.96511 35.88648
#
# Velocity S-wave (km/s) = 4.25769 4.51188 4.38663
# Velocity P-wave (km/s) = 6.60613 7.14837 6.88259
#
# Compressibility (1/GPa) = 0.02753950
#
# Stress axis : x y z
#
# Youngs Moduli (GPa) = 44.31209 20.01784 50.71087
#
# Poissons Ratio (x) = 0.22053 0.00176
# Poissons Ratio (y) = 0.48818 1.08013
# Poissons Ratio (z) = 0.00154 0.42637
#
# Static dielectric constant tensor:
#      x y z
#    x 1.628450 0.000000 0.000000 
#    y 0.000000 1.640200 0.000000 
#    z 0.000000 0.000000 1.675850 
# 
# From -- ./inp_files/25920.got.cif
#   From: 2010.05.17/outbox.cif.g08.bks.cpg/sg59_13_cif.got.tgz:25920.got - 2010.06.03 14:40:33.
