data_PCOD9451360
_publ_section_title
;
Structure prediction by ZEFSAII (Michael W. Deem and Ramdas Pophale) SiO2 
 PCOD9451360
Probable space group: P M M N
;
_chemical_formula_sum "Si O2"
_cell_formula_units_Z 40
_cell_length_a 19.036618
_cell_length_b 7.704753
_cell_length_c 12.820458
_cell_angle_alpha 90.000000
_cell_angle_beta 90.000000
_cell_angle_gamma 90.000000
_cell_volume 1880.407852
_symmetry_space_group_name_H-M "P M M N"
_symmetry_group_IT_number 59
_space_group.IT_coordinate_system_code '2'
_symmetry_cell_setting 'orthorhombic'
loop_
_space_group_symop_operation_xyz
x,y,z
1/2-x,1/2-y,z
1/2+x,-y,-z
-x,1/2+y,-z
-x,-y,-z
1/2+x,1/2+y,-z
1/2-x,y,z
x,1/2-y,z
loop_
_atom_site_type_symbol
_atom_site_label
_atom_site_fract_x
_atom_site_fract_y
_atom_site_fract_z
Si Si1 0.925828 0.537208 0.841367
Si Si2 0.171113 0.455923 0.349224
Si Si3 0.919889 0.040517 0.220370
Si Si4 0.328713 0.457242 0.971309
Si Si5 0.577402 0.456799 0.457095
O O1 0.927375 0.750000 0.841827
O O2 0.880685 0.478584 0.741179
O O3 0.006053 0.479225 0.828542
O O4 0.885452 0.477055 0.944770
O O5 0.250000 0.528344 0.344499
O O6 0.176260 0.250000 0.330730
O O7 0.134907 0.479938 0.460827
O O8 0.922639 0.250000 0.224377
O O9 0.913767 0.976400 0.339164
O O10 0.857101 0.990742 0.144180
O O11 0.250000 0.526346 0.987797
O O12 0.325347 0.250000 0.986524
O O13 0.500000 0.500000 0.500000
O O14 0.582926 0.250000 0.453253
#
# Coordination Sequence:
#
# PCOD9451360 Si02
#       5
#     8   8   8   8   8
#     4   9  17  35  59  83 111 145 188 231 278 334
#     4  10  20  36  60  87 116 151 189 231 284 341
#     4  10  21  37  58  81 110 148 187 229 280 338
#     4  10  21  36  56  83 113 146 187 233 277 328
#     4  11  22  38  59  83 114 149 190 236 283 338
#
# _framework density 21.271981
#
# number of rings (size 3 to 8) (size 9 to 14) (size 15 to 20)
#    0.000    2.000    2.000    1.800    0.000    5.600 
#    0.000    5.000    0.000    2.400    0.000    0.000 
#    0.000    0.000    0.000    0.000    0.000    0.000 
#
# Total GULP energy -223494.160401 kJ/mol
# GULP energy per Si atom -5587.354010 kJ/mol
# Density = 2.122357 g / cm^3
# Si number density = 21.271981 Si / 1000 Ang^3
#
#
#
# Elastic Constant Matrix: (Units=GPa)
#
#
# Indices 1 2 3 4 5 6 
#
# 1 51.1257 -6.6743 -5.8794 0.0000 0.0000 0.0000
# 2 -6.6743 30.8458 -12.4052 0.0000 0.0000 0.0000
# 3 -5.8794 -12.4052 99.9508 0.0000 0.0000 0.0000
# 4 0.0000 0.0000 0.0000 21.3925 0.0000 0.0000
# 5 0.0000 0.0000 0.0000 0.0000 1.3792 0.0000
# 6 0.0000 0.0000 0.0000 0.0000 0.0000 18.9851
#
#
#
# Elastic Compliance Matrix: (Units=1/GPa)
#
#
# Indices 1 2 3 4 5 6 
#
# 1 0.020446 0.005166 0.001844 0.000000 0.000000 0.000000
# 2 0.005166 0.035428 0.004701 0.000000 0.000000 0.000000
# 3 0.001844 0.004701 0.010697 0.000000 0.000000 0.000000
# 4 0.000000 0.000000 0.000000 0.046745 0.000000 0.000000
# 5 0.000000 0.000000 0.000000 0.000000 0.725033 0.000000
# 6 0.000000 0.000000 0.000000 0.000000 0.000000 0.052673
#
#
# Mechanical properties :
#
#
# Convention : Reuss Voigt Hill
#
# Bulk Modulus (GPa) = 11.11225 14.66717 12.88971
# Shear Modulus (GPa) = 5.57042 22.14344 13.85693
#
# Velocity S-wave (km/s) = 1.61998 3.22990 2.55506
# Velocity P-wave (km/s) = 2.95540 4.56286 3.84409
#
# Compressibility (1/GPa) = 0.08999080
#
# Stress axis : x y z
#
# Youngs Moduli (GPa) = 48.90929 28.22664 93.48569
#
# Poissons Ratio (x) = -0.14581 -0.17237
# Poissons Ratio (y) = -0.25264 -0.43946
# Poissons Ratio (z) = -0.09018 -0.13269
#
# Static dielectric constant tensor:
#      x y z
#    x 1.741320 0.000000 0.000000 
#    y 0.000000 1.806540 0.000000 
#    z 0.000000 0.000000 1.742550 
# 
# From -- ./inp_files/13837.got.cif
#   From: 2010.05.17/outbox.cif.g08.bks.cpg/sg59_7_cif.got.tgz:13837.got - 2010.06.03 14:40:33.
