data_PCOD9451793
_publ_section_title
;
Structure prediction by ZEFSAII (Michael W. Deem and Ramdas Pophale) SiO2 
 PCOD9451793
Probable space group: P M M N
;
_chemical_formula_sum "Si O2"
_cell_formula_units_Z 64
_cell_length_a 14.858815
_cell_length_b 27.457997
_cell_length_c 8.910339
_cell_angle_alpha 90.000000
_cell_angle_beta 90.000000
_cell_angle_gamma 90.000000
_cell_volume 3635.358592
_symmetry_space_group_name_H-M "P M M N"
_symmetry_group_IT_number 59
_space_group.IT_coordinate_system_code '2'
_symmetry_cell_setting 'orthorhombic'
loop_
_space_group_symop_operation_xyz
x,y,z
1/2-x,1/2-y,z
1/2+x,-y,-z
-x,1/2+y,-z
-x,-y,-z
1/2+x,1/2+y,-z
1/2-x,y,z
x,1/2-y,z
loop_
_atom_site_type_symbol
_atom_site_label
_atom_site_fract_x
_atom_site_fract_y
_atom_site_fract_z
Si Si1 0.141857 0.917450 0.461280
Si Si2 0.503834 0.125485 0.301677
Si Si3 0.356689 0.613188 0.122746
Si Si4 0.146400 0.192796 0.823792
Si Si5 0.448444 0.538349 0.897635
Si Si6 0.976240 0.307382 0.026410
Si Si7 0.357479 0.123067 0.541574
Si Si8 0.357621 0.486013 0.619590
O O1 0.250000 0.911332 0.484435
O O2 0.084423 0.887360 0.582713
O O3 0.119648 0.902273 0.292255
O O4 0.119978 0.974336 0.491672
O O5 0.492523 0.077592 0.196096
O O6 0.415531 0.136920 0.397481
O O7 0.527801 0.169373 0.191088
O O8 0.250000 0.619422 0.114302
O O9 0.407284 0.662286 0.075614
O O10 0.387032 0.571568 0.005680
O O11 0.250000 0.183339 0.869258
O O12 0.139589 0.250000 0.782412
O O13 0.075069 0.183814 0.955098
O O14 0.126123 0.159047 0.680878
O O15 0.394632 0.507895 0.773479
O O16 0.500000 0.500000 0.000000
O O17 0.958637 0.250000 0.026039
O O18 0.250000 0.122804 0.512744
O O19 0.388657 0.068411 0.584842
O O20 0.250000 0.483655 0.630360
#
# Coordination Sequence:
#
# PCOD9451793 Si02
#       8
#     8   8   8   8   8   8   8   8
#     4   9  19  36  57  79 109 149 186 222 274 332
#     4  10  22  35  53  78 111 144 181 230 276 327
#     4  10  21  38  60  84 113 150 190 234 281 334
#     4   9  19  37  59  80 106 142 183 230 285 342
#     4  10  22  33  52  80 110 150 190 224 270 328
#     4  10  22  39  59  84 110 144 189 236 288 339
#     4  10  21  35  54  81 111 145 185 228 275 330
#     4   9  19  34  51  75 110 147 183 224 271 325
#
# _framework density 17.604866000000001
#
# number of rings (size 3 to 8) (size 9 to 14) (size 15 to 20)
#    0.000    2.375    0.000    1.125    7.000    5.250 
#    0.000    1.250    0.000    0.750    0.000    0.000 
#    0.000    0.000    0.000    0.000    0.000    0.000 
#
# Total GULP energy -357115.931254 kJ/mol
# GULP energy per Si atom -5579.936426 kJ/mol
# Density = 1.756480 g / cm^3
# Si number density = 17.604866 Si / 1000 Ang^3
#
#
#
# Elastic Constant Matrix: (Units=GPa)
#
#
# Indices 1 2 3 4 5 6 
#
# 1 46.6077 32.8257 31.9628 0.0000 0.0000 0.0000
# 2 32.8257 81.8891 45.1365 0.0000 0.0000 0.0000
# 3 31.9628 45.1365 98.1949 0.0000 0.0000 0.0000
# 4 0.0000 0.0000 0.0000 17.7687 0.0000 0.0000
# 5 0.0000 0.0000 0.0000 0.0000 28.0221 0.0000
# 6 0.0000 0.0000 0.0000 0.0000 0.0000 22.9396
#
#
#
# Elastic Compliance Matrix: (Units=1/GPa)
#
#
# Indices 1 2 3 4 5 6 
#
# 1 0.032441 -0.009621 -0.006137 0.000000 0.000000 0.000000
# 2 -0.009621 0.019209 -0.005698 0.000000 0.000000 0.000000
# 3 -0.006137 -0.005698 0.014801 0.000000 0.000000 0.000000
# 4 0.000000 0.000000 0.000000 0.056279 0.000000 0.000000
# 5 0.000000 0.000000 0.000000 0.000000 0.035686 0.000000
# 6 0.000000 0.000000 0.000000 0.000000 0.000000 0.043593
#
#
# Mechanical properties :
#
#
# Convention : Reuss Voigt Hill
#
# Bulk Modulus (GPa) = 42.48491 49.61575 46.05033
# Shear Modulus (GPa) = 19.78114 21.53054 20.65584
#
# Velocity S-wave (km/s) = 3.35568 3.50092 3.42907
# Velocity P-wave (km/s) = 6.26091 6.67728 6.47244
#
# Compressibility (1/GPa) = 0.02353777
#
# Stress axis : x y z
#
# Youngs Moduli (GPa) = 30.82552 52.05882 67.56514
#
# Poissons Ratio (x) = 0.50088 0.41464
# Poissons Ratio (y) = 0.29658 0.38498
# Poissons Ratio (z) = 0.18918 0.29662
#
# Static dielectric constant tensor:
#      x y z
#    x 1.603660 0.000000 0.000000 
#    y 0.000000 1.590240 0.000000 
#    z 0.000000 0.000000 1.579090 
# 
# From -- ./inp_files/9616.got.cif
#   From: 2010.05.17/outbox.cif.g08.bks.cpg/sg59_5_cif.got.tgz:9616.got - 2010.06.03 14:40:33.
