data_PCOD9451091
_publ_section_title
;
Structure prediction by ZEFSAII (Michael W. Deem and Ramdas Pophale) SiO2 
 PCOD9451091
Probable space group: P M M N
;
_chemical_formula_sum "Si O2"
_cell_formula_units_Z 64
_cell_length_a 8.473140
_cell_length_b 14.896315
_cell_length_c 25.051481
_cell_angle_alpha 90.000000
_cell_angle_beta 90.000000
_cell_angle_gamma 90.000000
_cell_volume 3161.961920
_symmetry_space_group_name_H-M "P M M N"
_symmetry_group_IT_number 59
_space_group.IT_coordinate_system_code '2'
_symmetry_cell_setting 'orthorhombic'
loop_
_space_group_symop_operation_xyz
x,y,z
1/2-x,1/2-y,z
1/2+x,-y,-z
-x,1/2+y,-z
-x,-y,-z
1/2+x,1/2+y,-z
1/2-x,y,z
x,1/2-y,z
loop_
_atom_site_type_symbol
_atom_site_label
_atom_site_fract_x
_atom_site_fract_y
_atom_site_fract_z
Si Si1 0.560284 0.009887 0.560086
Si Si2 0.059122 0.536363 0.132806
Si Si3 0.066891 0.848424 0.629499
Si Si4 0.934400 0.849149 0.745298
Si Si5 0.434905 0.454353 0.755829
Si Si6 0.559692 0.146893 0.650749
Si Si7 0.063312 0.643998 0.028231
Si Si8 0.938605 0.649183 0.911469
O O1 0.750000 0.007941 0.559864
O O2 0.510601 0.095838 0.596195
O O3 0.500000 0.000000 0.500000
O O4 0.490921 0.925381 0.591406
O O5 0.250000 0.536839 0.134413
O O6 0.008784 0.588964 0.079602
O O7 0.004997 0.432921 0.124851
O O8 0.999236 0.580073 0.187405
O O9 0.250000 0.863077 0.646113
O O10 0.059466 0.750000 0.603723
O O11 0.957795 0.846458 0.681512
O O12 0.750000 0.859139 0.759578
O O13 0.987021 0.750000 0.765274
O O14 0.024633 0.939766 0.758908
O O15 0.250000 0.440947 0.752425
O O16 0.509126 0.409430 0.703100
O O17 0.750000 0.148448 0.650777
O O18 0.502907 0.250000 0.653191
O O19 0.250000 0.626037 0.020293
O O20 0.044770 0.750000 0.038765
O O21 0.975989 0.624570 0.972845
O O22 0.750000 0.653620 0.905110
O O23 0.002509 0.750000 0.901512
#
# Coordination Sequence:
#
# PCOD9451091 Si02
#       8
#     8   8   8   8   8   8   8   8
#     4  11  23  39  63  93 126 162 200 247 301 354
#     4  10  21  36  54  78 112 152 196 241 289 352
#     4  10  20  35  58  88 121 154 189 235 290 347
#     4  10  20  36  60  86 113 150 193 235 287 354
#     4  12  25  39  59  88 122 157 199 252 307 357
#     4  10  23  45  69  89 116 161 210 250 296 356
#     4   9  18  33  54  79 107 143 188 239 295 353
#     4   9  18  33  54  80 110 146 187 235 293 353
#
# _framework density 20.240599
#
# number of rings (size 3 to 8) (size 9 to 14) (size 15 to 20)
#    0.000    1.875    1.250    2.625    0.000    4.750 
#    0.000    3.750    0.000    0.000    0.000    0.000 
#    0.000    0.000    0.000    0.000    0.000    0.000 
#
# Total GULP energy -357216.497299 kJ/mol
# GULP energy per Si atom -5581.507770 kJ/mol
# Density = 2.019453 g / cm^3
# Si number density = 20.240599 Si / 1000 Ang^3
#
#
#
# Elastic Constant Matrix: (Units=GPa)
#
#
# Indices 1 2 3 4 5 6 
#
# 1 26.2260 20.1560 12.3813 0.0000 0.0000 0.0000
# 2 20.1560 90.5894 59.3259 0.0000 0.0000 0.0000
# 3 12.3813 59.3259 130.7312 0.0000 0.0000 0.0000
# 4 0.0000 0.0000 0.0000 2.6536 0.0000 0.0000
# 5 0.0000 0.0000 0.0000 0.0000 27.3379 0.0000
# 6 0.0000 0.0000 0.0000 0.0000 0.0000 19.2455
#
#
#
# Elastic Compliance Matrix: (Units=1/GPa)
#
#
# Indices 1 2 3 4 5 6 
#
# 1 0.046011 -0.010506 0.000410 0.000000 0.000000 0.000000
# 2 -0.010506 0.018105 -0.007221 0.000000 0.000000 0.000000
# 3 0.000410 -0.007221 0.010887 0.000000 0.000000 0.000000
# 4 0.000000 0.000000 0.000000 0.376851 0.000000 0.000000
# 5 0.000000 0.000000 0.000000 0.000000 0.036579 0.000000
# 6 0.000000 0.000000 0.000000 0.000000 0.000000 0.051960
#
#
# Mechanical properties :
#
#
# Convention : Reuss Voigt Hill
#
# Bulk Modulus (GPa) = 24.77121 47.91924 36.34523
# Shear Modulus (GPa) = 8.49640 20.22629 14.36135
#
# Velocity S-wave (km/s) = 2.05105 3.16459 2.66659
# Velocity P-wave (km/s) = 4.22777 6.08926 5.24181
#
# Compressibility (1/GPa) = 0.04036944
#
# Stress axis : x y z
#
# Youngs Moduli (GPa) = 21.73405 55.23191 91.84856
#
# Poissons Ratio (x) = 0.58025 -0.03765
# Poissons Ratio (y) = 0.22833 0.66327
# Poissons Ratio (z) = -0.00891 0.39885
#
# Static dielectric constant tensor:
#      x y z
#    x 1.702480 0.000000 0.000000 
#    y 0.000000 1.746170 0.000000 
#    z 0.000000 0.000000 1.702170 
# 
# From -- ./inp_files/31678.got.cif
#   From: 2010.05.17/outbox.cif.g08.bks.cpg/sg59_16_cif.got.tgz:31678.got - 2010.06.03 14:40:33.
