data_PCOD9451812
_publ_section_title
;
Structure prediction by ZEFSAII (Michael W. Deem and Ramdas Pophale) SiO2 
 PCOD9451812
Probable space group: P M M N
;
_chemical_formula_sum "Si O2"
_cell_formula_units_Z 40
_cell_length_a 22.899821
_cell_length_b 13.808791
_cell_length_c 5.530705
_cell_angle_alpha 90.000000
_cell_angle_beta 90.000000
_cell_angle_gamma 90.000000
_cell_volume 1748.913131
_symmetry_space_group_name_H-M "P M M N"
_symmetry_group_IT_number 59
_space_group.IT_coordinate_system_code '2'
_symmetry_cell_setting 'orthorhombic'
loop_
_space_group_symop_operation_xyz
x,y,z
1/2-x,1/2-y,z
1/2+x,-y,-z
-x,1/2+y,-z
-x,-y,-z
1/2+x,1/2+y,-z
1/2-x,y,z
x,1/2-y,z
loop_
_atom_site_type_symbol
_atom_site_label
_atom_site_fract_x
_atom_site_fract_y
_atom_site_fract_z
Si Si1 0.820304 0.469730 0.917262
Si Si2 0.953942 0.956808 0.313951
Si Si3 0.515159 0.354107 0.071407
Si Si4 0.320278 0.639804 0.573596
Si Si5 0.887289 0.859555 0.690549
O O1 0.750000 0.482143 0.898467
O O2 0.830395 0.416888 0.174265
O O3 0.851034 0.573412 0.872870
O O4 0.840654 0.407109 0.681229
O O5 0.949237 0.048494 0.132132
O O6 0.895980 0.915831 0.437175
O O7 0.000000 0.000000 0.500000
O O8 0.989289 0.869307 0.194064
O O9 0.544271 0.250000 0.101348
O O10 0.454340 0.353481 0.219896
O O11 0.250000 0.643303 0.552144
O O12 0.341913 0.750000 0.589469
O O13 0.864891 0.750000 0.667063
#
# Coordination Sequence:
#
# PCOD9451812 Si02
#       5
#     8   8   8   8   8
#     4  10  21  36  58  88 121 156 200 245 285 340
#     4   9  18  34  56  79 107 142 187 239 285 354
#     4   9  18  34  57  82 107 145 188 236 295 354
#     4   9  18  36  60  82 109 150 196 243 296 346
#     4  10  21  35  56  81 112 155 195 234 290 351
#
# _framework density 22.871347
#
# number of rings (size 3 to 8) (size 9 to 14) (size 15 to 20)
#    0.000    2.600    0.000    1.200    2.800    3.600 
#    0.000    2.000    0.000    7.200    0.000    0.000 
#    0.000    0.000    0.000    0.000    0.000    0.000 
#
# Total GULP energy -223059.045160 kJ/mol
# GULP energy per Si atom -5576.476129 kJ/mol
# Density = 2.281929 g / cm^3
# Si number density = 22.871347 Si / 1000 Ang^3
#
#
#
# Elastic Constant Matrix: (Units=GPa)
#
#
# Indices 1 2 3 4 5 6 
#
# 1 33.0436 8.3704 -7.4459 0.0000 0.0000 0.0000
# 2 8.3704 168.8549 44.9967 0.0000 0.0000 0.0000
# 3 -7.4459 44.9967 117.5473 0.0000 0.0000 0.0000
# 4 0.0000 0.0000 0.0000 15.8415 0.0000 0.0000
# 5 0.0000 0.0000 0.0000 0.0000 17.3345 0.0000
# 6 0.0000 0.0000 0.0000 0.0000 0.0000 25.4126
#
#
#
# Elastic Compliance Matrix: (Units=1/GPa)
#
#
# Indices 1 2 3 4 5 6 
#
# 1 0.031504 -0.002331 0.002888 0.000000 0.000000 0.000000
# 2 -0.002331 0.006768 -0.002738 0.000000 0.000000 0.000000
# 3 0.002888 -0.002738 0.009738 0.000000 0.000000 0.000000
# 4 0.000000 0.000000 0.000000 0.063125 0.000000 0.000000
# 5 0.000000 0.000000 0.000000 0.000000 0.057688 0.000000
# 6 0.000000 0.000000 0.000000 0.000000 0.000000 0.039351
#
#
# Mechanical properties :
#
#
# Convention : Reuss Voigt Hill
#
# Bulk Modulus (GPa) = 22.91097 45.69866 34.30482
# Shear Modulus (GPa) = 22.01804 29.95271 25.98537
#
# Velocity S-wave (km/s) = 3.10609 3.62279 3.37435
# Velocity P-wave (km/s) = 4.78569 6.12565 5.49665
#
# Compressibility (1/GPa) = 0.04364721
#
# Stress axis : x y z
#
# Youngs Moduli (GPa) = 31.74157 147.76489 102.68679
#
# Poissons Ratio (x) = 0.34449 -0.29656
# Poissons Ratio (y) = 0.07400 0.28118
# Poissons Ratio (z) = -0.09167 0.40462
#
# Static dielectric constant tensor:
#      x y z
#    x 1.878990 0.000000 0.000000 
#    y 0.000000 1.914430 0.000000 
#    z 0.000000 0.000000 2.033680 
# 
# From -- ./inp_files/1404.got.cif
#   From: 2010.05.17/outbox.cif.g08.bks.cpg/sg59_1_cif.got.tgz:1404.got - 2010.06.03 14:40:33.
