data_PCOD9451451
_publ_section_title
;
Structure prediction by ZEFSAII (Michael W. Deem and Ramdas Pophale) SiO2 
 PCOD9451451
Probable space group: P M M N
;
_chemical_formula_sum "Si O2"
_cell_formula_units_Z 44
_cell_length_a 14.676133
_cell_length_b 19.209553
_cell_length_c 8.757259
_cell_angle_alpha 90.000000
_cell_angle_beta 90.000000
_cell_angle_gamma 90.000000
_cell_volume 2468.863575
_symmetry_space_group_name_H-M "P M M N"
_symmetry_group_IT_number 59
_space_group.IT_coordinate_system_code '2'
_symmetry_cell_setting 'orthorhombic'
loop_
_space_group_symop_operation_xyz
x,y,z
1/2-x,1/2-y,z
1/2+x,-y,-z
-x,1/2+y,-z
-x,-y,-z
1/2+x,1/2+y,-z
1/2-x,y,z
x,1/2-y,z
loop_
_atom_site_type_symbol
_atom_site_label
_atom_site_fract_x
_atom_site_fract_y
_atom_site_fract_z
Si Si1 0.250000 0.058498 0.752144
Si Si2 0.617104 0.330349 0.317321
Si Si3 0.097216 0.459047 0.010054
Si Si4 0.409459 0.331192 0.236965
Si Si5 0.250000 0.166868 0.477563
Si Si6 0.750000 0.454442 0.821959
Si Si7 0.750000 0.168482 0.043557
Si Si8 0.250000 0.571534 0.527250
O O1 0.341435 0.054055 0.857503
O O2 0.250000 0.123132 0.633960
O O3 0.250000 0.990287 0.647717
O O4 0.640999 0.250000 0.348643
O O5 0.509843 0.336356 0.307370
O O6 0.662891 0.380406 0.438819
O O7 0.663784 0.347361 0.153567
O O8 0.091409 0.384955 0.096945
O O9 0.161841 0.506978 0.113507
O O10 0.000000 0.500000 0.000000
O O11 0.393774 0.250000 0.191145
O O12 0.336189 0.348874 0.367783
O O13 0.250000 0.250000 0.509099
O O14 0.750000 0.377825 0.894618
O O15 0.750000 0.455539 0.642078
O O16 0.750000 0.250000 0.008724
#
# Coordination Sequence:
#
# PCOD9451451 Si02
#       8
#     4   8   8   8   4   4   4   4
#     4  11  23  37  56  79 107 140 179 224 273 330
#     4   9  18  34  57  81 107 141 178 215 265 326
#     4  11  22  38  58  81 110 144 185 230 274 321
#     4  10  20  37  59  80 106 143 184 223 267 324
#     4  10  22  39  57  80 112 146 184 231 276 320
#     4  11  23  35  52  82 112 143 184 226 269 328
#     4   9  17  33  54  77 108 142 178 224 273 324
#     4  11  20  34  54  80 113 141 171 219 274 332
#
# _framework density 17.821964000000001
#
# number of rings (size 3 to 8) (size 9 to 14) (size 15 to 20)
#    0.000    1.818    0.000    7.364    0.000    2.909 
#    0.000    3.636    0.000    6.545    0.000    0.000 
#    0.000    0.000    0.000    0.000    0.000    0.000 
#
# Total GULP energy -245469.431916 kJ/mol
# GULP energy per Si atom -5578.850725 kJ/mol
# Density = 1.778140 g / cm^3
# Si number density = 17.821964 Si / 1000 Ang^3
#
#
#
# Elastic Constant Matrix: (Units=GPa)
#
#
# Indices 1 2 3 4 5 6 
#
# 1 152.8369 55.9988 71.4779 0.0000 0.0000 0.0000
# 2 55.9988 100.7274 75.2673 0.0000 0.0000 0.0000
# 3 71.4779 75.2673 124.1644 0.0000 0.0000 0.0000
# 4 0.0000 0.0000 0.0000 35.1716 0.0000 0.0000
# 5 0.0000 0.0000 0.0000 0.0000 4.0368 0.0000
# 6 0.0000 0.0000 0.0000 0.0000 0.0000 2.2112
#
#
#
# Elastic Compliance Matrix: (Units=1/GPa)
#
#
# Indices 1 2 3 4 5 6 
#
# 1 0.009193 -0.002114 -0.004011 0.000000 0.000000 0.000000
# 2 -0.002114 0.018635 -0.010079 0.000000 0.000000 0.000000
# 3 -0.004011 -0.010079 0.016473 0.000000 0.000000 0.000000
# 4 0.000000 0.000000 0.000000 0.028432 0.000000 0.000000
# 5 0.000000 0.000000 0.000000 0.000000 0.247722 0.000000
# 6 0.000000 0.000000 0.000000 0.000000 0.000000 0.452236
#
#
# Mechanical properties :
#
#
# Convention : Reuss Voigt Hill
#
# Bulk Modulus (GPa) = 84.08589 87.02411 85.55500
# Shear Modulus (GPa) = 6.18000 19.94957 13.06478
#
# Velocity S-wave (km/s) = 1.86418 3.34935 2.71047
# Velocity P-wave (km/s) = 7.20535 7.99332 7.60954
#
# Compressibility (1/GPa) = 0.01189260
#
# Stress axis : x y z
#
# Youngs Moduli (GPa) = 108.77590 53.66390 60.70646
#
# Poissons Ratio (x) = 0.11344 0.24349
# Poissons Ratio (y) = 0.22993 0.61187
# Poissons Ratio (z) = 0.43629 0.54089
#
# Static dielectric constant tensor:
#      x y z
#    x 1.613230 0.000000 0.000000 
#    y 0.000000 1.636140 0.000000 
#    z 0.000000 0.000000 1.579810 
# 
# From -- ./inp_files/8957.got.cif
#   From: 2010.05.17/outbox.cif.g08.bks.cpg/sg59_5_cif.got.tgz:8957.got - 2010.06.03 14:40:33.
