data_PCOD9451638
_publ_section_title
;
Structure prediction by ZEFSAII (Michael W. Deem and Ramdas Pophale) SiO2 
 PCOD9451638
Probable space group: P M M N
;
_chemical_formula_sum "Si O2"
_cell_formula_units_Z 48
_cell_length_a 7.754275
_cell_length_b 19.208382
_cell_length_c 16.515656
_cell_angle_alpha 90.000000
_cell_angle_beta 90.000000
_cell_angle_gamma 90.000000
_cell_volume 2459.958675
_symmetry_space_group_name_H-M "P M M N"
_symmetry_group_IT_number 59
_space_group.IT_coordinate_system_code '2'
_symmetry_cell_setting 'orthorhombic'
loop_
_space_group_symop_operation_xyz
x,y,z
1/2-x,1/2-y,z
1/2+x,-y,-z
-x,1/2+y,-z
-x,-y,-z
1/2+x,1/2+y,-z
1/2-x,y,z
x,1/2-y,z
loop_
_atom_site_type_symbol
_atom_site_label
_atom_site_fract_x
_atom_site_fract_y
_atom_site_fract_z
Si Si1 0.543641 0.061215 0.230668
Si Si2 0.544509 0.591701 0.301856
Si Si3 0.946049 0.929810 0.952970
Si Si4 0.455047 0.080655 0.514782
Si Si5 0.544841 0.171569 0.360065
Si Si6 0.750000 0.332224 0.796175
Si Si7 0.750000 0.332479 0.988621
O O1 0.750000 0.069387 0.217608
O O2 0.458547 0.057244 0.143089
O O3 0.477566 0.124415 0.286213
O O4 0.521031 0.989506 0.279468
O O5 0.750000 0.607398 0.293195
O O6 0.488915 0.602002 0.395028
O O7 0.420340 0.634783 0.243720
O O8 0.750000 0.911982 0.975410
O O9 0.081733 0.869956 0.975268
O O10 0.000000 0.000000 0.000000
O O11 0.250000 0.085670 0.514284
O O12 0.521048 0.129677 0.443391
O O13 0.500000 0.000000 0.500000
O O14 0.750000 0.176349 0.347248
O O15 0.474453 0.250000 0.363467
O O16 0.750000 0.250000 0.782001
O O17 0.750000 0.344723 0.892204
O O18 0.750000 0.250000 0.004484
#
# Coordination Sequence:
#
# PCOD9451638 Si02
#       7
#     8   8   8   8   8   4   4
#     4  10  20  39  63  96 130 171 218 269 322 381
#     4  10  23  40  65  95 129 168 216 270 322 382
#     4  12  24  42  70 102 133 174 222 276 334 399
#     4  11  22  38  61  89 124 166 210 264 318 376
#     4  10  22  39  61  91 130 173 213 260 319 380
#     4  11  26  44  68  95 122 168 217 265 334 392
#     4  11  26  48  68  99 140 172 215 277 340 408
#
# _framework density 19.512523999999999
#
# number of rings (size 3 to 8) (size 9 to 14) (size 15 to 20)
#    0.000    1.333    3.333    1.500    3.500    5.000 
#    0.000    3.333    0.000    0.000    0.000    0.000 
#    0.000    0.000    0.000    0.000    0.000    0.000 
#
# Total GULP energy -268283.762773 kJ/mol
# GULP energy per Si atom -5589.245058 kJ/mol
# Density = 1.946811 g / cm^3
# Si number density = 19.512524 Si / 1000 Ang^3
#
#
#
# Elastic Constant Matrix: (Units=GPa)
#
#
# Indices 1 2 3 4 5 6 
#
# 1 88.6064 34.6458 34.7613 0.0000 0.0000 0.0000
# 2 34.6458 96.3921 69.2897 0.0000 0.0000 0.0000
# 3 34.7613 69.2897 131.2005 0.0000 0.0000 0.0000
# 4 0.0000 0.0000 0.0000 30.5542 0.0000 0.0000
# 5 0.0000 0.0000 0.0000 0.0000 30.6567 0.0000
# 6 0.0000 0.0000 0.0000 0.0000 0.0000 25.1390
#
#
#
# Elastic Compliance Matrix: (Units=1/GPa)
#
#
# Indices 1 2 3 4 5 6 
#
# 1 0.013340 -0.003634 -0.001616 0.000000 0.000000 0.000000
# 2 -0.003634 0.017712 -0.008392 0.000000 0.000000 0.000000
# 3 -0.001616 -0.008392 0.012482 0.000000 0.000000 0.000000
# 4 0.000000 0.000000 0.000000 0.032729 0.000000 0.000000
# 5 0.000000 0.000000 0.000000 0.000000 0.032619 0.000000
# 6 0.000000 0.000000 0.000000 0.000000 0.000000 0.039779
#
#
# Mechanical properties :
#
#
# Convention : Reuss Voigt Hill
#
# Bulk Modulus (GPa) = 61.52657 65.95475 63.74066
# Shear Modulus (GPa) = 27.56937 29.10346 28.33642
#
# Velocity S-wave (km/s) = 3.76294 3.86622 3.81493
# Velocity P-wave (km/s) = 7.10492 7.33518 7.22097
#
# Compressibility (1/GPa) = 0.01625314
#
# Stress axis : x y z
#
# Youngs Moduli (GPa) = 74.96018 56.45741 80.11698
#
# Poissons Ratio (x) = 0.20514 0.12943
# Poissons Ratio (y) = 0.27237 0.67231
# Poissons Ratio (z) = 0.12110 0.47377
#
# Static dielectric constant tensor:
#      x y z
#    x 1.692520 0.000000 0.000000 
#    y 0.000000 1.652230 0.000000 
#    z 0.000000 0.000000 1.675210 
# 
# From -- ./inp_files/20574.got.cif
#   From: 2010.05.17/outbox.cif.g08.bks.cpg/sg59_11_cif.got.tgz:20574.got - 2010.06.03 14:40:33.
