data_PCOD9451901
_publ_section_title
;
Structure prediction by ZEFSAII (Michael W. Deem and Ramdas Pophale) SiO2 
 PCOD9451901
Probable space group: P M M N
;
_chemical_formula_sum "Si O2"
_cell_formula_units_Z 48
_cell_length_a 9.528075
_cell_length_b 8.706536
_cell_length_c 31.712771
_cell_angle_alpha 90.000000
_cell_angle_beta 90.000000
_cell_angle_gamma 90.000000
_cell_volume 2630.781375
_symmetry_space_group_name_H-M "P M M N"
_symmetry_group_IT_number 59
_space_group.IT_coordinate_system_code '2'
_symmetry_cell_setting 'orthorhombic'
loop_
_space_group_symop_operation_xyz
x,y,z
1/2-x,1/2-y,z
1/2+x,-y,-z
-x,1/2+y,-z
-x,-y,-z
1/2+x,1/2+y,-z
1/2-x,y,z
x,1/2-y,z
loop_
_atom_site_type_symbol
_atom_site_label
_atom_site_fract_x
_atom_site_fract_y
_atom_site_fract_z
Si Si1 0.411367 0.062454 0.289585
Si Si2 0.914112 0.434497 0.207954
Si Si3 0.913022 0.565832 0.960790
Si Si4 0.086383 0.935333 0.628868
Si Si5 0.413790 0.433599 0.883548
Si Si6 0.414190 0.066542 0.538931
O O1 0.250000 0.013118 0.290038
O O2 0.413403 0.250000 0.289657
O O3 0.491231 0.014454 0.247101
O O4 0.494353 0.013303 0.331427
O O5 0.750000 0.466252 0.217083
O O6 0.928447 0.250000 0.203247
O O7 0.950366 0.512335 0.163625
O O8 0.750000 0.516990 0.962691
O O9 0.916875 0.750000 0.962469
O O10 0.986805 0.509037 0.918136
O O11 0.000000 0.500000 0.000000
O O12 0.250000 0.978538 0.635093
O O13 0.080269 0.750000 0.626645
O O14 0.037746 0.002154 0.584182
O O15 0.250000 0.477607 0.891016
O O16 0.423064 0.250000 0.886571
O O17 0.250000 0.023226 0.534533
O O18 0.424254 0.250000 0.539117
O O19 0.500000 0.000000 0.500000
#
# Coordination Sequence:
#
# PCOD9451901 Si02
#       6
#     8   8   8   8   8   8
#     4   9  17  29  48  75 103 131 169 217 262 305
#     4   9  17  31  52  76 103 138 177 215 259 311
#     4  11  24  40  59  84 112 143 180 221 266 317
#     4   9  17  31  51  73  99 133 171 210 256 311
#     4  10  21  37  57  82 111 143 181 223 267 316
#     4  10  21  36  54  77 104 135 172 214 261 313
#
# _framework density 18.245529000000001
#
# number of rings (size 3 to 8) (size 9 to 14) (size 15 to 20)
#    0.000    2.333    0.000    2.500    0.000    8.667 
#    0.000    4.167    0.000    5.000    0.000    0.000 
#    0.000    0.000    0.000    0.000    0.000    0.000 
#
# Total GULP energy -267976.730869 kJ/mol
# GULP energy per Si atom -5582.848560 kJ/mol
# Density = 1.820400 g / cm^3
# Si number density = 18.245529 Si / 1000 Ang^3
#
#
#
# Elastic Constant Matrix: (Units=GPa)
#
#
# Indices 1 2 3 4 5 6 
#
# 1 123.3265 37.6192 122.6102 0.0000 0.0000 0.0000
# 2 37.6192 22.4236 42.4759 0.0000 0.0000 0.0000
# 3 122.6102 42.4759 190.6450 0.0000 0.0000 0.0000
# 4 0.0000 0.0000 0.0000 31.4253 0.0000 0.0000
# 5 0.0000 0.0000 0.0000 0.0000 39.3189 0.0000
# 6 0.0000 0.0000 0.0000 0.0000 0.0000 19.4078
#
#
#
# Elastic Compliance Matrix: (Units=1/GPa)
#
#
# Indices 1 2 3 4 5 6 
#
# 1 0.027561 -0.021907 -0.012844 0.000000 0.000000 0.000000
# 2 -0.021907 0.094574 -0.006982 0.000000 0.000000 0.000000
# 3 -0.012844 -0.006982 0.015062 0.000000 0.000000 0.000000
# 4 0.000000 0.000000 0.000000 0.031822 0.000000 0.000000
# 5 0.000000 0.000000 0.000000 0.000000 0.025433 0.000000
# 6 0.000000 0.000000 0.000000 0.000000 0.000000 0.051526
#
#
# Mechanical properties :
#
#
# Convention : Reuss Voigt Hill
#
# Bulk Modulus (GPa) = 18.61172 82.42284 50.51728
# Shear Modulus (GPa) = 14.39453 26.94305 20.66879
#
# Velocity S-wave (km/s) = 2.81185 3.84695 3.36938
# Velocity P-wave (km/s) = 4.55684 8.06253 6.54863
#
# Compressibility (1/GPa) = 0.05372958
#
# Stress axis : x y z
#
# Youngs Moduli (GPa) = 36.28334 10.57369 66.39433
#
# Poissons Ratio (x) = 0.23164 0.85279
# Poissons Ratio (y) = 0.79487 0.46356
# Poissons Ratio (z) = 0.46603 0.07382
#
# Static dielectric constant tensor:
#      x y z
#    x 1.618320 0.000000 0.000000 
#    y 0.000000 1.617900 0.000000 
#    z 0.000000 0.000000 1.595650 
# 
# From -- ./inp_files/32829.got.cif
#   From: 2010.05.17/outbox.cif.g08.bks.cpg/sg59_17_cif.got.tgz:32829.got - 2010.06.03 14:40:33.
