data_PCOD9451728
_publ_section_title
;
Structure prediction by ZEFSAII (Michael W. Deem and Ramdas Pophale) SiO2 
 PCOD9451728
Probable space group: P M M N
;
_chemical_formula_sum "Si O2"
_cell_formula_units_Z 64
_cell_length_a 18.993818
_cell_length_b 9.157097
_cell_length_c 21.891264
_cell_angle_alpha 90.000000
_cell_angle_beta 90.000000
_cell_angle_gamma 90.000000
_cell_volume 3807.508884
_symmetry_space_group_name_H-M "P M M N"
_symmetry_group_IT_number 59
_space_group.IT_coordinate_system_code '2'
_symmetry_cell_setting 'orthorhombic'
loop_
_space_group_symop_operation_xyz
x,y,z
1/2-x,1/2-y,z
1/2+x,-y,-z
-x,1/2+y,-z
-x,-y,-z
1/2+x,1/2+y,-z
1/2-x,y,z
x,1/2-y,z
loop_
_atom_site_type_symbol
_atom_site_label
_atom_site_fract_x
_atom_site_fract_y
_atom_site_fract_z
Si Si1 0.329494 0.926341 0.142856
Si Si2 0.541857 0.916016 0.087967
Si Si3 0.466738 0.422994 0.194715
Si Si4 0.460724 0.923548 0.443207
Si Si5 0.168562 0.076837 0.636644
Si Si6 0.108356 0.916336 0.016850
Si Si7 0.968721 0.076914 0.327891
Si Si8 0.832707 0.580953 0.509117
O O1 0.250000 0.962419 0.162182
O O2 0.338450 0.750000 0.145783
O O3 0.340894 0.967172 0.071412
O O4 0.391719 0.001387 0.180786
O O5 0.559134 0.750000 0.104473
O O6 0.468393 0.913028 0.049738
O O7 0.522933 0.010635 0.147050
O O8 0.599164 0.985562 0.042757
O O9 0.460222 0.250000 0.184168
O O10 0.493552 0.447916 0.263234
O O11 0.470089 0.750000 0.445197
O O12 0.500000 0.000000 0.500000
O O13 0.491677 0.989601 0.381244
O O14 0.380114 0.971608 0.452606
O O15 0.250000 0.041285 0.650396
O O16 0.158297 0.250000 0.647835
O O17 0.157966 0.054793 0.563589
O O18 0.111061 0.982573 0.671648
O O19 0.126423 0.750000 0.999883
O O20 0.969474 0.250000 0.341051
O O21 0.750000 0.567199 0.522047
O O22 0.853608 0.750000 0.520888
#
# Coordination Sequence:
#
# PCOD9451728 Si02
#       8
#     8   8   8   8   8   8   8   8
#     4   9  18  33  53  77 105 139 181 225 267 312
#     4   9  16  27  46  71  98 128 163 204 250 299
#     4  10  21  35  51  74 104 139 181 223 264 314
#     4  12  23  35  54  79 107 137 173 219 270 321
#     4   9  18  33  55  81 105 130 161 204 262 320
#     4   8  14  25  44  71 100 127 158 202 254 300
#     4  11  23  37  54  78 106 140 182 222 264 318
#     4   9  18  34  55  79 107 135 165 207 263 322
#
# _framework density 16.808890000000002
#
# number of rings (size 3 to 8) (size 9 to 14) (size 15 to 20)
#    0.000    2.375    1.250    3.750    0.000    5.750 
#    0.000    1.875    0.000    1.500    0.000    1.750 
#    0.000    0.000    0.000    0.000    0.000    0.000 
#
# Total GULP energy -356856.718717 kJ/mol
# GULP energy per Si atom -5575.886230 kJ/mol
# Density = 1.677063 g / cm^3
# Si number density = 16.808890 Si / 1000 Ang^3
#
#
#
# Elastic Constant Matrix: (Units=GPa)
#
#
# Indices 1 2 3 4 5 6 
#
# 1 88.3254 61.2158 47.3405 0.0000 0.0000 0.0000
# 2 61.2158 107.9410 74.6661 0.0000 0.0000 0.0000
# 3 47.3405 74.6661 88.5749 0.0000 0.0000 0.0000
# 4 0.0000 0.0000 0.0000 25.9173 0.0000 0.0000
# 5 0.0000 0.0000 0.0000 0.0000 18.7242 0.0000
# 6 0.0000 0.0000 0.0000 0.0000 0.0000 25.8732
#
#
#
# Elastic Compliance Matrix: (Units=1/GPa)
#
#
# Indices 1 2 3 4 5 6 
#
# 1 0.018892 -0.008946 -0.002556 0.000000 0.000000 0.000000
# 2 -0.008946 0.026459 -0.017523 0.000000 0.000000 0.000000
# 3 -0.002556 -0.017523 0.027427 0.000000 0.000000 0.000000
# 4 0.000000 0.000000 0.000000 0.038584 0.000000 0.000000
# 5 0.000000 0.000000 0.000000 0.000000 0.053407 0.000000
# 6 0.000000 0.000000 0.000000 0.000000 0.000000 0.038650
#
#
# Mechanical properties :
#
#
# Convention : Reuss Voigt Hill
#
# Bulk Modulus (GPa) = 67.89513 72.36513 70.13013
# Shear Modulus (GPa) = 18.77038 20.87754 19.82396
#
# Velocity S-wave (km/s) = 3.34532 3.52810 3.43793
# Velocity P-wave (km/s) = 7.44323 7.72928 7.58760
#
# Compressibility (1/GPa) = 0.01472860
#
# Stress axis : x y z
#
# Youngs Moduli (GPa) = 52.93263 37.79472 36.46060
#
# Poissons Ratio (x) = 0.33812 0.09319
# Poissons Ratio (y) = 0.47354 0.63888
# Poissons Ratio (z) = 0.13529 0.66226
#
# Static dielectric constant tensor:
#      x y z
#    x 1.585750 0.000000 0.000000 
#    y 0.000000 1.568610 0.000000 
#    z 0.000000 0.000000 1.549540 
# 
# From -- ./inp_files/30780.got.cif
#   From: 2010.05.17/outbox.cif.g08.bks.cpg/sg59_16_cif.got.tgz:30780.got - 2010.06.03 14:40:33.
