data_PCOD9451507
_publ_section_title
;
Structure prediction by ZEFSAII (Michael W. Deem and Ramdas Pophale) SiO2 
 PCOD9451507
Probable space group: P M M N
;
_chemical_formula_sum "Si O2"
_cell_formula_units_Z 56
_cell_length_a 15.321718
_cell_length_b 8.697860
_cell_length_c 22.311607
_cell_angle_alpha 90.000000
_cell_angle_beta 90.000000
_cell_angle_gamma 90.000000
_cell_volume 2973.382146
_symmetry_space_group_name_H-M "P M M N"
_symmetry_group_IT_number 59
_space_group.IT_coordinate_system_code '2'
_symmetry_cell_setting 'orthorhombic'
loop_
_space_group_symop_operation_xyz
x,y,z
1/2-x,1/2-y,z
1/2+x,-y,-z
-x,1/2+y,-z
-x,-y,-z
1/2+x,1/2+y,-z
1/2-x,y,z
x,1/2-y,z
loop_
_atom_site_type_symbol
_atom_site_label
_atom_site_fract_x
_atom_site_fract_y
_atom_site_fract_z
Si Si1 0.346346 0.931834 0.108421
Si Si2 0.568331 0.934387 0.665411
Si Si3 0.987990 0.434116 0.792900
Si Si4 0.444179 0.563962 0.555657
Si Si5 0.250000 0.936507 0.523991
Si Si6 0.095539 0.067655 0.987191
Si Si7 0.750000 0.434640 0.616693
Si Si8 0.150119 0.566766 0.859647
O O1 0.250000 0.949354 0.135413
O O2 0.359489 0.750000 0.095227
O O3 0.420229 0.981676 0.154760
O O4 0.351533 0.022286 0.046380
O O5 0.573996 0.750000 0.665602
O O6 0.495668 0.980185 0.615950
O O7 0.539865 0.993547 0.730257
O O8 0.662064 0.001921 0.646653
O O9 0.984585 0.250000 0.788517
O O10 0.082279 0.488329 0.814983
O O11 0.500000 0.500000 0.500000
O O12 0.444187 0.750000 0.551771
O O13 0.342738 0.512219 0.551932
O O14 0.250000 0.750000 0.527340
O O15 0.250000 0.978656 0.453670
O O16 0.091377 0.250000 0.979458
O O17 0.132530 0.993607 0.926794
O O18 0.000000 0.000000 0.000000
O O19 0.750000 0.250000 0.620447
O O20 0.250000 0.533416 0.843496
O O21 0.136864 0.750000 0.858910
#
# Coordination Sequence:
#
# PCOD9451507 Si02
#       8
#     8   8   8   8   4   8   4   8
#     4  10  22  40  61  88 120 155 197 247 305 366
#     4  11  24  40  60  91 129 164 204 255 311 369
#     4  11  24  42  65  89 121 165 209 253 302 364
#     4  10  20  37  61  88 121 158 201 250 304 361
#     4   9  18  35  61  91 119 157 202 249 304 365
#     4  12  23  37  61  91 123 159 201 252 312 368
#     4  11  21  37  65  93 123 163 208 247 300 371
#     4  11  24  43  67  92 121 160 206 258 316 372
#
# _framework density 18.833770999999999
#
# number of rings (size 3 to 8) (size 9 to 14) (size 15 to 20)
#    0.000    1.286    2.857    3.214    1.000    4.286 
#    1.286    0.357    0.000    0.000    0.000    0.000 
#    0.000    0.000    0.000    0.000    0.000    0.000 
#
# Total GULP energy -312997.372580 kJ/mol
# GULP energy per Si atom -5589.238796 kJ/mol
# Density = 1.879090 g / cm^3
# Si number density = 18.833771 Si / 1000 Ang^3
#
#
#
# Elastic Constant Matrix: (Units=GPa)
#
#
# Indices 1 2 3 4 5 6 
#
# 1 161.6220 40.7696 75.3155 0.0000 0.0000 0.0000
# 2 40.7696 39.6303 34.1696 0.0000 0.0000 0.0000
# 3 75.3155 34.1696 126.3652 0.0000 0.0000 0.0000
# 4 0.0000 0.0000 0.0000 30.8663 0.0000 0.0000
# 5 0.0000 0.0000 0.0000 0.0000 6.0032 0.0000
# 6 0.0000 0.0000 0.0000 0.0000 0.0000 27.6444
#
#
#
# Elastic Compliance Matrix: (Units=1/GPa)
#
#
# Indices 1 2 3 4 5 6 
#
# 1 0.009706 -0.006516 -0.004023 0.000000 0.000000 0.000000
# 2 -0.006516 0.037280 -0.006197 0.000000 0.000000 0.000000
# 3 -0.004023 -0.006197 0.011987 0.000000 0.000000 0.000000
# 4 0.000000 0.000000 0.000000 0.032398 0.000000 0.000000
# 5 0.000000 0.000000 0.000000 0.000000 0.166577 0.000000
# 6 0.000000 0.000000 0.000000 0.000000 0.000000 0.036174
#
#
# Mechanical properties :
#
#
# Convention : Reuss Voigt Hill
#
# Bulk Modulus (GPa) = 39.21461 69.79188 54.50325
# Shear Modulus (GPa) = 14.87686 24.72697 19.80192
#
# Velocity S-wave (km/s) = 2.81357 3.62734 3.24605
# Velocity P-wave (km/s) = 5.60549 7.39464 6.56133
#
# Compressibility (1/GPa) = 0.02550070
#
# Stress axis : x y z
#
# Youngs Moduli (GPa) = 103.03383 26.82426 83.42536
#
# Poissons Ratio (x) = 0.17479 0.33559
# Poissons Ratio (y) = 0.67139 0.51697
# Poissons Ratio (z) = 0.41447 0.16622
#
# Static dielectric constant tensor:
#      x y z
#    x 1.550340 0.000000 0.000000 
#    y 0.000000 1.635110 0.000000 
#    z 0.000000 0.000000 1.591190 
# 
# From -- ./inp_files/30475.got.cif
#   From: 2010.05.17/outbox.cif.g08.bks.cpg/sg59_16_cif.got.tgz:30475.got - 2010.06.03 14:40:33.
