data_PCOD9451962
_publ_section_title
;
Structure prediction by ZEFSAII (Michael W. Deem and Ramdas Pophale) SiO2 
 PCOD9451962
Probable space group: P M M N
;
_chemical_formula_sum "Si O2"
_cell_formula_units_Z 64
_cell_length_a 9.104917
_cell_length_b 14.676640
_cell_length_c 26.753763
_cell_angle_alpha 90.000000
_cell_angle_beta 90.000000
_cell_angle_gamma 90.000000
_cell_volume 3575.094355
_symmetry_space_group_name_H-M "P M M N"
_symmetry_group_IT_number 59
_space_group.IT_coordinate_system_code '2'
_symmetry_cell_setting 'orthorhombic'
loop_
_space_group_symop_operation_xyz
x,y,z
1/2-x,1/2-y,z
1/2+x,-y,-z
-x,1/2+y,-z
-x,-y,-z
1/2+x,1/2+y,-z
1/2-x,y,z
x,1/2-y,z
loop_
_atom_site_type_symbol
_atom_site_label
_atom_site_fract_x
_atom_site_fract_y
_atom_site_fract_z
Si Si1 0.423642 0.356863 0.768625
Si Si2 0.574623 0.007088 0.579066
Si Si3 0.921132 0.359222 0.871990
Si Si4 0.425341 0.506526 0.686499
Si Si5 0.925341 0.506676 0.053706
Si Si6 0.576218 0.356883 0.135629
Si Si7 0.578764 0.640781 0.760853
Si Si8 0.925961 0.856418 0.496677
O O1 0.250000 0.368133 0.779802
O O2 0.450353 0.250000 0.758580
O O3 0.514156 0.383959 0.817682
O O4 0.458589 0.418609 0.721071
O O5 0.750000 0.015770 0.583320
O O6 0.501180 0.000629 0.632986
O O7 0.542923 0.916125 0.546276
O O8 0.508900 0.091796 0.547938
O O9 0.750000 0.384242 0.875299
O O10 0.933709 0.250000 0.876623
O O11 0.011917 0.408797 0.914943
O O12 0.250000 0.513188 0.680889
O O13 0.488079 0.591015 0.717914
O O14 0.750000 0.512986 0.048470
O O15 0.959522 0.418689 0.088147
O O16 0.000000 0.500000 0.000000
O O17 0.750000 0.368285 0.146577
O O18 0.549658 0.250000 0.125578
O O19 0.486159 0.383773 0.184831
O O20 0.750000 0.615823 0.757642
O O21 0.566157 0.750000 0.756103
O O22 0.750000 0.861646 0.487976
O O23 0.965649 0.750000 0.501282
#
# Coordination Sequence:
#
# PCOD9451962 Si02
#       8
#     8   8   8   8   8   8   8   8
#     4   9  19  36  56  78 106 142 182 220 263 320
#     4  10  21  36  55  83 114 143 181 228 275 322
#     4  10  21  37  57  80 107 140 178 222 271 322
#     4  11  22  35  54  81 114 150 183 220 268 320
#     4  11  23  37  55  80 108 140 178 221 271 325
#     4   9  19  37  58  78 104 139 177 218 267 325
#     4  10  21  36  55  80 109 142 180 222 269 320
#     4   9  19  38  61  80 104 143 186 227 274 327
#
# _framework density 17.901624999999999
#
# number of rings (size 3 to 8) (size 9 to 14) (size 15 to 20)
#    0.000    2.125    0.000    2.625    0.000    8.750 
#    0.000    3.750    0.000    0.000    0.000    0.000 
#    0.000    0.000    0.000    0.000    0.000    0.000 
#
# Total GULP energy -357442.279803 kJ/mol
# GULP energy per Si atom -5585.035622 kJ/mol
# Density = 1.786088 g / cm^3
# Si number density = 17.901625 Si / 1000 Ang^3
#
#
#
# Elastic Constant Matrix: (Units=GPa)
#
#
# Indices 1 2 3 4 5 6 
#
# 1 80.1798 59.5114 92.7912 0.0000 0.0000 0.0000
# 2 59.5114 93.2453 71.5131 0.0000 0.0000 0.0000
# 3 92.7912 71.5131 180.7635 0.0000 0.0000 0.0000
# 4 0.0000 0.0000 0.0000 62.7205 0.0000 0.0000
# 5 0.0000 0.0000 0.0000 0.0000 39.9054 0.0000
# 6 0.0000 0.0000 0.0000 0.0000 0.0000 27.3313
#
#
#
# Elastic Compliance Matrix: (Units=1/GPa)
#
#
# Indices 1 2 3 4 5 6 
#
# 1 0.040745 -0.014303 -0.015257 0.000000 0.000000 0.000000
# 2 -0.014303 0.020417 -0.000735 0.000000 0.000000 0.000000
# 3 -0.015257 -0.000735 0.013655 0.000000 0.000000 0.000000
# 4 0.000000 0.000000 0.000000 0.015944 0.000000 0.000000
# 5 0.000000 0.000000 0.000000 0.000000 0.025059 0.000000
# 6 0.000000 0.000000 0.000000 0.000000 0.000000 0.036588
#
#
# Mechanical properties :
#
#
# Convention : Reuss Voigt Hill
#
# Bulk Modulus (GPa) = 70.29367 89.09111 79.69239
# Shear Modulus (GPa) = 22.96322 34.68297 28.82309
#
# Velocity S-wave (km/s) = 3.58543 4.40639 4.01694
# Velocity P-wave (km/s) = 7.51613 8.70422 8.13190
#
# Compressibility (1/GPa) = 0.01422603
#
# Stress axis : x y z
#
# Youngs Moduli (GPa) = 24.54298 48.97942 73.23514
#
# Poissons Ratio (x) = 0.70057 1.11734
# Poissons Ratio (y) = 0.35105 0.05382
# Poissons Ratio (z) = 0.37445 0.03600
#
# Static dielectric constant tensor:
#      x y z
#    x 1.524440 0.000000 0.000000 
#    y 0.000000 1.616630 0.000000 
#    z 0.000000 0.000000 1.567170 
# 
# From -- ./inp_files/31431.got.cif
#   From: 2010.05.17/outbox.cif.g08.bks.cpg/sg59_16_cif.got.tgz:31431.got - 2010.06.03 14:40:33.
