data_PCOD9451813
_publ_section_title
;
Structure prediction by ZEFSAII (Michael W. Deem and Ramdas Pophale) SiO2 
 PCOD9451813
Probable space group: P M M N
;
_chemical_formula_sum "Si O2"
_cell_formula_units_Z 48
_cell_length_a 21.303484
_cell_length_b 23.974210
_cell_length_c 4.976750
_cell_angle_alpha 90.000000
_cell_angle_beta 90.000000
_cell_angle_gamma 90.000000
_cell_volume 2541.796426
_symmetry_space_group_name_H-M "P M M N"
_symmetry_group_IT_number 59
_space_group.IT_coordinate_system_code '2'
_symmetry_cell_setting 'orthorhombic'
loop_
_space_group_symop_operation_xyz
x,y,z
1/2-x,1/2-y,z
1/2+x,-y,-z
-x,1/2+y,-z
-x,-y,-z
1/2+x,1/2+y,-z
1/2-x,y,z
x,1/2-y,z
loop_
_atom_site_type_symbol
_atom_site_label
_atom_site_fract_x
_atom_site_fract_y
_atom_site_fract_z
Si Si1 0.750000 0.037891 0.313625
Si Si2 0.415981 0.184321 0.826137
Si Si3 0.114042 0.582875 0.730323
Si Si4 0.462122 0.881253 0.199299
Si Si5 0.870255 0.618044 0.653359
Si Si6 0.750000 0.954233 0.810892
Si Si7 0.050934 0.470999 0.683393
O O1 0.750000 0.003187 0.589320
O O2 0.811645 0.076539 0.295530
O O3 0.750000 0.988709 0.088500
O O4 0.409931 0.250000 0.862120
O O5 0.488283 0.168220 0.749312
O O6 0.368988 0.161995 0.593828
O O7 0.400587 0.151276 0.099541
O O8 0.078126 0.600812 0.458717
O O9 0.093875 0.518990 0.804373
O O10 0.086872 0.623274 0.958418
O O11 0.510563 0.931685 0.123069
O O12 0.809263 0.586304 0.763661
O O13 0.910485 0.569183 0.513163
O O14 0.000000 0.500000 0.500000
#
# Coordination Sequence:
#
# PCOD9451813 Si02
#       7
#     4   8   8   8   8   4   8
#     4  12  24  36  58  80 126 164 194 218 262 343
#     4  11  23  42  63  85 109 145 195 258 306 337
#     4  11  21  35  53  86 116 155 187 221 278 346
#     4  10  21  35  56  82 114 143 189 238 294 340
#     4  11  23  38  58  84 114 155 198 238 286 341
#     4  12  24  40  55  82 120 166 197 228 270 337
#     4   9  18  31  53  78 114 144 179 228 275 338
#
# _framework density 18.884281999999999
#
# number of rings (size 3 to 8) (size 9 to 14) (size 15 to 20)
#    0.000    1.333    1.667    6.000    4.667    0.000 
#    0.000    2.500    0.000    0.000    0.000    3.500 
#    0.000    0.000    0.000    0.000    0.000    0.000 
#
# Total GULP energy -267752.533473 kJ/mol
# GULP energy per Si atom -5578.177781 kJ/mol
# Density = 1.884130 g / cm^3
# Si number density = 18.884282 Si / 1000 Ang^3
#
#
#
# Elastic Constant Matrix: (Units=GPa)
#
#
# Indices 1 2 3 4 5 6 
#
# 1 77.5143 7.2851 -1.2719 0.0000 0.0000 0.0000
# 2 7.2851 41.2858 3.1088 0.0000 0.0000 0.0000
# 3 -1.2719 3.1088 72.9783 0.0000 0.0000 0.0000
# 4 0.0000 0.0000 0.0000 18.2082 0.0000 0.0000
# 5 0.0000 0.0000 0.0000 0.0000 20.2971 0.0000
# 6 0.0000 0.0000 0.0000 0.0000 0.0000 16.6830
#
#
#
# Elastic Compliance Matrix: (Units=1/GPa)
#
#
# Indices 1 2 3 4 5 6 
#
# 1 0.013126 -0.002341 0.000328 0.000000 0.000000 0.000000
# 2 -0.002341 0.024717 -0.001094 0.000000 0.000000 0.000000
# 3 0.000328 -0.001094 0.013755 0.000000 0.000000 0.000000
# 4 0.000000 0.000000 0.000000 0.054920 0.000000 0.000000
# 5 0.000000 0.000000 0.000000 0.000000 0.049268 0.000000
# 6 0.000000 0.000000 0.000000 0.000000 0.000000 0.059941
#
#
# Mechanical properties :
#
#
# Convention : Reuss Voigt Hill
#
# Bulk Modulus (GPa) = 22.03331 23.33581 22.68456
# Shear Modulus (GPa) = 21.09094 23.21475 22.15284
#
# Velocity S-wave (km/s) = 3.34556 3.50996 3.42875
# Velocity P-wave (km/s) = 5.15912 5.36755 5.26437
#
# Compressibility (1/GPa) = 0.04538583
#
# Stress axis : x y z
#
# Youngs Moduli (GPa) = 76.18330 40.45827 72.70070
#
# Poissons Ratio (x) = 0.09471 -0.02388
# Poissons Ratio (y) = 0.17834 0.07951
# Poissons Ratio (z) = -0.02503 0.04425
#
# Static dielectric constant tensor:
#      x y z
#    x 1.689970 0.000000 0.000000 
#    y 0.000000 1.659050 0.000000 
#    z 0.000000 0.000000 1.672800 
# 
# From -- ./inp_files/3420.got.cif
#   From: 2010.05.17/outbox.cif.g08.bks.cpg/sg59_2_cif.got.tgz:3420.got - 2010.06.03 14:40:33.
