data_PCOD9451338
_publ_section_title
;
Structure prediction by ZEFSAII (Michael W. Deem and Ramdas Pophale) SiO2 
 PCOD9451338
Probable space group: P M M N
;
_chemical_formula_sum "Si O2"
_cell_formula_units_Z 64
_cell_length_a 29.000292
_cell_length_b 8.823843
_cell_length_c 12.818664
_cell_angle_alpha 90.000000
_cell_angle_beta 90.000000
_cell_angle_gamma 90.000000
_cell_volume 3280.219508
_symmetry_space_group_name_H-M "P M M N"
_symmetry_group_IT_number 59
_space_group.IT_coordinate_system_code '2'
_symmetry_cell_setting 'orthorhombic'
loop_
_space_group_symop_operation_xyz
x,y,z
1/2-x,1/2-y,z
1/2+x,-y,-z
-x,1/2+y,-z
-x,-y,-z
1/2+x,1/2+y,-z
1/2-x,y,z
x,1/2-y,z
loop_
_atom_site_type_symbol
_atom_site_label
_atom_site_fract_x
_atom_site_fract_y
_atom_site_fract_z
Si Si1 0.302114 0.432942 0.998010
Si Si2 0.376198 0.568075 0.841027
Si Si3 0.835287 0.928933 0.776232
Si Si4 0.981497 0.067168 0.108107
Si Si5 0.050224 0.929486 0.488494
Si Si6 0.367984 0.069758 0.616399
Si Si7 0.438356 0.070682 0.267766
Si Si8 0.804986 0.073682 0.558838
O O1 0.250000 0.471657 0.964940
O O2 0.307230 0.250000 0.992200
O O3 0.309359 0.476274 0.119026
O O4 0.340965 0.509479 0.928062
O O5 0.375508 0.750000 0.836230
O O6 0.429036 0.520414 0.866608
O O7 0.361045 0.500578 0.730108
O O8 0.826430 0.750000 0.758604
O O9 0.890250 0.946491 0.793264
O O10 0.820294 0.015351 0.672423
O O11 0.982322 0.250000 0.100955
O O12 0.017487 0.025154 0.199667
O O13 0.000000 0.000000 0.000000
O O14 0.049398 0.750000 0.502790
O O15 0.084307 0.004371 0.571259
O O16 0.066194 0.974949 0.372723
O O17 0.000000 0.000000 0.500000
O O18 0.369773 0.250000 0.622659
O O19 0.329866 0.018975 0.532392
O O20 0.442967 0.250000 0.294949
O O21 0.750000 0.060206 0.550601
O O22 0.818199 0.250000 0.547582
#
# Coordination Sequence:
#
# PCOD9451338 Si02
#       8
#     8   8   8   8   8   8   8   8
#     4  10  22  41  65  93 124 164 214 266 322 384
#     4  11  24  42  64  92 128 169 212 264 322 383
#     4  10  20  37  64  94 126 164 210 264 321 384
#     4  10  22  39  61  90 125 166 212 259 311 372
#     4  12  24  39  61  90 125 165 209 257 310 374
#     4  12  25  43  66  92 124 165 213 265 322 385
#     4  10  20  36  59  89 124 163 206 257 315 375
#     4  11  24  41  63  93 129 168 211 264 324 385
#
# _framework density 19.51089
#
# number of rings (size 3 to 8) (size 9 to 14) (size 15 to 20)
#    0.000    1.250    1.250    4.875    0.000    6.250 
#    0.000    0.000    0.000    0.000    0.000    0.000 
#    0.000    0.000    0.000    0.000    0.000    0.000 
#
# Total GULP energy -357934.767972 kJ/mol
# GULP energy per Si atom -5592.730750 kJ/mol
# Density = 1.946648 g / cm^3
# Si number density = 19.510890 Si / 1000 Ang^3
#
#
#
# Elastic Constant Matrix: (Units=GPa)
#
#
# Indices 1 2 3 4 5 6 
#
# 1 86.6969 43.3796 31.8855 0.0000 0.0000 0.0000
# 2 43.3796 78.7778 42.6343 0.0000 0.0000 0.0000
# 3 31.8855 42.6343 109.9980 0.0000 0.0000 0.0000
# 4 0.0000 0.0000 0.0000 36.7134 0.0000 0.0000
# 5 0.0000 0.0000 0.0000 0.0000 33.0946 0.0000
# 6 0.0000 0.0000 0.0000 0.0000 0.0000 29.8647
#
#
#
# Elastic Compliance Matrix: (Units=1/GPa)
#
#
# Indices 1 2 3 4 5 6 
#
# 1 0.016130 -0.008038 -0.001560 0.000000 0.000000 0.000000
# 2 -0.008038 0.020069 -0.005449 0.000000 0.000000 0.000000
# 3 -0.001560 -0.005449 0.011655 0.000000 0.000000 0.000000
# 4 0.000000 0.000000 0.000000 0.027238 0.000000 0.000000
# 5 0.000000 0.000000 0.000000 0.000000 0.030216 0.000000
# 6 0.000000 0.000000 0.000000 0.000000 0.000000 0.033484
#
#
# Mechanical properties :
#
#
# Convention : Reuss Voigt Hill
#
# Bulk Modulus (GPa) = 56.30382 56.80795 56.55588
# Shear Modulus (GPa) = 28.60315 30.43945 29.52130
#
# Velocity S-wave (km/s) = 3.83300 3.95413 3.89404
# Velocity P-wave (km/s) = 6.96488 7.07291 7.01910
#
# Compressibility (1/GPa) = 0.01776078
#
# Stress axis : x y z
#
# Youngs Moduli (GPa) = 61.99620 49.82892 85.79875
#
# Poissons Ratio (x) = 0.40051 0.13387
# Poissons Ratio (y) = 0.49831 0.46748
# Poissons Ratio (z) = 0.09673 0.27149
#
# Static dielectric constant tensor:
#      x y z
#    x 1.710470 0.000000 0.000000 
#    y 0.000000 1.658920 0.000000 
#    z 0.000000 0.000000 1.659330 
# 
# From -- ./inp_files/19253.got.cif
#   From: 2010.05.17/outbox.cif.g08.bks.cpg/sg59_10_cif.got.tgz:19253.got - 2010.06.03 14:40:33.
