data_PCOD9451562
_publ_section_title
;
Structure prediction by ZEFSAII (Michael W. Deem and Ramdas Pophale) SiO2 
 PCOD9451562
Probable space group: P M M N
;
_chemical_formula_sum "Si O2"
_cell_formula_units_Z 48
_cell_length_a 23.969655
_cell_length_b 13.979221
_cell_length_c 7.492658
_cell_angle_alpha 90.000000
_cell_angle_beta 90.000000
_cell_angle_gamma 90.000000
_cell_volume 2510.618148
_symmetry_space_group_name_H-M "P M M N"
_symmetry_group_IT_number 59
_space_group.IT_coordinate_system_code '2'
_symmetry_cell_setting 'orthorhombic'
loop_
_space_group_symop_operation_xyz
x,y,z
1/2-x,1/2-y,z
1/2+x,-y,-z
-x,1/2+y,-z
-x,-y,-z
1/2+x,1/2+y,-z
1/2-x,y,z
x,1/2-y,z
loop_
_atom_site_type_symbol
_atom_site_label
_atom_site_fract_x
_atom_site_fract_y
_atom_site_fract_z
Si Si1 0.976126 0.639347 0.085279
Si Si2 0.815229 0.533527 0.601157
Si Si3 0.417546 0.863343 0.879202
Si Si4 0.685262 0.361419 0.875207
Si Si5 0.081645 0.017368 0.610894
Si Si6 0.085207 0.141280 0.290290
O O1 0.982255 0.750000 0.139649
O O2 0.940346 0.635546 0.904202
O O3 0.036828 0.602491 0.024348
O O4 0.944894 0.583104 0.238256
O O5 0.750000 0.550781 0.578126
O O6 0.823147 0.435038 0.712551
O O7 0.851554 0.527657 0.420302
O O8 0.849049 0.615327 0.708346
O O9 0.424651 0.750000 0.861216
O O10 0.427304 0.912282 0.688773
O O11 0.357383 0.883844 0.965146
O O12 0.750000 0.369679 0.930511
O O13 0.675391 0.250000 0.823202
O O14 0.060352 0.059448 0.421952
O O15 0.076516 0.250000 0.357701
#
# Coordination Sequence:
#
# PCOD9451562 Si02
#       6
#     8   8   8   8   8   8
#     4  10  20  38  58  81 117 149 186 233 282 341
#     4   9  20  36  56  82 110 145 188 231 273 331
#     4  10  21  36  56  86 115 148 191 233 277 339
#     4   9  18  36  59  82 113 150 185 226 280 334
#     4  10  21  35  58  81 114 147 185 232 287 329
#     4   9  20  37  57  81 112 151 187 229 286 333
#
# _framework density 19.118798000000002
#
# number of rings (size 3 to 8) (size 9 to 14) (size 15 to 20)
#    1.000    1.500    0.000    2.000    0.000    2.333 
#    3.000    0.833    0.000    1.000    0.000    0.000 
#    0.000    0.000    0.000    0.000    0.000    0.000 
#
# Total GULP energy -267277.726802 kJ/mol
# GULP energy per Si atom -5568.285975 kJ/mol
# Density = 1.907528 g / cm^3
# Si number density = 19.118798 Si / 1000 Ang^3
#
#
#
# Elastic Constant Matrix: (Units=GPa)
#
#
# Indices 1 2 3 4 5 6 
#
# 1 84.1788 16.2290 10.4511 0.0000 0.0000 0.0000
# 2 16.2290 45.7479 0.8026 0.0000 0.0000 0.0000
# 3 10.4511 0.8026 18.1028 0.0000 0.0000 0.0000
# 4 0.0000 0.0000 0.0000 25.3155 0.0000 0.0000
# 5 0.0000 0.0000 0.0000 0.0000 27.9676 0.0000
# 6 0.0000 0.0000 0.0000 0.0000 0.0000 14.9490
#
#
#
# Elastic Compliance Matrix: (Units=1/GPa)
#
#
# Indices 1 2 3 4 5 6 
#
# 1 0.013754 -0.004743 -0.007730 0.000000 0.000000 0.000000
# 2 -0.004743 0.023512 0.001696 0.000000 0.000000 0.000000
# 3 -0.007730 0.001696 0.059628 0.000000 0.000000 0.000000
# 4 0.000000 0.000000 0.000000 0.039501 0.000000 0.000000
# 5 0.000000 0.000000 0.000000 0.000000 0.035756 0.000000
# 6 0.000000 0.000000 0.000000 0.000000 0.000000 0.066894
#
#
# Mechanical properties :
#
#
# Convention : Reuss Voigt Hill
#
# Bulk Modulus (GPa) = 13.27345 22.55500 17.91422
# Shear Modulus (GPa) = 17.50015 21.68287 19.59151
#
# Velocity S-wave (km/s) = 3.02874 3.37131 3.20461
# Velocity P-wave (km/s) = 4.38049 5.19396 4.80447
#
# Compressibility (1/GPa) = 0.07533839
#
# Stress axis : x y z
#
# Youngs Moduli (GPa) = 72.70782 42.53159 16.77078
#
# Poissons Ratio (x) = 0.20175 0.12964
# Poissons Ratio (y) = 0.34489 -0.02844
# Poissons Ratio (z) = 0.56203 -0.07214
#
# Static dielectric constant tensor:
#      x y z
#    x 1.702530 0.000000 0.000000 
#    y 0.000000 1.703620 0.000000 
#    z 0.000000 0.000000 1.639380 
# 
# From -- ./inp_files/11272.got.cif
#   From: 2010.05.17/outbox.cif.g08.bks.cpg/sg59_6_cif.got.tgz:11272.got - 2010.06.03 14:40:33.
