data_PCOD9451206
_publ_section_title
;
Structure prediction by ZEFSAII (Michael W. Deem and Ramdas Pophale) SiO2 
 PCOD9451206
Probable space group: P M M N
;
_chemical_formula_sum "Si O2"
_cell_formula_units_Z 48
_cell_length_a 7.955386
_cell_length_b 16.604374
_cell_length_c 18.641231
_cell_angle_alpha 90.000000
_cell_angle_beta 90.000000
_cell_angle_gamma 90.000000
_cell_volume 2462.398579
_symmetry_space_group_name_H-M "P M M N"
_symmetry_group_IT_number 59
_space_group.IT_coordinate_system_code '2'
_symmetry_cell_setting 'orthorhombic'
loop_
_space_group_symop_operation_xyz
x,y,z
1/2-x,1/2-y,z
1/2+x,-y,-z
-x,1/2+y,-z
-x,-y,-z
1/2+x,1/2+y,-z
1/2-x,y,z
x,1/2-y,z
loop_
_atom_site_type_symbol
_atom_site_label
_atom_site_fract_x
_atom_site_fract_y
_atom_site_fract_z
Si Si1 0.047192 0.750000 0.454267
Si Si2 0.046931 0.586419 0.533668
Si Si3 0.953178 0.426175 0.303008
Si Si4 0.450385 0.494022 0.082393
Si Si5 0.453510 0.250000 0.712590
Si Si6 0.548391 0.915346 0.218799
Si Si7 0.451918 0.337682 0.164901
O O1 0.250000 0.750000 0.459872
O O2 0.987038 0.666532 0.491494
O O3 0.000079 0.750000 0.370836
O O4 0.250000 0.590046 0.534001
O O5 0.987547 0.587072 0.616200
O O6 0.000000 0.500000 0.500000
O O7 0.750000 0.428353 0.304331
O O8 0.014025 0.510530 0.268235
O O9 0.007269 0.358148 0.247115
O O10 0.250000 0.492140 0.086208
O O11 0.508167 0.564146 0.136417
O O12 0.518695 0.411058 0.117057
O O13 0.500000 0.500000 0.000000
O O14 0.250000 0.250000 0.716898
O O15 0.515936 0.330621 0.751819
O O16 0.750000 0.914648 0.225502
O O17 0.250000 0.336856 0.157320
O O18 0.517608 0.250000 0.144709
#
# Coordination Sequence:
#
# PCOD9451206 Si02
#       7
#     4   8   8   8   4   8   8
#     4  10  22  36  52  78 113 148 183 230 285 330
#     4  10  21  36  53  77 109 145 184 228 279 328
#     4   9  18  32  53  76 103 138 177 218 263 317
#     4  10  20  36  57  79 109 141 171 211 259 314
#     4  10  20  36  58  80 105 140 187 230 265 318
#     4   9  18  34  55  80 105 137 179 221 265 313
#     4   9  19  35  54  78 104 134 172 212 258 308
#
# _framework density 19.493188
#
# number of rings (size 3 to 8) (size 9 to 14) (size 15 to 20)
#    0.000    2.500    0.000    1.500    1.167    4.333 
#    1.500    3.333    0.000    0.000    0.000    0.000 
#    0.000    0.000    0.000    0.000    0.000    0.000 
#
# Total GULP energy -267796.030445 kJ/mol
# GULP energy per Si atom -5579.083968 kJ/mol
# Density = 1.944882 g / cm^3
# Si number density = 19.493188 Si / 1000 Ang^3
#
#
#
# Elastic Constant Matrix: (Units=GPa)
#
#
# Indices 1 2 3 4 5 6 
#
# 1 12.8885 8.0780 -3.5188 0.0000 0.0000 0.0000
# 2 8.0780 147.7492 85.2142 0.0000 0.0000 0.0000
# 3 -3.5188 85.2142 168.2165 0.0000 0.0000 0.0000
# 4 0.0000 0.0000 0.0000 16.2188 0.0000 0.0000
# 5 0.0000 0.0000 0.0000 0.0000 27.0937 0.0000
# 6 0.0000 0.0000 0.0000 0.0000 0.0000 17.8385
#
#
#
# Elastic Compliance Matrix: (Units=1/GPa)
#
#
# Indices 1 2 3 4 5 6 
#
# 1 0.084138 -0.007933 0.005779 0.000000 0.000000 0.000000
# 2 -0.007933 0.010310 -0.005389 0.000000 0.000000 0.000000
# 3 0.005779 -0.005389 0.008795 0.000000 0.000000 0.000000
# 4 0.000000 0.000000 0.000000 0.061657 0.000000 0.000000
# 5 0.000000 0.000000 0.000000 0.000000 0.036909 0.000000
# 6 0.000000 0.000000 0.000000 0.000000 0.000000 0.056059
#
#
# Mechanical properties :
#
#
# Convention : Reuss Voigt Hill
#
# Bulk Modulus (GPa) = 11.34333 56.48903 33.91618
# Shear Modulus (GPa) = 16.53769 28.16891 22.35330
#
# Velocity S-wave (km/s) = 2.91586 3.80552 3.39000
# Velocity P-wave (km/s) = 4.14344 6.95350 5.72360
#
# Compressibility (1/GPa) = 0.08815752
#
# Stress axis : x y z
#
# Youngs Moduli (GPa) = 11.88519 96.99450 113.69634
#
# Poissons Ratio (x) = 0.76946 -0.65702
# Poissons Ratio (y) = 0.09429 0.61267
# Poissons Ratio (z) = -0.06868 0.52267
#
# Static dielectric constant tensor:
#      x y z
#    x 1.695490 0.000000 0.000000 
#    y 0.000000 1.705400 0.000000 
#    z 0.000000 0.000000 1.669420 
# 
# From -- ./inp_files/20527.got.cif
#   From: 2010.05.17/outbox.cif.g08.bks.cpg/sg59_11_cif.got.tgz:20527.got - 2010.06.03 14:40:33.
