data_PCOD9451628
_publ_section_title
;
Structure prediction by ZEFSAII (Michael W. Deem and Ramdas Pophale) SiO2 
 PCOD9451628
Probable space group: P M M N
;
_chemical_formula_sum "Si O2"
_cell_formula_units_Z 44
_cell_length_a 15.118807
_cell_length_b 13.820490
_cell_length_c 9.608513
_cell_angle_alpha 90.000000
_cell_angle_beta 90.000000
_cell_angle_gamma 90.000000
_cell_volume 2007.692267
_symmetry_space_group_name_H-M "P M M N"
_symmetry_group_IT_number 59
_space_group.IT_coordinate_system_code '2'
_symmetry_cell_setting 'orthorhombic'
loop_
_space_group_symop_operation_xyz
x,y,z
1/2-x,1/2-y,z
1/2+x,-y,-z
-x,1/2+y,-z
-x,-y,-z
1/2+x,1/2+y,-z
1/2-x,y,z
x,1/2-y,z
loop_
_atom_site_type_symbol
_atom_site_label
_atom_site_fract_x
_atom_site_fract_y
_atom_site_fract_z
Si Si1 0.849496 0.640625 0.464399
Si Si2 0.498419 0.920586 0.318269
Si Si3 0.586667 0.941449 0.048285
Si Si4 0.649509 0.575480 0.764511
Si Si5 0.750000 0.250000 0.331431
Si Si6 0.250000 0.587875 0.908775
Si Si7 0.250000 0.750000 0.153072
Si Si8 0.115956 0.750000 0.413512
O O1 0.750000 0.615978 0.419925
O O2 0.869351 0.750000 0.415028
O O3 0.851299 0.643256 0.631331
O O4 0.917079 0.558152 0.414768
O O5 0.549776 0.883696 0.179989
O O6 0.444941 0.842803 0.404597
O O7 0.426308 0.997616 0.270155
O O8 0.663292 0.018948 0.088034
O O9 0.624654 0.884238 0.915853
O O10 0.500000 0.000000 0.000000
O O11 0.750000 0.534651 0.771894
O O12 0.750000 0.342247 0.226871
O O13 0.669984 0.250000 0.443107
O O14 0.250000 0.658202 0.046623
O O15 0.170189 0.750000 0.266046
#
# Coordination Sequence:
#
# PCOD9451628 Si02
#       8
#     8   8   8   8   2   4   2   4
#     4  10  22  41  59  86 126 169 216 264 317 375
#     4  11  23  41  63  93 129 168 213 266 319 387
#     4  10  22  39  64  93 126 166 216 260 315 382
#     4  10  21  39  67  93 122 165 210 267 319 388
#     4  10  28  42  68 100 136 172 204 276 336 398
#     4  11  22  44  66  99 138 166 216 267 330 378
#     4  10  20  38  68  92 130 174 198 274 324 390
#     4  11  24  42  63  96 131 171 220 257 329 388
#
# _framework density 21.915709
#
# number of rings (size 3 to 8) (size 9 to 14) (size 15 to 20)
#    0.000    1.636    1.818    2.727    3.818    4.364 
#    1.636    0.000    0.000    0.000    0.000    0.000 
#    0.000    0.000    0.000    0.000    0.000    0.000 
#
# Total GULP energy -245144.304030 kJ/mol
# GULP energy per Si atom -5571.461455 kJ/mol
# Density = 2.186583 g / cm^3
# Si number density = 21.915709 Si / 1000 Ang^3
#
#
#
# Elastic Constant Matrix: (Units=GPa)
#
#
# Indices 1 2 3 4 5 6 
#
# 1 169.7130 36.3769 45.2502 0.0000 0.0000 0.0000
# 2 36.3769 36.6386 4.1267 0.0000 0.0000 0.0000
# 3 45.2502 4.1267 124.9480 0.0000 0.0000 0.0000
# 4 0.0000 0.0000 0.0000 26.7641 0.0000 0.0000
# 5 0.0000 0.0000 0.0000 0.0000 37.7085 0.0000
# 6 0.0000 0.0000 0.0000 0.0000 0.0000 -2.8045
#
#
#
# Elastic Compliance Matrix: (Units=1/GPa)
#
#
# Indices 1 2 3 4 5 6 
#
# 1 0.008334 -0.007964 -0.002755 0.000000 0.000000 0.000000
# 2 -0.007964 0.035006 0.001728 0.000000 0.000000 0.000000
# 3 -0.002755 0.001728 0.008944 0.000000 0.000000 0.000000
# 4 0.000000 0.000000 0.000000 0.037363 0.000000 0.000000
# 5 0.000000 0.000000 0.000000 0.000000 0.026519 0.000000
# 6 0.000000 0.000000 0.000000 0.000000 0.000000 -0.356568
#
#
# Mechanical properties :
#
#
# Convention : Reuss Voigt Hill
#
# Bulk Modulus (GPa) = 29.15298 55.86747 42.51023
# Shear Modulus (GPa) = -23.69838 28.70334 2.50248
#
# Velocity S-wave (km/s) = -3.29194 3.62293 1.06974
# Velocity P-wave (km/s) = 1.05735 6.56111 4.57876
#
# Compressibility (1/GPa) = 0.03430181
#
# Stress axis : x y z
#
# Youngs Moduli (GPa) = 119.99113 28.56639 111.80643
#
# Poissons Ratio (x) = 0.22751 0.30804
# Poissons Ratio (y) = 0.95562 -0.19321
# Poissons Ratio (z) = 0.33059 -0.04936
#
# Static dielectric constant tensor:
#      x y z
#    x 1.797220 0.000000 0.000000 
#    y 0.000000 1.790790 0.000000 
#    z 0.000000 0.000000 1.890780 
# 
# From -- ./inp_files/8958.got.cif
#   From: 2010.05.17/outbox.cif.g08.bks.cpg/sg59_5_cif.got.tgz:8958.got - 2010.06.03 14:40:33.
