data_PCOD9451261
_publ_section_title
;
Structure prediction by ZEFSAII (Michael W. Deem and Ramdas Pophale) SiO2 
 PCOD9451261
Probable space group: P M M N
;
_chemical_formula_sum "Si O2"
_cell_formula_units_Z 40
_cell_length_a 14.200985
_cell_length_b 14.480080
_cell_length_c 9.407349
_cell_angle_alpha 90.000000
_cell_angle_beta 90.000000
_cell_angle_gamma 90.000000
_cell_volume 1934.446335
_symmetry_space_group_name_H-M "P M M N"
_symmetry_group_IT_number 59
_space_group.IT_coordinate_system_code '2'
_symmetry_cell_setting 'orthorhombic'
loop_
_space_group_symop_operation_xyz
x,y,z
1/2-x,1/2-y,z
1/2+x,-y,-z
-x,1/2+y,-z
-x,-y,-z
1/2+x,1/2+y,-z
1/2-x,y,z
x,1/2-y,z
loop_
_atom_site_type_symbol
_atom_site_label
_atom_site_fract_x
_atom_site_fract_y
_atom_site_fract_z
Si Si1 0.143467 0.947215 0.779079
Si Si2 0.428711 0.351417 0.717368
Si Si3 0.855812 0.639476 0.838079
Si Si4 0.459433 0.857148 0.021911
Si Si5 0.477314 0.406537 0.417540
O O1 0.250000 0.919573 0.753562
O O2 0.111792 0.922737 0.939374
O O3 0.069460 0.891192 0.679913
O O4 0.131823 0.056551 0.745798
O O5 0.391356 0.250000 0.765148
O O6 0.451049 0.344609 0.551188
O O7 0.523263 0.368883 0.810706
O O8 0.750000 0.612265 0.879497
O O9 0.855722 0.750000 0.810425
O O10 0.937025 0.624756 0.954331
O O11 0.891835 0.591633 0.693912
O O12 0.434684 0.750000 0.994487
O O13 0.500000 0.500000 0.500000
#
# Coordination Sequence:
#
# PCOD9451261 Si02
#       5
#     8   8   8   8   8
#     4  10  21  37  57  82 113 150 188 223 269 335
#     4  10  20  36  58  82 111 144 181 234 289 325
#     4   9  17  31  52  76 102 135 175 217 265 323
#     4   9  19  36  57  82 113 148 186 227 271 324
#     4   9  19  34  50  73 106 141 179 222 269 324
#
# _framework density 20.677752000000002
#
# number of rings (size 3 to 8) (size 9 to 14) (size 15 to 20)
#    0.000    2.600    0.000    1.200    0.000    5.600 
#    0.000    3.000    0.000    1.200    0.000    0.000 
#    0.000    0.000    0.000    0.000    0.000    0.000 
#
# Total GULP energy -222906.791752 kJ/mol
# GULP energy per Si atom -5572.669794 kJ/mol
# Density = 2.063069 g / cm^3
# Si number density = 20.677752 Si / 1000 Ang^3
#
#
#
# Elastic Constant Matrix: (Units=GPa)
#
#
# Indices 1 2 3 4 5 6 
#
# 1 82.5586 0.9849 -15.2242 0.0000 0.0000 0.0000
# 2 0.9849 61.0765 -5.3490 0.0000 0.0000 0.0000
# 3 -15.2242 -5.3490 48.4298 0.0000 0.0000 0.0000
# 4 0.0000 0.0000 0.0000 27.0894 0.0000 0.0000
# 5 0.0000 0.0000 0.0000 0.0000 5.0464 0.0000
# 6 0.0000 0.0000 0.0000 0.0000 0.0000 14.7644
#
#
#
# Elastic Compliance Matrix: (Units=1/GPa)
#
#
# Indices 1 2 3 4 5 6 
#
# 1 0.012859 0.000148 0.004059 0.000000 0.000000 0.000000
# 2 0.000148 0.016535 0.001873 0.000000 0.000000 0.000000
# 3 0.004059 0.001873 0.022131 0.000000 0.000000 0.000000
# 4 0.000000 0.000000 0.000000 0.036915 0.000000 0.000000
# 5 0.000000 0.000000 0.000000 0.000000 0.198160 0.000000
# 6 0.000000 0.000000 0.000000 0.000000 0.000000 0.067730
#
#
# Mechanical properties :
#
#
# Convention : Reuss Voigt Hill
#
# Bulk Modulus (GPa) = 15.70247 16.98758 16.34503
# Shear Modulus (GPa) = 13.75898 23.49026 18.62462
#
# Velocity S-wave (km/s) = 2.58233 3.37414 3.00444
# Velocity P-wave (km/s) = 4.06222 4.83870 4.46736
#
# Compressibility (1/GPa) = 0.06368426
#
# Stress axis : x y z
#
# Youngs Moduli (GPa) = 77.76475 60.47943 45.18510
#
# Poissons Ratio (x) = -0.00896 -0.18340
# Poissons Ratio (y) = -0.01152 -0.08462
# Poissons Ratio (z) = -0.31563 -0.11326
#
# Static dielectric constant tensor:
#      x y z
#    x 1.709190 0.000000 0.000000 
#    y 0.000000 1.827440 0.000000 
#    z 0.000000 0.000000 1.798660 
# 
# From -- ./inp_files/8589.got.cif
#   From: 2010.05.17/outbox.cif.g08.bks.cpg/sg59_5_cif.got.tgz:8589.got - 2010.06.03 14:40:33.
