data_PCOD9451144
_publ_section_title
;
Structure prediction by ZEFSAII (Michael W. Deem and Ramdas Pophale) SiO2 
 PCOD9451144
Probable space group: P M M N
;
_chemical_formula_sum "Si O2"
_cell_formula_units_Z 48
_cell_length_a 18.472572
_cell_length_b 7.667736
_cell_length_c 17.798068
_cell_angle_alpha 90.000000
_cell_angle_beta 90.000000
_cell_angle_gamma 90.000000
_cell_volume 2520.968281
_symmetry_space_group_name_H-M "P M M N"
_symmetry_group_IT_number 59
_space_group.IT_coordinate_system_code '2'
_symmetry_cell_setting 'orthorhombic'
loop_
_space_group_symop_operation_xyz
x,y,z
1/2-x,1/2-y,z
1/2+x,-y,-z
-x,1/2+y,-z
-x,-y,-z
1/2+x,1/2+y,-z
1/2-x,y,z
x,1/2-y,z
loop_
_atom_site_type_symbol
_atom_site_label
_atom_site_fract_x
_atom_site_fract_y
_atom_site_fract_z
Si Si1 0.167409 0.541306 0.908191
Si Si2 0.421090 0.960648 0.764306
Si Si3 0.667428 0.541065 0.925149
Si Si4 0.834926 0.551679 0.384699
Si Si5 0.837090 0.250000 0.669811
Si Si6 0.909253 0.539228 0.771295
Si Si7 0.662223 0.250000 0.497352
O O1 0.250000 0.472649 0.903481
O O2 0.171181 0.750000 0.900457
O O3 0.118268 0.475908 0.840195
O O4 0.139434 0.505874 0.992141
O O5 0.415170 0.750000 0.762233
O O6 0.505836 0.001655 0.765029
O O7 0.380572 0.029411 0.690895
O O8 0.750000 0.472303 0.918460
O O9 0.671223 0.750000 0.922571
O O10 0.619874 0.488671 0.854070
O O11 0.750000 0.514401 0.367502
O O12 0.839926 0.750000 0.411434
O O13 0.859508 0.418038 0.448757
O O14 0.750000 0.250000 0.672279
O O15 0.866388 0.421936 0.711836
O O16 0.862444 0.250000 0.583137
O O17 0.899223 0.750000 0.761436
O O18 0.750000 0.250000 0.500319
#
# Coordination Sequence:
#
# PCOD9451144 Si02
#       7
#     8   8   8   8   4   8   4
#     4   9  18  31  52  83 114 152 201 243 281 335
#     4  10  20  36  57  81 123 162 193 239 289 345
#     4   9  18  34  53  76 111 151 195 247 292 334
#     4  10  20  35  61  90 117 155 195 234 288 346
#     4  11  24  42  68  91 110 148 195 241 296 350
#     4  10  23  40  59  86 120 155 195 242 292 348
#     4   9  20  40  62  89 119 144 189 245 287 344
#
# _framework density 19.040302000000001
#
# number of rings (size 3 to 8) (size 9 to 14) (size 15 to 20)
#    0.000    2.333    0.833    1.000    2.333    3.667 
#    0.000    4.167    0.000    0.000    0.000    0.000 
#    0.000    0.000    0.000    0.000    0.000    0.000 
#
# Total GULP energy -267891.018438 kJ/mol
# GULP energy per Si atom -5581.062884 kJ/mol
# Density = 1.899697 g / cm^3
# Si number density = 19.040302 Si / 1000 Ang^3
#
#
#
# Elastic Constant Matrix: (Units=GPa)
#
#
# Indices 1 2 3 4 5 6 
#
# 1 80.0924 46.1225 75.7847 0.0000 0.0000 0.0000
# 2 46.1225 67.9944 61.1226 0.0000 0.0000 0.0000
# 3 75.7847 61.1226 190.5662 0.0000 0.0000 0.0000
# 4 0.0000 0.0000 0.0000 -8.3187 0.0000 0.0000
# 5 0.0000 0.0000 0.0000 0.0000 -14.3620 0.0000
# 6 0.0000 0.0000 0.0000 0.0000 0.0000 21.0865
#
#
#
# Elastic Compliance Matrix: (Units=1/GPa)
#
#
# Indices 1 2 3 4 5 6 
#
# 1 0.024926 -0.011237 -0.006308 0.000000 0.000000 0.000000
# 2 -0.011237 0.025731 -0.003784 0.000000 0.000000 0.000000
# 3 -0.006308 -0.003784 0.008970 0.000000 0.000000 0.000000
# 4 0.000000 0.000000 0.000000 -0.120212 0.000000 0.000000
# 5 0.000000 0.000000 0.000000 0.000000 -0.069628 0.000000
# 6 0.000000 0.000000 0.000000 0.000000 0.000000 0.047424
#
#
# Mechanical properties :
#
#
# Convention : Reuss Voigt Hill
#
# Bulk Modulus (GPa) = 58.93562 78.30141 68.61852
# Shear Modulus (GPa) = -145.03631 10.05605 -67.49013
#
# Velocity S-wave (km/s) = -8.73720 2.30063 -5.96011
# Velocity P-wave (km/s) = 8.41217 6.94770 3.35366
#
# Compressibility (1/GPa) = 0.01696767
#
# Stress axis : x y z
#
# Youngs Moduli (GPa) = 40.11947 38.86303 111.48251
#
# Poissons Ratio (x) = 0.43670 0.70326
# Poissons Ratio (y) = 0.45082 0.42189
# Poissons Ratio (z) = 0.25308 0.14707
#
# Static dielectric constant tensor:
#      x y z
#    x 1.647550 0.000000 0.000000 
#    y 0.000000 1.686420 0.000000 
#    z 0.000000 0.000000 1.634490 
# 
# From -- ./inp_files/20591.got.cif
#   From: 2010.05.17/outbox.cif.g08.bks.cpg/sg59_11_cif.got.tgz:20591.got - 2010.06.03 14:40:33.
