data_PCOD9451485
_publ_section_title
;
Structure prediction by ZEFSAII (Michael W. Deem and Ramdas Pophale) SiO2 
 PCOD9451485
Probable space group: P M M N
;
_chemical_formula_sum "Si O2"
_cell_formula_units_Z 36
_cell_length_a 14.464587
_cell_length_b 15.716716
_cell_length_c 8.663342
_cell_angle_alpha 90.000000
_cell_angle_beta 90.000000
_cell_angle_gamma 90.000000
_cell_volume 1969.487836
_symmetry_space_group_name_H-M "P M M N"
_symmetry_group_IT_number 59
_space_group.IT_coordinate_system_code '2'
_symmetry_cell_setting 'orthorhombic'
loop_
_space_group_symop_operation_xyz
x,y,z
1/2-x,1/2-y,z
1/2+x,-y,-z
-x,1/2+y,-z
-x,-y,-z
1/2+x,1/2+y,-z
1/2-x,y,z
x,1/2-y,z
loop_
_atom_site_type_symbol
_atom_site_label
_atom_site_fract_x
_atom_site_fract_y
_atom_site_fract_z
Si Si1 0.750000 0.564500 0.209898
Si Si2 0.750000 0.064921 0.500721
Si Si3 0.750000 0.750000 0.129920
Si Si4 0.956678 0.250000 0.369319
Si Si5 0.250000 0.750000 0.657771
Si Si6 0.952574 0.080525 0.580125
Si Si7 0.546260 0.576347 0.090201
Si Si8 0.564244 0.750000 0.930428
O O1 0.750000 0.502842 0.358697
O O2 0.750000 0.666615 0.237098
O O3 0.654705 0.553678 0.115433
O O4 0.750000 0.161296 0.435011
O O5 0.844360 0.057550 0.595290
O O6 0.664727 0.750000 0.011277
O O7 0.856559 0.250000 0.277912
O O8 0.960151 0.165529 0.475608
O O9 0.041772 0.250000 0.250430
O O10 0.002621 0.091474 0.742259
O O11 0.000000 0.000000 0.500000
O O12 0.500000 0.500000 0.000000
O O13 0.526223 0.661607 0.994872
#
# Coordination Sequence:
#
# PCOD9451485 Si02
#       8
#     4   4   2   4   2   8   8   4
#     4  10  20  39  60  83 121 160 195 240 301 353
#     4  10  20  37  60  86 119 153 201 247 290 345
#     4   8  20  38  58  82 120 156 196 240 298 350
#     4  10  21  39  61  86 115 155 203 243 292 353
#     4   8  20  34  58  80 114 154 188 240 294 348
#     4  11  21  38  60  87 116 154 200 244 289 352
#     4  11  23  39  61  88 121 159 195 245 300 354
#     4  10  21  39  59  84 116 157 196 245 297 356
#
# _framework density 18.278865
#
# number of rings (size 3 to 8) (size 9 to 14) (size 15 to 20)
#    0.000    1.778    2.222    2.000    3.111    0.889 
#    0.000    5.556    0.000    0.000    0.000    0.000 
#    0.000    0.000    0.000    0.000    0.000    0.000 
#
# Total GULP energy -200480.348623 kJ/mol
# GULP energy per Si atom -5568.898573 kJ/mol
# Density = 1.823726 g / cm^3
# Si number density = 18.278865 Si / 1000 Ang^3
#
#
#
# Elastic Constant Matrix: (Units=GPa)
#
#
# Indices 1 2 3 4 5 6 
#
# 1 98.3736 48.2676 26.2305 0.0000 0.0000 0.0000
# 2 48.2676 146.9825 45.8018 0.0000 0.0000 0.0000
# 3 26.2305 45.8018 78.6780 0.0000 0.0000 0.0000
# 4 0.0000 0.0000 0.0000 18.6449 0.0000 0.0000
# 5 0.0000 0.0000 0.0000 0.0000 9.4053 0.0000
# 6 0.0000 0.0000 0.0000 0.0000 0.0000 28.9864
#
#
#
# Elastic Compliance Matrix: (Units=1/GPa)
#
#
# Indices 1 2 3 4 5 6 
#
# 1 0.012410 -0.003404 -0.002156 0.000000 0.000000 0.000000
# 2 -0.003404 0.009245 -0.004247 0.000000 0.000000 0.000000
# 3 -0.002156 -0.004247 0.015901 0.000000 0.000000 0.000000
# 4 0.000000 0.000000 0.000000 0.053634 0.000000 0.000000
# 5 0.000000 0.000000 0.000000 0.000000 0.106323 0.000000
# 6 0.000000 0.000000 0.000000 0.000000 0.000000 0.034499
#
#
# Mechanical properties :
#
#
# Convention : Reuss Voigt Hill
#
# Bulk Modulus (GPa) = 55.73265 62.73709 59.23487
# Shear Modulus (GPa) = 19.40951 24.98960 22.19956
#
# Velocity S-wave (km/s) = 3.26215 3.70148 3.48874
# Velocity P-wave (km/s) = 6.68919 7.25704 6.97889
#
# Compressibility (1/GPa) = 0.01794281
#
# Stress axis : x y z
#
# Youngs Moduli (GPa) = 80.57892 108.17090 62.88831
#
# Poissons Ratio (x) = 0.36816 0.13559
# Poissons Ratio (y) = 0.27425 0.26709
# Poissons Ratio (z) = 0.17374 0.45940
#
# Static dielectric constant tensor:
#      x y z
#    x 1.680800 0.000000 0.000000 
#    y 0.000000 1.614960 0.000000 
#    z 0.000000 0.000000 1.599370 
# 
# From -- ./inp_files/8571.got.cif
#   From: 2010.05.17/outbox.cif.g08.bks.cpg/sg59_5_cif.got.tgz:8571.got - 2010.06.03 14:40:33.
