data_PCOD9451018
_publ_section_title
;
Structure prediction by ZEFSAII (Michael W. Deem and Ramdas Pophale) SiO2 
 PCOD9451018
Probable space group: P M M N
;
_chemical_formula_sum "Si O2"
_cell_formula_units_Z 56
_cell_length_a 14.317372
_cell_length_b 8.786705
_cell_length_c 22.582239
_cell_angle_alpha 90.000000
_cell_angle_beta 90.000000
_cell_angle_gamma 90.000000
_cell_volume 2840.902667
_symmetry_space_group_name_H-M "P M M N"
_symmetry_group_IT_number 59
_space_group.IT_coordinate_system_code '2'
_symmetry_cell_setting 'orthorhombic'
loop_
_space_group_symop_operation_xyz
x,y,z
1/2-x,1/2-y,z
1/2+x,-y,-z
-x,1/2+y,-z
-x,-y,-z
1/2+x,1/2+y,-z
1/2-x,y,z
x,1/2-y,z
loop_
_atom_site_type_symbol
_atom_site_label
_atom_site_fract_x
_atom_site_fract_y
_atom_site_fract_z
Si Si1 0.441723 0.570449 0.285714
Si Si2 0.953153 0.433747 0.586581
Si Si3 0.143679 0.921866 0.870738
Si Si4 0.850704 0.572872 0.254732
Si Si5 0.515913 0.426081 0.936192
Si Si6 0.641469 0.568231 0.834224
Si Si7 0.857141 0.433647 0.463252
O O1 0.420523 0.750000 0.278737
O O2 0.409645 0.516644 0.350438
O O3 0.554027 0.552547 0.289338
O O4 0.405309 0.489511 0.226754
O O5 0.961329 0.250000 0.588951
O O6 0.057042 0.499117 0.574759
O O7 0.887488 0.472391 0.530861
O O8 0.250000 0.926697 0.892153
O O9 0.107007 0.750000 0.879885
O O10 0.144827 0.962808 0.801599
O O11 0.080983 0.045366 0.902317
O O12 0.750000 0.548448 0.285107
O O13 0.851602 0.750000 0.234249
O O14 0.538331 0.250000 0.943113
O O15 0.591087 0.501917 0.892307
O O16 0.500000 0.500000 0.000000
O O17 0.750000 0.523730 0.833821
O O18 0.634479 0.750000 0.836041
O O19 0.750000 0.483510 0.450831
O O20 0.859139 0.250000 0.457565
#
# Coordination Sequence:
#
# PCOD9451018 Si02
#       7
#     8   8   8   8   8   8   8
#     4  10  20  35  58  87 118 155 195 241 295 352
#     4   9  19  34  54  83 115 149 195 245 294 348
#     4  10  20  35  57  85 115 147 184 227 279 340
#     4   9  17  30  50  78 111 146 183 226 281 344
#     4  12  25  42  65  90 118 154 195 242 293 345
#     4  11  25  44  64  88 121 159 198 243 293 346
#     4   9  18  34  54  77 111 155 199 245 296 347
#
# _framework density 19.712043000000001
#
# number of rings (size 3 to 8) (size 9 to 14) (size 15 to 20)
#    0.000    2.000    1.429    2.143    0.000    4.571 
#    0.000    2.857    0.000    1.714    0.000    0.000 
#    0.000    0.000    0.000    0.000    0.000    0.000 
#
# Total GULP energy -312315.095726 kJ/mol
# GULP energy per Si atom -5577.055281 kJ/mol
# Density = 1.966718 g / cm^3
# Si number density = 19.712043 Si / 1000 Ang^3
#
#
#
# Elastic Constant Matrix: (Units=GPa)
#
#
# Indices 1 2 3 4 5 6 
#
# 1 78.8553 22.4434 31.1120 0.0000 0.0000 0.0000
# 2 22.4434 43.1102 35.4762 0.0000 0.0000 0.0000
# 3 31.1120 35.4762 119.9197 0.0000 0.0000 0.0000
# 4 0.0000 0.0000 0.0000 21.9267 0.0000 0.0000
# 5 0.0000 0.0000 0.0000 0.0000 1.2056 0.0000
# 6 0.0000 0.0000 0.0000 0.0000 0.0000 23.2518
#
#
#
# Elastic Compliance Matrix: (Units=1/GPa)
#
#
# Indices 1 2 3 4 5 6 
#
# 1 0.015288 -0.006206 -0.002130 0.000000 0.000000 0.000000
# 2 -0.006206 0.033180 -0.008206 0.000000 0.000000 0.000000
# 3 -0.002130 -0.008206 0.011319 0.000000 0.000000 0.000000
# 4 0.000000 0.000000 0.000000 0.045607 0.000000 0.000000
# 5 0.000000 0.000000 0.000000 0.000000 0.829439 0.000000
# 6 0.000000 0.000000 0.000000 0.000000 0.000000 0.043007
#
#
# Mechanical properties :
#
#
# Convention : Reuss Voigt Hill
#
# Bulk Modulus (GPa) = 37.44880 46.66094 42.05487
# Shear Modulus (GPa) = 4.90280 19.46708 12.18494
#
# Velocity S-wave (km/s) = 1.57880 3.14598 2.48895
# Velocity P-wave (km/s) = 4.72892 6.07609 5.44433
#
# Compressibility (1/GPa) = 0.02670313
#
# Stress axis : x y z
#
# Youngs Moduli (GPa) = 65.40936 30.13891 88.34609
#
# Poissons Ratio (x) = 0.18704 0.18822
# Poissons Ratio (y) = 0.40593 0.72493
# Poissons Ratio (z) = 0.13935 0.24731
#
# Static dielectric constant tensor:
#      x y z
#    x 1.710600 0.000000 0.000000 
#    y 0.000000 1.677160 0.000000 
#    z 0.000000 0.000000 1.736050 
# 
# From -- ./inp_files/30350.got.cif
#   From: 2010.05.17/outbox.cif.g08.bks.cpg/sg59_16_cif.got.tgz:30350.got - 2010.06.03 14:40:33.
