data_PCOD9451281
_publ_section_title
;
Structure prediction by ZEFSAII (Michael W. Deem and Ramdas Pophale) SiO2 
 PCOD9451281
Probable space group: P M M N
;
_chemical_formula_sum "Si O2"
_cell_formula_units_Z 40
_cell_length_a 14.157366
_cell_length_b 16.062501
_cell_length_c 8.946955
_cell_angle_alpha 90.000000
_cell_angle_beta 90.000000
_cell_angle_gamma 90.000000
_cell_volume 2034.561773
_symmetry_space_group_name_H-M "P M M N"
_symmetry_group_IT_number 59
_space_group.IT_coordinate_system_code '2'
_symmetry_cell_setting 'orthorhombic'
loop_
_space_group_symop_operation_xyz
x,y,z
1/2-x,1/2-y,z
1/2+x,-y,-z
-x,1/2+y,-z
-x,-y,-z
1/2+x,1/2+y,-z
1/2-x,y,z
x,1/2-y,z
loop_
_atom_site_type_symbol
_atom_site_label
_atom_site_fract_x
_atom_site_fract_y
_atom_site_fract_z
Si Si1 0.390952 0.843501 0.612471
Si Si2 0.861401 0.069795 0.072946
Si Si3 0.149812 0.994772 0.394654
Si Si4 0.088893 0.159238 0.543586
Si Si5 0.004049 0.426711 0.818459
O O1 0.354837 0.750000 0.587240
O O2 0.371488 0.873816 0.779528
O O3 0.353030 0.914071 0.500811
O O4 0.501557 0.839827 0.571984
O O5 0.750000 0.062970 0.037680
O O6 0.928999 0.104189 0.941289
O O7 0.911109 0.980830 0.111233
O O8 0.250000 0.995750 0.311528
O O9 0.059773 0.986817 0.287324
O O10 0.144319 0.076926 0.496014
O O11 0.135269 0.250000 0.538095
O O12 0.046044 0.142211 0.707912
#
# Coordination Sequence:
#
# PCOD9451281 Si02
#       5
#     8   8   8   8   8
#     4  10  20  36  58  84 116 149 187 237 288 339
#     4  11  21  35  58  84 113 150 191 235 286 343
#     4  11  20  36  59  86 118 152 190 233 284 341
#     4  10  20  37  58  82 114 153 192 236 284 331
#     4  10  21  38  55  83 117 150 189 233 290 340
#
# _framework density 19.660252
#
# number of rings (size 3 to 8) (size 9 to 14) (size 15 to 20)
#    0.000    1.600    4.000    2.400    0.000    2.800 
#    0.000    0.000    0.000    3.600    0.000    0.000 
#    0.000    0.000    0.000    0.000    0.000    0.000 
#
# Total GULP energy -223039.362333 kJ/mol
# GULP energy per Si atom -5575.984058 kJ/mol
# Density = 1.961550 g / cm^3
# Si number density = 19.660252 Si / 1000 Ang^3
#
#
#
# Elastic Constant Matrix: (Units=GPa)
#
#
# Indices 1 2 3 4 5 6 
#
# 1 101.8151 27.6862 15.9537 0.0000 0.0000 0.0000
# 2 27.6862 98.3759 2.3115 0.0000 0.0000 0.0000
# 3 15.9537 2.3115 70.3489 0.0000 0.0000 0.0000
# 4 0.0000 0.0000 0.0000 11.6410 0.0000 0.0000
# 5 0.0000 0.0000 0.0000 0.0000 -3.6956 0.0000
# 6 0.0000 0.0000 0.0000 0.0000 0.0000 -74.1496
#
#
#
# Elastic Compliance Matrix: (Units=1/GPa)
#
#
# Indices 1 2 3 4 5 6 
#
# 1 0.011026 -0.003047 -0.002400 0.000000 0.000000 0.000000
# 2 -0.003047 0.011015 0.000329 0.000000 0.000000 0.000000
# 3 -0.002400 0.000329 0.014748 0.000000 0.000000 0.000000
# 4 0.000000 0.000000 0.000000 0.085904 0.000000 0.000000
# 5 0.000000 0.000000 0.000000 0.000000 -0.270591 0.000000
# 6 0.000000 0.000000 0.000000 0.000000 0.000000 -0.013486
#
#
# Mechanical properties :
#
#
# Convention : Reuss Voigt Hill
#
# Bulk Modulus (GPa) = 37.66021 40.27141 38.96581
# Shear Modulus (GPa) = -35.13795 1.73171 -16.70312
#
# Velocity S-wave (km/s) = -4.23218 0.93954 -2.91793
# Velocity P-wave (km/s) = 2.16443 4.65887 2.91722
#
# Compressibility (1/GPa) = 0.02655322
#
# Stress axis : x y z
#
# Youngs Moduli (GPa) = 90.69177 90.78673 67.80383
#
# Poissons Ratio (x) = 0.27661 0.16276
# Poissons Ratio (y) = 0.27632 -0.02231
# Poissons Ratio (z) = 0.21770 -0.02987
#
# Static dielectric constant tensor:
#      x y z
#    x 1.716060 0.000000 0.000000 
#    y 0.000000 1.694440 0.000000 
#    z 0.000000 0.000000 1.697080 
# 
# From -- ./inp_files/8590.got.cif
#   From: 2010.05.17/outbox.cif.g08.bks.cpg/sg59_5_cif.got.tgz:8590.got - 2010.06.03 14:40:33.
