data_PCOD9451853
_publ_section_title
;
Structure prediction by ZEFSAII (Michael W. Deem and Ramdas Pophale) SiO2 
 PCOD9451853
Probable space group: P M M N
;
_chemical_formula_sum "Si O2"
_cell_formula_units_Z 64
_cell_length_a 8.588213
_cell_length_b 20.505015
_cell_length_c 20.833294
_cell_angle_alpha 90.000000
_cell_angle_beta 90.000000
_cell_angle_gamma 90.000000
_cell_volume 3668.772998
_symmetry_space_group_name_H-M "P M M N"
_symmetry_group_IT_number 59
_space_group.IT_coordinate_system_code '2'
_symmetry_cell_setting 'orthorhombic'
loop_
_space_group_symop_operation_xyz
x,y,z
1/2-x,1/2-y,z
1/2+x,-y,-z
-x,1/2+y,-z
-x,-y,-z
1/2+x,1/2+y,-z
1/2-x,y,z
x,1/2-y,z
loop_
_atom_site_type_symbol
_atom_site_label
_atom_site_fract_x
_atom_site_fract_y
_atom_site_fract_z
Si Si1 0.062073 0.575294 0.674720
Si Si2 0.937756 0.675064 0.925826
Si Si3 0.437986 0.424932 0.675049
Si Si4 0.939879 0.573677 0.178411
Si Si5 0.063715 0.675064 0.429342
Si Si6 0.939935 0.675253 0.071651
Si Si7 0.437758 0.575346 0.821441
Si Si8 0.436300 0.175051 0.429900
O O1 0.250000 0.577845 0.672424
O O2 0.016404 0.500084 0.661242
O O3 0.014079 0.590674 0.748112
O O4 0.995375 0.625663 0.623851
O O5 0.750000 0.673576 0.924714
O O6 0.986010 0.750000 0.913189
O O7 0.000213 0.625805 0.873123
O O8 0.987325 0.658314 0.998794
O O9 0.250000 0.422240 0.672832
O O10 0.486317 0.410026 0.748530
O O11 0.504487 0.374361 0.624344
O O12 0.750000 0.574402 0.177765
O O13 0.994919 0.624715 0.125259
O O14 0.987432 0.499184 0.164481
O O15 0.250000 0.673738 0.431225
O O16 0.013350 0.750000 0.416070
O O17 0.000046 0.657327 0.499735
O O18 0.750000 0.674447 0.072419
O O19 0.986970 0.750000 0.084875
O O20 0.250000 0.576418 0.822654
O O21 0.250000 0.173717 0.431774
O O22 0.486506 0.250000 0.416582
#
# Coordination Sequence:
#
# PCOD9451853 Si02
#       8
#     8   8   8   8   8   8   8   8
#     4   9  19  35  52  72 100 131 161 197 246 298
#     4   9  18  31  46  67  96 127 161 202 242 283
#     4   9  18  33  53  76 100 127 163 205 243 284
#     4   8  15  29  48  71  98 125 158 201 242 282
#     4  10  21  36  53  74 102 134 163 194 239 292
#     4   8  14  26  45  69  96 126 160 198 241 286
#     4   9  18  32  49  70  97 127 159 197 240 288
#     4  10  21  36  54  76  99 125 163 207 243 281
#
# _framework density 17.444524000000001
#
# number of rings (size 3 to 8) (size 9 to 14) (size 15 to 20)
#    0.000    3.000    0.000    3.000    0.000    4.750 
#    0.000    5.625    0.000    0.750    0.000    0.000 
#    0.000    0.000    0.000    0.000    0.000    0.000 
#
# Total GULP energy -356749.603368 kJ/mol
# GULP energy per Si atom -5574.212553 kJ/mol
# Density = 1.740482 g / cm^3
# Si number density = 17.444524 Si / 1000 Ang^3
#
#
#
# Elastic Constant Matrix: (Units=GPa)
#
#
# Indices 1 2 3 4 5 6 
#
# 1 12.8772 29.6482 33.1161 0.0000 0.0000 0.0000
# 2 29.6482 140.1088 146.5738 0.0000 0.0000 0.0000
# 3 33.1161 146.5738 183.9430 0.0000 0.0000 0.0000
# 4 0.0000 0.0000 0.0000 43.6144 0.0000 0.0000
# 5 0.0000 0.0000 0.0000 0.0000 23.9480 0.0000
# 6 0.0000 0.0000 0.0000 0.0000 0.0000 25.9614
#
#
#
# Elastic Compliance Matrix: (Units=1/GPa)
#
#
# Indices 1 2 3 4 5 6 
#
# 1 0.154815 -0.021648 -0.010622 0.000000 0.000000 0.000000
# 2 -0.021648 0.045923 -0.032696 0.000000 0.000000 0.000000
# 3 -0.010622 -0.032696 0.033402 0.000000 0.000000 0.000000
# 4 0.000000 0.000000 0.000000 0.022928 0.000000 0.000000
# 5 0.000000 0.000000 0.000000 0.000000 0.041757 0.000000
# 6 0.000000 0.000000 0.000000 0.000000 0.000000 0.038519
#
#
# Mechanical properties :
#
#
# Convention : Reuss Voigt Hill
#
# Bulk Modulus (GPa) = 9.59616 83.95613 46.77615
# Shear Modulus (GPa) = 9.95992 27.21081 18.58537
#
# Velocity S-wave (km/s) = 2.39204 3.95378 3.26759
# Velocity P-wave (km/s) = 3.62520 8.31114 6.41160
#
# Compressibility (1/GPa) = 0.10420835
#
# Stress axis : x y z
#
# Youngs Moduli (GPa) = 6.45932 21.77569 29.93805
#
# Poissons Ratio (x) = 0.47140 0.31800
# Poissons Ratio (y) = 0.13983 0.97885
# Poissons Ratio (z) = 0.06861 0.71198
#
# Static dielectric constant tensor:
#      x y z
#    x 1.598810 0.000000 0.000000 
#    y 0.000000 1.582650 0.000000 
#    z 0.000000 0.000000 1.572600 
# 
# From -- ./inp_files/26351.got.cif
#   From: 2010.05.17/outbox.cif.g08.bks.cpg/sg59_14_cif.got.tgz:26351.got - 2010.06.03 14:40:33.
