data_PCOD9451766
_publ_section_title
;
Structure prediction by ZEFSAII (Michael W. Deem and Ramdas Pophale) SiO2 
 PCOD9451766
Probable space group: P M M N
;
_chemical_formula_sum "Si O2"
_cell_formula_units_Z 64
_cell_length_a 8.500586
_cell_length_b 32.192021
_cell_length_c 12.523839
_cell_angle_alpha 90.000000
_cell_angle_beta 90.000000
_cell_angle_gamma 90.000000
_cell_volume 3427.161605
_symmetry_space_group_name_H-M "P M M N"
_symmetry_group_IT_number 59
_space_group.IT_coordinate_system_code '2'
_symmetry_cell_setting 'orthorhombic'
loop_
_space_group_symop_operation_xyz
x,y,z
1/2-x,1/2-y,z
1/2+x,-y,-z
-x,1/2+y,-z
-x,-y,-z
1/2+x,1/2+y,-z
1/2-x,y,z
x,1/2-y,z
loop_
_atom_site_type_symbol
_atom_site_label
_atom_site_fract_x
_atom_site_fract_y
_atom_site_fract_z
Si Si1 0.937536 0.979493 0.108505
Si Si2 0.062255 0.558533 0.756455
Si Si3 0.559770 0.375235 0.628661
Si Si4 0.559361 0.047150 0.483816
Si Si5 0.062546 0.131057 0.094944
Si Si6 0.436205 0.887893 0.133606
Si Si7 0.941761 0.703348 0.751848
Si Si8 0.059878 0.297632 0.493620
O O1 0.750000 0.972642 0.099908
O O2 0.024124 0.936551 0.127136
O O3 0.968091 0.011846 0.203552
O O4 0.000000 0.000000 0.000000
O O5 0.250000 0.565192 0.760145
O O6 0.009040 0.562829 0.634245
O O7 0.987512 0.589775 0.841331
O O8 0.750000 0.376422 0.629174
O O9 0.507832 0.418171 0.570272
O O10 0.503437 0.373053 0.751155
O O11 0.506308 0.334442 0.565404
O O12 0.750000 0.045616 0.485038
O O13 0.500000 0.000000 0.500000
O O14 0.250000 0.132419 0.093632
O O15 0.000727 0.169382 0.165176
O O16 0.005555 0.131646 0.973617
O O17 0.250000 0.881849 0.130844
O O18 0.750000 0.702602 0.752664
O O19 0.990933 0.750000 0.779744
O O20 0.988662 0.694824 0.629641
O O21 0.250000 0.298839 0.497648
O O22 0.012767 0.250000 0.521798
#
# Coordination Sequence:
#
# PCOD9451766 Si02
#       8
#     8   8   8   8   8   8   8   8
#     4  11  21  34  53  77 105 143 183 223 270 319
#     4  10  21  35  53  77 108 138 169 220 276 318
#     4  10  22  38  56  79 111 151 189 228 278 331
#     4  10  21  37  55  79 109 144 184 227 276 330
#     4  11  21  33  55  82 104 136 180 220 265 322
#     4  11  23  38  53  73 108 149 185 228 270 312
#     4   8  16  33  56  83 112 136 164 212 272 327
#     4   9  18  35  61  89 113 139 176 224 277 335
#
# _framework density 18.674344999999999
#
# number of rings (size 3 to 8) (size 9 to 14) (size 15 to 20)
#    0.000    2.000    1.250    3.375    0.000    2.750 
#    0.000    1.250    0.000    5.250    0.000    0.000 
#    0.000    0.000    0.000    0.000    0.000    0.000 
#
# Total GULP energy -357253.282778 kJ/mol
# GULP energy per Si atom -5582.082543 kJ/mol
# Density = 1.863184 g / cm^3
# Si number density = 18.674345 Si / 1000 Ang^3
#
#
#
# Elastic Constant Matrix: (Units=GPa)
#
#
# Indices 1 2 3 4 5 6 
#
# 1 4.8543 13.0325 18.8571 0.0000 0.0000 0.0000
# 2 13.0325 114.3972 77.2336 0.0000 0.0000 0.0000
# 3 18.8571 77.2336 145.6018 0.0000 0.0000 0.0000
# 4 0.0000 0.0000 0.0000 33.6236 0.0000 0.0000
# 5 0.0000 0.0000 0.0000 0.0000 21.2271 0.0000
# 6 0.0000 0.0000 0.0000 0.0000 0.0000 25.0688
#
#
#
# Elastic Compliance Matrix: (Units=1/GPa)
#
#
# Indices 1 2 3 4 5 6 
#
# 1 0.437248 -0.018042 -0.047058 0.000000 0.000000 0.000000
# 2 -0.018042 0.014363 -0.005282 0.000000 0.000000 0.000000
# 3 -0.047058 -0.005282 0.015765 0.000000 0.000000 0.000000
# 4 0.000000 0.000000 0.000000 0.029741 0.000000 0.000000
# 5 0.000000 0.000000 0.000000 0.000000 0.047110 0.000000
# 6 0.000000 0.000000 0.000000 0.000000 0.000000 0.039890
#
#
# Mechanical properties :
#
#
# Convention : Reuss Voigt Hill
#
# Bulk Modulus (GPa) = 3.06175 53.67774 28.36974
# Shear Modulus (GPa) = 5.99699 26.36589 16.18144
#
# Velocity S-wave (km/s) = 1.79397 3.76157 2.94684
# Velocity P-wave (km/s) = 2.43602 6.90452 5.17719
#
# Compressibility (1/GPa) = 0.32661074
#
# Stress axis : x y z
#
# Youngs Moduli (GPa) = 2.28703 69.62319 63.43364
#
# Poissons Ratio (x) = 1.25615 2.98508
# Poissons Ratio (y) = 0.04126 0.33506
# Poissons Ratio (z) = 0.10762 0.36776
#
# Static dielectric constant tensor:
#      x y z
#    x 1.648630 0.000000 0.000000 
#    y 0.000000 1.710880 0.000000 
#    z 0.000000 0.000000 1.661470 
# 
# From -- ./inp_files/14981.got.cif
#   From: 2010.05.17/outbox.cif.g08.bks.cpg/sg59_8_cif.got.tgz:14981.got - 2010.06.03 14:40:33.
