data_PCOD9451355
_publ_section_title
;
Structure prediction by ZEFSAII (Michael W. Deem and Ramdas Pophale) SiO2 
 PCOD9451355
Probable space group: P M M N
;
_chemical_formula_sum "Si O2"
_cell_formula_units_Z 40
_cell_length_a 7.755945
_cell_length_b 8.982641
_cell_length_c 30.321545
_cell_angle_alpha 90.000000
_cell_angle_beta 90.000000
_cell_angle_gamma 90.000000
_cell_volume 2112.467763
_symmetry_space_group_name_H-M "P M M N"
_symmetry_group_IT_number 59
_space_group.IT_coordinate_system_code '2'
_symmetry_cell_setting 'orthorhombic'
loop_
_space_group_symop_operation_xyz
x,y,z
1/2-x,1/2-y,z
1/2+x,-y,-z
-x,1/2+y,-z
-x,-y,-z
1/2+x,1/2+y,-z
1/2-x,y,z
x,1/2-y,z
loop_
_atom_site_type_symbol
_atom_site_label
_atom_site_fract_x
_atom_site_fract_y
_atom_site_fract_z
Si Si1 0.456310 0.582421 0.634001
Si Si2 0.250000 0.069499 0.202908
Si Si3 0.750000 0.070948 0.893383
Si Si4 0.051625 0.931348 0.729982
Si Si5 0.545078 0.415143 0.544670
Si Si6 0.046667 0.571296 0.952754
O O1 0.250000 0.592625 0.638436
O O2 0.526471 0.750000 0.628958
O O3 0.512310 0.518224 0.681411
O O4 0.492148 0.493774 0.589818
O O5 0.250000 0.250000 0.196358
O O6 0.418447 0.029684 0.231815
O O7 0.250000 0.986288 0.156652
O O8 0.750000 0.250000 0.896433
O O9 0.918220 0.003879 0.917837
O O10 0.250000 0.979233 0.737772
O O11 0.053843 0.750000 0.727344
O O12 0.500000 0.500000 0.500000
O O13 0.750000 0.405556 0.545755
O O14 0.469402 0.250000 0.542939
O O15 0.250000 0.545565 0.943587
O O16 0.018959 0.750000 0.953868
O O17 0.000000 0.500000 0.000000
#
# Coordination Sequence:
#
# PCOD9451355 Si02
#       6
#     8   4   4   8   8   8
#     4   9  18  34  57  84 110 138 178 228 281 340
#     4  10  20  36  60  86 116 158 206 254 303 354
#     4  12  26  42  60  90 132 176 214 258 313 370
#     4   8  16  32  56  86 115 144 188 245 296 349
#     4  11  24  38  52  75 106 140 179 224 274 335
#     4  11  23  40  66  96 127 165 211 263 316 371
#
# _framework density 18.935200999999999
#
# number of rings (size 3 to 8) (size 9 to 14) (size 15 to 20)
#    0.000    2.000    1.000    3.900    1.400    6.400 
#    0.000    3.000    0.000    1.200    0.000    0.000 
#    0.000    0.000    0.000    0.000    0.000    0.000 
#
# Total GULP energy -223227.279301 kJ/mol
# GULP energy per Si atom -5580.681983 kJ/mol
# Density = 1.889210 g / cm^3
# Si number density = 18.935201 Si / 1000 Ang^3
#
#
#
# Elastic Constant Matrix: (Units=GPa)
#
#
# Indices 1 2 3 4 5 6 
#
# 1 113.6878 53.2982 82.8410 0.0000 0.0000 0.0000
# 2 53.2982 103.4005 82.2981 0.0000 0.0000 0.0000
# 3 82.8410 82.2981 208.3973 0.0000 0.0000 0.0000
# 4 0.0000 0.0000 0.0000 32.9930 0.0000 0.0000
# 5 0.0000 0.0000 0.0000 0.0000 39.1286 0.0000
# 6 0.0000 0.0000 0.0000 0.0000 0.0000 20.4000
#
#
#
# Elastic Compliance Matrix: (Units=1/GPa)
#
#
# Indices 1 2 3 4 5 6 
#
# 1 0.013372 -0.003882 -0.003783 0.000000 0.000000 0.000000
# 2 -0.003882 0.015231 -0.004472 0.000000 0.000000 0.000000
# 3 -0.003783 -0.004472 0.008068 0.000000 0.000000 0.000000
# 4 0.000000 0.000000 0.000000 0.030309 0.000000 0.000000
# 5 0.000000 0.000000 0.000000 0.000000 0.025557 0.000000
# 6 0.000000 0.000000 0.000000 0.000000 0.000000 0.049020
#
#
# Mechanical properties :
#
#
# Convention : Reuss Voigt Hill
#
# Bulk Modulus (GPa) = 80.65376 95.81782 88.23579
# Shear Modulus (GPa) = 29.41806 32.30753 30.86279
#
# Velocity S-wave (km/s) = 3.94587 4.13512 4.04160
# Velocity P-wave (km/s) = 7.96536 8.57390 8.27523
#
# Compressibility (1/GPa) = 0.01239868
#
# Stress axis : x y z
#
# Youngs Moduli (GPa) = 74.78148 65.65382 123.94471
#
# Poissons Ratio (x) = 0.25488 0.46883
# Poissons Ratio (y) = 0.29032 0.55426
# Poissons Ratio (z) = 0.28287 0.29359
#
# Static dielectric constant tensor:
#      x y z
#    x 1.668400 0.000000 0.000000 
#    y 0.000000 1.669220 0.000000 
#    z 0.000000 0.000000 1.931860 
# 
# From -- ./inp_files/32406.got.cif
#   From: 2010.05.17/outbox.cif.g08.bks.cpg/sg59_17_cif.got.tgz:32406.got - 2010.06.03 14:40:33.
