data_PCOD9451531
_publ_section_title
;
Structure prediction by ZEFSAII (Michael W. Deem and Ramdas Pophale) SiO2 
 PCOD9451531
Probable space group: P M M N
;
_chemical_formula_sum "Si O2"
_cell_formula_units_Z 48
_cell_length_a 15.327765
_cell_length_b 8.841451
_cell_length_c 19.269911
_cell_angle_alpha 90.000000
_cell_angle_beta 90.000000
_cell_angle_gamma 90.000000
_cell_volume 2611.452234
_symmetry_space_group_name_H-M "P M M N"
_symmetry_group_IT_number 59
_space_group.IT_coordinate_system_code '2'
_symmetry_cell_setting 'orthorhombic'
loop_
_space_group_symop_operation_xyz
x,y,z
1/2-x,1/2-y,z
1/2+x,-y,-z
-x,1/2+y,-z
-x,-y,-z
1/2+x,1/2+y,-z
1/2-x,y,z
x,1/2-y,z
loop_
_atom_site_type_symbol
_atom_site_label
_atom_site_fract_x
_atom_site_fract_y
_atom_site_fract_z
Si Si1 0.897858 0.569190 0.827386
Si Si2 0.404162 0.931120 0.669334
Si Si3 0.750000 0.069164 0.572313
Si Si4 0.750000 0.571470 0.075056
Si Si5 0.406130 0.568786 0.322831
Si Si6 0.750000 0.069604 0.923016
Si Si7 0.750000 0.930051 0.420689
Si Si8 0.397231 0.570491 0.831035
O O1 0.885691 0.750000 0.825653
O O2 0.879496 0.501388 0.751258
O O3 0.834210 0.495468 0.883057
O O4 0.000139 0.539706 0.842768
O O5 0.407220 0.750000 0.661266
O O6 0.379429 0.962237 0.749806
O O7 0.499983 0.999951 0.658439
O O8 0.334180 0.002356 0.618154
O O9 0.750000 0.250000 0.558559
O O10 0.665435 0.034169 0.618941
O O11 0.750000 0.981918 0.500291
O O12 0.750000 0.750000 0.063157
O O13 0.834186 0.522139 0.119536
O O14 0.750000 0.486282 0.001885
O O15 0.412381 0.750000 0.315709
O O16 0.750000 0.250000 0.919721
O O17 0.750000 0.750000 0.415335
O O18 0.382306 0.750000 0.841842
#
# Coordination Sequence:
#
# PCOD9451531 Si02
#       8
#     8   8   4   4   8   4   4   8
#     4  10  21  39  63  89 117 150 191 238 288 342
#     4  10  21  39  62  86 116 153 191 236 290 344
#     4  10  23  40  57  81 117 157 191 232 287 344
#     4  12  25  38  57  85 117 153 191 236 287 340
#     4  10  20  37  62  90 117 149 194 240 284 338
#     4  12  25  40  59  83 117 157 193 236 287 342
#     4  12  25  38  57  85 115 151 195 242 291 346
#     4   9  20  39  62  86 113 149 189 231 282 340
#
# _framework density 18.380576999999999
#
# number of rings (size 3 to 8) (size 9 to 14) (size 15 to 20)
#    0.000    1.667    0.000    5.750    0.000    9.333 
#    0.000    0.000    0.000    0.000    0.000    0.000 
#    0.000    0.000    0.000    0.000    0.000    0.000 
#
# Total GULP energy -268363.225679 kJ/mol
# GULP energy per Si atom -5590.900535 kJ/mol
# Density = 1.833874 g / cm^3
# Si number density = 18.380577 Si / 1000 Ang^3
#
#
#
# Elastic Constant Matrix: (Units=GPa)
#
#
# Indices 1 2 3 4 5 6 
#
# 1 110.4434 82.2337 104.8347 0.0000 0.0000 0.0000
# 2 82.2337 121.2283 96.1663 0.0000 0.0000 0.0000
# 3 104.8347 96.1663 142.3570 0.0000 0.0000 0.0000
# 4 0.0000 0.0000 0.0000 35.6343 0.0000 0.0000
# 5 0.0000 0.0000 0.0000 0.0000 -55.0536 0.0000
# 6 0.0000 0.0000 0.0000 0.0000 0.0000 37.6181
#
#
#
# Elastic Compliance Matrix: (Units=1/GPa)
#
#
# Indices 1 2 3 4 5 6 
#
# 1 0.032336 -0.006560 -0.019381 0.000000 0.000000 0.000000
# 2 -0.006560 0.019104 -0.008074 0.000000 0.000000 0.000000
# 3 -0.019381 -0.008074 0.026752 0.000000 0.000000 0.000000
# 4 0.000000 0.000000 0.000000 0.028063 0.000000 0.000000
# 5 0.000000 0.000000 0.000000 0.000000 -0.018164 0.000000
# 6 0.000000 0.000000 0.000000 0.000000 0.000000 0.026583
#
#
# Mechanical properties :
#
#
# Convention : Reuss Voigt Hill
#
# Bulk Modulus (GPa) = 98.42243 104.49979 101.46111
# Shear Modulus (GPa) = 26.86846 9.69270 18.28058
#
# Velocity S-wave (km/s) = 3.82748 2.29887 3.15709
# Velocity P-wave (km/s) = 8.55547 8.00145 8.28309
#
# Compressibility (1/GPa) = 0.01016029
#
# Stress axis : x y z
#
# Youngs Moduli (GPa) = 30.92510 52.34537 37.38070
#
# Poissons Ratio (x) = 0.34340 0.72449
# Poissons Ratio (y) = 0.20288 0.30182
# Poissons Ratio (z) = 0.59937 0.42264
#
# Static dielectric constant tensor:
#      x y z
#    x 1.619020 0.000000 0.000000 
#    y 0.000000 1.609210 0.000000 
#    z 0.000000 0.000000 1.596980 
# 
# From -- ./inp_files/27513.got.cif
#   From: 2010.05.17/outbox.cif.g08.bks.cpg/sg59_14_cif.got.tgz:27513.got - 2010.06.03 14:40:33.
