data_PCOD9451431
_publ_section_title
;
Structure prediction by ZEFSAII (Michael W. Deem and Ramdas Pophale) SiO2 
 PCOD9451431
Probable space group: P M M N
;
_chemical_formula_sum "Si O2"
_cell_formula_units_Z 64
_cell_length_a 29.117186
_cell_length_b 12.877144
_cell_length_c 8.839991
_cell_angle_alpha 90.000000
_cell_angle_beta 90.000000
_cell_angle_gamma 90.000000
_cell_volume 3314.521007
_symmetry_space_group_name_H-M "P M M N"
_symmetry_group_IT_number 59
_space_group.IT_coordinate_system_code '2'
_symmetry_cell_setting 'orthorhombic'
loop_
_space_group_symop_operation_xyz
x,y,z
1/2-x,1/2-y,z
1/2+x,-y,-z
-x,1/2+y,-z
-x,-y,-z
1/2+x,1/2+y,-z
1/2-x,y,z
x,1/2-y,z
loop_
_atom_site_type_symbol
_atom_site_label
_atom_site_fract_x
_atom_site_fract_y
_atom_site_fract_z
Si Si1 0.461275 0.563386 0.906379
Si Si2 0.301832 0.128375 0.040441
Si Si3 0.525092 0.948967 0.640744
Si Si4 0.419592 0.636621 0.198902
Si Si5 0.170227 0.968114 0.293050
Si Si6 0.132161 0.036677 0.784638
Si Si7 0.385379 0.139115 0.474962
Si Si8 0.197080 0.627126 0.606998
O O1 0.489203 0.599588 0.759078
O O2 0.417085 0.499382 0.848504
O O3 0.500000 0.500000 0.000000
O O4 0.439063 0.638835 0.029235
O O5 0.250000 0.126359 0.977742
O O6 0.310995 0.250000 0.084139
O O7 0.303770 0.043037 0.175412
O O8 0.338130 0.089907 0.916015
O O9 0.562223 0.869500 0.577177
O O10 0.500000 0.000000 0.500000
O O11 0.552475 0.044615 0.719502
O O12 0.425885 0.750000 0.270631
O O13 0.365991 0.605257 0.205482
O O14 0.194506 0.904688 0.428401
O O15 0.140265 0.049765 0.386926
O O16 0.121029 0.116916 0.650989
O O17 0.161782 0.943174 0.705697
O O18 0.365578 0.250000 0.434432
O O19 0.250000 0.609298 0.656621
O O20 0.186656 0.750000 0.621488
#
# Coordination Sequence:
#
# PCOD9451431 Si02
#       8
#     8   8   8   8   8   8   8   8
#     4  10  21  39  58  82 121 158 195 246 301 358
#     4  11  23  39  62  92 122 159 205 253 310 368
#     4  10  20  37  57  83 119 149 193 251 292 346
#     4  10  21  37  58  84 117 159 197 238 298 362
#     4  10  20  39  61  85 122 154 195 252 299 354
#     4  11  21  40  62  86 124 159 199 254 304 361
#     4  10  21  36  59  86 113 154 199 239 298 359
#     4  10  22  40  63  90 121 161 205 250 308 370
#
# _framework density 19.308973999999999
#
# number of rings (size 3 to 8) (size 9 to 14) (size 15 to 20)
#    0.000    1.750    2.500    1.875    0.000    1.500 
#    0.000    0.625    0.000    8.250    0.000    0.000 
#    0.000    0.000    0.000    0.000    0.000    0.000 
#
# Total GULP energy -356530.591041 kJ/mol
# GULP energy per Si atom -5570.790485 kJ/mol
# Density = 1.926503 g / cm^3
# Si number density = 19.308974 Si / 1000 Ang^3
#
#
#
# Elastic Constant Matrix: (Units=GPa)
#
#
# Indices 1 2 3 4 5 6 
#
# 1 103.9190 20.7822 27.0908 0.0000 0.0000 0.0000
# 2 20.7822 88.6862 8.2835 0.0000 0.0000 0.0000
# 3 27.0908 8.2835 71.0108 0.0000 0.0000 0.0000
# 4 0.0000 0.0000 0.0000 6.1475 0.0000 0.0000
# 5 0.0000 0.0000 0.0000 0.0000 27.0585 0.0000
# 6 0.0000 0.0000 0.0000 0.0000 0.0000 0.4816
#
#
#
# Elastic Compliance Matrix: (Units=1/GPa)
#
#
# Indices 1 2 3 4 5 6 
#
# 1 0.011106 -0.002231 -0.003977 0.000000 0.000000 0.000000
# 2 -0.002231 0.011848 -0.000531 0.000000 0.000000 0.000000
# 3 -0.003977 -0.000531 0.015661 0.000000 0.000000 0.000000
# 4 0.000000 0.000000 0.000000 0.162667 0.000000 0.000000
# 5 0.000000 0.000000 0.000000 0.000000 0.036957 0.000000
# 6 0.000000 0.000000 0.000000 0.000000 0.000000 2.076449
#
#
# Mechanical properties :
#
#
# Convention : Reuss Voigt Hill
#
# Bulk Modulus (GPa) = 39.78036 41.76989 40.77513
# Shear Modulus (GPa) = 2.13991 20.56816 11.35404
#
# Velocity S-wave (km/s) = 1.05388 3.26730 2.42754
# Velocity P-wave (km/s) = 4.70400 5.99275 5.38705
#
# Compressibility (1/GPa) = 0.02513803
#
# Stress axis : x y z
#
# Youngs Moduli (GPa) = 90.04375 84.40165 63.85134
#
# Poissons Ratio (x) = 0.18830 0.25391
# Poissons Ratio (y) = 0.20089 0.03390
# Poissons Ratio (z) = 0.35807 0.04481
#
# Static dielectric constant tensor:
#      x y z
#    x 1.691900 0.000000 0.000000 
#    y 0.000000 1.776250 0.000000 
#    z 0.000000 0.000000 0.903990 
# 
# From -- ./inp_files/13185.got.cif
#   From: 2010.05.17/outbox.cif.g08.bks.cpg/sg59_7_cif.got.tgz:13185.got - 2010.06.03 14:40:33.
