data_PCOD9451895
_publ_section_title
;
Structure prediction by ZEFSAII (Michael W. Deem and Ramdas Pophale) SiO2 
 PCOD9451895
Probable space group: P M M N
;
_chemical_formula_sum "Si O2"
_cell_formula_units_Z 64
_cell_length_a 14.635687
_cell_length_b 8.492418
_cell_length_c 26.516166
_cell_angle_alpha 90.000000
_cell_angle_beta 90.000000
_cell_angle_gamma 90.000000
_cell_volume 3295.757161
_symmetry_space_group_name_H-M "P M M N"
_symmetry_group_IT_number 59
_space_group.IT_coordinate_system_code '2'
_symmetry_cell_setting 'orthorhombic'
loop_
_space_group_symop_operation_xyz
x,y,z
1/2-x,1/2-y,z
1/2+x,-y,-z
-x,1/2+y,-z
-x,-y,-z
1/2+x,1/2+y,-z
1/2-x,y,z
x,1/2-y,z
loop_
_atom_site_type_symbol
_atom_site_label
_atom_site_fract_x
_atom_site_fract_y
_atom_site_fract_z
Si Si1 0.415182 0.933848 0.383958
Si Si2 0.855008 0.560584 0.825305
Si Si3 0.355089 0.559679 0.975371
Si Si4 0.049226 0.562419 0.274287
Si Si5 0.348277 0.061896 0.689726
Si Si6 0.458361 0.059278 0.074339
Si Si7 0.901180 0.427890 0.413663
Si Si8 0.646367 0.928771 0.517055
O O1 0.445464 0.750000 0.387057
O O2 0.391076 0.959792 0.325599
O O3 0.496361 0.054602 0.394213
O O4 0.353019 0.970938 0.431678
O O5 0.750000 0.502385 0.827551
O O6 0.851535 0.750000 0.828265
O O7 0.903812 0.514868 0.773422
O O8 0.915397 0.505220 0.872867
O O9 0.250000 0.505938 0.966517
O O10 0.353275 0.750000 0.975456
O O11 0.394075 0.501810 0.029108
O O12 0.436201 0.510556 0.936568
O O13 0.044363 0.750000 0.265775
O O14 0.944510 0.506042 0.285853
O O15 0.250000 0.002348 0.710007
O O16 0.349470 0.250000 0.695199
O O17 0.350128 0.023176 0.630081
O O18 0.456685 0.250000 0.073033
O O19 0.867850 0.250000 0.414949
O O20 0.904156 0.495570 0.469862
O O21 0.750000 0.921024 0.498621
O O22 0.614592 0.750000 0.526197
#
# Coordination Sequence:
#
# PCOD9451895 Si02
#       8
#     8   8   8   8   8   8   8   8
#     4  10  21  38  56  72  95 128 165 206 256 310
#     4  10  21  36  54  76 104 140 179 219 263 309
#     4   9  17  30  51  80 112 145 181 222 267 311
#     4   9  20  37  56  78 101 130 170 215 262 309
#     4   9  18  35  57  78 103 134 166 205 258 317
#     4   9  18  33  52  76 109 147 184 221 263 314
#     4  11  21  33  52  77 103 129 162 203 247 303
#     4  11  23  36  50  71 100 131 162 200 251 310
#
# _framework density 19.418907000000001
#
# number of rings (size 3 to 8) (size 9 to 14) (size 15 to 20)
#    0.000    2.250    0.000    3.750    0.000    7.250 
#    0.000    3.125    0.000    0.750    0.000    0.000 
#    0.000    0.000    0.000    0.000    0.000    0.000 
#
# Total GULP energy -356411.000786 kJ/mol
# GULP energy per Si atom -5568.921887 kJ/mol
# Density = 1.937471 g / cm^3
# Si number density = 19.418907 Si / 1000 Ang^3
#
#
#
# Elastic Constant Matrix: (Units=GPa)
#
#
# Indices 1 2 3 4 5 6 
#
# 1 124.0226 9.9319 68.6006 0.0000 0.0000 0.0000
# 2 9.9319 22.3859 21.8207 0.0000 0.0000 0.0000
# 3 68.6006 21.8207 145.5239 0.0000 0.0000 0.0000
# 4 0.0000 0.0000 0.0000 28.6949 0.0000 0.0000
# 5 0.0000 0.0000 0.0000 0.0000 21.0628 0.0000
# 6 0.0000 0.0000 0.0000 0.0000 0.0000 16.1652
#
#
#
# Elastic Compliance Matrix: (Units=1/GPa)
#
#
# Indices 1 2 3 4 5 6 
#
# 1 0.010908 0.000202 -0.005172 0.000000 0.000000 0.000000
# 2 0.000202 0.052321 -0.007941 0.000000 0.000000 0.000000
# 3 -0.005172 -0.007941 0.010501 0.000000 0.000000 0.000000
# 4 0.000000 0.000000 0.000000 0.034849 0.000000 0.000000
# 5 0.000000 0.000000 0.000000 0.000000 0.047477 0.000000
# 6 0.000000 0.000000 0.000000 0.000000 0.000000 0.061861
#
#
# Mechanical properties :
#
#
# Convention : Reuss Voigt Hill
#
# Bulk Modulus (GPa) = 20.87320 54.73764 37.80542
# Shear Modulus (GPa) = 19.25234 25.95651 22.60443
#
# Velocity S-wave (km/s) = 3.15210 3.66000 3.41551
# Velocity P-wave (km/s) = 4.90101 6.79042 5.92156
#
# Compressibility (1/GPa) = 0.04790833
#
# Stress axis : x y z
#
# Youngs Moduli (GPa) = 91.67737 19.11264 95.23214
#
# Poissons Ratio (x) = -0.00387 0.49257
# Poissons Ratio (y) = -0.01854 0.75621
# Poissons Ratio (z) = 0.47418 0.15177
#
# Static dielectric constant tensor:
#      x y z
#    x 1.760520 0.000000 0.000000 
#    y 0.000000 1.684740 0.000000 
#    z 0.000000 0.000000 1.667520 
# 
# From -- ./inp_files/32197.got.cif
#   From: 2010.05.17/outbox.cif.g08.bks.cpg/sg59_17_cif.got.tgz:32197.got - 2010.06.03 14:40:33.
