data_PCOD9451606
_publ_section_title
;
Structure prediction by ZEFSAII (Michael W. Deem and Ramdas Pophale) SiO2 
 PCOD9451606
Probable space group: P M M N
;
_chemical_formula_sum "Si O2"
_cell_formula_units_Z 48
_cell_length_a 19.321074
_cell_length_b 8.874489
_cell_length_c 15.380239
_cell_angle_alpha 90.000000
_cell_angle_beta 90.000000
_cell_angle_gamma 90.000000
_cell_volume 2637.167431
_symmetry_space_group_name_H-M "P M M N"
_symmetry_group_IT_number 59
_space_group.IT_coordinate_system_code '2'
_symmetry_cell_setting 'orthorhombic'
loop_
_space_group_symop_operation_xyz
x,y,z
1/2-x,1/2-y,z
1/2+x,-y,-z
-x,1/2+y,-z
-x,-y,-z
1/2+x,1/2+y,-z
1/2-x,y,z
x,1/2-y,z
loop_
_atom_site_type_symbol
_atom_site_label
_atom_site_fract_x
_atom_site_fract_y
_atom_site_fract_z
Si Si1 0.080948 0.069787 0.727256
Si Si2 0.926209 0.570542 0.973075
Si Si3 0.169126 0.568672 0.379554
Si Si4 0.168616 0.570595 0.879671
Si Si5 0.423252 0.930368 0.213525
Si Si6 0.426192 0.430615 0.526342
O O1 0.091463 0.250000 0.736341
O O2 0.089777 0.028870 0.626331
O O3 0.001694 0.038451 0.755278
O O4 0.132103 0.984278 0.791465
O O5 0.931119 0.750000 0.977292
O O6 0.909600 0.515727 0.875917
O O7 0.869763 0.511223 0.041050
O O8 0.000000 0.500000 0.000000
O O9 0.250000 0.530339 0.375136
O O10 0.162763 0.750000 0.389151
O O11 0.128947 0.528062 0.290906
O O12 0.131058 0.491176 0.460126
O O13 0.250000 0.536219 0.878500
O O14 0.159714 0.750000 0.889132
O O15 0.417831 0.750000 0.198735
O O16 0.500000 0.500000 0.500000
O O17 0.430963 0.250000 0.521521
#
# Coordination Sequence:
#
# PCOD9451606 Si02
#       6
#     8   8   8   8   8   8
#     4  10  21  38  62  89 120 159 202 249 300 358
#     4  12  24  39  63  93 123 159 202 250 300 360
#     4  10  22  41  63  89 125 164 201 247 305 363
#     4  11  25  43  63  90 123 158 200 251 306 364
#     4  10  20  38  62  90 122 159 204 249 296 357
#     4  11  22  38  62  91 123 160 205 253 301 360
#
# _framework density 18.201346999999998
#
# number of rings (size 3 to 8) (size 9 to 14) (size 15 to 20)
#    0.000    1.333    3.333    2.500    0.000    5.000 
#    0.000    5.000    0.000    0.000    0.000    0.000 
#    0.000    0.000    0.000    0.000    0.000    0.000 
#
# Total GULP energy -268359.176351 kJ/mol
# GULP energy per Si atom -5590.816174 kJ/mol
# Density = 1.815992 g / cm^3
# Si number density = 18.201347 Si / 1000 Ang^3
#
#
#
# Elastic Constant Matrix: (Units=GPa)
#
#
# Indices 1 2 3 4 5 6 
#
# 1 152.8341 82.9205 105.0303 0.0000 0.0000 0.0000
# 2 82.9205 78.1678 90.6869 0.0000 0.0000 0.0000
# 3 105.0303 90.6869 202.9630 0.0000 0.0000 0.0000
# 4 0.0000 0.0000 0.0000 38.6901 0.0000 0.0000
# 5 0.0000 0.0000 0.0000 0.0000 33.8134 0.0000
# 6 0.0000 0.0000 0.0000 0.0000 0.0000 30.1088
#
#
#
# Elastic Compliance Matrix: (Units=1/GPa)
#
#
# Indices 1 2 3 4 5 6 
#
# 1 0.015607 -0.014920 -0.001410 0.000000 0.000000 0.000000
# 2 -0.014920 0.040826 -0.010521 0.000000 0.000000 0.000000
# 3 -0.001410 -0.010521 0.010357 0.000000 0.000000 0.000000
# 4 0.000000 0.000000 0.000000 0.025846 0.000000 0.000000
# 5 0.000000 0.000000 0.000000 0.000000 0.029574 0.000000
# 6 0.000000 0.000000 0.000000 0.000000 0.000000 0.033213
#
#
# Mechanical properties :
#
#
# Convention : Reuss Voigt Hill
#
# Bulk Modulus (GPa) = 76.40063 110.13782 93.26923
# Shear Modulus (GPa) = 23.42054 30.87761 27.14907
#
# Velocity S-wave (km/s) = 3.59102 4.12326 3.86631
# Velocity P-wave (km/s) = 7.69807 9.12746 8.44307
#
# Compressibility (1/GPa) = 0.01308890
#
# Stress axis : x y z
#
# Youngs Moduli (GPa) = 64.07447 24.49415 96.55013
#
# Poissons Ratio (x) = 0.36546 0.13611
# Poissons Ratio (y) = 0.95601 1.01577
# Poissons Ratio (z) = 0.09033 0.25770
#
# Static dielectric constant tensor:
#      x y z
#    x 1.593530 0.000000 0.000000 
#    y 0.000000 1.611850 0.000000 
#    z 0.000000 0.000000 1.603030 
# 
# From -- ./inp_files/20330.got.cif
#   From: 2010.05.17/outbox.cif.g08.bks.cpg/sg59_11_cif.got.tgz:20330.got - 2010.06.03 14:40:33.
