data_PCOD9451168
_publ_section_title
;
Structure prediction by ZEFSAII (Michael W. Deem and Ramdas Pophale) SiO2 
 PCOD9451168
Probable space group: P M M N
;
_chemical_formula_sum "Si O2"
_cell_formula_units_Z 64
_cell_length_a 8.212999
_cell_length_b 22.300334
_cell_length_c 17.171458
_cell_angle_alpha 90.000000
_cell_angle_beta 90.000000
_cell_angle_gamma 90.000000
_cell_volume 3144.997536
_symmetry_space_group_name_H-M "P M M N"
_symmetry_group_IT_number 59
_space_group.IT_coordinate_system_code '2'
_symmetry_cell_setting 'orthorhombic'
loop_
_space_group_symop_operation_xyz
x,y,z
1/2-x,1/2-y,z
1/2+x,-y,-z
-x,1/2+y,-z
-x,-y,-z
1/2+x,1/2+y,-z
1/2-x,y,z
x,1/2-y,z
loop_
_atom_site_type_symbol
_atom_site_label
_atom_site_fract_x
_atom_site_fract_y
_atom_site_fract_z
Si Si1 0.446966 0.437328 0.537629
Si Si2 0.051702 0.313744 0.796010
Si Si3 0.445844 0.180205 0.260940
Si Si4 0.051378 0.319501 0.440538
Si Si5 0.439729 0.135975 0.957257
Si Si6 0.447068 0.434819 0.715335
Si Si7 0.065022 0.521265 0.126950
Si Si8 0.564591 0.105458 0.114609
O O1 0.500000 0.500000 0.500000
O O2 0.250000 0.434820 0.536871
O O3 0.502181 0.375475 0.494749
O O4 0.501476 0.441654 0.627249
O O5 0.250000 0.314865 0.796212
O O6 0.996414 0.250000 0.765657
O O7 0.002115 0.323670 0.885198
O O8 0.000314 0.369287 0.744593
O O9 0.250000 0.173632 0.257604
O O10 0.485000 0.250000 0.246018
O O11 0.495905 0.167466 0.350450
O O12 0.520639 0.139409 0.193812
O O13 0.250000 0.318529 0.442844
O O14 0.000819 0.250000 0.459496
O O15 0.250000 0.147981 0.972061
O O16 0.458705 0.068779 0.921229
O O17 0.535478 0.143989 0.037052
O O18 0.250000 0.439040 0.717881
O O19 0.516387 0.477708 0.781952
O O20 0.250000 0.541241 0.117252
O O21 0.043786 0.453315 0.101382
O O22 0.750000 0.084839 0.118356
#
# Coordination Sequence:
#
# PCOD9451168 Si02
#       8
#     8   8   8   8   8   8   8   8
#     4  10  21  35  55  86 120 150 187 237 293 343
#     4   8  15  30  54  80 106 140 179 221 269 321
#     4   9  19  37  58  80 108 144 190 236 277 328
#     4   8  16  34  59  84 111 147 193 240 283 335
#     4  10  20  36  55  80 113 144 182 229 280 333
#     4   9  19  35  53  80 115 145 181 230 278 332
#     4  11  22  37  57  78 106 145 188 229 280 338
#     4  12  24  36  54  80 110 144 186 231 280 335
#
# _framework density 20.349779999999999
#
# number of rings (size 3 to 8) (size 9 to 14) (size 15 to 20)
#    0.000    2.375    0.000    4.500    1.750    1.750 
#    0.000    3.750    0.000   10.125    0.000    3.500 
#    0.000    0.000    0.000    0.000    0.000    0.000 
#
# Total GULP energy -357024.931992 kJ/mol
# GULP energy per Si atom -5578.514562 kJ/mol
# Density = 2.030346 g / cm^3
# Si number density = 20.349780 Si / 1000 Ang^3
#
#
#
# Elastic Constant Matrix: (Units=GPa)
#
#
# Indices 1 2 3 4 5 6 
#
# 1 19.7918 0.7307 5.2471 0.0000 0.0000 0.0000
# 2 0.7307 57.0067 33.3898 0.0000 0.0000 0.0000
# 3 5.2471 33.3898 112.2638 0.0000 0.0000 0.0000
# 4 0.0000 0.0000 0.0000 3.4089 0.0000 0.0000
# 5 0.0000 0.0000 0.0000 0.0000 15.3035 0.0000
# 6 0.0000 0.0000 0.0000 0.0000 0.0000 15.8495
#
#
#
# Elastic Compliance Matrix: (Units=1/GPa)
#
#
# Indices 1 2 3 4 5 6 
#
# 1 0.051198 0.000903 -0.002661 0.000000 0.000000 0.000000
# 2 0.000903 0.021258 -0.006365 0.000000 0.000000 0.000000
# 3 -0.002661 -0.006365 0.010925 0.000000 0.000000 0.000000
# 4 0.000000 0.000000 0.000000 0.293350 0.000000 0.000000
# 5 0.000000 0.000000 0.000000 0.000000 0.065345 0.000000
# 6 0.000000 0.000000 0.000000 0.000000 0.000000 0.063093
#
#
# Mechanical properties :
#
#
# Convention : Reuss Voigt Hill
#
# Bulk Modulus (GPa) = 14.89554 29.75529 22.32541
# Shear Modulus (GPa) = 9.19464 16.89203 13.04334
#
# Velocity S-wave (km/s) = 2.12794 2.88424 2.53446
# Velocity P-wave (km/s) = 3.65693 5.07400 4.42259
#
# Compressibility (1/GPa) = 0.06713418
#
# Stress axis : x y z
#
# Youngs Moduli (GPa) = 19.53188 47.04057 91.53284
#
# Poissons Ratio (x) = -0.04246 0.24360
# Poissons Ratio (y) = -0.01763 0.58260
# Poissons Ratio (z) = 0.05198 0.29941
#
# Static dielectric constant tensor:
#      x y z
#    x 1.712150 0.000000 0.000000 
#    y 0.000000 1.726410 0.000000 
#    z 0.000000 0.000000 1.713190 
# 
# From -- ./inp_files/21410.got.cif
#   From: 2010.05.17/outbox.cif.g08.bks.cpg/sg59_11_cif.got.tgz:21410.got - 2010.06.03 14:40:33.
