data_PCOD9451560
_publ_section_title
;
Structure prediction by ZEFSAII (Michael W. Deem and Ramdas Pophale) SiO2 
 PCOD9451560
Probable space group: P M M N
;
_chemical_formula_sum "Si O2"
_cell_formula_units_Z 40
_cell_length_a 16.382961
_cell_length_b 7.467098
_cell_length_c 14.271528
_cell_angle_alpha 90.000000
_cell_angle_beta 90.000000
_cell_angle_gamma 90.000000
_cell_volume 1745.881337
_symmetry_space_group_name_H-M "P M M N"
_symmetry_group_IT_number 59
_space_group.IT_coordinate_system_code '2'
_symmetry_cell_setting 'orthorhombic'
loop_
_space_group_symop_operation_xyz
x,y,z
1/2-x,1/2-y,z
1/2+x,-y,-z
-x,1/2+y,-z
-x,-y,-z
1/2+x,1/2+y,-z
1/2-x,y,z
x,1/2-y,z
loop_
_atom_site_type_symbol
_atom_site_label
_atom_site_fract_x
_atom_site_fract_y
_atom_site_fract_z
Si Si1 0.250000 0.530882 0.940178
Si Si2 0.250000 0.965526 0.723159
Si Si3 0.912836 0.464658 0.951619
Si Si4 0.062123 0.540682 0.256698
Si Si5 0.341386 0.466741 0.434296
Si Si6 0.917351 0.958594 0.381389
O O1 0.250000 0.750000 0.940693
O O2 0.250000 0.476530 0.831516
O O3 0.333193 0.470247 0.991768
O O4 0.250000 0.750000 0.720503
O O5 0.330790 0.030659 0.670752
O O6 0.902799 0.250000 0.947933
O O7 0.917755 0.534978 0.845087
O O8 0.000000 0.500000 0.000000
O O9 0.042914 0.750000 0.240157
O O10 0.134838 0.526428 0.330880
O O11 0.985516 0.459980 0.313479
O O12 0.250000 0.524320 0.458455
O O13 0.343088 0.250000 0.436044
O O14 0.402918 0.534052 0.514558
O O15 0.939051 0.750000 0.393814
#
# Coordination Sequence:
#
# PCOD9451560 Si02
#       6
#     4   4   8   8   8   8
#     4   9  20  37  56  79 116 154 183 231 298 347
#     4  11  21  33  56  85 106 144 197 233 278 337
#     4  10  21  39  60  85 116 152 193 239 291 341
#     4  10  22  36  59  87 111 148 193 234 282 333
#     4  10  21  37  56  79 114 155 184 222 286 342
#     4  10  20  38  57  80 116 150 182 231 289 336
#
# _framework density 22.911066000000002
#
# number of rings (size 3 to 8) (size 9 to 14) (size 15 to 20)
#    0.000    2.000    1.000    2.100    1.400    2.800 
#    0.000    1.500    0.000    0.000    0.000    0.000 
#    0.000    0.000    0.000    0.000    0.000    0.000 
#
# Total GULP energy -223574.514414 kJ/mol
# GULP energy per Si atom -5589.362860 kJ/mol
# Density = 2.285892 g / cm^3
# Si number density = 22.911066 Si / 1000 Ang^3
#
#
#
# Elastic Constant Matrix: (Units=GPa)
#
#
# Indices 1 2 3 4 5 6 
#
# 1 111.8637 -9.0239 46.2159 0.0000 0.0000 0.0000
# 2 -9.0239 68.3655 -3.5180 0.0000 0.0000 0.0000
# 3 46.2159 -3.5180 187.9978 0.0000 0.0000 0.0000
# 4 0.0000 0.0000 0.0000 9.7298 0.0000 0.0000
# 5 0.0000 0.0000 0.0000 0.0000 36.0196 0.0000
# 6 0.0000 0.0000 0.0000 0.0000 0.0000 17.4466
#
#
#
# Elastic Compliance Matrix: (Units=1/GPa)
#
#
# Indices 1 2 3 4 5 6 
#
# 1 0.010047 0.001200 -0.002448 0.000000 0.000000 0.000000
# 2 0.001200 0.014785 -0.000018 0.000000 0.000000 0.000000
# 3 -0.002448 -0.000018 0.005921 0.000000 0.000000 0.000000
# 4 0.000000 0.000000 0.000000 0.102777 0.000000 0.000000
# 5 0.000000 0.000000 0.000000 0.000000 0.027763 0.000000
# 6 0.000000 0.000000 0.000000 0.000000 0.000000 0.057318
#
#
# Mechanical properties :
#
#
# Convention : Reuss Voigt Hill
#
# Bulk Modulus (GPa) = 35.43406 48.39722 41.91564
# Shear Modulus (GPa) = 21.68737 34.94272 28.31505
#
# Velocity S-wave (km/s) = 3.08001 3.90955 3.51930
# Velocity P-wave (km/s) = 5.30548 6.44587 5.90327
#
# Compressibility (1/GPa) = 0.02822144
#
# Stress axis : x y z
#
# Youngs Moduli (GPa) = 99.52763 67.63730 168.90325
#
# Poissons Ratio (x) = -0.08118 0.41340
# Poissons Ratio (y) = -0.11946 0.00311
# Poissons Ratio (z) = 0.24360 0.00124
#
# Static dielectric constant tensor:
#      x y z
#    x 1.835900 0.000000 0.000000 
#    y 0.000000 1.850670 0.000000 
#    z 0.000000 0.000000 1.838400 
# 
# From -- ./inp_files/19957.got.cif
#   From: 2010.05.17/outbox.cif.g08.bks.cpg/sg59_10_cif.got.tgz:19957.got - 2010.06.03 14:40:33.
