data_PCOD9451174
_publ_section_title
;
Structure prediction by ZEFSAII (Michael W. Deem and Ramdas Pophale) SiO2 
 PCOD9451174
Probable space group: P M M N
;
_chemical_formula_sum "Si O2"
_cell_formula_units_Z 48
_cell_length_a 8.778234
_cell_length_b 35.598378
_cell_length_c 7.891658
_cell_angle_alpha 90.000000
_cell_angle_beta 90.000000
_cell_angle_gamma 90.000000
_cell_volume 2466.071249
_symmetry_space_group_name_H-M "P M M N"
_symmetry_group_IT_number 59
_space_group.IT_coordinate_system_code '2'
_symmetry_cell_setting 'orthorhombic'
loop_
_space_group_symop_operation_xyz
x,y,z
1/2-x,1/2-y,z
1/2+x,-y,-z
-x,1/2+y,-z
-x,-y,-z
1/2+x,1/2+y,-z
1/2-x,y,z
x,1/2-y,z
loop_
_atom_site_type_symbol
_atom_site_label
_atom_site_fract_x
_atom_site_fract_y
_atom_site_fract_z
Si Si1 0.432690 0.495107 0.315345
Si Si2 0.065623 0.649087 0.257374
Si Si3 0.931990 0.337982 0.130572
Si Si4 0.422123 0.085596 0.189920
Si Si5 0.420958 0.071091 0.790731
Si Si6 0.563903 0.292664 0.450122
O O1 0.500000 0.500000 0.500000
O O2 0.250000 0.495062 0.310533
O O3 0.484534 0.454078 0.253901
O O4 0.492441 0.531665 0.218372
O O5 0.250000 0.647201 0.256517
O O6 0.017046 0.678448 0.401910
O O7 0.002879 0.607116 0.291307
O O8 0.015724 0.661971 0.066523
O O9 0.750000 0.335330 0.122324
O O10 0.986395 0.306640 0.263574
O O11 0.977423 0.377684 0.215119
O O12 0.250000 0.091305 0.256965
O O13 0.411232 0.081055 0.988003
O O14 0.250000 0.066490 0.720803
O O15 0.750000 0.293040 0.450080
O O16 0.515148 0.250000 0.483254
#
# Coordination Sequence:
#
# PCOD9451174 Si02
#       6
#     8   8   8   8   8   8
#     4  11  23  36  51  77 109 142 180 221 264 315
#     4   9  18  33  53  78 107 140 178 220 268 320
#     4   9  18  32  53  79 105 138 178 219 266 319
#     4   9  20  37  55  75 103 139 178 220 268 316
#     4  10  20  36  56  77 103 139 179 223 270 315
#     4   9  18  32  52  80 109 136 172 220 271 322
#
# _framework density 19.464158000000001
#
# number of rings (size 3 to 8) (size 9 to 14) (size 15 to 20)
#    0.000    2.500    0.000    1.500    2.333    2.667 
#    0.000    3.333    0.000    2.000    0.000    4.667 
#    0.000    0.000    0.000    0.000    0.000    0.000 
#
# Total GULP energy -267547.248550 kJ/mol
# GULP energy per Si atom -5573.901011 kJ/mol
# Density = 1.941986 g / cm^3
# Si number density = 19.464158 Si / 1000 Ang^3
#
#
#
# Elastic Constant Matrix: (Units=GPa)
#
#
# Indices 1 2 3 4 5 6 
#
# 1 9.4336 -6.0902 0.3579 0.0000 0.0000 0.0000
# 2 -6.0902 54.2268 0.8959 0.0000 0.0000 0.0000
# 3 0.3579 0.8959 33.6747 0.0000 0.0000 0.0000
# 4 0.0000 0.0000 0.0000 38.2171 0.0000 0.0000
# 5 0.0000 0.0000 0.0000 0.0000 12.8289 0.0000
# 6 0.0000 0.0000 0.0000 0.0000 0.0000 19.2850
#
#
#
# Elastic Compliance Matrix: (Units=1/GPa)
#
#
# Indices 1 2 3 4 5 6 
#
# 1 0.114372 0.012871 -0.001558 0.000000 0.000000 0.000000
# 2 0.012871 0.019898 -0.000666 0.000000 0.000000 0.000000
# 3 -0.001558 -0.000666 0.029730 0.000000 0.000000 0.000000
# 4 0.000000 0.000000 0.000000 0.026166 0.000000 0.000000
# 5 0.000000 0.000000 0.000000 0.000000 0.077949 0.000000
# 6 0.000000 0.000000 0.000000 0.000000 0.000000 0.051854
#
#
# Mechanical properties :
#
#
# Convention : Reuss Voigt Hill
#
# Bulk Modulus (GPa) = 5.39683 9.74024 7.56854
# Shear Modulus (GPa) = 13.87194 20.87764 17.37479
#
# Velocity S-wave (km/s) = 2.67252 3.27864 2.99098
# Velocity P-wave (km/s) = 3.50741 4.39860 3.97804
#
# Compressibility (1/GPa) = 0.18529387
#
# Stress axis : x y z
#
# Youngs Moduli (GPa) = 8.74338 50.25727 33.63586
#
# Poissons Ratio (x) = -0.64686 0.05240
# Poissons Ratio (y) = -0.11254 0.02241
# Poissons Ratio (z) = 0.01362 0.03348
#
# Static dielectric constant tensor:
#      x y z
#    x 1.718520 0.000000 0.000000 
#    y 0.000000 1.741710 0.000000 
#    z 0.000000 0.000000 1.697560 
# 
# From -- ./inp_files/6280.got.cif
#   From: 2010.05.17/outbox.cif.g08.bks.cpg/sg59_4_cif.got.tgz:6280.got - 2010.06.03 14:40:33.
