data_PCOD9451578
_publ_section_title
;
Structure prediction by ZEFSAII (Michael W. Deem and Ramdas Pophale) SiO2 
 PCOD9451578
Probable space group: P M M N
;
_chemical_formula_sum "Si O2"
_cell_formula_units_Z 48
_cell_length_a 8.633863
_cell_length_b 10.054919
_cell_length_c 29.381669
_cell_angle_alpha 90.000000
_cell_angle_beta 90.000000
_cell_angle_gamma 90.000000
_cell_volume 2550.704752
_symmetry_space_group_name_H-M "P M M N"
_symmetry_group_IT_number 59
_space_group.IT_coordinate_system_code '2'
_symmetry_cell_setting 'orthorhombic'
loop_
_space_group_symop_operation_xyz
x,y,z
1/2-x,1/2-y,z
1/2+x,-y,-z
-x,1/2+y,-z
-x,-y,-z
1/2+x,1/2+y,-z
1/2-x,y,z
x,1/2-y,z
loop_
_atom_site_type_symbol
_atom_site_label
_atom_site_fract_x
_atom_site_fract_y
_atom_site_fract_z
Si Si1 0.934798 0.096596 0.883534
Si Si2 0.935372 0.750000 0.432435
Si Si3 0.567035 0.596646 0.216534
Si Si4 0.061380 0.250000 0.463045
Si Si5 0.563178 0.901935 0.707754
Si Si6 0.564295 0.406047 0.040198
Si Si7 0.062873 0.020591 0.394593
O O1 0.750000 0.090470 0.889603
O O2 0.983754 0.250000 0.895228
O O3 0.978719 0.074378 0.830939
O O4 0.012258 0.983722 0.914357
O O5 0.750000 0.750000 0.433039
O O6 0.991885 0.750000 0.484972
O O7 0.996682 0.621453 0.406805
O O8 0.750000 0.579923 0.208370
O O9 0.539285 0.750000 0.230055
O O10 0.510752 0.500696 0.256163
O O11 0.250000 0.250000 0.463768
O O12 0.011736 0.122756 0.433801
O O13 0.750000 0.913918 0.709915
O O14 0.521836 0.750000 0.718394
O O15 0.516320 0.933218 0.655806
O O16 0.750000 0.404571 0.037313
O O17 0.512664 0.250000 0.038131
O O18 0.500000 0.500000 0.000000
O O19 0.250000 0.017699 0.395193
#
# Coordination Sequence:
#
# PCOD9451578 Si02
#       7
#     8   4   8   4   8   8   8
#     4  10  21  39  63  90 119 154 199 247 292 344
#     4  11  23  35  53  85 117 145 179 229 284 337
#     4  10  22  39  60  87 119 154 188 231 290 351
#     4   9  18  37  61  81 109 145 187 233 278 333
#     4  10  21  38  60  83 107 143 191 238 283 336
#     4  11  24  40  60  89 124 163 206 250 298 351
#     4  10  20  38  60  81 107 146 190 231 278 337
#
# _framework density 18.818328000000001
#
# number of rings (size 3 to 8) (size 9 to 14) (size 15 to 20)
#    0.000    1.833    0.833    2.750    1.167    7.000 
#    0.000    1.250    0.000    0.000    0.000    0.000 
#    0.000    0.000    0.000    0.000    0.000    0.000 
#
# Total GULP energy -268089.435850 kJ/mol
# GULP energy per Si atom -5585.196580 kJ/mol
# Density = 1.877550 g / cm^3
# Si number density = 18.818328 Si / 1000 Ang^3
#
#
#
# Elastic Constant Matrix: (Units=GPa)
#
#
# Indices 1 2 3 4 5 6 
#
# 1 30.5941 38.2765 26.1449 0.0000 0.0000 0.0000
# 2 38.2765 138.4520 58.6538 0.0000 0.0000 0.0000
# 3 26.1449 58.6538 82.7880 0.0000 0.0000 0.0000
# 4 0.0000 0.0000 0.0000 40.8999 0.0000 0.0000
# 5 0.0000 0.0000 0.0000 0.0000 26.7081 0.0000
# 6 0.0000 0.0000 0.0000 0.0000 0.0000 4.9070
#
#
#
# Elastic Compliance Matrix: (Units=1/GPa)
#
#
# Indices 1 2 3 4 5 6 
#
# 1 0.054613 -0.011133 -0.009359 0.000000 0.000000 0.000000
# 2 -0.011133 0.012590 -0.005404 0.000000 0.000000 0.000000
# 3 -0.009359 -0.005404 0.018863 0.000000 0.000000 0.000000
# 4 0.000000 0.000000 0.000000 0.024450 0.000000 0.000000
# 5 0.000000 0.000000 0.000000 0.000000 0.037442 0.000000
# 6 0.000000 0.000000 0.000000 0.000000 0.000000 0.203790
#
#
# Mechanical properties :
#
#
# Convention : Reuss Voigt Hill
#
# Bulk Modulus (GPa) = 29.17710 55.33161 42.25435
# Shear Modulus (GPa) = 12.04920 23.08694 17.56807
#
# Velocity S-wave (km/s) = 2.53314 3.50642 3.05874
# Velocity P-wave (km/s) = 4.90857 6.77201 5.91414
#
# Compressibility (1/GPa) = 0.03427346
#
# Stress axis : x y z
#
# Youngs Moduli (GPa) = 18.31052 79.42881 53.01322
#
# Poissons Ratio (x) = 0.88431 0.49617
# Poissons Ratio (y) = 0.20386 0.28647
# Poissons Ratio (z) = 0.17138 0.42921
#
# Static dielectric constant tensor:
#      x y z
#    x 1.621000 0.000000 0.000000 
#    y 0.000000 1.663130 0.000000 
#    z 0.000000 0.000000 1.628530 
# 
# From -- ./inp_files/33048.got.cif
#   From: 2010.05.17/outbox.cif.g08.bks.cpg/sg59_17_cif.got.tgz:33048.got - 2010.06.03 14:40:33.
