data_PCOD9451311
_publ_section_title
;
Structure prediction by ZEFSAII (Michael W. Deem and Ramdas Pophale) SiO2 
 PCOD9451311
Probable space group: P M M N
;
_chemical_formula_sum "Si O2"
_cell_formula_units_Z 48
_cell_length_a 22.995483
_cell_length_b 9.715411
_cell_length_c 10.182979
_cell_angle_alpha 90.000000
_cell_angle_beta 90.000000
_cell_angle_gamma 90.000000
_cell_volume 2274.985127
_symmetry_space_group_name_H-M "P M M N"
_symmetry_group_IT_number 59
_space_group.IT_coordinate_system_code '2'
_symmetry_cell_setting 'orthorhombic'
loop_
_space_group_symop_operation_xyz
x,y,z
1/2-x,1/2-y,z
1/2+x,-y,-z
-x,1/2+y,-z
-x,-y,-z
1/2+x,1/2+y,-z
1/2-x,y,z
x,1/2-y,z
loop_
_atom_site_type_symbol
_atom_site_label
_atom_site_fract_x
_atom_site_fract_y
_atom_site_fract_z
Si Si1 0.469491 0.408288 0.326761
Si Si2 0.572477 0.590481 0.252676
Si Si3 0.863165 0.093135 0.597916
Si Si4 0.817151 0.090272 0.307944
Si Si5 0.584485 0.900915 0.961024
Si Si6 0.313347 0.588527 0.116377
O O1 0.477947 0.250000 0.368785
O O2 0.527077 0.500472 0.335605
O O3 0.415011 0.483187 0.394736
O O4 0.452895 0.406322 0.171350
O O5 0.575449 0.750000 0.294540
O O6 0.634993 0.515856 0.255504
O O7 0.552417 0.589390 0.099849
O O8 0.887207 0.250000 0.605449
O O9 0.826261 0.083440 0.465605
O O10 0.824200 0.073172 0.727448
O O11 0.750000 0.060604 0.274304
O O12 0.829583 0.250000 0.269036
O O13 0.613467 0.750000 0.960742
O O14 0.633464 0.015312 0.952228
O O15 0.250000 0.533198 0.080458
O O16 0.314526 0.750000 0.086878
#
# Coordination Sequence:
#
# PCOD9451311 Si02
#       6
#     8   8   8   8   8   8
#     4  10  20  36  59  85 110 137 176 225 273 322
#     4  11  23  38  56  79 110 147 183 220 266 320
#     4   9  18  35  58  82 109 140 176 222 274 322
#     4  10  22  40  60  81 108 145 186 224 263 312
#     4   9  20  36  53  77 109 144 180 221 271 322
#     4   9  17  30  52  81 108 137 177 224 272 322
#
# _framework density 21.099038
#
# number of rings (size 3 to 8) (size 9 to 14) (size 15 to 20)
#    0.000    2.333    0.000    2.000    0.000    6.667 
#    0.000    3.333    0.000    3.000    0.000    0.000 
#    0.000    0.000    0.000    0.000    0.000    0.000 
#
# Total GULP energy -268060.996622 kJ/mol
# GULP energy per Si atom -5584.604096 kJ/mol
# Density = 2.105102 g / cm^3
# Si number density = 21.099038 Si / 1000 Ang^3
#
#
#
# Elastic Constant Matrix: (Units=GPa)
#
#
# Indices 1 2 3 4 5 6 
#
# 1 92.0735 70.1848 -8.9238 0.0000 0.0000 0.0000
# 2 70.1848 120.8495 1.9812 0.0000 0.0000 0.0000
# 3 -8.9238 1.9812 40.2413 0.0000 0.0000 0.0000
# 4 0.0000 0.0000 0.0000 19.4700 0.0000 0.0000
# 5 0.0000 0.0000 0.0000 0.0000 -5.3821 0.0000
# 6 0.0000 0.0000 0.0000 0.0000 0.0000 19.5591
#
#
#
# Elastic Compliance Matrix: (Units=1/GPa)
#
#
# Indices 1 2 3 4 5 6 
#
# 1 0.020497 -0.011988 0.005135 0.000000 0.000000 0.000000
# 2 -0.011988 0.015293 -0.003411 0.000000 0.000000 0.000000
# 3 0.005135 -0.003411 0.026157 0.000000 0.000000 0.000000
# 4 0.000000 0.000000 0.000000 0.051361 0.000000 0.000000
# 5 0.000000 0.000000 0.000000 0.000000 -0.185800 0.000000
# 6 0.000000 0.000000 0.000000 0.000000 0.000000 0.051127
#
#
# Mechanical properties :
#
#
# Convention : Reuss Voigt Hill
#
# Bulk Modulus (GPa) = 24.14361 42.18320 33.16340
# Shear Modulus (GPa) = 385.55075 19.39086 202.47080
#
# Velocity S-wave (km/s) = 13.53257 3.03486 9.80665
# Velocity P-wave (km/s) = 15.98880 5.68479 11.99914
#
# Compressibility (1/GPa) = 0.04141883
#
# Stress axis : x y z
#
# Youngs Moduli (GPa) = 48.78861 65.39040 38.23092
#
# Poissons Ratio (x) = 0.78389 -0.19633
# Poissons Ratio (y) = 0.58487 0.13042
# Poissons Ratio (z) = -0.25055 0.22307
#
# Static dielectric constant tensor:
#      x y z
#    x 1.712770 0.000000 0.000000 
#    y 0.000000 1.733260 0.000000 
#    z 0.000000 0.000000 1.810150 
# 
# From -- ./inp_files/14358.got.cif
#   From: 2010.05.17/outbox.cif.g08.bks.cpg/sg59_8_cif.got.tgz:14358.got - 2010.06.03 14:40:33.
