data_PCOD9451170
_publ_section_title
;
Structure prediction by ZEFSAII (Michael W. Deem and Ramdas Pophale) SiO2 
 PCOD9451170
Probable space group: P M M N
;
_chemical_formula_sum "Si O2"
_cell_formula_units_Z 48
_cell_length_a 7.608404
_cell_length_b 10.257121
_cell_length_c 29.371178
_cell_angle_alpha 90.000000
_cell_angle_beta 90.000000
_cell_angle_gamma 90.000000
_cell_volume 2292.136143
_symmetry_space_group_name_H-M "P M M N"
_symmetry_group_IT_number 59
_space_group.IT_coordinate_system_code '2'
_symmetry_cell_setting 'orthorhombic'
loop_
_space_group_symop_operation_xyz
x,y,z
1/2-x,1/2-y,z
1/2+x,-y,-z
-x,1/2+y,-z
-x,-y,-z
1/2+x,1/2+y,-z
1/2-x,y,z
x,1/2-y,z
loop_
_atom_site_type_symbol
_atom_site_label
_atom_site_fract_x
_atom_site_fract_y
_atom_site_fract_z
Si Si1 0.040145 0.398025 0.116701
Si Si2 0.457601 0.250000 0.429467
Si Si3 0.962914 0.250000 0.535540
Si Si4 0.461304 0.598736 0.041583
Si Si5 0.961954 0.475516 0.602856
Si Si6 0.460657 0.105423 0.705817
Si Si7 0.037925 0.895997 0.777836
O O1 0.250000 0.392301 0.109581
O O2 0.972113 0.250000 0.106391
O O3 0.972796 0.516069 0.085363
O O4 0.007506 0.424732 0.169836
O O5 0.250000 0.250000 0.419116
O O6 0.476804 0.250000 0.483780
O O7 0.532130 0.381569 0.408272
O O8 0.750000 0.250000 0.534766
O O9 0.023621 0.374733 0.564426
O O10 0.250000 0.608906 0.044831
O O11 0.525979 0.750000 0.037170
O O12 0.500000 0.500000 0.000000
O O13 0.750000 0.476734 0.599566
O O14 0.005784 0.431457 0.653589
O O15 0.250000 0.109448 0.711490
O O16 0.530877 0.250000 0.714542
O O17 0.529564 0.999823 0.741518
O O18 0.250000 0.893992 0.775005
O O19 0.973732 0.750000 0.767515
#
# Coordination Sequence:
#
# PCOD9451170 Si02
#       7
#     8   4   4   8   8   8   8
#     4   9  18  34  54  77 107 142 180 223 271 322
#     4  10  22  36  54  80 106 134 170 212 255 304
#     4  10  20  36  56  76 104 138 172 208 253 308
#     4  10  21  36  55  81 113 149 190 234 278 327
#     4  10  21  37  54  77 107 136 169 212 258 307
#     4  10  21  36  54  77 104 136 174 215 261 313
#     4   9  19  35  54  77 106 138 174 219 267 317
#
# _framework density 20.941165000000002
#
# number of rings (size 3 to 8) (size 9 to 14) (size 15 to 20)
#    0.000    2.333    0.833    1.000    1.167    4.333 
#    0.000    1.667    0.000    0.000    0.000    0.000 
#    0.000    0.000    0.000    0.000    0.000    0.000 
#
# Total GULP energy -267945.482915 kJ/mol
# GULP energy per Si atom -5582.197561 kJ/mol
# Density = 2.089350 g / cm^3
# Si number density = 20.941165 Si / 1000 Ang^3
#
#
#
# Elastic Constant Matrix: (Units=GPa)
#
#
# Indices 1 2 3 4 5 6 
#
# 1 42.8767 5.4004 -12.9187 0.0000 0.0000 0.0000
# 2 5.4004 190.1071 86.1562 0.0000 0.0000 0.0000
# 3 -12.9187 86.1562 94.6611 0.0000 0.0000 0.0000
# 4 0.0000 0.0000 0.0000 42.7670 0.0000 0.0000
# 5 0.0000 0.0000 0.0000 0.0000 28.8028 0.0000
# 6 0.0000 0.0000 0.0000 0.0000 0.0000 -13.5926
#
#
#
# Elastic Compliance Matrix: (Units=1/GPa)
#
#
# Indices 1 2 3 4 5 6 
#
# 1 0.025989 -0.003993 0.007181 0.000000 0.000000 0.000000
# 2 -0.003993 0.009567 -0.009252 0.000000 0.000000 0.000000
# 3 0.007181 -0.009252 0.019965 0.000000 0.000000 0.000000
# 4 0.000000 0.000000 0.000000 0.023383 0.000000 0.000000
# 5 0.000000 0.000000 0.000000 0.000000 0.034719 0.000000
# 6 0.000000 0.000000 0.000000 0.000000 0.000000 -0.073569
#
#
# Mechanical properties :
#
#
# Convention : Reuss Voigt Hill
#
# Bulk Modulus (GPa) = 23.04539 53.88006 38.46273
# Shear Modulus (GPa) = 75.02519 28.19589 51.61054
#
# Velocity S-wave (km/s) = 5.99203 3.67336 4.96981
# Velocity P-wave (km/s) = 7.67472 6.61638 7.16512
#
# Compressibility (1/GPa) = 0.04339263
#
# Stress axis : x y z
#
# Youngs Moduli (GPa) = 38.47772 104.53085 50.08859
#
# Poissons Ratio (x) = 0.41734 -0.35967
# Poissons Ratio (y) = 0.15362 0.46342
# Poissons Ratio (z) = -0.27629 0.96711
#
# Static dielectric constant tensor:
#      x y z
#    x 1.777970 0.000000 0.000000 
#    y 0.000000 1.795450 0.000000 
#    z 0.000000 0.000000 1.693970 
# 
# From -- ./inp_files/32989.got.cif
#   From: 2010.05.17/outbox.cif.g08.bks.cpg/sg59_17_cif.got.tgz:32989.got - 2010.06.03 14:40:33.
