data_PCOD9451758
_publ_section_title
;
Structure prediction by ZEFSAII (Michael W. Deem and Ramdas Pophale) SiO2 
 PCOD9451758
Probable space group: P M M N
;
_chemical_formula_sum "Si O2"
_cell_formula_units_Z 48
_cell_length_a 8.916419
_cell_length_b 9.497721
_cell_length_c 31.594004
_cell_angle_alpha 90.000000
_cell_angle_beta 90.000000
_cell_angle_gamma 90.000000
_cell_volume 2675.559080
_symmetry_space_group_name_H-M "P M M N"
_symmetry_group_IT_number 59
_space_group.IT_coordinate_system_code '2'
_symmetry_cell_setting 'orthorhombic'
loop_
_space_group_symop_operation_xyz
x,y,z
1/2-x,1/2-y,z
1/2+x,-y,-z
-x,1/2+y,-z
-x,-y,-z
1/2+x,1/2+y,-z
1/2-x,y,z
x,1/2-y,z
loop_
_atom_site_type_symbol
_atom_site_label
_atom_site_fract_x
_atom_site_fract_y
_atom_site_fract_z
Si Si1 0.430719 0.915379 0.866740
Si Si2 0.569023 0.413185 0.789791
Si Si3 0.929939 0.084508 0.539177
Si Si4 0.430071 0.914823 0.961716
Si Si5 0.929042 0.084369 0.383892
Si Si6 0.570955 0.584838 0.706732
O O1 0.250000 0.925248 0.864556
O O2 0.469571 0.750000 0.861564
O O3 0.477170 0.960069 0.914304
O O4 0.502745 0.007169 0.830119
O O5 0.750000 0.420330 0.791792
O O6 0.524225 0.250000 0.789304
O O7 0.523220 0.491093 0.746473
O O8 0.750000 0.073507 0.537704
O O9 0.969684 0.250000 0.537125
O O10 0.000000 0.000000 0.500000
O O11 0.991419 0.013221 0.581798
O O12 0.250000 0.926695 0.963434
O O13 0.468203 0.750000 0.965797
O O14 0.500000 0.000000 0.000000
O O15 0.750000 0.068490 0.386615
O O16 0.964786 0.250000 0.391957
O O17 0.986304 0.051131 0.336703
O O18 0.750000 0.566253 0.700158
O O19 0.545203 0.750000 0.716458
#
# Coordination Sequence:
#
# PCOD9451758 Si02
#       6
#     8   8   8   8   8   8
#     4   9  19  36  55  74 100 136 176 216 259 310
#     4  10  21  35  52  78 110 140 173 217 266 314
#     4  11  24  40  59  84 113 146 184 225 269 317
#     4   9  19  35  53  75 103 134 170 213 260 311
#     4  10  21  37  58  85 114 143 179 222 267 317
#     4   9  18  34  55  77 105 144 184 219 259 310
#
# _framework density 17.940175
#
# number of rings (size 3 to 8) (size 9 to 14) (size 15 to 20)
#    0.000    2.333    0.000    3.000    0.000    8.667 
#    0.000    8.333    0.000    0.000    0.000    0.000 
#    0.000    0.000    0.000    0.000    0.000    0.000 
#
# Total GULP energy -267963.775372 kJ/mol
# GULP energy per Si atom -5582.578654 kJ/mol
# Density = 1.789934 g / cm^3
# Si number density = 17.940175 Si / 1000 Ang^3
#
#
#
# Elastic Constant Matrix: (Units=GPa)
#
#
# Indices 1 2 3 4 5 6 
#
# 1 35.0032 55.7053 58.7059 0.0000 0.0000 0.0000
# 2 55.7053 124.5238 125.4252 0.0000 0.0000 0.0000
# 3 58.7059 125.4252 189.4786 0.0000 0.0000 0.0000
# 4 0.0000 0.0000 0.0000 38.9186 0.0000 0.0000
# 5 0.0000 0.0000 0.0000 0.0000 39.7234 0.0000
# 6 0.0000 0.0000 0.0000 0.0000 0.0000 29.1608
#
#
#
# Elastic Compliance Matrix: (Units=1/GPa)
#
#
# Indices 1 2 3 4 5 6 
#
# 1 0.100233 -0.040686 -0.004123 0.000000 0.000000 0.000000
# 2 -0.040686 0.040612 -0.014278 0.000000 0.000000 0.000000
# 3 -0.004123 -0.014278 0.016006 0.000000 0.000000 0.000000
# 4 0.000000 0.000000 0.000000 0.025695 0.000000 0.000000
# 5 0.000000 0.000000 0.000000 0.000000 0.025174 0.000000
# 6 0.000000 0.000000 0.000000 0.000000 0.000000 0.034293
#
#
# Mechanical properties :
#
#
# Convention : Reuss Voigt Hill
#
# Bulk Modulus (GPa) = 25.85437 92.07540 58.96489
# Shear Modulus (GPa) = 13.40199 28.83848 21.12024
#
# Velocity S-wave (km/s) = 2.73616 4.01369 3.43484
# Velocity P-wave (km/s) = 4.94215 8.53900 6.97637
#
# Compressibility (1/GPa) = 0.03867818
#
# Stress axis : x y z
#
# Youngs Moduli (GPa) = 9.97674 24.62308 62.47646
#
# Poissons Ratio (x) = 1.00182 0.25759
# Poissons Ratio (y) = 0.40592 0.89201
# Poissons Ratio (z) = 0.04113 0.35156
#
# Static dielectric constant tensor:
#      x y z
#    x 1.602030 0.000000 0.000000 
#    y 0.000000 1.598330 0.000000 
#    z 0.000000 0.000000 1.589990 
# 
# From -- ./inp_files/32774.got.cif
#   From: 2010.05.17/outbox.cif.g08.bks.cpg/sg59_17_cif.got.tgz:32774.got - 2010.06.03 14:40:33.
