data_PCOD9451727
_publ_section_title
;
Structure prediction by ZEFSAII (Michael W. Deem and Ramdas Pophale) SiO2 
 PCOD9451727
Probable space group: P M M N
;
_chemical_formula_sum "Si O2"
_cell_formula_units_Z 56
_cell_length_a 13.947858
_cell_length_b 9.471025
_cell_length_c 22.057217
_cell_angle_alpha 90.000000
_cell_angle_beta 90.000000
_cell_angle_gamma 90.000000
_cell_volume 2913.769655
_symmetry_space_group_name_H-M "P M M N"
_symmetry_group_IT_number 59
_space_group.IT_coordinate_system_code '2'
_symmetry_cell_setting 'orthorhombic'
loop_
_space_group_symop_operation_xyz
x,y,z
1/2-x,1/2-y,z
1/2+x,-y,-z
-x,1/2+y,-z
-x,-y,-z
1/2+x,1/2+y,-z
1/2-x,y,z
x,1/2-y,z
loop_
_atom_site_type_symbol
_atom_site_label
_atom_site_fract_x
_atom_site_fract_y
_atom_site_fract_z
Si Si1 0.633024 0.914228 0.460016
Si Si2 0.518862 0.419100 0.222474
Si Si3 0.866584 0.912629 0.594858
Si Si4 0.643227 0.918423 0.978266
Si Si5 0.053481 0.581634 0.912637
Si Si6 0.862861 0.082284 0.342459
Si Si7 0.364486 0.585182 0.285344
O O1 0.750000 0.920221 0.459590
O O2 0.606129 0.750000 0.453342
O O3 0.603436 0.961396 0.527643
O O4 0.600385 0.004558 0.402710
O O5 0.501910 0.250000 0.222933
O O6 0.565232 0.454353 0.157847
O O7 0.584748 0.455338 0.280100
O O8 0.420692 0.502095 0.233434
O O9 0.750000 0.908763 0.593808
O O10 0.898477 0.750000 0.604666
O O11 0.891847 0.011246 0.650945
O O12 0.750000 0.955286 0.956435
O O13 0.640168 0.750000 0.988567
O O14 0.619878 0.998238 0.040727
O O15 0.556429 0.950917 0.932400
O O16 0.068294 0.750000 0.919914
O O17 0.750000 0.050157 0.336007
O O18 0.872390 0.250000 0.351288
O O19 0.250000 0.572501 0.278415
O O20 0.389617 0.750000 0.286106
#
# Coordination Sequence:
#
# PCOD9451727 Si02
#       7
#     8   8   8   8   8   8   8
#     4   8  14  26  46  71  96 125 165 212 262 314
#     4  10  21  36  54  76 104 140 177 210 248 299
#     4   8  14  27  48  71  95 126 166 213 263 313
#     4   9  18  34  56  82 111 139 169 209 256 303
#     4   9  19  35  55  80 108 139 176 214 250 295
#     4   9  18  32  49  71 100 132 168 213 261 306
#     4  10  21  35  51  74 103 134 171 216 263 309
#
# _framework density 19.219089
#
# number of rings (size 3 to 8) (size 9 to 14) (size 15 to 20)
#    0.000    3.000    0.000    1.286    0.000    4.000 
#    0.000    6.429    0.000    1.714    0.000    0.000 
#    0.000    0.000    0.000    0.000    0.000    0.000 
#
# Total GULP energy -312426.123244 kJ/mol
# GULP energy per Si atom -5579.037915 kJ/mol
# Density = 1.917535 g / cm^3
# Si number density = 19.219089 Si / 1000 Ang^3
#
#
#
# Elastic Constant Matrix: (Units=GPa)
#
#
# Indices 1 2 3 4 5 6 
#
# 1 45.1381 -0.0555 -8.1895 0.0000 0.0000 0.0000
# 2 -0.0555 12.9098 12.3873 0.0000 0.0000 0.0000
# 3 -8.1895 12.3873 64.8616 0.0000 0.0000 0.0000
# 4 0.0000 0.0000 0.0000 29.6020 0.0000 0.0000
# 5 0.0000 0.0000 0.0000 0.0000 15.7989 0.0000
# 6 0.0000 0.0000 0.0000 0.0000 0.0000 17.6998
#
#
#
# Elastic Compliance Matrix: (Units=1/GPa)
#
#
# Indices 1 2 3 4 5 6 
#
# 1 0.022785 -0.003260 0.003499 0.000000 0.000000 0.000000
# 2 -0.003260 0.095306 -0.018613 0.000000 0.000000 0.000000
# 3 0.003499 -0.018613 0.019414 0.000000 0.000000 0.000000
# 4 0.000000 0.000000 0.000000 0.033781 0.000000 0.000000
# 5 0.000000 0.000000 0.000000 0.000000 0.063295 0.000000
# 6 0.000000 0.000000 0.000000 0.000000 0.000000 0.056498
#
#
# Mechanical properties :
#
#
# Convention : Reuss Voigt Hill
#
# Bulk Modulus (GPa) = 9.92474 14.57714 12.25094
# Shear Modulus (GPa) = 13.83456 20.53797 17.18626
#
# Velocity S-wave (km/s) = 2.68588 3.27253 2.99361
# Velocity P-wave (km/s) = 3.84628 4.67765 4.28219
#
# Compressibility (1/GPa) = 0.10075826
#
# Stress axis : x y z
#
# Youngs Moduli (GPa) = 43.88828 10.49247 51.50905
#
# Poissons Ratio (x) = 0.03420 -0.18025
# Poissons Ratio (y) = 0.14307 0.95875
# Poissons Ratio (z) = -0.15358 0.19530
#
# Static dielectric constant tensor:
#      x y z
#    x 1.717880 0.000000 0.000000 
#    y 0.000000 1.639340 0.000000 
#    z 0.000000 0.000000 1.645570 
# 
# From -- ./inp_files/30333.got.cif
#   From: 2010.05.17/outbox.cif.g08.bks.cpg/sg59_16_cif.got.tgz:30333.got - 2010.06.03 14:40:33.
