data_PCOD9451889
_publ_section_title
;
Structure prediction by ZEFSAII (Michael W. Deem and Ramdas Pophale) SiO2 
 PCOD9451889
Probable space group: P M M N
;
_chemical_formula_sum "Si O2"
_cell_formula_units_Z 40
_cell_length_a 9.864228
_cell_length_b 7.726820
_cell_length_c 26.521247
_cell_angle_alpha 90.000000
_cell_angle_beta 90.000000
_cell_angle_gamma 90.000000
_cell_volume 2021.425954
_symmetry_space_group_name_H-M "P M M N"
_symmetry_group_IT_number 59
_space_group.IT_coordinate_system_code '2'
_symmetry_cell_setting 'orthorhombic'
loop_
_space_group_symop_operation_xyz
x,y,z
1/2-x,1/2-y,z
1/2+x,-y,-z
-x,1/2+y,-z
-x,-y,-z
1/2+x,1/2+y,-z
1/2-x,y,z
x,1/2-y,z
loop_
_atom_site_type_symbol
_atom_site_label
_atom_site_fract_x
_atom_site_fract_y
_atom_site_fract_z
Si Si1 0.096961 0.544213 0.546051
Si Si2 0.406142 0.537659 0.251053
Si Si3 0.097303 0.457664 0.954142
Si Si4 0.404167 0.455663 0.658609
Si Si5 0.093354 0.038882 0.841253
O O1 0.250000 0.474891 0.538119
O O2 0.104675 0.750000 0.548858
O O3 0.049987 0.482308 0.601069
O O4 0.000000 0.500000 0.500000
O O5 0.250000 0.481405 0.251163
O O6 0.404589 0.750000 0.251215
O O7 0.490569 0.478359 0.300009
O O8 0.489543 0.481968 0.201593
O O9 0.250000 0.522114 0.963688
O O10 0.103328 0.250000 0.951059
O O11 0.055830 0.517754 0.898035
O O12 0.000000 0.500000 0.000000
O O13 0.250000 0.526334 0.663542
O O14 0.394628 0.250000 0.666992
O O15 0.250000 0.987509 0.831325
O O16 0.092546 0.250000 0.840489
#
# Coordination Sequence:
#
# PCOD9451889 Si02
#       5
#     8   8   8   8   8
#     4  10  21  36  54  76 101 130 165 203 241 283
#     4   9  16  25  41  68  96 119 150 194 238 279
#     4   9  18  31  47  69  96 126 162 203 245 290
#     4   9  17  30  48  69  95 127 158 189 232 285
#     4   8  14  26  43  63  90 123 156 191 234 284
#
# _framework density 19.788011999999998
#
# number of rings (size 3 to 8) (size 9 to 14) (size 15 to 20)
#    0.000    3.000    0.000    2.400    0.000    5.600 
#    0.000    4.000    0.000    1.200    0.000    2.800 
#    0.000    0.000    0.000    0.000    0.000    0.000 
#
# Total GULP energy -223066.872235 kJ/mol
# GULP energy per Si atom -5576.671806 kJ/mol
# Density = 1.974297 g / cm^3
# Si number density = 19.788012 Si / 1000 Ang^3
#
#
#
# Elastic Constant Matrix: (Units=GPa)
#
#
# Indices 1 2 3 4 5 6 
#
# 1 143.8941 5.2947 150.5651 0.0000 0.0000 0.0000
# 2 5.2947 27.7410 0.7418 0.0000 0.0000 0.0000
# 3 150.5651 0.7418 218.8404 0.0000 0.0000 0.0000
# 4 0.0000 0.0000 0.0000 19.0458 0.0000 0.0000
# 5 0.0000 0.0000 0.0000 0.0000 38.3950 0.0000
# 6 0.0000 0.0000 0.0000 0.0000 0.0000 10.2429
#
#
#
# Elastic Compliance Matrix: (Units=1/GPa)
#
#
# Indices 1 2 3 4 5 6 
#
# 1 0.025330 -0.004369 -0.017413 0.000000 0.000000 0.000000
# 2 -0.004369 0.036805 0.002881 0.000000 0.000000 0.000000
# 3 -0.017413 0.002881 0.016540 0.000000 0.000000 0.000000
# 4 0.000000 0.000000 0.000000 0.052505 0.000000 0.000000
# 5 0.000000 0.000000 0.000000 0.000000 0.026045 0.000000
# 6 0.000000 0.000000 0.000000 0.000000 0.000000 0.097628
#
#
# Mechanical properties :
#
#
# Convention : Reuss Voigt Hill
#
# Bulk Modulus (GPa) = 24.46559 78.18649 51.32604
# Shear Modulus (GPa) = 16.32497 29.12835 22.72666
#
# Velocity S-wave (km/s) = 2.87538 3.84085 3.39264
# Velocity P-wave (km/s) = 4.83885 7.69853 6.42969
#
# Compressibility (1/GPa) = 0.04087373
#
# Stress axis : x y z
#
# Youngs Moduli (GPa) = 39.47813 27.17051 60.45922
#
# Poissons Ratio (x) = 0.11871 1.05277
# Poissons Ratio (y) = 0.17248 -0.17419
# Poissons Ratio (z) = 0.68743 -0.07828
#
# Static dielectric constant tensor:
#      x y z
#    x 1.686240 0.000000 0.000000 
#    y 0.000000 1.746890 0.000000 
#    z 0.000000 0.000000 1.688980 
# 
# From -- ./inp_files/31148.got.cif
#   From: 2010.05.17/outbox.cif.g08.bks.cpg/sg59_16_cif.got.tgz:31148.got - 2010.06.03 14:40:33.
