data_PCOD9451049
_publ_section_title
;
Structure prediction by ZEFSAII (Michael W. Deem and Ramdas Pophale) SiO2 
 PCOD9451049
Probable space group: P M M N
;
_chemical_formula_sum "Si O2"
_cell_formula_units_Z 64
_cell_length_a 17.902285
_cell_length_b 19.738474
_cell_length_c 8.807956
_cell_angle_alpha 90.000000
_cell_angle_beta 90.000000
_cell_angle_gamma 90.000000
_cell_volume 3112.412688
_symmetry_space_group_name_H-M "P M M N"
_symmetry_group_IT_number 59
_space_group.IT_coordinate_system_code '2'
_symmetry_cell_setting 'orthorhombic'
loop_
_space_group_symop_operation_xyz
x,y,z
1/2-x,1/2-y,z
1/2+x,-y,-z
-x,1/2+y,-z
-x,-y,-z
1/2+x,1/2+y,-z
1/2-x,y,z
x,1/2-y,z
loop_
_atom_site_type_symbol
_atom_site_label
_atom_site_fract_x
_atom_site_fract_y
_atom_site_fract_z
Si Si1 0.334353 0.476065 0.028486
Si Si2 0.428667 0.935676 0.607364
Si Si3 0.936881 0.580809 0.236814
Si Si4 0.166401 0.877597 0.879102
Si Si5 0.479612 0.674019 0.026591
Si Si6 0.044878 0.326206 0.299971
Si Si7 0.333872 0.135271 0.516729
Si Si8 0.834911 0.007464 0.641223
O O1 0.250000 0.447827 0.030105
O O2 0.363635 0.478025 0.199765
O O3 0.383802 0.440108 0.903474
O O4 0.330249 0.554174 0.978326
O O5 0.366147 0.903576 0.718608
O O6 0.497490 0.884426 0.616327
O O7 0.391160 0.943068 0.443467
O O8 0.451183 0.010027 0.673412
O O9 0.890448 0.633005 0.341896
O O10 0.005162 0.618705 0.155653
O O11 0.250000 0.849351 0.866382
O O12 0.103215 0.832232 0.956700
O O13 0.492664 0.750000 0.083254
O O14 0.533813 0.662287 0.880078
O O15 0.015141 0.250000 0.327870
O O16 0.126852 0.329969 0.372632
O O17 0.250000 0.159908 0.548703
O O18 0.327988 0.056151 0.471462
O O19 0.750000 0.034170 0.665625
#
# Coordination Sequence:
#
# PCOD9451049 Si02
#       8
#     8   8   8   8   8   8   8   8
#     4   9  17  30  52  82 113 143 178 225 277 327
#     4   9  19  34  57  84 113 146 186 231 283 338
#     4  10  20  35  58  83 114 148 187 234 285 338
#     4   9  18  33  54  80 109 142 180 224 274 327
#     4  10  22  38  55  79 112 149 189 233 283 340
#     4  10  22  39  56  78 111 148 188 234 282 337
#     4  10  21  36  56  81 107 140 183 229 278 331
#     4   9  17  30  52  83 113 140 177 226 276 328
#
# _framework density 20.562826000000001
#
# number of rings (size 3 to 8) (size 9 to 14) (size 15 to 20)
#    0.000    2.500    0.000    1.500    0.000   12.500 
#    0.000    0.625    0.000    3.750    0.000    1.750 
#    0.000    2.000    0.000    0.000    0.000    0.000 
#
# Total GULP energy -357117.343564 kJ/mol
# GULP energy per Si atom -5579.958493 kJ/mol
# Density = 2.051602 g / cm^3
# Si number density = 20.562826 Si / 1000 Ang^3
#
#
#
# Elastic Constant Matrix: (Units=GPa)
#
#
# Indices 1 2 3 4 5 6 
#
# 1 94.6944 31.6082 39.7925 0.0000 0.0000 0.0000
# 2 31.6082 63.9818 14.9232 0.0000 0.0000 0.0000
# 3 39.7925 14.9232 79.9678 0.0000 0.0000 0.0000
# 4 0.0000 0.0000 0.0000 13.0568 0.0000 0.0000
# 5 0.0000 0.0000 0.0000 0.0000 24.9276 0.0000
# 6 0.0000 0.0000 0.0000 0.0000 0.0000 3.4718
#
#
#
# Elastic Compliance Matrix: (Units=1/GPa)
#
#
# Indices 1 2 3 4 5 6 
#
# 1 0.015305 -0.006048 -0.006487 0.000000 0.000000 0.000000
# 2 -0.006048 0.018731 -0.000486 0.000000 0.000000 0.000000
# 3 -0.006487 -0.000486 0.015824 0.000000 0.000000 0.000000
# 4 0.000000 0.000000 0.000000 0.076588 0.000000 0.000000
# 5 0.000000 0.000000 0.000000 0.000000 0.040116 0.000000
# 6 0.000000 0.000000 0.000000 0.000000 0.000000 0.288035
#
#
# Mechanical properties :
#
#
# Convention : Reuss Voigt Hill
#
# Bulk Modulus (GPa) = 41.98639 45.69910 43.84274
# Shear Modulus (GPa) = 10.23374 18.44591 14.33982
#
# Velocity S-wave (km/s) = 2.23330 2.99833 2.64363
# Velocity P-wave (km/s) = 5.20702 5.85312 5.53950
#
# Compressibility (1/GPa) = 0.02381724
#
# Stress axis : x y z
#
# Youngs Moduli (GPa) = 65.33756 53.38872 63.19574
#
# Poissons Ratio (x) = 0.32289 0.40997
# Poissons Ratio (y) = 0.39516 0.03071
# Poissons Ratio (z) = 0.42386 0.02594
#
# Static dielectric constant tensor:
#      x y z
#    x 1.789950 0.000000 0.000000 
#    y 0.000000 1.724790 0.000000 
#    z 0.000000 0.000000 1.730340 
# 
# From -- ./inp_files/10686.got.cif
#   From: 2010.05.17/outbox.cif.g08.bks.cpg/sg59_6_cif.got.tgz:10686.got - 2010.06.03 14:40:33.
