data_PCOD9451320
_publ_section_title
;
Structure prediction by ZEFSAII (Michael W. Deem and Ramdas Pophale) SiO2 
 PCOD9451320
Probable space group: P M M N
;
_chemical_formula_sum "Si O2"
_cell_formula_units_Z 56
_cell_length_a 9.312986
_cell_length_b 23.451493
_cell_length_c 12.369462
_cell_angle_alpha 90.000000
_cell_angle_beta 90.000000
_cell_angle_gamma 90.000000
_cell_volume 2701.532878
_symmetry_space_group_name_H-M "P M M N"
_symmetry_group_IT_number 59
_space_group.IT_coordinate_system_code '2'
_symmetry_cell_setting 'orthorhombic'
loop_
_space_group_symop_operation_xyz
x,y,z
1/2-x,1/2-y,z
1/2+x,-y,-z
-x,1/2+y,-z
-x,-y,-z
1/2+x,1/2+y,-z
1/2-x,y,z
x,1/2-y,z
loop_
_atom_site_type_symbol
_atom_site_label
_atom_site_fract_x
_atom_site_fract_y
_atom_site_fract_z
Si Si1 0.084350 0.813386 0.089886
Si Si2 0.924584 0.250000 0.312713
Si Si3 0.919154 0.548427 0.565008
Si Si4 0.417857 0.361484 0.598018
Si Si5 0.579030 0.250000 0.566595
Si Si6 0.419392 0.036604 0.178467
Si Si7 0.581971 0.921260 0.179392
Si Si8 0.915919 0.349164 0.153073
O O1 0.250000 0.822914 0.125257
O O2 0.039570 0.750000 0.125159
O O3 0.984709 0.864425 0.128561
O O4 0.084638 0.815592 0.959709
O O5 0.750000 0.250000 0.306946
O O6 0.964338 0.250000 0.438766
O O7 0.970931 0.306670 0.246968
O O8 0.750000 0.542844 0.542599
O O9 0.962941 0.608984 0.514220
O O10 0.939806 0.542705 0.692013
O O11 0.000000 0.500000 0.500000
O O12 0.250000 0.344861 0.593794
O O13 0.513774 0.306651 0.618656
O O14 0.432315 0.408674 0.692002
O O15 0.750000 0.250000 0.573707
O O16 0.250000 0.034330 0.154190
O O17 0.492740 0.093799 0.135073
O O18 0.496769 0.977922 0.145986
O O19 0.750000 0.927324 0.153946
O O20 0.750000 0.365090 0.178242
#
# Coordination Sequence:
#
# PCOD9451320 Si02
#       8
#     8   4   8   8   4   8   8   8
#     4  10  22  42  67  92 117 152 198 251 305 354
#     4   9  18  37  62  91 120 152 199 245 292 359
#     4  10  20  36  59  85 117 157 198 239 287 343
#     4  10  22  40  58  82 120 161 198 238 291 351
#     4  11  23  35  56  89 120 154 197 243 288 341
#     4  11  23  38  60  93 126 156 197 249 299 349
#     4  11  24  41  62  86 118 162 205 245 296 356
#     4  10  20  39  67  91 119 157 195 241 303 366
#
# _framework density 20.728971999999999
#
# number of rings (size 3 to 8) (size 9 to 14) (size 15 to 20)
#    0.000    1.714    2.143    1.929    1.000    3.714 
#    0.000    1.071    0.000    0.000    0.000    0.000 
#    0.000    0.000    0.000    0.000    0.000    0.000 
#
# Total GULP energy -312948.070375 kJ/mol
# GULP energy per Si atom -5588.358400 kJ/mol
# Density = 2.068179 g / cm^3
# Si number density = 20.728972 Si / 1000 Ang^3
#
#
#
# Elastic Constant Matrix: (Units=GPa)
#
#
# Indices 1 2 3 4 5 6 
#
# 1 74.1879 74.2801 16.4764 0.0000 0.0000 0.0000
# 2 74.2801 160.8504 10.3629 0.0000 0.0000 0.0000
# 3 16.4764 10.3629 30.6474 0.0000 0.0000 0.0000
# 4 0.0000 0.0000 0.0000 35.3385 0.0000 0.0000
# 5 0.0000 0.0000 0.0000 0.0000 22.7488 0.0000
# 6 0.0000 0.0000 0.0000 0.0000 0.0000 34.5224
#
#
#
# Elastic Compliance Matrix: (Units=1/GPa)
#
#
# Indices 1 2 3 4 5 6 
#
# 1 0.028307 -0.012361 -0.011039 0.000000 0.000000 0.000000
# 2 -0.012361 0.011753 0.002671 0.000000 0.000000 0.000000
# 3 -0.011039 0.002671 0.037661 0.000000 0.000000 0.000000
# 4 0.000000 0.000000 0.000000 0.028298 0.000000 0.000000
# 5 0.000000 0.000000 0.000000 0.000000 0.043958 0.000000
# 6 0.000000 0.000000 0.000000 0.000000 0.000000 0.028967
#
#
# Mechanical properties :
#
#
# Convention : Reuss Voigt Hill
#
# Bulk Modulus (GPa) = 27.57545 51.99159 39.78352
# Shear Modulus (GPa) = 21.50644 29.49302 25.49973
#
# Velocity S-wave (km/s) = 3.22453 3.77608 3.51115
# Velocity P-wave (km/s) = 5.21490 6.64438 5.97256
#
# Compressibility (1/GPa) = 0.03626414
#
# Stress axis : x y z
#
# Youngs Moduli (GPa) = 35.32666 85.08382 26.55300
#
# Poissons Ratio (x) = 1.05172 0.29311
# Poissons Ratio (y) = 0.43667 -0.07093
# Poissons Ratio (z) = 0.38996 -0.22729
#
# Static dielectric constant tensor:
#      x y z
#    x 1.707340 0.000000 0.000000 
#    y 0.000000 1.736690 0.000000 
#    z 0.000000 0.000000 1.788410 
# 
# From -- ./inp_files/21158.got.cif
#   From: 2010.05.17/outbox.cif.g08.bks.cpg/sg59_11_cif.got.tgz:21158.got - 2010.06.03 14:40:33.
