data_PCOD9451104
_publ_section_title
;
Structure prediction by ZEFSAII (Michael W. Deem and Ramdas Pophale) SiO2 
 PCOD9451104
Probable space group: P M M N
;
_chemical_formula_sum "Si O2"
_cell_formula_units_Z 32
_cell_length_a 13.781078
_cell_length_b 8.490957
_cell_length_c 13.660203
_cell_angle_alpha 90.000000
_cell_angle_beta 90.000000
_cell_angle_gamma 90.000000
_cell_volume 1598.442380
_symmetry_space_group_name_H-M "P M M N"
_symmetry_group_IT_number 59
_space_group.IT_coordinate_system_code '2'
_symmetry_cell_setting 'orthorhombic'
loop_
_space_group_symop_operation_xyz
x,y,z
1/2-x,1/2-y,z
1/2+x,-y,-z
-x,1/2+y,-z
-x,-y,-z
1/2+x,1/2+y,-z
1/2-x,y,z
x,1/2-y,z
loop_
_atom_site_type_symbol
_atom_site_label
_atom_site_fract_x
_atom_site_fract_y
_atom_site_fract_z
Si Si1 0.250000 0.060980 0.131660
Si Si2 0.034748 0.061833 0.394968
Si Si3 0.601205 0.938411 0.034765
Si Si4 0.250000 0.933811 0.345656
Si Si5 0.859735 0.941170 0.256896
O O1 0.250000 0.250000 0.154134
O O2 0.250000 0.963876 0.229717
O O3 0.163916 0.020229 0.059226
O O4 0.034749 0.250000 0.391938
O O5 0.146361 0.005705 0.379563
O O6 0.000000 0.000000 0.500000
O O7 0.953034 0.002390 0.317175
O O8 0.604959 0.750000 0.042304
O O9 0.631145 0.994156 0.143070
O O10 0.500000 0.000000 0.000000
O O11 0.250000 0.750000 0.370744
O O12 0.750000 0.986810 0.291887
O O13 0.863201 0.750000 0.260414
#
# Coordination Sequence:
#
# PCOD9451104 Si02
#       5
#     4   8   8   4   8
#     4  10  20  38  61  90 129 172 213 256 314 378
#     4  12  27  47  71  99 131 172 219 275 337 398
#     4  10  20  35  58  89 128 173 215 260 314 377
#     4  12  26  46  69  98 133 172 223 276 330 396
#     4  10  21  41  67  97 136 178 221 271 329 391
#
# _framework density 20.019490000000001
#
# number of rings (size 3 to 8) (size 9 to 14) (size 15 to 20)
#    0.000    1.250    1.250    4.875    1.750    6.500 
#    0.000    0.000    0.000    0.000    0.000    0.000 
#    0.000    0.000    0.000    0.000    0.000    0.000 
#
# Total GULP energy -178479.149507 kJ/mol
# GULP energy per Si atom -5577.473422 kJ/mol
# Density = 1.997393 g / cm^3
# Si number density = 20.019490 Si / 1000 Ang^3
#
#
#
# Elastic Constant Matrix: (Units=GPa)
#
#
# Indices 1 2 3 4 5 6 
#
# 1 210.4898 57.6405 71.6818 0.0000 0.0000 0.0000
# 2 57.6405 72.0769 36.0106 0.0000 0.0000 0.0000
# 3 71.6818 36.0106 116.7199 0.0000 0.0000 0.0000
# 4 0.0000 0.0000 0.0000 34.8789 0.0000 0.0000
# 5 0.0000 0.0000 0.0000 0.0000-2138.0522 0.0000
# 6 0.0000 0.0000 0.0000 0.0000 0.0000 29.7734
#
#
#
# Elastic Compliance Matrix: (Units=1/GPa)
#
#
# Indices 1 2 3 4 5 6 
#
# 1 0.006860 -0.003997 -0.002980 0.000000 0.000000 0.000000
# 2 -0.003997 0.018732 -0.003324 0.000000 0.000000 0.000000
# 3 -0.002980 -0.003324 0.011423 0.000000 0.000000 0.000000
# 4 0.000000 0.000000 0.000000 0.028671 0.000000 0.000000
# 5 0.000000 0.000000 0.000000 0.000000 -0.000468 0.000000
# 6 0.000000 0.000000 0.000000 0.000000 0.000000 0.033587
#
#
# Mechanical properties :
#
#
# Convention : Reuss Voigt Hill
#
# Bulk Modulus (GPa) = 60.93037 81.10582 71.01809
# Shear Modulus (GPa) = 40.03890 -399.08308 -179.52209
#
# Velocity S-wave (km/s) = 4.47698 -14.13436 -9.47989
# Velocity P-wave (km/s) = 7.56479 15.02571 9.18003
#
# Compressibility (1/GPa) = 0.01641218
#
# Stress axis : x y z
#
# Youngs Moduli (GPa) = 145.76713 53.38559 87.54186
#
# Poissons Ratio (x) = 0.21341 0.26086
# Poissons Ratio (y) = 0.58270 0.29100
# Poissons Ratio (z) = 0.43436 0.17746
#
# Static dielectric constant tensor:
#      x y z
#    x 1.713110 0.000000 0.000000 
#    y 0.000000 1.698960 0.000000 
#    z 0.000000 0.000000 1.694010 
# 
# From -- ./inp_files/22057.got.cif
#   From: 2010.05.17/outbox.cif.g08.bks.cpg/sg59_12_cif.got.tgz:22057.got - 2010.06.03 14:40:33.
