data_PCOD9451940
_publ_section_title
;
Structure prediction by ZEFSAII (Michael W. Deem and Ramdas Pophale) SiO2 
 PCOD9451940
Probable space group: P M M N
;
_chemical_formula_sum "Si O2"
_cell_formula_units_Z 56
_cell_length_a 16.879292
_cell_length_b 20.160415
_cell_length_c 8.023817
_cell_angle_alpha 90.000000
_cell_angle_beta 90.000000
_cell_angle_gamma 90.000000
_cell_volume 2730.453024
_symmetry_space_group_name_H-M "P M M N"
_symmetry_group_IT_number 59
_space_group.IT_coordinate_system_code '2'
_symmetry_cell_setting 'orthorhombic'
loop_
_space_group_symop_operation_xyz
x,y,z
1/2-x,1/2-y,z
1/2+x,-y,-z
-x,1/2+y,-z
-x,-y,-z
1/2+x,1/2+y,-z
1/2-x,y,z
x,1/2-y,z
loop_
_atom_site_type_symbol
_atom_site_label
_atom_site_fract_x
_atom_site_fract_y
_atom_site_fract_z
Si Si1 0.130779 0.035678 0.331227
Si Si2 0.161212 0.894200 0.152145
Si Si3 0.458695 0.910275 0.677481
Si Si4 0.834597 0.516595 0.283147
Si Si5 0.513704 0.325769 0.019408
Si Si6 0.661281 0.325397 0.515927
Si Si7 0.337629 0.374077 0.006905
O O1 0.161991 0.038578 0.521899
O O2 0.156913 0.087706 0.186363
O O3 0.038471 0.050958 0.361166
O O4 0.149994 0.964520 0.248043
O O5 0.250000 0.896806 0.070359
O O6 0.166952 0.835853 0.287800
O O7 0.079358 0.875089 0.060129
O O8 0.480610 0.847496 0.789213
O O9 0.403896 0.878539 0.537159
O O10 0.403227 0.965551 0.759452
O O11 0.750000 0.482646 0.262973
O O12 0.838012 0.574670 0.147813
O O13 0.536275 0.250000 0.988620
O O14 0.420351 0.335402 0.979726
O O15 0.750000 0.339001 0.447383
O O16 0.640347 0.250000 0.472469
O O17 0.250000 0.340815 0.003659
#
# Coordination Sequence:
#
# PCOD9451940 Si02
#       7
#     8   8   8   8   8   8   8
#     4  11  22  38  62  94 128 157 198 257 319 378
#     4  11  22  38  60  87 123 164 202 249 313 374
#     4  11  22  36  58  87 118 157 203 249 312 369
#     4  11  21  36  61  92 123 156 195 249 315 373
#     4  11  25  42  60  86 121 164 213 261 307 365
#     4  10  21  36  54  80 118 164 208 246 293 363
#     4  10  23  41  64  93 123 160 207 260 319 377
#
# _framework density 20.509418
#
# number of rings (size 3 to 8) (size 9 to 14) (size 15 to 20)
#    0.000    1.286    1.429    4.714    2.000    5.714 
#    0.000    0.000    0.000    0.000    0.000    2.000 
#    0.000    0.000    0.000    0.000    0.000    0.000 
#
# Total GULP energy -311778.740488 kJ/mol
# GULP energy per Si atom -5567.477509 kJ/mol
# Density = 2.046274 g / cm^3
# Si number density = 20.509418 Si / 1000 Ang^3
#
#
#
# Elastic Constant Matrix: (Units=GPa)
#
#
# Indices 1 2 3 4 5 6 
#
# 1 177.7959 26.1101 26.3207 0.0000 0.0000 0.0000
# 2 26.1101 45.4325 19.5254 0.0000 0.0000 0.0000
# 3 26.3207 19.5254 72.6910 0.0000 0.0000 0.0000
# 4 0.0000 0.0000 0.0000 19.4794 0.0000 0.0000
# 5 0.0000 0.0000 0.0000 0.0000 2.6502 0.0000
# 6 0.0000 0.0000 0.0000 0.0000 0.0000 67.6758
#
#
#
# Elastic Compliance Matrix: (Units=1/GPa)
#
#
# Indices 1 2 3 4 5 6 
#
# 1 0.006280 -0.002975 -0.001475 0.000000 0.000000 0.000000
# 2 -0.002975 0.026293 -0.005985 0.000000 0.000000 0.000000
# 3 -0.001475 -0.005985 0.015898 0.000000 0.000000 0.000000
# 4 0.000000 0.000000 0.000000 0.051336 0.000000 0.000000
# 5 0.000000 0.000000 0.000000 0.000000 0.377335 0.000000
# 6 0.000000 0.000000 0.000000 0.000000 0.000000 0.014776
#
#
# Mechanical properties :
#
#
# Convention : Reuss Voigt Hill
#
# Bulk Modulus (GPa) = 36.23069 48.87022 42.55045
# Shear Modulus (GPa) = 9.57875 32.89195 21.23535
#
# Velocity S-wave (km/s) = 2.16346 4.00903 3.22125
# Velocity P-wave (km/s) = 4.89331 6.73124 5.88448
#
# Compressibility (1/GPa) = 0.02760091
#
# Stress axis : x y z
#
# Youngs Moduli (GPa) = 159.24456 38.03328 62.89906
#
# Poissons Ratio (x) = 0.11316 0.09275
# Poissons Ratio (y) = 0.47378 0.37646
# Poissons Ratio (z) = 0.23483 0.22764
#
# Static dielectric constant tensor:
#      x y z
#    x 1.733670 0.000000 0.000000 
#    y 0.000000 1.712120 0.000000 
#    z 0.000000 0.000000 1.766420 
# 
# From -- ./inp_files/9375.got.cif
#   From: 2010.05.17/outbox.cif.g08.bks.cpg/sg59_5_cif.got.tgz:9375.got - 2010.06.03 14:40:33.
