data_PCOD9451605
_publ_section_title
;
Structure prediction by ZEFSAII (Michael W. Deem and Ramdas Pophale) SiO2 
 PCOD9451605
Probable space group: P M M N
;
_chemical_formula_sum "Si O2"
_cell_formula_units_Z 48
_cell_length_a 15.248654
_cell_length_b 8.877808
_cell_length_c 19.357663
_cell_angle_alpha 90.000000
_cell_angle_beta 90.000000
_cell_angle_gamma 90.000000
_cell_volume 2620.536321
_symmetry_space_group_name_H-M "P M M N"
_symmetry_group_IT_number 59
_space_group.IT_coordinate_system_code '2'
_symmetry_cell_setting 'orthorhombic'
loop_
_space_group_symop_operation_xyz
x,y,z
1/2-x,1/2-y,z
1/2+x,-y,-z
-x,1/2+y,-z
-x,-y,-z
1/2+x,1/2+y,-z
1/2-x,y,z
x,1/2-y,z
loop_
_atom_site_type_symbol
_atom_site_label
_atom_site_fract_x
_atom_site_fract_y
_atom_site_fract_z
Si Si1 0.389377 0.930705 0.347057
Si Si2 0.646843 0.070607 0.165428
Si Si3 0.250000 0.431362 0.079500
Si Si4 0.407741 0.430352 0.979390
Si Si5 0.250000 0.930039 0.230743
Si Si6 0.750000 0.929919 0.550583
Si Si7 0.750000 0.068638 0.399144
Si Si8 0.425191 0.568448 0.687010
O O1 0.387484 0.750000 0.354549
O O2 0.334664 0.969918 0.277420
O O3 0.334566 0.004487 0.409214
O O4 0.487742 0.990667 0.341369
O O5 0.750000 0.046198 0.179491
O O6 0.634555 0.250000 0.154831
O O7 0.592571 0.025734 0.233233
O O8 0.619781 0.985451 0.096398
O O9 0.250000 0.250000 0.083003
O O10 0.250000 0.494504 0.156433
O O11 0.334641 0.478521 0.035160
O O12 0.412314 0.250000 0.980049
O O13 0.500000 0.500000 0.000000
O O14 0.250000 0.750000 0.222008
O O15 0.750000 0.750000 0.554213
O O16 0.750000 0.986989 0.472353
O O17 0.750000 0.250000 0.409248
O O18 0.662268 0.030813 0.356214
O O19 0.435592 0.750000 0.684442
#
# Coordination Sequence:
#
# PCOD9451605 Si02
#       8
#     8   8   4   8   4   4   4   8
#     4  10  22  41  62  89 121 155 195 243 297 353
#     4  10  20  38  62  87 117 156 198 244 296 353
#     4  10  23  40  57  80 113 150 195 246 294 348
#     4  11  24  41  58  84 117 156 201 248 301 355
#     4   9  21  39  59  83 113 149 193 241 296 352
#     4  11  23  41  65  91 119 157 199 241 292 351
#     4  10  21  40  63  90 125 160 195 244 292 343
#     4  10  21  38  62  91 121 157 200 241 291 352
#
# _framework density 18.316862
#
# number of rings (size 3 to 8) (size 9 to 14) (size 15 to 20)
#    0.000    1.833    1.667    2.250    2.333    5.333 
#    0.000    0.000    0.000    0.000    0.000    0.000 
#    0.000    0.000    0.000    0.000    0.000    0.000 
#
# Total GULP energy -268164.968736 kJ/mol
# GULP energy per Si atom -5586.770182 kJ/mol
# Density = 1.827517 g / cm^3
# Si number density = 18.316862 Si / 1000 Ang^3
#
#
#
# Elastic Constant Matrix: (Units=GPa)
#
#
# Indices 1 2 3 4 5 6 
#
# 1 148.1515 53.4292 62.4718 0.0000 0.0000 0.0000
# 2 53.4292 48.7743 52.4148 0.0000 0.0000 0.0000
# 3 62.4718 52.4148 142.7201 0.0000 0.0000 0.0000
# 4 0.0000 0.0000 0.0000 29.3731 0.0000 0.0000
# 5 0.0000 0.0000 0.0000 0.0000 78.0025 0.0000
# 6 0.0000 0.0000 0.0000 0.0000 0.0000 31.0794
#
#
#
# Elastic Compliance Matrix: (Units=1/GPa)
#
#
# Indices 1 2 3 4 5 6 
#
# 1 0.011195 -0.011559 -0.000655 0.000000 0.000000 0.000000
# 2 -0.011559 0.045806 -0.011763 0.000000 0.000000 0.000000
# 3 -0.000655 -0.011763 0.011613 0.000000 0.000000 0.000000
# 4 0.000000 0.000000 0.000000 0.034045 0.000000 0.000000
# 5 0.000000 0.000000 0.000000 0.000000 0.012820 0.000000
# 6 0.000000 0.000000 0.000000 0.000000 0.000000 0.032176
#
#
# Mechanical properties :
#
#
# Convention : Reuss Voigt Hill
#
# Bulk Modulus (GPa) = 48.40288 75.14196 61.77242
# Shear Modulus (GPa) = 24.69198 39.11300 31.90249
#
# Velocity S-wave (km/s) = 3.67556 4.62600 4.17790
# Velocity P-wave (km/s) = 6.67051 8.34540 7.55451
#
# Compressibility (1/GPa) = 0.02065993
#
# Stress axis : x y z
#
# Youngs Moduli (GPa) = 89.32739 21.83132 86.10790
#
# Poissons Ratio (x) = 0.25236 0.05640
# Poissons Ratio (y) = 1.03256 1.01286
# Poissons Ratio (z) = 0.05851 0.25679
#
# Static dielectric constant tensor:
#      x y z
#    x 1.610760 0.000000 0.000000 
#    y 0.000000 1.612560 0.000000 
#    z 0.000000 0.000000 1.604650 
# 
# From -- ./inp_files/25664.got.cif
#   From: 2010.05.17/outbox.cif.g08.bks.cpg/sg59_13_cif.got.tgz:25664.got - 2010.06.03 14:40:33.
