data_PCOD9451550
_publ_section_title
;
Structure prediction by ZEFSAII (Michael W. Deem and Ramdas Pophale) SiO2 
 PCOD9451550
Probable space group: P M M N
;
_chemical_formula_sum "Si O2"
_cell_formula_units_Z 64
_cell_length_a 13.963520
_cell_length_b 17.572942
_cell_length_c 12.400647
_cell_angle_alpha 90.000000
_cell_angle_beta 90.000000
_cell_angle_gamma 90.000000
_cell_volume 3042.872337
_symmetry_space_group_name_H-M "P M M N"
_symmetry_group_IT_number 59
_space_group.IT_coordinate_system_code '2'
_symmetry_cell_setting 'orthorhombic'
loop_
_space_group_symop_operation_xyz
x,y,z
1/2-x,1/2-y,z
1/2+x,-y,-z
-x,1/2+y,-z
-x,-y,-z
1/2+x,1/2+y,-z
1/2-x,y,z
x,1/2-y,z
loop_
_atom_site_type_symbol
_atom_site_label
_atom_site_fract_x
_atom_site_fract_y
_atom_site_fract_z
Si Si1 0.635408 0.126412 0.582212
Si Si2 0.415385 0.950803 0.052312
Si Si3 0.865148 0.112985 0.339478
Si Si4 0.141007 0.398894 0.163610
Si Si5 0.997893 0.164856 0.772275
Si Si6 0.865071 0.552519 0.598965
Si Si7 0.560894 0.335332 0.114641
Si Si8 0.634941 0.564581 0.360674
O O1 0.750000 0.136121 0.594552
O O2 0.610703 0.144341 0.458199
O O3 0.577137 0.168248 0.673722
O O4 0.612028 0.036922 0.600554
O O5 0.453979 0.889811 0.137612
O O6 0.356022 0.015609 0.113762
O O7 0.380516 0.898274 0.953699
O O8 0.500000 0.000000 0.000000
O O9 0.750000 0.115371 0.331735
O O10 0.909195 0.155633 0.238733
O O11 0.893195 0.023233 0.337547
O O12 0.250000 0.367800 0.156559
O O13 0.110146 0.407572 0.289230
O O14 0.053532 0.353785 0.108090
O O15 0.018250 0.250000 0.811038
O O16 0.089560 0.121984 0.723478
O O17 0.750000 0.556046 0.595208
O O18 0.898082 0.583486 0.483161
O O19 0.579691 0.250000 0.077028
O O20 0.750000 0.567510 0.357260
#
# Coordination Sequence:
#
# PCOD9451550 Si02
#       8
#     8   8   8   8   8   8   8   8
#     4   9  19  36  58  87 120 152 194 249 301 358
#     4  10  22  42  62  83 111 153 210 260 294 337
#     4   9  20  39  63  88 116 159 212 254 292 351
#     4  10  20  37  64  91 116 153 202 254 299 350
#     4  12  24  36  57  88 124 161 194 241 315 382
#     4   8  15  31  57  86 112 144 192 243 287 337
#     4  11  24  40  60  87 126 163 196 245 306 364
#     4   9  19  36  58  86 118 155 201 249 291 350
#
# _framework density 21.032758999999999
#
# number of rings (size 3 to 8) (size 9 to 14) (size 15 to 20)
#    0.000    2.250    1.250    3.375    1.750    3.000 
#    0.000    5.000    0.000    7.500    0.000    0.000 
#    0.000    0.000    0.000    0.000    0.000    0.000 
#
# Total GULP energy -357240.230486 kJ/mol
# GULP energy per Si atom -5581.878601 kJ/mol
# Density = 2.098489 g / cm^3
# Si number density = 21.032759 Si / 1000 Ang^3
#
#
#
# Elastic Constant Matrix: (Units=GPa)
#
#
# Indices 1 2 3 4 5 6 
#
# 1 54.7610 6.3799 9.6276 0.0000 0.0000 0.0000
# 2 6.3799 67.2410 13.4515 0.0000 0.0000 0.0000
# 3 9.6276 13.4515 72.0651 0.0000 0.0000 0.0000
# 4 0.0000 0.0000 0.0000 2.8836 0.0000 0.0000
# 5 0.0000 0.0000 0.0000 0.0000 -150.9600 0.0000
# 6 0.0000 0.0000 0.0000 0.0000 0.0000 19.3378
#
#
#
# Elastic Compliance Matrix: (Units=1/GPa)
#
#
# Indices 1 2 3 4 5 6 
#
# 1 0.018815 -0.001332 -0.002265 0.000000 0.000000 0.000000
# 2 -0.001332 0.015543 -0.002723 0.000000 0.000000 0.000000
# 3 -0.002265 -0.002723 0.014687 0.000000 0.000000 0.000000
# 4 0.000000 0.000000 0.000000 0.346784 0.000000 0.000000
# 5 0.000000 0.000000 0.000000 0.000000 -0.006624 0.000000
# 6 0.000000 0.000000 0.000000 0.000000 0.000000 0.051712
#
#
# Mechanical properties :
#
#
# Convention : Reuss Voigt Hill
#
# Bulk Modulus (GPa) = 27.46921 28.10945 27.78933
# Shear Modulus (GPa) = 10.73671 -14.77383 -2.01856
#
# Velocity S-wave (km/s) = 2.26182 -2.65320 -0.98072
# Velocity P-wave (km/s) = 4.46203 2.00192 3.45813
#
# Compressibility (1/GPa) = 0.03640440
#
# Stress axis : x y z
#
# Youngs Moduli (GPa) = 53.15029 64.33738 68.08632
#
# Poissons Ratio (x) = 0.08570 0.15421
# Poissons Ratio (y) = 0.07080 0.18542
# Poissons Ratio (z) = 0.12038 0.17521
#
# Static dielectric constant tensor:
#      x y z
#    x 1.771830 0.000000 0.000000 
#    y 0.000000 1.713340 0.000000 
#    z 0.000000 0.000000 1.784240 
# 
# From -- ./inp_files/17190.got.cif
#   From: 2010.05.17/outbox.cif.g08.bks.cpg/sg59_9_cif.got.tgz:17190.got - 2010.06.03 14:40:33.
