data_PCOD9451279
_publ_section_title
;
Structure prediction by ZEFSAII (Michael W. Deem and Ramdas Pophale) SiO2 
 PCOD9451279
Probable space group: P M M N
;
_chemical_formula_sum "Si O2"
_cell_formula_units_Z 48
_cell_length_a 19.666802
_cell_length_b 8.645002
_cell_length_c 15.444947
_cell_angle_alpha 90.000000
_cell_angle_beta 90.000000
_cell_angle_gamma 90.000000
_cell_volume 2625.942825
_symmetry_space_group_name_H-M "P M M N"
_symmetry_group_IT_number 59
_space_group.IT_coordinate_system_code '2'
_symmetry_cell_setting 'orthorhombic'
loop_
_space_group_symop_operation_xyz
x,y,z
1/2-x,1/2-y,z
1/2+x,-y,-z
-x,1/2+y,-z
-x,-y,-z
1/2+x,1/2+y,-z
1/2-x,y,z
x,1/2-y,z
loop_
_atom_site_type_symbol
_atom_site_label
_atom_site_fract_x
_atom_site_fract_y
_atom_site_fract_z
Si Si1 0.588337 0.936943 0.777814
Si Si2 0.565689 0.435539 0.266651
Si Si3 0.328821 0.564870 0.061439
Si Si4 0.171034 0.064727 0.871952
Si Si5 0.430494 0.064024 0.541015
Si Si6 0.327693 0.061578 0.392171
O O1 0.590971 0.750000 0.782102
O O2 0.509938 0.982606 0.764673
O O3 0.631355 0.986880 0.693477
O O4 0.622571 0.004069 0.863429
O O5 0.566999 0.250000 0.271282
O O6 0.621593 0.494210 0.199387
O O7 0.577650 0.502595 0.362128
O O8 0.250000 0.520408 0.080255
O O9 0.332188 0.750000 0.056736
O O10 0.346722 0.495319 0.967877
O O11 0.250000 0.021071 0.855928
O O12 0.166325 0.250000 0.870256
O O13 0.433399 0.250000 0.541809
O O14 0.369175 0.015448 0.477540
O O15 0.500000 0.000000 0.500000
O O16 0.250000 0.007426 0.391323
O O17 0.326695 0.250000 0.391215
#
# Coordination Sequence:
#
# PCOD9451279 Si02
#       6
#     8   8   8   8   8   8
#     4  10  20  36  58  84 115 153 195 236 284 349
#     4  11  23  39  60  88 117 151 195 242 295 349
#     4  10  21  37  58  86 119 153 190 239 295 344
#     4  10  22  41  63  86 113 152 199 240 286 348
#     4  11  21  37  59  84 116 156 197 240 292 348
#     4   9  18  34  57  84 113 148 193 240 283 336
#
# _framework density 18.279147999999999
#
# number of rings (size 3 to 8) (size 9 to 14) (size 15 to 20)
#    0.000    1.833    1.667    2.500    0.000    5.333 
#    0.000    1.667    0.000    2.500    0.000    0.000 
#    0.000    0.000    0.000    0.000    0.000    0.000 
#
# Total GULP energy -268155.481990 kJ/mol
# GULP energy per Si atom -5586.572541 kJ/mol
# Density = 1.823754 g / cm^3
# Si number density = 18.279148 Si / 1000 Ang^3
#
#
#
# Elastic Constant Matrix: (Units=GPa)
#
#
# Indices 1 2 3 4 5 6 
#
# 1 155.1126 44.2424 126.0193 0.0000 0.0000 0.0000
# 2 44.2424 41.3632 51.2792 0.0000 0.0000 0.0000
# 3 126.0193 51.2792 200.1661 0.0000 0.0000 0.0000
# 4 0.0000 0.0000 0.0000 34.8526 0.0000 0.0000
# 5 0.0000 0.0000 0.0000 0.0000 41.4357 0.0000
# 6 0.0000 0.0000 0.0000 0.0000 0.0000 26.0901
#
#
#
# Elastic Compliance Matrix: (Units=1/GPa)
#
#
# Indices 1 2 3 4 5 6 
#
# 1 0.014143 -0.005992 -0.007369 0.000000 0.000000 0.000000
# 2 -0.005992 0.037966 -0.005954 0.000000 0.000000 0.000000
# 3 -0.007369 -0.005954 0.011160 0.000000 0.000000 0.000000
# 4 0.000000 0.000000 0.000000 0.028692 0.000000 0.000000
# 5 0.000000 0.000000 0.000000 0.000000 0.024134 0.000000
# 6 0.000000 0.000000 0.000000 0.000000 0.000000 0.038329
#
#
# Mechanical properties :
#
#
# Convention : Reuss Voigt Hill
#
# Bulk Modulus (GPa) = 40.58434 93.30262 66.94348
# Shear Modulus (GPa) = 24.84263 32.14908 28.49586
#
# Velocity S-wave (km/s) = 3.69056 4.19834 3.95261
# Velocity P-wave (km/s) = 6.35696 8.64033 7.58506
#
# Compressibility (1/GPa) = 0.02464005
#
# Stress axis : x y z
#
# Youngs Moduli (GPa) = 70.70792 26.33916 89.60201
#
# Poissons Ratio (x) = 0.15782 0.66027
# Poissons Ratio (y) = 0.42366 0.53350
# Poissons Ratio (z) = 0.52104 0.15683
#
# Static dielectric constant tensor:
#      x y z
#    x 1.617100 0.000000 0.000000 
#    y 0.000000 1.619320 0.000000 
#    z 0.000000 0.000000 1.587150 
# 
# From -- ./inp_files/20304.got.cif
#   From: 2010.05.17/outbox.cif.g08.bks.cpg/sg59_11_cif.got.tgz:20304.got - 2010.06.03 14:40:33.
