data_PCOD9451936
_publ_section_title
;
Structure prediction by ZEFSAII (Michael W. Deem and Ramdas Pophale) SiO2 
 PCOD9451936
Probable space group: P M M N
;
_chemical_formula_sum "Si O2"
_cell_formula_units_Z 64
_cell_length_a 8.474636
_cell_length_b 18.909079
_cell_length_c 20.536024
_cell_angle_alpha 90.000000
_cell_angle_beta 90.000000
_cell_angle_gamma 90.000000
_cell_volume 3290.847771
_symmetry_space_group_name_H-M "P M M N"
_symmetry_group_IT_number 59
_space_group.IT_coordinate_system_code '2'
_symmetry_cell_setting 'orthorhombic'
loop_
_space_group_symop_operation_xyz
x,y,z
1/2-x,1/2-y,z
1/2+x,-y,-z
-x,1/2+y,-z
-x,-y,-z
1/2+x,1/2+y,-z
1/2-x,y,z
x,1/2-y,z
loop_
_atom_site_type_symbol
_atom_site_label
_atom_site_fract_x
_atom_site_fract_y
_atom_site_fract_z
Si Si1 0.436792 0.917802 0.322485
Si Si2 0.059256 0.431378 0.913940
Si Si3 0.064670 0.928947 0.704229
Si Si4 0.560189 0.586303 0.939525
Si Si5 0.059901 0.330654 0.796878
Si Si6 0.059788 0.575239 0.472386
Si Si7 0.440644 0.170010 0.183488
Si Si8 0.939140 0.667706 0.587627
O O1 0.250000 0.906065 0.321895
O O2 0.514047 0.863394 0.272486
O O3 0.491344 0.914078 0.397597
O O4 0.474036 0.997108 0.298906
O O5 0.250000 0.431045 0.912394
O O6 0.002349 0.382330 0.854876
O O7 0.003535 0.512397 0.911137
O O8 0.007131 0.405156 0.985789
O O9 0.250000 0.943911 0.702937
O O10 0.018341 0.884992 0.767757
O O11 0.016974 0.880718 0.642854
O O12 0.750000 0.581425 0.940838
O O13 0.517830 0.648522 0.890166
O O14 0.250000 0.329495 0.801081
O O15 0.003105 0.250000 0.804185
O O16 0.250000 0.574873 0.474605
O O17 0.000000 0.500000 0.500000
O O18 0.993262 0.636186 0.518793
O O19 0.250000 0.165501 0.190403
O O20 0.488111 0.250000 0.198834
O O21 0.750000 0.661823 0.593702
O O22 0.982543 0.750000 0.594925
#
# Coordination Sequence:
#
# PCOD9451936 Si02
#       8
#     8   8   8   8   8   8   8   8
#     4  11  24  41  63  88 117 153 194 241 290 346
#     4   9  18  34  56  82 112 148 192 243 294 345
#     4  12  24  38  60  86 115 153 195 241 289 346
#     4   9  18  33  55  82 111 147 194 242 291 349
#     4  10  22  39  59  86 120 157 199 247 298 351
#     4  11  23  40  64  90 118 153 195 244 294 350
#     4  10  21  36  54  79 114 153 191 235 288 345
#     4  11  24  41  62  89 122 157 193 238 293 351
#
# _framework density 19.447876999999998
#
# number of rings (size 3 to 8) (size 9 to 14) (size 15 to 20)
#    0.000    1.625    1.250    3.375    0.000    8.500 
#    0.000    5.000    0.000    0.000    0.000    5.250 
#    0.000    0.000    0.000    0.000    0.000    0.000 
#
# Total GULP energy -357633.159561 kJ/mol
# GULP energy per Si atom -5588.018118 kJ/mol
# Density = 1.940361 g / cm^3
# Si number density = 19.447877 Si / 1000 Ang^3
#
#
#
# Elastic Constant Matrix: (Units=GPa)
#
#
# Indices 1 2 3 4 5 6 
#
# 1 5.2407 -5.8012 6.5077 0.0000 0.0000 0.0000
# 2 -5.8012 48.7093 25.6018 0.0000 0.0000 0.0000
# 3 6.5077 25.6018 102.7419 0.0000 0.0000 0.0000
# 4 0.0000 0.0000 0.0000 8.8099 0.0000 0.0000
# 5 0.0000 0.0000 0.0000 0.0000 27.0392 0.0000
# 6 0.0000 0.0000 0.0000 0.0000 0.0000 25.4949
#
#
#
# Elastic Compliance Matrix: (Units=1/GPa)
#
#
# Indices 1 2 3 4 5 6 
#
# 1 0.283536 0.049720 -0.030349 0.000000 0.000000 0.000000
# 2 0.049720 0.032343 -0.011209 0.000000 0.000000 0.000000
# 3 -0.030349 -0.011209 0.014448 0.000000 0.000000 0.000000
# 4 0.000000 0.000000 0.000000 0.113509 0.000000 0.000000
# 5 0.000000 0.000000 0.000000 0.000000 0.036983 0.000000
# 6 0.000000 0.000000 0.000000 0.000000 0.000000 0.039224
#
#
# Mechanical properties :
#
#
# Convention : Reuss Voigt Hill
#
# Bulk Modulus (GPa) = 2.88473 23.25651 13.07062
# Shear Modulus (GPa) = 8.07404 20.96104 14.51754
#
# Velocity S-wave (km/s) = 2.03977 3.28656 2.73515
# Velocity P-wave (km/s) = 2.65218 5.13676 4.08781
#
# Compressibility (1/GPa) = 0.34665283
#
# Stress axis : x y z
#
# Youngs Moduli (GPa) = 3.52689 30.91863 69.21137
#
# Poissons Ratio (x) = -1.53728 2.10049
# Poissons Ratio (y) = -0.17536 0.77577
# Poissons Ratio (z) = 0.10704 0.34656
#
# Static dielectric constant tensor:
#      x y z
#    x 1.678510 0.000000 0.000000 
#    y 0.000000 1.650560 0.000000 
#    z 0.000000 0.000000 1.689530 
# 
# From -- ./inp_files/29546.got.cif
#   From: 2010.05.17/outbox.cif.g08.bks.cpg/sg59_15_cif.got.tgz:29546.got - 2010.06.03 14:40:33.
