data_PCOD9451686
_publ_section_title
;
Structure prediction by ZEFSAII (Michael W. Deem and Ramdas Pophale) SiO2 
 PCOD9451686
Probable space group: P M M N
;
_chemical_formula_sum "Si O2"
_cell_formula_units_Z 58
_cell_length_a 27.753296
_cell_length_b 7.567587
_cell_length_c 13.851970
_cell_angle_alpha 90.000000
_cell_angle_beta 90.000000
_cell_angle_gamma 90.000000
_cell_volume 2909.266676
_symmetry_space_group_name_H-M "P M M N"
_symmetry_group_IT_number 59
_space_group.IT_coordinate_system_code '2'
_symmetry_cell_setting 'orthorhombic'
loop_
_space_group_symop_operation_xyz
x,y,z
1/2-x,1/2-y,z
1/2+x,-y,-z
-x,1/2+y,-z
-x,-y,-z
1/2+x,1/2+y,-z
1/2-x,y,z
x,1/2-y,z
loop_
_atom_site_type_symbol
_atom_site_label
_atom_site_fract_x
_atom_site_fract_y
_atom_site_fract_z
Si Si1 0.195441 0.035312 0.084132
Si Si2 0.141785 0.957123 0.886223
Si Si3 0.055645 0.539446 0.012307
Si Si4 0.108674 0.046520 0.205579
Si Si5 0.750000 0.250000 0.357642
Si Si6 0.833066 0.545803 0.325163
Si Si7 0.063763 0.038728 0.589543
Si Si8 0.958272 0.537751 0.626353
O O1 0.250000 0.978124 0.098748
O O2 0.193896 0.250000 0.084957
O O3 0.158753 0.968825 0.166360
O O4 0.175924 0.978891 0.979457
O O5 0.138290 0.750000 0.862750
O O6 0.161858 0.047298 0.791167
O O7 0.089643 0.021759 0.924068
O O8 0.062894 0.750000 0.020085
O O9 0.075172 0.456889 0.110858
O O10 0.000000 0.500000 0.000000
O O11 0.118945 0.250000 0.231876
O O12 0.078447 0.967029 0.293346
O O13 0.792217 0.406682 0.353680
O O14 0.824020 0.750000 0.357032
O O15 0.885477 0.484409 0.365277
O O16 0.066036 0.250000 0.583955
O O17 0.054941 0.969768 0.480570
O O18 0.014596 0.997045 0.646710
O O19 0.953683 0.750000 0.624847
#
# Coordination Sequence:
#
# PCOD9451686 Si02
#       8
#     8   8   8   8   2   8   8   8
#     4   9  18  32  52  76 105 142 190 239 287 341
#     4  10  21  36  52  79 111 152 197 243 295 352
#     4  10  21  34  50  73 111 151 192 235 293 356
#     4   9  18  33  52  78 109 143 184 233 289 349
#     4  12  26  44  64  90 120 162 210 252 306 354
#     4  11  24  41  63  89 123 160 204 251 302 362
#     4   9  20  37  57  88 116 148 191 241 299 364
#     4   9  18  34  60  86 116 150 188 238 300 360
#
# _framework density 19.936295000000001
#
# number of rings (size 3 to 8) (size 9 to 14) (size 15 to 20)
#    0.000    2.345    0.690    1.034    3.862    2.483 
#    0.000    0.000    1.517    0.000    0.000    0.000 
#    0.000    0.000    0.000    0.000    0.000    0.000 
#
# Total GULP energy -323023.892528 kJ/mol
# GULP energy per Si atom -5569.377457 kJ/mol
# Density = 1.989092 g / cm^3
# Si number density = 19.936295 Si / 1000 Ang^3
#
#
#
# Elastic Constant Matrix: (Units=GPa)
#
#
# Indices 1 2 3 4 5 6 
#
# 1 190.9977 22.8768 50.0846 0.0000 0.0000 0.0000
# 2 22.8768 79.7200 6.5695 0.0000 0.0000 0.0000
# 3 50.0846 6.5695 43.4987 0.0000 0.0000 0.0000
# 4 0.0000 0.0000 0.0000 5.5342 0.0000 0.0000
# 5 0.0000 0.0000 0.0000 0.0000 14.3856 0.0000
# 6 0.0000 0.0000 0.0000 0.0000 0.0000 7.2525
#
#
#
# Elastic Compliance Matrix: (Units=1/GPa)
#
#
# Indices 1 2 3 4 5 6 
#
# 1 0.007672 -0.001492 -0.008608 0.000000 0.000000 0.000000
# 2 -0.001492 0.012992 -0.000244 0.000000 0.000000 0.000000
# 3 -0.008608 -0.000244 0.032937 0.000000 0.000000 0.000000
# 4 0.000000 0.000000 0.000000 0.180694 0.000000 0.000000
# 5 0.000000 0.000000 0.000000 0.000000 0.069514 0.000000
# 6 0.000000 0.000000 0.000000 0.000000 0.000000 0.137883
#
#
# Mechanical properties :
#
#
# Convention : Reuss Voigt Hill
#
# Bulk Modulus (GPa) = 30.38326 52.58646 41.48486
# Shear Modulus (GPa) = 10.56299 21.08016 15.82158
#
# Velocity S-wave (km/s) = 2.30432 3.25526 2.82016
# Velocity P-wave (km/s) = 4.72791 6.36895 5.60877
#
# Compressibility (1/GPa) = 0.03291286
#
# Stress axis : x y z
#
# Youngs Moduli (GPa) = 130.35160 76.96919 30.36091
#
# Poissons Ratio (x) = 0.11485 0.26134
# Poissons Ratio (y) = 0.19450 0.00741
# Poissons Ratio (z) = 1.12203 0.01879
#
# Static dielectric constant tensor:
#      x y z
#    x 1.704440 0.000000 0.000000 
#    y 0.000000 1.762250 0.000000 
#    z 0.000000 0.000000 1.697120 
# 
# From -- ./inp_files/24917.got.cif
#   From: 2010.05.17/outbox.cif.g08.bks.cpg/sg59_13_cif.got.tgz:24917.got - 2010.06.03 14:40:33.
