data_PCOD9451857
_publ_section_title
;
Structure prediction by ZEFSAII (Michael W. Deem and Ramdas Pophale) SiO2 
 PCOD9451857
Probable space group: P M M N
;
_chemical_formula_sum "Si O2"
_cell_formula_units_Z 40
_cell_length_a 21.767714
_cell_length_b 8.444016
_cell_length_c 12.132151
_cell_angle_alpha 90.000000
_cell_angle_beta 90.000000
_cell_angle_gamma 90.000000
_cell_volume 2229.973373
_symmetry_space_group_name_H-M "P M M N"
_symmetry_group_IT_number 59
_space_group.IT_coordinate_system_code '2'
_symmetry_cell_setting 'orthorhombic'
loop_
_space_group_symop_operation_xyz
x,y,z
1/2-x,1/2-y,z
1/2+x,-y,-z
-x,1/2+y,-z
-x,-y,-z
1/2+x,1/2+y,-z
1/2-x,y,z
x,1/2-y,z
loop_
_atom_site_type_symbol
_atom_site_label
_atom_site_fract_x
_atom_site_fract_y
_atom_site_fract_z
Si Si1 0.177637 0.066236 0.763554
Si Si2 0.945652 0.560421 0.580420
Si Si3 0.820836 0.436985 0.475402
Si Si4 0.088022 0.058758 0.948300
Si Si5 0.535333 0.941441 0.830573
O O1 0.250000 0.063745 0.780967
O O2 0.159108 0.250000 0.742776
O O3 0.144500 0.007364 0.873135
O O4 0.164636 0.969175 0.653249
O O5 0.949510 0.750000 0.580233
O O6 0.877254 0.512750 0.541473
O O7 0.955609 0.501503 0.706052
O O8 0.000000 0.500000 0.500000
O O9 0.750000 0.495979 0.495142
O O10 0.820716 0.250000 0.496193
O O11 0.087067 0.250000 0.949966
O O12 0.084412 0.007136 0.075777
O O13 0.028504 0.998886 0.882518
O O14 0.535197 0.750000 0.826774
#
# Coordination Sequence:
#
# PCOD9451857 Si02
#       5
#     8   8   8   8   8
#     4   9  17  30  50  74  97 123 158 199 243 294
#     4  11  22  35  53  77 105 136 172 213 254 300
#     4  10  21  36  53  74 103 137 171 210 255 301
#     4   9  17  31  50  71  96 125 157 196 244 295
#     4   9  19  33  48  70  98 127 160 199 245 293
#
# _framework density 17.937432999999999
#
# number of rings (size 3 to 8) (size 9 to 14) (size 15 to 20)
#    0.000    2.400    0.000    2.400    0.000    6.800 
#    0.000    1.000    0.000    3.600    0.000    2.800 
#    0.000    0.000    0.000    0.000    0.000    0.000 
#
# Total GULP energy -222857.011285 kJ/mol
# GULP energy per Si atom -5571.425282 kJ/mol
# Density = 1.789661 g / cm^3
# Si number density = 17.937433 Si / 1000 Ang^3
#
#
#
# Elastic Constant Matrix: (Units=GPa)
#
#
# Indices 1 2 3 4 5 6 
#
# 1 62.8476 16.5475 69.2279 0.0000 0.0000 0.0000
# 2 16.5475 18.8053 19.6518 0.0000 0.0000 0.0000
# 3 69.2279 19.6518 167.5914 0.0000 0.0000 0.0000
# 4 0.0000 0.0000 0.0000 18.3928 0.0000 0.0000
# 5 0.0000 0.0000 0.0000 0.0000 33.5903 0.0000
# 6 0.0000 0.0000 0.0000 0.0000 0.0000 26.2190
#
#
#
# Elastic Compliance Matrix: (Units=1/GPa)
#
#
# Indices 1 2 3 4 5 6 
#
# 1 0.033395 -0.017060 -0.011794 0.000000 0.000000 0.000000
# 2 -0.017060 0.069318 -0.001081 0.000000 0.000000 0.000000
# 3 -0.011794 -0.001081 0.010966 0.000000 0.000000 0.000000
# 4 0.000000 0.000000 0.000000 0.054369 0.000000 0.000000
# 5 0.000000 0.000000 0.000000 0.000000 0.029770 0.000000
# 6 0.000000 0.000000 0.000000 0.000000 0.000000 0.038140
#
#
# Mechanical properties :
#
#
# Convention : Reuss Voigt Hill
#
# Bulk Modulus (GPa) = 18.58476 51.12207 34.85341
# Shear Modulus (GPa) = 15.93548 25.22823 20.58185
#
# Velocity S-wave (km/s) = 2.98382 3.75434 3.39104
# Velocity P-wave (km/s) = 4.71745 6.88154 5.89957
#
# Compressibility (1/GPa) = 0.05380754
#
# Stress axis : x y z
#
# Youngs Moduli (GPa) = 29.94475 14.42623 91.19507
#
# Poissons Ratio (x) = 0.24612 1.07556
# Poissons Ratio (y) = 0.51087 0.09859
# Poissons Ratio (z) = 0.35317 0.01560
#
# Static dielectric constant tensor:
#      x y z
#    x 1.616620 0.000000 0.000000 
#    y 0.000000 1.634140 0.000000 
#    z 0.000000 0.000000 1.631340 
# 
# From -- ./inp_files/14052.got.cif
#   From: 2010.05.17/outbox.cif.g08.bks.cpg/sg59_8_cif.got.tgz:14052.got - 2010.06.03 14:40:33.
