data_PCOD9451080
_publ_section_title
;
Structure prediction by ZEFSAII (Michael W. Deem and Ramdas Pophale) SiO2 
 PCOD9451080
Probable space group: P M M N
;
_chemical_formula_sum "Si O2"
_cell_formula_units_Z 56
_cell_length_a 14.169349
_cell_length_b 8.934109
_cell_length_c 22.212768
_cell_angle_alpha 90.000000
_cell_angle_beta 90.000000
_cell_angle_gamma 90.000000
_cell_volume 2811.925595
_symmetry_space_group_name_H-M "P M M N"
_symmetry_group_IT_number 59
_space_group.IT_coordinate_system_code '2'
_symmetry_cell_setting 'orthorhombic'
loop_
_space_group_symop_operation_xyz
x,y,z
1/2-x,1/2-y,z
1/2+x,-y,-z
-x,1/2+y,-z
-x,-y,-z
1/2+x,1/2+y,-z
1/2-x,y,z
x,1/2-y,z
loop_
_atom_site_type_symbol
_atom_site_label
_atom_site_fract_x
_atom_site_fract_y
_atom_site_fract_z
Si Si1 0.550293 0.573111 0.088689
Si Si2 0.141303 0.428858 0.040479
Si Si3 0.642717 0.419560 0.632305
Si Si4 0.438535 0.575066 0.790464
Si Si5 0.861993 0.572785 0.332101
Si Si6 0.648060 0.577514 0.757494
Si Si7 0.983720 0.075105 0.435504
O O1 0.541583 0.750000 0.097921
O O2 0.445711 0.507775 0.074552
O O3 0.595158 0.500396 0.148191
O O4 0.615074 0.547257 0.029933
O O5 0.250000 0.476259 0.052566
O O6 0.135814 0.250000 0.052574
O O7 0.750000 0.424159 0.610317
O O8 0.606478 0.250000 0.623487
O O9 0.643994 0.462700 0.702362
O O10 0.580024 0.541677 0.599963
O O11 0.414319 0.750000 0.788383
O O12 0.405187 0.499639 0.728388
O O13 0.552420 0.560204 0.793472
O O14 0.750000 0.549839 0.331382
O O15 0.881504 0.750000 0.331829
O O16 0.906112 0.500483 0.392154
O O17 0.750000 0.559152 0.788805
O O18 0.646271 0.750000 0.734252
O O19 0.964255 0.250000 0.442135
O O20 0.000000 0.000000 0.500000
#
# Coordination Sequence:
#
# PCOD9451080 Si02
#       7
#     8   8   8   8   8   8   8
#     4  10  21  36  57  88 122 158 202 253 306 363
#     4   9  19  38  61  83 114 158 206 255 308 364
#     4  10  20  35  58  87 117 149 188 236 290 350
#     4  11  22  37  60  90 125 166 205 248 300 360
#     4  11  25  45  67  91 123 163 206 255 309 362
#     4   9  18  33  54  81 113 151 192 235 290 354
#     4  12  25  42  65  91 121 159 201 250 303 361
#
# _framework density 19.915179999999999
#
# number of rings (size 3 to 8) (size 9 to 14) (size 15 to 20)
#    0.000    1.714    1.429    3.000    0.000    5.143 
#    0.000    2.857    0.000    0.000    0.000    0.000 
#    0.000    0.000    0.000    0.000    0.000    0.000 
#
# Total GULP energy -312588.127710 kJ/mol
# GULP energy per Si atom -5581.930852 kJ/mol
# Density = 1.986985 g / cm^3
# Si number density = 19.915180 Si / 1000 Ang^3
#
#
#
# Elastic Constant Matrix: (Units=GPa)
#
#
# Indices 1 2 3 4 5 6 
#
# 1 76.6325 34.8465 23.0985 0.0000 0.0000 0.0000
# 2 34.8465 105.5251 69.2257 0.0000 0.0000 0.0000
# 3 23.0985 69.2257 114.6599 0.0000 0.0000 0.0000
# 4 0.0000 0.0000 0.0000 33.8108 0.0000 0.0000
# 5 0.0000 0.0000 0.0000 0.0000 -0.8726 0.0000
# 6 0.0000 0.0000 0.0000 0.0000 0.0000 26.3955
#
#
#
# Elastic Compliance Matrix: (Units=1/GPa)
#
#
# Indices 1 2 3 4 5 6 
#
# 1 0.015355 -0.005036 -0.000053 0.000000 0.000000 0.000000
# 2 -0.005036 0.017343 -0.009456 0.000000 0.000000 0.000000
# 3 -0.000053 -0.009456 0.014441 0.000000 0.000000 0.000000
# 4 0.000000 0.000000 0.000000 0.029576 0.000000 0.000000
# 5 0.000000 0.000000 0.000000 0.000000 -1.145971 0.000000
# 6 0.000000 0.000000 0.000000 0.000000 0.000000 0.037885
#
#
# Mechanical properties :
#
#
# Convention : Reuss Voigt Hill
#
# Bulk Modulus (GPa) = 55.40403 61.23988 58.32196
# Shear Modulus (GPa) = -5.01875 23.17652 9.07889
#
# Velocity S-wave (km/s) = -1.58919 3.41510 2.13745
# Velocity P-wave (km/s) = 4.95106 6.80938 5.95318
#
# Compressibility (1/GPa) = 0.01804923
#
# Stress axis : x y z
#
# Youngs Moduli (GPa) = 65.12462 57.66125 69.24625
#
# Poissons Ratio (x) = 0.29037 0.00367
# Poissons Ratio (y) = 0.32796 0.65480
# Poissons Ratio (z) = 0.00345 0.54525
#
# Static dielectric constant tensor:
#      x y z
#    x 1.723010 0.000000 0.000000 
#    y 0.000000 1.676790 0.000000 
#    z 0.000000 0.000000 1.731460 
# 
# From -- ./inp_files/30369.got.cif
#   From: 2010.05.17/outbox.cif.g08.bks.cpg/sg59_16_cif.got.tgz:30369.got - 2010.06.03 14:40:33.
