data_PCOD9451745
_publ_section_title
;
Structure prediction by ZEFSAII (Michael W. Deem and Ramdas Pophale) SiO2 
 PCOD9451745
Probable space group: P M M N
;
_chemical_formula_sum "Si O2"
_cell_formula_units_Z 48
_cell_length_a 9.383460
_cell_length_b 13.831431
_cell_length_c 19.112671
_cell_angle_alpha 90.000000
_cell_angle_beta 90.000000
_cell_angle_gamma 90.000000
_cell_volume 2480.570106
_symmetry_space_group_name_H-M "P M M N"
_symmetry_group_IT_number 59
_space_group.IT_coordinate_system_code '2'
_symmetry_cell_setting 'orthorhombic'
loop_
_space_group_symop_operation_xyz
x,y,z
1/2-x,1/2-y,z
1/2+x,-y,-z
-x,1/2+y,-z
-x,-y,-z
1/2+x,1/2+y,-z
1/2-x,y,z
x,1/2-y,z
loop_
_atom_site_type_symbol
_atom_site_label
_atom_site_fract_x
_atom_site_fract_y
_atom_site_fract_z
Si Si1 0.918389 0.447133 0.241181
Si Si2 0.412587 0.133562 0.110095
Si Si3 0.583446 0.861259 0.165558
Si Si4 0.420207 0.142535 0.529901
Si Si5 0.421225 0.558077 0.600795
Si Si6 0.586948 0.367862 0.973977
O O1 0.750000 0.424800 0.233689
O O2 0.934762 0.562068 0.227380
O O3 0.963310 0.420785 0.319536
O O4 0.005066 0.396464 0.179868
O O5 0.250000 0.098846 0.111115
O O6 0.409731 0.250000 0.107144
O O7 0.494971 0.099874 0.040529
O O8 0.750000 0.865661 0.143577
O O9 0.552841 0.750000 0.184787
O O10 0.486452 0.890659 0.099916
O O11 0.250000 0.138620 0.517997
O O12 0.455573 0.250000 0.556151
O O13 0.454776 0.053734 0.581342
O O14 0.500671 0.121701 0.457299
O O15 0.250000 0.570092 0.595420
O O16 0.750000 0.400788 0.978952
O O17 0.588572 0.250000 0.976310
#
# Coordination Sequence:
#
# PCOD9451745 Si02
#       6
#     8   8   8   8   8   8
#     4  10  21  35  52  76 105 137 170 206 253 305
#     4  10  21  36  53  73  99 134 175 217 260 304
#     4   9  18  33  52  74 101 133 170 212 257 305
#     4   9  18  34  57  81 104 134 170 206 247 296
#     4   9  19  35  53  77 108 136 167 208 249 296
#     4   9  17  31  52  75  99 130 171 218 261 302
#
# _framework density 19.350390000000001
#
# number of rings (size 3 to 8) (size 9 to 14) (size 15 to 20)
#    0.000    2.667    0.000    1.000    0.000    6.667 
#    0.000    6.667    0.000    0.000    0.000    4.667 
#    0.000    0.000    0.000    0.000    0.000    0.000 
#
# Total GULP energy -267941.043010 kJ/mol
# GULP energy per Si atom -5582.105063 kJ/mol
# Density = 1.930635 g / cm^3
# Si number density = 19.350390 Si / 1000 Ang^3
#
#
#
# Elastic Constant Matrix: (Units=GPa)
#
#
# Indices 1 2 3 4 5 6 
#
# 1 41.8333 -0.7321 17.0371 0.0000 0.0000 0.0000
# 2 -0.7321 39.9385 -19.6908 0.0000 0.0000 0.0000
# 3 17.0371 -19.6908 61.6819 0.0000 0.0000 0.0000
# 4 0.0000 0.0000 0.0000 10.6052 0.0000 0.0000
# 5 0.0000 0.0000 0.0000 0.0000 28.2718 0.0000
# 6 0.0000 0.0000 0.0000 0.0000 0.0000 22.2562
#
#
#
# Elastic Compliance Matrix: (Units=1/GPa)
#
#
# Indices 1 2 3 4 5 6 
#
# 1 0.027420 -0.003835 -0.008798 0.000000 0.000000 0.000000
# 2 -0.003835 0.030252 0.010717 0.000000 0.000000 0.000000
# 3 -0.008798 0.010717 0.022063 0.000000 0.000000 0.000000
# 4 0.000000 0.000000 0.000000 0.094293 0.000000 0.000000
# 5 0.000000 0.000000 0.000000 0.000000 0.035371 0.000000
# 6 0.000000 0.000000 0.000000 0.000000 0.000000 0.044931
#
#
# Mechanical properties :
#
#
# Convention : Reuss Voigt Hill
#
# Bulk Modulus (GPa) = 13.17480 15.18692 14.18086
# Shear Modulus (GPa) = 17.63887 22.01594 19.82741
#
# Velocity S-wave (km/s) = 3.02247 3.37672 3.20449
# Velocity P-wave (km/s) = 4.35933 4.80295 4.58651
#
# Compressibility (1/GPa) = 0.07590249
#
# Stress axis : x y z
#
# Youngs Moduli (GPa) = 36.46924 33.05592 45.32403
#
# Poissons Ratio (x) = 0.12677 0.39876
# Poissons Ratio (y) = 0.13986 -0.48572
# Poissons Ratio (z) = 0.32086 -0.35425
#
# Static dielectric constant tensor:
#      x y z
#    x 1.652070 0.000000 0.000000 
#    y 0.000000 1.731600 0.000000 
#    z 0.000000 0.000000 1.620480 
# 
# From -- ./inp_files/25409.got.cif
#   From: 2010.05.17/outbox.cif.g08.bks.cpg/sg59_13_cif.got.tgz:25409.got - 2010.06.03 14:40:33.
