data_PCOD9451965
_publ_section_title
;
Structure prediction by ZEFSAII (Michael W. Deem and Ramdas Pophale) SiO2 
 PCOD9451965
Probable space group: P M M N
;
_chemical_formula_sum "Si O2"
_cell_formula_units_Z 48
_cell_length_a 9.063454
_cell_length_b 9.289491
_cell_length_c 31.547074
_cell_angle_alpha 90.000000
_cell_angle_beta 90.000000
_cell_angle_gamma 90.000000
_cell_volume 2656.101932
_symmetry_space_group_name_H-M "P M M N"
_symmetry_group_IT_number 59
_space_group.IT_coordinate_system_code '2'
_symmetry_cell_setting 'orthorhombic'
loop_
_space_group_symop_operation_xyz
x,y,z
1/2-x,1/2-y,z
1/2+x,-y,-z
-x,1/2+y,-z
-x,-y,-z
1/2+x,1/2+y,-z
1/2-x,y,z
x,1/2-y,z
loop_
_atom_site_type_symbol
_atom_site_label
_atom_site_fract_x
_atom_site_fract_y
_atom_site_fract_z
Si Si1 0.572268 0.081991 0.960800
Si Si2 0.074699 0.921120 0.292584
Si Si3 0.074861 0.921725 0.628401
Si Si4 0.925129 0.421445 0.213887
Si Si5 0.074414 0.420237 0.125069
Si Si6 0.423334 0.077378 0.460663
O O1 0.750000 0.070273 0.963989
O O2 0.532584 0.250000 0.961453
O O3 0.529027 0.009487 0.916210
O O4 0.500000 0.000000 0.000000
O O5 0.250000 0.947539 0.293752
O O6 0.049675 0.750000 0.292585
O O7 0.998939 0.992982 0.333297
O O8 0.006047 0.991694 0.250641
O O9 0.250000 0.947720 0.627127
O O10 0.051966 0.750000 0.634736
O O11 0.001550 0.961713 0.583568
O O12 0.750000 0.445693 0.215765
O O13 0.951642 0.250000 0.219862
O O14 0.988279 0.460306 0.167672
O O15 0.250000 0.441344 0.131955
O O16 0.050532 0.250000 0.117069
O O17 0.250000 0.041830 0.458901
O O18 0.437378 0.250000 0.465621
O O19 0.500000 0.000000 0.500000
#
# Coordination Sequence:
#
# PCOD9451965 Si02
#       6
#     8   8   8   8   8   8
#     4  10  21  36  55  80 110 144 182 225 272 322
#     4  11  24  39  56  81 112 146 184 226 272 322
#     4  10  21  38  60  84 110 143 184 228 274 326
#     4  10  21  37  58  84 112 143 180 222 270 325
#     4   9  18  34  55  78 107 144 183 222 266 319
#     4  10  21  37  58  84 113 147 186 227 274 327
#
# _framework density 18.071594999999999
#
# number of rings (size 3 to 8) (size 9 to 14) (size 15 to 20)
#    0.000    2.000    0.000    3.000    0.000    9.333 
#    0.000    3.333    0.000    0.000    0.000    0.000 
#    0.000    0.000    0.000    0.000    0.000    0.000 
#
# Total GULP energy -268189.331439 kJ/mol
# GULP energy per Si atom -5587.277738 kJ/mol
# Density = 1.803046 g / cm^3
# Si number density = 18.071595 Si / 1000 Ang^3
#
#
#
# Elastic Constant Matrix: (Units=GPa)
#
#
# Indices 1 2 3 4 5 6 
#
# 1 108.0412 82.4634 111.7383 0.0000 0.0000 0.0000
# 2 82.4634 83.5562 110.8278 0.0000 0.0000 0.0000
# 3 111.7383 110.8278 219.4992 0.0000 0.0000 0.0000
# 4 0.0000 0.0000 0.0000 39.5687 0.0000 0.0000
# 5 0.0000 0.0000 0.0000 0.0000 42.6462 0.0000
# 6 0.0000 0.0000 0.0000 0.0000 0.0000 28.3967
#
#
#
# Elastic Compliance Matrix: (Units=1/GPa)
#
#
# Indices 1 2 3 4 5 6 
#
# 1 0.037623 -0.035506 -0.001225 0.000000 0.000000 0.000000
# 2 -0.035506 0.069744 -0.017139 0.000000 0.000000 0.000000
# 3 -0.001225 -0.017139 0.013833 0.000000 0.000000 0.000000
# 4 0.000000 0.000000 0.000000 0.025272 0.000000 0.000000
# 5 0.000000 0.000000 0.000000 0.000000 0.023449 0.000000
# 6 0.000000 0.000000 0.000000 0.000000 0.000000 0.035215
#
#
# Mechanical properties :
#
#
# Convention : Reuss Voigt Hill
#
# Bulk Modulus (GPa) = 74.30241 113.46173 93.88207
# Shear Modulus (GPa) = 15.75480 29.19347 22.47413
#
# Velocity S-wave (km/s) = 2.95583 4.02361 3.53032
# Velocity P-wave (km/s) = 7.27008 9.19276 8.28736
#
# Compressibility (1/GPa) = 0.01345851
#
# Stress axis : x y z
#
# Youngs Moduli (GPa) = 26.57952 14.33824 72.28976
#
# Poissons Ratio (x) = 0.50910 0.08854
# Poissons Ratio (y) = 0.94374 1.23901
# Poissons Ratio (z) = 0.03255 0.24575
#
# Static dielectric constant tensor:
#      x y z
#    x 1.602820 0.000000 0.000000 
#    y 0.000000 1.603470 0.000000 
#    z 0.000000 0.000000 1.578090 
# 
# From -- ./inp_files/32804.got.cif
#   From: 2010.05.17/outbox.cif.g08.bks.cpg/sg59_17_cif.got.tgz:32804.got - 2010.06.03 14:40:33.
