data_PCOD9451845
_publ_section_title
;
Structure prediction by ZEFSAII (Michael W. Deem and Ramdas Pophale) SiO2 
 PCOD9451845
Probable space group: P M M N
;
_chemical_formula_sum "Si O2"
_cell_formula_units_Z 56
_cell_length_a 20.786483
_cell_length_b 7.373527
_cell_length_c 15.192818
_cell_angle_alpha 90.000000
_cell_angle_beta 90.000000
_cell_angle_gamma 90.000000
_cell_volume 2328.598560
_symmetry_space_group_name_H-M "P M M N"
_symmetry_group_IT_number 59
_space_group.IT_coordinate_system_code '2'
_symmetry_cell_setting 'orthorhombic'
loop_
_space_group_symop_operation_xyz
x,y,z
1/2-x,1/2-y,z
1/2+x,-y,-z
-x,1/2+y,-z
-x,-y,-z
1/2+x,1/2+y,-z
1/2-x,y,z
x,1/2-y,z
loop_
_atom_site_type_symbol
_atom_site_label
_atom_site_fract_x
_atom_site_fract_y
_atom_site_fract_z
Si Si1 0.819309 0.958260 0.293972
Si Si2 0.322821 0.970277 0.194141
Si Si3 0.177574 0.529055 0.991371
Si Si4 0.044211 0.535343 0.915877
Si Si5 0.542456 0.957437 0.273378
Si Si6 0.084443 0.527567 0.350859
Si Si7 0.820718 0.468983 0.499249
O O1 0.750000 0.040482 0.268750
O O2 0.818023 0.750000 0.262699
O O3 0.886986 0.043826 0.267080
O O4 0.822554 0.959998 0.400215
O O5 0.250000 0.024339 0.217637
O O6 0.324104 0.750000 0.194338
O O7 0.373602 0.030299 0.266515
O O8 0.334341 0.025253 0.093123
O O9 0.250000 0.471436 0.965888
O O10 0.177529 0.750000 0.989359
O O11 0.116779 0.467221 0.934756
O O12 0.046875 0.750000 0.903559
O O13 0.016303 0.455525 0.826086
O O14 0.000000 0.500000 0.000000
O O15 0.552928 0.750000 0.302428
O O16 0.488485 0.035861 0.337078
O O17 0.083390 0.750000 0.350515
O O18 0.121780 0.470192 0.438271
O O19 0.750000 0.514769 0.537032
O O20 0.823712 0.250000 0.493608
#
# Coordination Sequence:
#
# PCOD9451845 Si02
#       7
#     8   8   8   8   8   8   8
#     4   9  19  36  54  72 100 138 174 208 254 311
#     4   8  12  20  38  64  93 122 151 189 240 293
#     4   8  15  28  47  72  98 126 166 214 257 297
#     4  11  22  36  55  78 106 138 172 213 261 313
#     4  10  21  36  53  73  98 133 174 212 254 304
#     4   9  16  27  45  71 101 129 161 202 247 296
#     4   9  17  30  51  78 103 128 163 208 254 299
#
# _framework density 24.048798000000001
#
# number of rings (size 3 to 8) (size 9 to 14) (size 15 to 20)
#    0.000    2.857    0.000    2.571    0.000    5.714 
#    0.000    0.714    0.000    1.286    0.000    0.000 
#    0.000    0.000    0.000    0.000    0.000    0.000 
#
# Total GULP energy -312833.239832 kJ/mol
# GULP energy per Si atom -5586.307854 kJ/mol
# Density = 2.399406 g / cm^3
# Si number density = 24.048798 Si / 1000 Ang^3
#
#
#
# Elastic Constant Matrix: (Units=GPa)
#
#
# Indices 1 2 3 4 5 6 
#
# 1 116.1041 7.4223 23.6265 0.0000 0.0000 0.0000
# 2 7.4223 94.0226 -6.4497 0.0000 0.0000 0.0000
# 3 23.6265 -6.4497 51.2226 0.0000 0.0000 0.0000
# 4 0.0000 0.0000 0.0000 10.4029 0.0000 0.0000
# 5 0.0000 0.0000 0.0000 0.0000 40.2687 0.0000
# 6 0.0000 0.0000 0.0000 0.0000 0.0000 -8.2718
#
#
#
# Elastic Compliance Matrix: (Units=1/GPa)
#
#
# Indices 1 2 3 4 5 6 
#
# 1 0.009611 -0.001072 -0.004568 0.000000 0.000000 0.000000
# 2 -0.001072 0.010848 0.001860 0.000000 0.000000 0.000000
# 3 -0.004568 0.001860 0.021864 0.000000 0.000000 0.000000
# 4 0.000000 0.000000 0.000000 0.096127 0.000000 0.000000
# 5 0.000000 0.000000 0.000000 0.000000 0.024833 0.000000
# 6 0.000000 0.000000 0.000000 0.000000 0.000000 -0.120893
#
#
# Mechanical properties :
#
#
# Convention : Reuss Voigt Hill
#
# Bulk Modulus (GPa) = 28.76585 34.50531 31.63558
# Shear Modulus (GPa) = 81.25033 24.26329 52.75681
#
# Velocity S-wave (km/s) = 5.81884 3.17979 4.68882
# Velocity P-wave (km/s) = 7.55862 5.27832 6.51895
#
# Compressibility (1/GPa) = 0.03476345
#
# Stress axis : x y z
#
# Youngs Moduli (GPa) = 104.04654 92.18299 45.73743
#
# Poissons Ratio (x) = 0.09883 0.20893
# Poissons Ratio (y) = 0.11155 -0.08509
# Poissons Ratio (z) = 0.47530 -0.17150
#
# Static dielectric constant tensor:
#      x y z
#    x 1.951190 0.000000 0.000000 
#    y 0.000000 1.907350 0.000000 
#    z 0.000000 0.000000 1.867150 
# 
# From -- ./inp_files/24286.got.cif
#   From: 2010.05.17/outbox.cif.g08.bks.cpg/sg59_13_cif.got.tgz:24286.got - 2010.06.03 14:40:33.
