data_PCOD9451347
_publ_section_title
;
Structure prediction by ZEFSAII (Michael W. Deem and Ramdas Pophale) SiO2 
 PCOD9451347
Probable space group: P M M N
;
_chemical_formula_sum "Si O2"
_cell_formula_units_Z 56
_cell_length_a 16.047680
_cell_length_b 21.653609
_cell_length_c 7.399516
_cell_angle_alpha 90.000000
_cell_angle_beta 90.000000
_cell_angle_gamma 90.000000
_cell_volume 2571.259207
_symmetry_space_group_name_H-M "P M M N"
_symmetry_group_IT_number 59
_space_group.IT_coordinate_system_code '2'
_symmetry_cell_setting 'orthorhombic'
loop_
_space_group_symop_operation_xyz
x,y,z
1/2-x,1/2-y,z
1/2+x,-y,-z
-x,1/2+y,-z
-x,-y,-z
1/2+x,1/2+y,-z
1/2-x,y,z
x,1/2-y,z
loop_
_atom_site_type_symbol
_atom_site_label
_atom_site_fract_x
_atom_site_fract_y
_atom_site_fract_z
Si Si1 0.073939 0.377034 0.454706
Si Si2 0.839786 0.507002 0.693673
Si Si3 0.979574 0.648076 0.945500
Si Si4 0.844987 0.750000 0.506702
Si Si5 0.157636 0.680876 0.879315
Si Si6 0.345630 0.250000 0.054325
Si Si7 0.014708 0.040653 0.783576
Si Si8 0.659884 0.051572 0.306576
O O1 0.145616 0.423515 0.381386
O O2 0.024934 0.359185 0.272129
O O3 0.108790 0.313879 0.540136
O O4 0.024680 0.418130 0.600472
O O5 0.750000 0.502865 0.786074
O O6 0.838941 0.462889 0.518465
O O7 0.922001 0.485990 0.796186
O O8 0.902718 0.691958 0.997222
O O9 0.072294 0.672939 0.992056
O O10 0.967782 0.585247 0.051296
O O11 0.750000 0.750000 0.441240
O O12 0.842303 0.750000 0.726441
O O13 0.250000 0.676720 0.970120
O O14 0.153265 0.750000 0.798736
O O15 0.155699 0.623449 0.742308
O O16 0.250000 0.250000 0.990785
O O17 0.082548 0.986685 0.769322
O O18 0.750000 0.028608 0.235730
#
# Coordination Sequence:
#
# PCOD9451347 Si02
#       8
#     8   8   8   4   8   4   8   8
#     4  10  21  39  60  87 121 158 194 245 297 350
#     4  10  20  37  60  85 122 162 196 245 301 349
#     4  11  22  39  62  88 120 158 197 246 298 354
#     4   9  18  35  61  90 116 154 200 237 290 360
#     4  10  20  36  60  85 114 158 205 248 298 350
#     4   9  20  39  60  86 122 156 195 245 297 356
#     4  11  23  38  60  90 122 156 200 243 297 358
#     4   9  19  37  60  89 123 156 200 251 296 352
#
# _framework density 21.779212999999999
#
# number of rings (size 3 to 8) (size 9 to 14) (size 15 to 20)
#    0.000    2.000    0.714    3.857    0.000    5.143 
#    0.000    2.143    1.571    0.000    0.000    0.000 
#    0.000    0.000    0.000    0.000    0.000    0.000 
#
# Total GULP energy -312593.155753 kJ/mol
# GULP energy per Si atom -5582.020638 kJ/mol
# Density = 2.172964 g / cm^3
# Si number density = 21.779213 Si / 1000 Ang^3
#
#
#
# Elastic Constant Matrix: (Units=GPa)
#
#
# Indices 1 2 3 4 5 6 
#
# 1 212.5613 75.0250 26.8026 0.0000 0.0000 0.0000
# 2 75.0250 152.5852 23.9944 0.0000 0.0000 0.0000
# 3 26.8026 23.9944 59.2089 0.0000 0.0000 0.0000
# 4 0.0000 0.0000 0.0000 13.3728 0.0000 0.0000
# 5 0.0000 0.0000 0.0000 0.0000 -8.4689 0.0000
# 6 0.0000 0.0000 0.0000 0.0000 0.0000 1.7612
#
#
#
# Elastic Compliance Matrix: (Units=1/GPa)
#
#
# Indices 1 2 3 4 5 6 
#
# 1 0.005827 -0.002617 -0.001577 0.000000 0.000000 0.000000
# 2 -0.002617 0.008175 -0.002128 0.000000 0.000000 0.000000
# 3 -0.001577 -0.002128 0.018466 0.000000 0.000000 0.000000
# 4 0.000000 0.000000 0.000000 0.074779 0.000000 0.000000
# 5 0.000000 0.000000 0.000000 0.000000 -0.118079 0.000000
# 6 0.000000 0.000000 0.000000 0.000000 0.000000 0.567805
#
#
# Mechanical properties :
#
#
# Convention : Reuss Voigt Hill
#
# Bulk Modulus (GPa) = 50.44674 75.11103 62.77888
# Shear Modulus (GPa) = 8.67715 21.23524 14.95620
#
# Velocity S-wave (km/s) = 1.99820 3.12592 2.62338
# Velocity P-wave (km/s) = 5.34198 6.89862 6.16959
#
# Compressibility (1/GPa) = 0.01982289
#
# Stress axis : x y z
#
# Youngs Moduli (GPa) = 171.61077 122.32091 54.15411
#
# Poissons Ratio (x) = 0.32013 0.08541
# Poissons Ratio (y) = 0.44913 0.11526
# Poissons Ratio (z) = 0.27067 0.26033
#
# Static dielectric constant tensor:
#      x y z
#    x 1.843810 0.000000 0.000000 
#    y 0.000000 1.796470 0.000000 
#    z 0.000000 0.000000 1.781660 
# 
# From -- ./inp_files/9413.got.cif
#   From: 2010.05.17/outbox.cif.g08.bks.cpg/sg59_5_cif.got.tgz:9413.got - 2010.06.03 14:40:33.
