data_PCOD9451287
_publ_section_title
;
Structure prediction by ZEFSAII (Michael W. Deem and Ramdas Pophale) SiO2 
 PCOD9451287
Probable space group: P M M N
;
_chemical_formula_sum "Si O2"
_cell_formula_units_Z 64
_cell_length_a 25.248377
_cell_length_b 9.290659
_cell_length_c 14.975739
_cell_angle_alpha 90.000000
_cell_angle_beta 90.000000
_cell_angle_gamma 90.000000
_cell_volume 3512.919914
_symmetry_space_group_name_H-M "P M M N"
_symmetry_group_IT_number 59
_space_group.IT_coordinate_system_code '2'
_symmetry_cell_setting 'orthorhombic'
loop_
_space_group_symop_operation_xyz
x,y,z
1/2-x,1/2-y,z
1/2+x,-y,-z
-x,1/2+y,-z
-x,-y,-z
1/2+x,1/2+y,-z
1/2-x,y,z
x,1/2-y,z
loop_
_atom_site_type_symbol
_atom_site_label
_atom_site_fract_x
_atom_site_fract_y
_atom_site_fract_z
Si Si1 0.556083 0.423485 0.480196
Si Si2 0.834353 0.917789 0.994419
Si Si3 0.811944 0.920819 0.790497
Si Si4 0.017809 0.915752 0.213842
Si Si5 0.915100 0.422534 0.275150
Si Si6 0.888458 0.416561 0.653605
Si Si7 0.953588 0.583622 0.951271
Si Si8 0.808046 0.422584 0.174370
O O1 0.500000 0.500000 0.500000
O O2 0.548967 0.250000 0.489037
O O3 0.576512 0.452251 0.380158
O O4 0.600295 0.468369 0.553151
O O5 0.817969 0.750000 0.000797
O O6 0.820108 0.968748 0.893987
O O7 0.897997 0.924538 0.001243
O O8 0.812177 0.007059 0.076639
O O9 0.750000 0.940331 0.768713
O O10 0.824322 0.750000 0.790274
O O11 0.848886 0.997342 0.717656
O O12 0.011234 0.750000 0.185610
O O13 0.052810 0.919223 0.302825
O O14 0.051632 0.004816 0.142837
O O15 0.961771 0.992428 0.225502
O O16 0.921792 0.250000 0.262056
O O17 0.857952 0.464845 0.235695
O O18 0.870928 0.250000 0.652023
O O19 0.967441 0.750000 0.938710
O O20 0.000000 0.500000 0.000000
O O21 0.750000 0.459098 0.212582
O O22 0.810754 0.250000 0.164601
#
# Coordination Sequence:
#
# PCOD9451287 Si02
#       8
#     8   8   8   8   8   8   8   8
#     4  10  20  36  58  86 115 146 185 229 281 339
#     4  10  21  37  57  80 108 145 189 231 275 328
#     4  10  21  38  59  82 110 147 192 235 277 333
#     4  11  21  34  54  82 117 149 182 228 280 336
#     4  10  21  37  59  84 113 148 188 231 282 340
#     4  10  21  36  55  83 117 146 181 230 282 336
#     4  11  22  35  52  78 113 152 190 230 283 338
#     4  10  22  39  57  80 110 145 187 233 277 324
#
# _framework density 18.218461000000001
#
# number of rings (size 3 to 8) (size 9 to 14) (size 15 to 20)
#    0.000    1.750    2.500    1.875    0.000    6.000 
#    0.000    0.625    0.000    2.250    0.000    0.000 
#    0.000    0.000    0.000    0.000    0.000    0.000 
#
# Total GULP energy -357132.172459 kJ/mol
# GULP energy per Si atom -5580.190195 kJ/mol
# Density = 1.817700 g / cm^3
# Si number density = 18.218461 Si / 1000 Ang^3
#
#
#
# Elastic Constant Matrix: (Units=GPa)
#
#
# Indices 1 2 3 4 5 6 
#
# 1 108.4513 41.1793 43.1131 0.0000 0.0000 0.0000
# 2 41.1793 49.9705 28.7082 0.0000 0.0000 0.0000
# 3 43.1131 28.7082 83.5618 0.0000 0.0000 0.0000
# 4 0.0000 0.0000 0.0000 24.5773 0.0000 0.0000
# 5 0.0000 0.0000 0.0000 0.0000 18.2557 0.0000
# 6 0.0000 0.0000 0.0000 0.0000 0.0000 21.6313
#
#
#
# Elastic Compliance Matrix: (Units=1/GPa)
#
#
# Indices 1 2 3 4 5 6 
#
# 1 0.014519 -0.009545 -0.004212 0.000000 0.000000 0.000000
# 2 -0.009545 0.031208 -0.005797 0.000000 0.000000 0.000000
# 3 -0.004212 -0.005797 0.016132 0.000000 0.000000 0.000000
# 4 0.000000 0.000000 0.000000 0.040688 0.000000 0.000000
# 5 0.000000 0.000000 0.000000 0.000000 0.054777 0.000000
# 6 0.000000 0.000000 0.000000 0.000000 0.000000 0.046229
#
#
# Mechanical properties :
#
#
# Convention : Reuss Voigt Hill
#
# Bulk Modulus (GPa) = 43.95360 51.99829 47.97595
# Shear Modulus (GPa) = 19.98032 21.49173 20.73602
#
# Velocity S-wave (km/s) = 3.31525 3.43836 3.37736
# Velocity P-wave (km/s) = 6.23159 6.66082 6.44978
#
# Compressibility (1/GPa) = 0.02275126
#
# Stress axis : x y z
#
# Youngs Moduli (GPa) = 68.87295 32.04284 61.98921
#
# Poissons Ratio (x) = 0.30586 0.26109
# Poissons Ratio (y) = 0.65742 0.35935
# Poissons Ratio (z) = 0.29008 0.18575
#
# Static dielectric constant tensor:
#      x y z
#    x 1.630400 0.000000 0.000000 
#    y 0.000000 1.617030 0.000000 
#    z 0.000000 0.000000 1.692970 
# 
# From -- ./inp_files/24655.got.cif
#   From: 2010.05.17/outbox.cif.g08.bks.cpg/sg59_13_cif.got.tgz:24655.got - 2010.06.03 14:40:33.
