data_PCOD9451763
_publ_section_title
;
Structure prediction by ZEFSAII (Michael W. Deem and Ramdas Pophale) SiO2 
 PCOD9451763
Probable space group: P M M N
;
_chemical_formula_sum "Si O2"
_cell_formula_units_Z 56
_cell_length_a 15.865829
_cell_length_b 13.901082
_cell_length_c 12.697435
_cell_angle_alpha 90.000000
_cell_angle_beta 90.000000
_cell_angle_gamma 90.000000
_cell_volume 2800.447096
_symmetry_space_group_name_H-M "P M M N"
_symmetry_group_IT_number 59
_space_group.IT_coordinate_system_code '2'
_symmetry_cell_setting 'orthorhombic'
loop_
_space_group_symop_operation_xyz
x,y,z
1/2-x,1/2-y,z
1/2+x,-y,-z
-x,1/2+y,-z
-x,-y,-z
1/2+x,1/2+y,-z
1/2-x,y,z
x,1/2-y,z
loop_
_atom_site_type_symbol
_atom_site_label
_atom_site_fract_x
_atom_site_fract_y
_atom_site_fract_z
Si Si1 0.348874 0.643087 0.291788
Si Si2 0.152701 0.866310 0.525231
Si Si3 0.654689 0.865822 0.442070
Si Si4 0.655145 0.862038 0.979510
Si Si5 0.560023 0.990128 0.823922
Si Si6 0.979100 0.633392 0.621532
Si Si7 0.594078 0.863922 0.207772
O O1 0.250000 0.651884 0.306275
O O2 0.382552 0.750000 0.268683
O O3 0.378973 0.610101 0.406941
O O4 0.367027 0.565347 0.204697
O O5 0.250000 0.896888 0.545375
O O6 0.155374 0.750000 0.527265
O O7 0.076477 0.895944 0.600597
O O8 0.750000 0.896622 0.470750
O O9 0.654888 0.750000 0.445665
O O10 0.582938 0.895682 0.525228
O O11 0.633381 0.890074 0.320955
O O12 0.750000 0.883893 0.941147
O O13 0.636782 0.750000 0.953877
O O14 0.586265 0.931309 0.926883
O O15 0.653322 0.870068 0.105873
O O16 0.551330 0.914338 0.729013
O O17 0.480029 0.061127 0.818843
O O18 0.976597 0.750000 0.628173
O O19 0.569154 0.750000 0.214753
#
# Coordination Sequence:
#
# PCOD9451763 Si02
#       7
#     8   8   8   8   8   8   8
#     4   9  18  32  50  74 106 144 184 223 264 316
#     4   8  15  31  52  71 100 147 195 231 265 318
#     4   9  18  34  56  82 115 154 194 236 279 325
#     4  10  22  41  62  81 105 142 187 232 281 340
#     4  12  22  34  54  85 116 144 176 223 283 346
#     4  10  21  35  52  80 118 153 184 223 277 339
#     4  10  21  38  60  82 106 142 190 240 282 323
#
# _framework density 19.996807
#
# number of rings (size 3 to 8) (size 9 to 14) (size 15 to 20)
#    0.000    2.286    0.000    3.857    0.000    7.429 
#    0.000    4.286    0.000    0.000    0.000    0.000 
#    0.000    0.000    0.000    0.286    0.000    0.000 
#
# Total GULP energy -312262.527601 kJ/mol
# GULP energy per Si atom -5576.116564 kJ/mol
# Density = 1.995129 g / cm^3
# Si number density = 19.996807 Si / 1000 Ang^3
#
#
#
# Elastic Constant Matrix: (Units=GPa)
#
#
# Indices 1 2 3 4 5 6 
#
# 1 87.2002 27.4438 32.9972 0.0000 0.0000 0.0000
# 2 27.4438 105.4862 28.5937 0.0000 0.0000 0.0000
# 3 32.9972 28.5937 81.6632 0.0000 0.0000 0.0000
# 4 0.0000 0.0000 0.0000 3.5856 0.0000 0.0000
# 5 0.0000 0.0000 0.0000 0.0000 23.2284 0.0000
# 6 0.0000 0.0000 0.0000 0.0000 0.0000 -70.0529
#
#
#
# Elastic Compliance Matrix: (Units=1/GPa)
#
#
# Indices 1 2 3 4 5 6 
#
# 1 0.014041 -0.002337 -0.004855 0.000000 0.000000 0.000000
# 2 -0.002337 0.010863 -0.002859 0.000000 0.000000 0.000000
# 3 -0.004855 -0.002859 0.015208 0.000000 0.000000 0.000000
# 4 0.000000 0.000000 0.000000 0.278892 0.000000 0.000000
# 5 0.000000 0.000000 0.000000 0.000000 0.043051 0.000000
# 6 0.000000 0.000000 0.000000 0.000000 0.000000 -0.014275
#
#
# Mechanical properties :
#
#
# Convention : Reuss Voigt Hill
#
# Bulk Modulus (GPa) = 49.97656 50.26875 50.12266
# Shear Modulus (GPa) = 13.34927 3.70655 8.52791
#
# Velocity S-wave (km/s) = 2.58654 1.36294 2.06734
# Velocity P-wave (km/s) = 5.82810 5.26020 5.55142
#
# Compressibility (1/GPa) = 0.02000938
#
# Stress axis : x y z
#
# Youngs Moduli (GPa) = 71.22253 92.05615 65.75338
#
# Poissons Ratio (x) = 0.21512 0.31924
# Poissons Ratio (y) = 0.16643 0.18801
# Poissons Ratio (z) = 0.34579 0.26322
#
# Static dielectric constant tensor:
#      x y z
#    x 1.747340 0.000000 0.000000 
#    y 0.000000 1.715540 0.000000 
#    z 0.000000 0.000000 1.693170 
# 
# From -- ./inp_files/16967.got.cif
#   From: 2010.05.17/outbox.cif.g08.bks.cpg/sg59_9_cif.got.tgz:16967.got - 2010.06.03 14:40:33.
