data_PCOD9451597
_publ_section_title
;
Structure prediction by ZEFSAII (Michael W. Deem and Ramdas Pophale) SiO2 
 PCOD9451597
Probable space group: P M M N
;
_chemical_formula_sum "Si O2"
_cell_formula_units_Z 64
_cell_length_a 7.722461
_cell_length_b 24.388766
_cell_length_c 15.116974
_cell_angle_alpha 90.000000
_cell_angle_beta 90.000000
_cell_angle_gamma 90.000000
_cell_volume 2847.150449
_symmetry_space_group_name_H-M "P M M N"
_symmetry_group_IT_number 59
_space_group.IT_coordinate_system_code '2'
_symmetry_cell_setting 'orthorhombic'
loop_
_space_group_symop_operation_xyz
x,y,z
1/2-x,1/2-y,z
1/2+x,-y,-z
-x,1/2+y,-z
-x,-y,-z
1/2+x,1/2+y,-z
1/2-x,y,z
x,1/2-y,z
loop_
_atom_site_type_symbol
_atom_site_label
_atom_site_fract_x
_atom_site_fract_y
_atom_site_fract_z
Si Si1 0.462270 0.100718 0.365751
Si Si2 0.546513 0.634232 0.940032
Si Si3 0.048113 0.986191 0.293705
Si Si4 0.044263 0.188456 0.507823
Si Si5 0.540822 0.312549 0.877318
Si Si6 0.039645 0.636389 0.308125
Si Si7 0.040287 0.308356 0.228988
Si Si8 0.057738 0.515534 0.900929
O O1 0.250000 0.097812 0.367497
O O2 0.525477 0.039120 0.345596
O O3 0.520640 0.136603 0.450076
O O4 0.515865 0.139393 0.284208
O O5 0.750000 0.622052 0.928642
O O6 0.499691 0.683197 0.873741
O O7 0.448398 0.581008 0.906301
O O8 0.512753 0.650415 0.040190
O O9 0.250000 0.983814 0.317769
O O10 0.039921 0.996300 0.187402
O O11 0.974698 0.926307 0.315608
O O12 0.250000 0.191027 0.489849
O O13 0.975308 0.250000 0.488646
O O14 0.015479 0.173202 0.609599
O O15 0.750000 0.311608 0.875960
O O16 0.479354 0.250000 0.888323
O O17 0.481480 0.337843 0.784680
O O18 0.250000 0.635344 0.306551
O O19 0.250000 0.307390 0.236904
O O20 0.974844 0.250000 0.262244
O O21 0.250000 0.493661 0.889278
O O22 0.000000 0.500000 0.000000
#
# Coordination Sequence:
#
# PCOD9451597 Si02
#       8
#     8   8   8   8   8   8   8   8
#     4   9  17  33  57  85 119 154 192 237 288 344
#     4  11  21  35  56  85 117 151 195 243 294 351
#     4  10  20  38  61  87 118 156 198 240 292 357
#     4  10  21  37  60  89 117 150 197 249 297 346
#     4  10  21  37  55  78 113 157 201 249 305 361
#     4  10  22  39  60  83 113 154 196 240 301 366
#     4   9  16  28  51  82 114 149 189 230 276 337
#     4  12  24  38  58  84 117 157 200 244 292 347
#
# _framework density 22.478615000000001
#
# number of rings (size 3 to 8) (size 9 to 14) (size 15 to 20)
#    0.000    1.875    1.250    3.375    0.000    5.500 
#    0.000    0.625    0.000    0.000    0.000    0.000 
#    0.000    0.000    0.000    0.000    0.000    0.000 
#
# Total GULP energy -357393.600664 kJ/mol
# GULP energy per Si atom -5584.275010 kJ/mol
# Density = 2.242745 g / cm^3
# Si number density = 22.478615 Si / 1000 Ang^3
#
#
#
# Elastic Constant Matrix: (Units=GPa)
#
#
# Indices 1 2 3 4 5 6 
#
# 1 35.3764 0.9164 -9.2555 0.0000 0.0000 0.0000
# 2 0.9164 82.9008 1.6251 0.0000 0.0000 0.0000
# 3 -9.2555 1.6251 88.1335 0.0000 0.0000 0.0000
# 4 0.0000 0.0000 0.0000 25.4151 0.0000 0.0000
# 5 0.0000 0.0000 0.0000 0.0000 4.9299 0.0000
# 6 0.0000 0.0000 0.0000 0.0000 0.0000 2.2603
#
#
#
# Elastic Compliance Matrix: (Units=1/GPa)
#
#
# Indices 1 2 3 4 5 6 
#
# 1 0.029078 -0.000381 0.003061 0.000000 0.000000 0.000000
# 2 -0.000381 0.012072 -0.000263 0.000000 0.000000 0.000000
# 3 0.003061 -0.000263 0.011673 0.000000 0.000000 0.000000
# 4 0.000000 0.000000 0.000000 0.039347 0.000000 0.000000
# 5 0.000000 0.000000 0.000000 0.000000 0.202844 0.000000
# 6 0.000000 0.000000 0.000000 0.000000 0.000000 0.442429
#
#
# Mechanical properties :
#
#
# Convention : Reuss Voigt Hill
#
# Bulk Modulus (GPa) = 17.34424 21.44253 19.39339
# Shear Modulus (GPa) = 6.65046 20.72936 13.68991
#
# Velocity S-wave (km/s) = 1.72192 3.04004 2.47051
# Velocity P-wave (km/s) = 3.41847 4.67784 4.09684
#
# Compressibility (1/GPa) = 0.05765602
#
# Stress axis : x y z
#
# Youngs Moduli (GPa) = 34.39013 82.83650 85.67002
#
# Poissons Ratio (x) = 0.03160 -0.26221
# Poissons Ratio (y) = 0.01312 0.02250
# Poissons Ratio (z) = -0.10526 0.02176
#
# Static dielectric constant tensor:
#      x y z
#    x 1.858460 0.000000 0.000000 
#    y 0.000000 2.956110 0.000000 
#    z 0.000000 0.000000 1.832480 
# 
# From -- ./inp_files/21591.got.cif
#   From: 2010.05.17/outbox.cif.g08.bks.cpg/sg59_11_cif.got.tgz:21591.got - 2010.06.03 14:40:33.
