data_PCOD9451553
_publ_section_title
;
Structure prediction by ZEFSAII (Michael W. Deem and Ramdas Pophale) SiO2 
 PCOD9451553
Probable space group: P M M N
;
_chemical_formula_sum "Si O2"
_cell_formula_units_Z 64
_cell_length_a 18.271431
_cell_length_b 30.072907
_cell_length_c 5.188113
_cell_angle_alpha 90.000000
_cell_angle_beta 90.000000
_cell_angle_gamma 90.000000
_cell_volume 2850.738625
_symmetry_space_group_name_H-M "P M M N"
_symmetry_group_IT_number 59
_space_group.IT_coordinate_system_code '2'
_symmetry_cell_setting 'orthorhombic'
loop_
_space_group_symop_operation_xyz
x,y,z
1/2-x,1/2-y,z
1/2+x,-y,-z
-x,1/2+y,-z
-x,-y,-z
1/2+x,1/2+y,-z
1/2-x,y,z
x,1/2-y,z
loop_
_atom_site_type_symbol
_atom_site_label
_atom_site_fract_x
_atom_site_fract_y
_atom_site_fract_z
Si Si1 0.393204 0.921197 0.206651
Si Si2 0.585072 0.198460 0.153991
Si Si3 0.576901 0.556949 0.604305
Si Si4 0.928486 0.698098 0.656591
Si Si5 0.033963 0.133532 0.734130
Si Si6 0.334349 0.122424 0.116133
Si Si7 0.926150 0.475797 0.272270
Si Si8 0.667523 0.333166 0.651399
O O1 0.463058 0.889160 0.140390
O O2 0.406199 0.948616 0.467811
O O3 0.385289 0.954800 0.969863
O O4 0.332191 0.884645 0.261743
O O5 0.592172 0.250000 0.231158
O O6 0.497772 0.189274 0.153865
O O7 0.625016 0.191651 0.881965
O O8 0.624065 0.170786 0.381858
O O9 0.538835 0.602998 0.523511
O O10 0.648496 0.575505 0.742297
O O11 0.514250 0.530777 0.763254
O O12 0.589634 0.526344 0.354365
O O13 0.910136 0.750000 0.663513
O O14 0.961476 0.682854 0.381604
O O15 0.860412 0.666044 0.721475
O O16 0.108218 0.123778 0.883845
O O17 0.250000 0.125804 0.045665
O O18 0.750000 0.316352 0.620778
#
# Coordination Sequence:
#
# PCOD9451553 Si02
#       8
#     8   8   8   8   8   8   8   8
#     4  11  21  38  63  93 128 172 214 265 314 385
#     4  11  24  42  68  96 125 168 221 270 319 384
#     4   9  21  36  60  94 120 160 209 271 325 376
#     4  10  23  42  65  93 124 168 222 276 327 397
#     4  10  20  37  65  89 125 163 219 265 329 392
#     4  11  23  40  62  92 131 171 215 276 344 401
#     4  10  21  36  66  95 126 161 222 271 311 376
#     4  12  25  41  63  94 136 173 209 261 330 395
#
# _framework density 22.450322
#
# number of rings (size 3 to 8) (size 9 to 14) (size 15 to 20)
#    0.000    1.500    2.500    2.250    3.500    5.750 
#    0.000    1.250    0.000    0.000    0.000    0.000 
#    0.000    0.000    0.000    0.000    0.000    0.000 
#
# Total GULP energy -357332.514307 kJ/mol
# GULP energy per Si atom -5583.320536 kJ/mol
# Density = 2.239922 g / cm^3
# Si number density = 22.450322 Si / 1000 Ang^3
#
#
#
# Elastic Constant Matrix: (Units=GPa)
#
#
# Indices 1 2 3 4 5 6 
#
# 1 117.4506 12.0185 15.8711 0.0000 0.0000 0.0000
# 2 12.0185 93.5534 5.5827 0.0000 0.0000 0.0000
# 3 15.8711 5.5827 90.8542 0.0000 0.0000 0.0000
# 4 0.0000 0.0000 0.0000 35.0475 0.0000 0.0000
# 5 0.0000 0.0000 0.0000 0.0000 15.4899 0.0000
# 6 0.0000 0.0000 0.0000 0.0000 0.0000 19.4376
#
#
#
# Elastic Compliance Matrix: (Units=1/GPa)
#
#
# Indices 1 2 3 4 5 6 
#
# 1 0.008821 -0.001045 -0.001477 0.000000 0.000000 0.000000
# 2 -0.001045 0.010852 -0.000484 0.000000 0.000000 0.000000
# 3 -0.001477 -0.000484 0.011294 0.000000 0.000000 0.000000
# 4 0.000000 0.000000 0.000000 0.028533 0.000000 0.000000
# 5 0.000000 0.000000 0.000000 0.000000 0.064558 0.000000
# 6 0.000000 0.000000 0.000000 0.000000 0.000000 0.051447
#
#
# Mechanical properties :
#
#
# Convention : Reuss Voigt Hill
#
# Bulk Modulus (GPa) = 40.07160 40.97810 40.52485
# Shear Modulus (GPa) = 26.33866 31.88740 29.11303
#
# Velocity S-wave (km/s) = 3.42891 3.77285 3.60498
# Velocity P-wave (km/s) = 5.79347 6.10505 5.95130
#
# Compressibility (1/GPa) = 0.02495533
#
# Stress axis : x y z
#
# Youngs Moduli (GPa) = 113.36977 92.14692 88.53983
#
# Poissons Ratio (x) = 0.09630 0.13074
# Poissons Ratio (y) = 0.11848 0.04288
# Poissons Ratio (z) = 0.16741 0.04462
#
# Static dielectric constant tensor:
#      x y z
#    x 1.824810 0.000000 0.000000 
#    y 0.000000 1.911370 0.000000 
#    z 0.000000 0.000000 1.937590 
# 
# From -- ./inp_files/3028.got.cif
#   From: 2010.05.17/outbox.cif.g08.bks.cpg/sg59_2_cif.got.tgz:3028.got - 2010.06.03 14:40:33.
