data_PCOD9451789
_publ_section_title
;
Structure prediction by ZEFSAII (Michael W. Deem and Ramdas Pophale) SiO2 
 PCOD9451789
Probable space group: P M M N
;
_chemical_formula_sum "Si O2"
_cell_formula_units_Z 48
_cell_length_a 10.441948
_cell_length_b 15.823607
_cell_length_c 15.315844
_cell_angle_alpha 90.000000
_cell_angle_beta 90.000000
_cell_angle_gamma 90.000000
_cell_volume 2530.625899
_symmetry_space_group_name_H-M "P M M N"
_symmetry_group_IT_number 59
_space_group.IT_coordinate_system_code '2'
_symmetry_cell_setting 'orthorhombic'
loop_
_space_group_symop_operation_xyz
x,y,z
1/2-x,1/2-y,z
1/2+x,-y,-z
-x,1/2+y,-z
-x,-y,-z
1/2+x,1/2+y,-z
1/2-x,y,z
x,1/2-y,z
loop_
_atom_site_type_symbol
_atom_site_label
_atom_site_fract_x
_atom_site_fract_y
_atom_site_fract_z
Si Si1 0.102705 0.097084 0.582378
Si Si2 0.387225 0.150648 0.124588
Si Si3 0.399410 0.438763 0.952322
Si Si4 0.094952 0.153210 0.777590
Si Si5 0.891586 0.149915 0.244425
Si Si6 0.603248 0.106141 0.440680
O O1 0.250000 0.127011 0.569084
O O2 0.063267 0.118806 0.681359
O O3 0.000126 0.131493 0.513030
O O4 0.103792 0.995762 0.569051
O O5 0.250000 0.113049 0.151748
O O6 0.384145 0.250000 0.144206
O O7 0.505658 0.113248 0.177769
O O8 0.397496 0.138577 0.021279
O O9 0.250000 0.469583 0.947454
O O10 0.444015 0.405965 0.858174
O O11 0.500000 0.500000 0.000000
O O12 0.250000 0.154823 0.781874
O O13 0.049801 0.250000 0.787430
O O14 0.750000 0.111051 0.234793
O O15 0.880747 0.250000 0.226968
O O16 0.930889 0.139857 0.344772
O O17 0.750000 0.132570 0.460723
#
# Coordination Sequence:
#
# PCOD9451789 Si02
#       6
#     8   8   8   8   8   8
#     4   9  18  32  51  74  97 130 173 214 254 298
#     4   9  18  33  51  73 102 134 168 207 252 298
#     4  10  21  35  54  79 105 135 170 212 259 308
#     4   9  18  34  56  79 103 136 179 221 259 306
#     4   9  18  31  49  73 100 133 168 202 247 304
#     4   9  18  32  49  71 103 136 167 208 256 307
#
# _framework density 18.967639999999999
#
# number of rings (size 3 to 8) (size 9 to 14) (size 15 to 20)
#    0.000    2.833    0.000    0.500    2.333    4.000 
#    0.000    0.833    0.000    2.500    0.000    0.000 
#    0.000    0.000    0.000    0.000    0.000    0.000 
#
# Total GULP energy -267381.895198 kJ/mol
# GULP energy per Si atom -5570.456150 kJ/mol
# Density = 1.892447 g / cm^3
# Si number density = 18.967640 Si / 1000 Ang^3
#
#
#
# Elastic Constant Matrix: (Units=GPa)
#
#
# Indices 1 2 3 4 5 6 
#
# 1 69.2599 20.0760 75.8088 0.0000 0.0000 0.0000
# 2 20.0760 31.8289 21.4243 0.0000 0.0000 0.0000
# 3 75.8088 21.4243 145.3167 0.0000 0.0000 0.0000
# 4 0.0000 0.0000 0.0000 28.4429 0.0000 0.0000
# 5 0.0000 0.0000 0.0000 0.0000 20.9376 0.0000
# 6 0.0000 0.0000 0.0000 0.0000 0.0000 2.2437
#
#
#
# Elastic Compliance Matrix: (Units=1/GPa)
#
#
# Indices 1 2 3 4 5 6 
#
# 1 0.037106 -0.011518 -0.017660 0.000000 0.000000 0.000000
# 2 -0.011518 0.038455 0.000339 0.000000 0.000000 0.000000
# 3 -0.017660 0.000339 0.016044 0.000000 0.000000 0.000000
# 4 0.000000 0.000000 0.000000 0.035158 0.000000 0.000000
# 5 0.000000 0.000000 0.000000 0.000000 0.047761 0.000000
# 6 0.000000 0.000000 0.000000 0.000000 0.000000 0.445690
#
#
# Mechanical properties :
#
#
# Convention : Reuss Voigt Hill
#
# Bulk Modulus (GPa) = 29.47372 53.44709 41.46041
# Shear Modulus (GPa) = 7.25478 18.93126 13.09302
#
# Velocity S-wave (km/s) = 1.95784 3.16267 2.63017
# Velocity P-wave (km/s) = 4.54791 6.44793 5.57940
#
# Compressibility (1/GPa) = 0.03392853
#
# Stress axis : x y z
#
# Youngs Moduli (GPa) = 26.94953 26.00476 62.32811
#
# Poissons Ratio (x) = 0.29952 1.10069
# Poissons Ratio (y) = 0.31040 -0.02115
# Poissons Ratio (z) = 0.47592 -0.00882
#
# Static dielectric constant tensor:
#      x y z
#    x 1.711560 0.000000 0.000000 
#    y 0.000000 1.697330 0.000000 
#    z 0.000000 0.000000 1.637110 
# 
# From -- ./inp_files/15807.got.cif
#   From: 2010.05.17/outbox.cif.g08.bks.cpg/sg59_8_cif.got.tgz:15807.got - 2010.06.03 14:40:33.
