data_PCOD9451894
_publ_section_title
;
Structure prediction by ZEFSAII (Michael W. Deem and Ramdas Pophale) SiO2 
 PCOD9451894
Probable space group: P M M N
;
_chemical_formula_sum "Si O2"
_cell_formula_units_Z 48
_cell_length_a 9.261865
_cell_length_b 13.719427
_cell_length_c 18.873856
_cell_angle_alpha 90.000000
_cell_angle_beta 90.000000
_cell_angle_gamma 90.000000
_cell_volume 2398.253334
_symmetry_space_group_name_H-M "P M M N"
_symmetry_group_IT_number 59
_space_group.IT_coordinate_system_code '2'
_symmetry_cell_setting 'orthorhombic'
loop_
_space_group_symop_operation_xyz
x,y,z
1/2-x,1/2-y,z
1/2+x,-y,-z
-x,1/2+y,-z
-x,-y,-z
1/2+x,1/2+y,-z
1/2-x,y,z
x,1/2-y,z
loop_
_atom_site_type_symbol
_atom_site_label
_atom_site_fract_x
_atom_site_fract_y
_atom_site_fract_z
Si Si1 0.923130 0.143136 0.963108
Si Si2 0.422874 0.136461 0.688931
Si Si3 0.076950 0.435037 0.099056
Si Si4 0.413769 0.867321 0.611431
Si Si5 0.922572 0.956077 0.743449
Si Si6 0.585317 0.868852 0.473893
O O1 0.750000 0.141479 0.971160
O O2 0.964657 0.250000 0.934776
O O3 0.996234 0.126297 0.039358
O O4 0.960803 0.048791 0.916248
O O5 0.250000 0.126743 0.698388
O O6 0.459632 0.250000 0.698636
O O7 0.455331 0.107735 0.606969
O O8 0.511134 0.064203 0.738111
O O9 0.250000 0.424293 0.090409
O O10 0.039800 0.411416 0.180026
O O11 0.250000 0.902954 0.620210
O O12 0.410850 0.750000 0.609362
O O13 0.509430 0.898979 0.677745
O O14 0.480302 0.900841 0.536603
O O15 0.750000 0.959579 0.737833
O O16 0.750000 0.900590 0.487765
O O17 0.587193 0.750000 0.475286
#
# Coordination Sequence:
#
# PCOD9451894 Si02
#       6
#     8   8   8   8   8   8
#     4   9  18  35  60  84 105 134 170 209 256 306
#     4   9  19  36  56  78 106 140 178 223 272 317
#     4   9  20  37  54  78 111 140 171 212 253 302
#     4  10  21  36  54  76 103 138 181 228 274 318
#     4  11  23  36  53  78 109 146 180 213 259 314
#     4   8  15  31  54  76 100 133 175 224 273 318
#
# _framework density 20.014567
#
# number of rings (size 3 to 8) (size 9 to 14) (size 15 to 20)
#    0.000    2.667    0.000    2.000    0.000    5.667 
#    0.000    6.667    0.000    0.000    0.000    0.000 
#    0.000    0.000    0.000    0.000    0.000    0.000 
#
# Total GULP energy -268002.830714 kJ/mol
# GULP energy per Si atom -5583.392307 kJ/mol
# Density = 1.996901 g / cm^3
# Si number density = 20.014567 Si / 1000 Ang^3
#
#
#
# Elastic Constant Matrix: (Units=GPa)
#
#
# Indices 1 2 3 4 5 6 
#
# 1 32.5014 -0.9106 22.1747 0.0000 0.0000 0.0000
# 2 -0.9106 49.5301 -15.1485 0.0000 0.0000 0.0000
# 3 22.1747 -15.1485 66.0154 0.0000 0.0000 0.0000
# 4 0.0000 0.0000 0.0000 12.1729 0.0000 0.0000
# 5 0.0000 0.0000 0.0000 0.0000 27.9650 0.0000
# 6 0.0000 0.0000 0.0000 0.0000 0.0000 27.6576
#
#
#
# Elastic Compliance Matrix: (Units=1/GPa)
#
#
# Indices 1 2 3 4 5 6 
#
# 1 0.040529 -0.003677 -0.014457 0.000000 0.000000 0.000000
# 2 -0.003677 0.022047 0.006294 0.000000 0.000000 0.000000
# 3 -0.014457 0.006294 0.021448 0.000000 0.000000 0.000000
# 4 0.000000 0.000000 0.000000 0.082150 0.000000 0.000000
# 5 0.000000 0.000000 0.000000 0.000000 0.035759 0.000000
# 6 0.000000 0.000000 0.000000 0.000000 0.000000 0.036156
#
#
# Mechanical properties :
#
#
# Convention : Reuss Voigt Hill
#
# Bulk Modulus (GPa) = 16.57144 17.80868 17.19006
# Shear Modulus (GPa) = 17.73779 23.02119 20.37949
#
# Velocity S-wave (km/s) = 2.98021 3.39517 3.19444
# Velocity P-wave (km/s) = 4.48775 4.92816 4.71310
#
# Compressibility (1/GPa) = 0.06034478
#
# Stress axis : x y z
#
# Youngs Moduli (GPa) = 24.67393 45.35726 46.62334
#
# Poissons Ratio (x) = 0.16676 0.67405
# Poissons Ratio (y) = 0.09072 -0.29345
# Poissons Ratio (z) = 0.35672 -0.28548
#
# Static dielectric constant tensor:
#      x y z
#    x 1.661860 0.000000 0.000000 
#    y 0.000000 1.765090 0.000000 
#    z 0.000000 0.000000 1.675590 
# 
# From -- ./inp_files/25436.got.cif
#   From: 2010.05.17/outbox.cif.g08.bks.cpg/sg59_13_cif.got.tgz:25436.got - 2010.06.03 14:40:33.
