data_PCOD9451625
_publ_section_title
;
Structure prediction by ZEFSAII (Michael W. Deem and Ramdas Pophale) SiO2 
 PCOD9451625
Probable space group: P M M N
;
_chemical_formula_sum "Si O2"
_cell_formula_units_Z 50
_cell_length_a 18.381140
_cell_length_b 16.919117
_cell_length_c 8.455445
_cell_angle_alpha 90.000000
_cell_angle_beta 90.000000
_cell_angle_gamma 90.000000
_cell_volume 2629.581317
_symmetry_space_group_name_H-M "P M M N"
_symmetry_group_IT_number 59
_space_group.IT_coordinate_system_code '2'
_symmetry_cell_setting 'orthorhombic'
loop_
_space_group_symop_operation_xyz
x,y,z
1/2-x,1/2-y,z
1/2+x,-y,-z
-x,1/2+y,-z
-x,-y,-z
1/2+x,1/2+y,-z
1/2-x,y,z
x,1/2-y,z
loop_
_atom_site_type_symbol
_atom_site_label
_atom_site_fract_x
_atom_site_fract_y
_atom_site_fract_z
Si Si1 0.166488 0.988025 0.261242
Si Si2 0.111105 0.360202 0.125232
Si Si3 0.750000 0.750000 0.807152
Si Si4 0.579680 0.498149 0.421078
Si Si5 0.902013 0.337030 0.866935
Si Si6 0.551616 0.161855 0.232381
Si Si7 0.067564 0.339050 0.762566
O O1 0.250000 0.008593 0.252361
O O2 0.137580 0.994787 0.438802
O O3 0.151667 0.901641 0.196706
O O4 0.120735 0.047068 0.151767
O O5 0.183986 0.317432 0.185250
O O6 0.036566 0.339100 0.216860
O O7 0.099543 0.341098 0.940527
O O8 0.500000 0.500000 0.500000
O O9 0.579303 0.416102 0.322592
O O10 0.590840 0.581162 0.327778
O O11 0.873529 0.250000 0.836306
O O12 0.980314 0.344945 0.781109
O O13 0.919129 0.344229 0.052985
O O14 0.571793 0.250000 0.295161
O O15 0.084492 0.250000 0.696787
#
# Coordination Sequence:
#
# PCOD9451625 Si02
#       7
#     8   8   2   8   8   8   8
#     4  12  25  40  56  86 124 160 192 244 304 358
#     4  11  20  38  63  88 119 154 198 242 291 358
#     4  12  20  36  60  98 122 152 186 242 308 364
#     4  12  23  38  58  88 124 161 202 239 291 358
#     4   9  19  38  65  89 109 143 201 258 293 336
#     4  10  20  38  65  91 114 149 205 255 288 335
#     4  10  20  39  62  89 114 149 202 250 286 339
#
# _framework density 19.014434000000001
#
# number of rings (size 3 to 8) (size 9 to 14) (size 15 to 20)
#    0.000    1.280    5.600    1.920    0.000    4.160 
#    2.880    0.800    0.000    0.960    0.000    0.000 
#    0.000    0.000    0.000    0.000    0.000    0.000 
#
# Total GULP energy -278403.601461 kJ/mol
# GULP energy per Si atom -5568.072029 kJ/mol
# Density = 1.897116 g / cm^3
# Si number density = 19.014434 Si / 1000 Ang^3
#
#
#
# Elastic Constant Matrix: (Units=GPa)
#
#
# Indices 1 2 3 4 5 6 
#
# 1 32.5385 16.8975 8.2308 0.0000 0.0000 0.0000
# 2 16.8975 177.7527 50.0617 0.0000 0.0000 0.0000
# 3 8.2308 50.0617 29.4928 0.0000 0.0000 0.0000
# 4 0.0000 0.0000 0.0000 -24.6406 0.0000 0.0000
# 5 0.0000 0.0000 0.0000 0.0000 14.4158 0.0000
# 6 0.0000 0.0000 0.0000 0.0000 0.0000 7.1843
#
#
#
# Elastic Compliance Matrix: (Units=1/GPa)
#
#
# Indices 1 2 3 4 5 6 
#
# 1 0.033168 -0.001046 -0.007481 0.000000 0.000000 0.000000
# 2 -0.001046 0.010812 -0.018060 0.000000 0.000000 0.000000
# 3 -0.007481 -0.018060 0.066649 0.000000 0.000000 0.000000
# 4 0.000000 0.000000 0.000000 -0.040583 0.000000 0.000000
# 5 0.000000 0.000000 0.000000 0.000000 0.069368 0.000000
# 6 0.000000 0.000000 0.000000 0.000000 0.000000 0.139192
#
#
# Mechanical properties :
#
#
# Convention : Reuss Voigt Hill
#
# Bulk Modulus (GPa) = 17.40468 43.35157 30.37812
# Shear Modulus (GPa) = 14.24777 10.36484 12.30630
#
# Velocity S-wave (km/s) = 2.74033 2.33728 2.54679
# Velocity P-wave (km/s) = 4.38016 5.48932 4.96580
#
# Compressibility (1/GPa) = 0.05745581
#
# Stress axis : x y z
#
# Youngs Moduli (GPa) = 30.14916 92.49366 15.00387
#
# Poissons Ratio (x) = 0.09677 0.11224
# Poissons Ratio (y) = 0.03154 0.27097
# Poissons Ratio (z) = 0.22554 1.67042
#
# Static dielectric constant tensor:
#      x y z
#    x 1.600800 0.000000 0.000000 
#    y 0.000000 1.720380 0.000000 
#    z 0.000000 0.000000 1.661050 
# 
# From -- ./inp_files/10274.got.cif
#   From: 2010.05.17/outbox.cif.g08.bks.cpg/sg59_6_cif.got.tgz:10274.got - 2010.06.03 14:40:33.
