data_PCOD9451241
_publ_section_title
;
Structure prediction by ZEFSAII (Michael W. Deem and Ramdas Pophale) SiO2 
 PCOD9451241
Probable space group: P M M N
;
_chemical_formula_sum "Si O2"
_cell_formula_units_Z 64
_cell_length_a 18.973188
_cell_length_b 12.203292
_cell_length_c 14.248329
_cell_angle_alpha 90.000000
_cell_angle_beta 90.000000
_cell_angle_gamma 90.000000
_cell_volume 3298.991889
_symmetry_space_group_name_H-M "P M M N"
_symmetry_group_IT_number 59
_space_group.IT_coordinate_system_code '2'
_symmetry_cell_setting 'orthorhombic'
loop_
_space_group_symop_operation_xyz
x,y,z
1/2-x,1/2-y,z
1/2+x,-y,-z
-x,1/2+y,-z
-x,-y,-z
1/2+x,1/2+y,-z
1/2-x,y,z
x,1/2-y,z
loop_
_atom_site_type_symbol
_atom_site_label
_atom_site_fract_x
_atom_site_fract_y
_atom_site_fract_z
Si Si1 0.078174 0.875089 0.462192
Si Si2 0.668014 0.372020 0.718328
Si Si3 0.169550 0.079962 0.164005
Si Si4 0.831949 0.621889 0.225993
Si Si5 0.056402 0.036325 0.625820
Si Si6 0.023898 0.133146 0.244959
Si Si7 0.470182 0.623121 0.967515
Si Si8 0.667625 0.005183 0.032257
O O1 0.095912 0.750000 0.485219
O O2 0.124355 0.908367 0.372042
O O3 0.996583 0.884284 0.430031
O O4 0.089568 0.955877 0.548547
O O5 0.750000 0.368923 0.691672
O O6 0.643758 0.250000 0.743365
O O7 0.663150 0.453163 0.805242
O O8 0.250000 0.115852 0.183025
O O9 0.107371 0.131662 0.224109
O O10 0.156399 0.081981 0.052683
O O11 0.750000 0.602927 0.252710
O O12 0.839749 0.750000 0.203127
O O13 0.885286 0.591077 0.308779
O O14 0.846066 0.551736 0.132289
O O15 0.005968 0.963351 0.692286
O O16 0.004748 0.250000 0.289107
O O17 0.989769 0.125721 0.142072
O O18 0.489070 0.750000 0.002745
O O19 0.386812 0.603846 0.980007
O O20 0.500000 0.500000 0.000000
O O21 0.750000 0.036618 0.026987
#
# Coordination Sequence:
#
# PCOD9451241 Si02
#       8
#     8   8   8   8   8   8   8   8
#     4  10  21  36  60  89 113 147 194 245 304 370
#     4   9  18  34  56  83 115 148 187 240 297 356
#     4  10  20  36  57  84 120 159 201 245 297 358
#     4  10  22  40  62  88 121 161 208 259 307 365
#     4  11  21  38  60  87 116 152 196 248 310 369
#     4  11  22  37  56  82 119 157 198 250 303 358
#     4  11  23  40  60  88 123 162 210 261 315 369
#     4  10  21  38  59  88 123 162 208 255 307 364
#
# _framework density 19.399867
#
# number of rings (size 3 to 8) (size 9 to 14) (size 15 to 20)
#    0.000    1.750    3.750    0.750    0.000    2.500 
#    0.000    2.500    0.000    1.125    0.000    0.000 
#    0.000    0.000    0.000    0.000    0.000    0.000 
#
# Total GULP energy -356604.264804 kJ/mol
# GULP energy per Si atom -5571.941638 kJ/mol
# Density = 1.935571 g / cm^3
# Si number density = 19.399867 Si / 1000 Ang^3
#
#
#
# Elastic Constant Matrix: (Units=GPa)
#
#
# Indices 1 2 3 4 5 6 
#
# 1 56.4229 25.0103 9.3438 0.0000 0.0000 0.0000
# 2 25.0103 80.7260 19.7575 0.0000 0.0000 0.0000
# 3 9.3438 19.7575 53.0925 0.0000 0.0000 0.0000
# 4 0.0000 0.0000 0.0000 4.3865 0.0000 0.0000
# 5 0.0000 0.0000 0.0000 0.0000 30.0917 0.0000
# 6 0.0000 0.0000 0.0000 0.0000 0.0000 19.2069
#
#
#
# Elastic Compliance Matrix: (Units=1/GPa)
#
#
# Indices 1 2 3 4 5 6 
#
# 1 0.020636 -0.006056 -0.001378 0.000000 0.000000 0.000000
# 2 -0.006056 0.015406 -0.004667 0.000000 0.000000 0.000000
# 3 -0.001378 -0.004667 0.020814 0.000000 0.000000 0.000000
# 4 0.000000 0.000000 0.000000 0.227973 0.000000 0.000000
# 5 0.000000 0.000000 0.000000 0.000000 0.033232 0.000000
# 6 0.000000 0.000000 0.000000 0.000000 0.000000 0.052065
#
#
# Mechanical properties :
#
#
# Convention : Reuss Voigt Hill
#
# Bulk Modulus (GPa) = 30.62451 33.16275 31.89363
# Shear Modulus (GPa) = 12.33919 19.81235 16.07577
#
# Velocity S-wave (km/s) = 2.52473 3.19919 2.88176
# Velocity P-wave (km/s) = 4.93145 5.54778 5.24867
#
# Compressibility (1/GPa) = 0.03265359
#
# Stress axis : x y z
#
# Youngs Moduli (GPa) = 48.45911 64.90898 48.04355
#
# Poissons Ratio (x) = 0.39310 0.06621
# Poissons Ratio (y) = 0.29347 0.22424
# Poissons Ratio (z) = 0.06678 0.30295
#
# Static dielectric constant tensor:
#      x y z
#    x 1.702400 0.000000 0.000000 
#    y 0.000000 1.714860 0.000000 
#    z 0.000000 0.000000 1.649400 
# 
# From -- ./inp_files/23953.got.cif
#   From: 2010.05.17/outbox.cif.g08.bks.cpg/sg59_12_cif.got.tgz:23953.got - 2010.06.03 14:40:33.
