data_PCOD9451116
_publ_section_title
;
Structure prediction by ZEFSAII (Michael W. Deem and Ramdas Pophale) SiO2 
 PCOD9451116
Probable space group: P M M N
;
_chemical_formula_sum "Si O2"
_cell_formula_units_Z 48
_cell_length_a 9.184435
_cell_length_b 22.033295
_cell_length_c 12.324475
_cell_angle_alpha 90.000000
_cell_angle_beta 90.000000
_cell_angle_gamma 90.000000
_cell_volume 2494.022242
_symmetry_space_group_name_H-M "P M M N"
_symmetry_group_IT_number 59
_space_group.IT_coordinate_system_code '2'
_symmetry_cell_setting 'orthorhombic'
loop_
_space_group_symop_operation_xyz
x,y,z
1/2-x,1/2-y,z
1/2+x,-y,-z
-x,1/2+y,-z
-x,-y,-z
1/2+x,1/2+y,-z
1/2-x,y,z
x,1/2-y,z
loop_
_atom_site_type_symbol
_atom_site_label
_atom_site_fract_x
_atom_site_fract_y
_atom_site_fract_z
Si Si1 0.578532 0.434535 0.005413
Si Si2 0.072705 0.683194 0.128799
Si Si3 0.080174 0.581681 0.742203
Si Si4 0.417457 0.985478 0.388614
Si Si5 0.420613 0.318949 0.403006
Si Si6 0.081787 0.841192 0.374172
O O1 0.750000 0.444324 0.979654
O O2 0.568279 0.411203 0.129189
O O3 0.500000 0.500000 0.000000
O O4 0.522835 0.378726 0.930483
O O5 0.250000 0.681545 0.123233
O O6 0.027529 0.750000 0.085000
O O7 0.033650 0.680859 0.256000
O O8 0.250000 0.577536 0.712409
O O9 0.998568 0.520660 0.706579
O O10 0.007042 0.635104 0.673463
O O11 0.250000 0.005610 0.396059
O O12 0.419713 0.914011 0.370319
O O13 0.500000 0.000000 0.500000
O O14 0.250000 0.334525 0.404683
O O15 0.436829 0.250000 0.363557
O O16 0.484708 0.322195 0.524416
O O17 0.250000 0.822163 0.392091
#
# Coordination Sequence:
#
# PCOD9451116 Si02
#       6
#     8   8   8   8   8   8
#     4  10  22  40  63  90 119 155 200 250 303 358
#     4   9  18  35  60  88 116 151 199 251 302 355
#     4  11  23  38  58  86 117 154 198 240 292 356
#     4  11  21  34  56  86 119 153 191 237 293 356
#     4  11  24  39  56  81 115 155 195 240 297 355
#     4  10  20  35  59  87 115 150 191 239 297 360
#
# _framework density 19.246019
#
# number of rings (size 3 to 8) (size 9 to 14) (size 15 to 20)
#    0.000    1.667    1.667    3.000    0.000    6.000 
#    0.000    2.500    0.000    1.500    0.000    0.000 
#    0.000    0.000    0.000    0.000    0.000    0.000 
#
# Total GULP energy -268045.941296 kJ/mol
# GULP energy per Si atom -5584.290444 kJ/mol
# Density = 1.920221 g / cm^3
# Si number density = 19.246019 Si / 1000 Ang^3
#
#
#
# Elastic Constant Matrix: (Units=GPa)
#
#
# Indices 1 2 3 4 5 6 
#
# 1 94.3756 46.2211 38.5263 0.0000 0.0000 0.0000
# 2 46.2211 147.9663 43.9303 0.0000 0.0000 0.0000
# 3 38.5263 43.9303 63.4742 0.0000 0.0000 0.0000
# 4 0.0000 0.0000 0.0000 9.4639 0.0000 0.0000
# 5 0.0000 0.0000 0.0000 0.0000 19.4705 0.0000
# 6 0.0000 0.0000 0.0000 0.0000 0.0000 19.8916
#
#
#
# Elastic Compliance Matrix: (Units=1/GPa)
#
#
# Indices 1 2 3 4 5 6 
#
# 1 0.014763 -0.002456 -0.007261 0.000000 0.000000 0.000000
# 2 -0.002456 0.008915 -0.004679 0.000000 0.000000 0.000000
# 3 -0.007261 -0.004679 0.023400 0.000000 0.000000 0.000000
# 4 0.000000 0.000000 0.000000 0.105665 0.000000 0.000000
# 5 0.000000 0.000000 0.000000 0.000000 0.051360 0.000000
# 6 0.000000 0.000000 0.000000 0.000000 0.000000 0.050272
#
#
# Mechanical properties :
#
#
# Convention : Reuss Voigt Hill
#
# Bulk Modulus (GPa) = 54.68749 62.57461 58.63105
# Shear Modulus (GPa) = 17.28542 21.57444 19.42993
#
# Velocity S-wave (km/s) = 3.00013 3.35174 3.18080
# Velocity P-wave (km/s) = 6.36221 6.89655 6.63476
#
# Compressibility (1/GPa) = 0.01828572
#
# Stress axis : x y z
#
# Youngs Moduli (GPa) = 67.73824 112.17465 42.73536
#
# Poissons Ratio (x) = 0.27549 0.31029
# Poissons Ratio (y) = 0.16636 0.19997
# Poissons Ratio (z) = 0.49183 0.52489
#
# Static dielectric constant tensor:
#      x y z
#    x 1.656780 0.000000 0.000000 
#    y 0.000000 1.689610 0.000000 
#    z 0.000000 0.000000 1.662080 
# 
# From -- ./inp_files/14391.got.cif
#   From: 2010.05.17/outbox.cif.g08.bks.cpg/sg59_8_cif.got.tgz:14391.got - 2010.06.03 14:40:33.
