data_PCOD9451912
_publ_section_title
;
Structure prediction by ZEFSAII (Michael W. Deem and Ramdas Pophale) SiO2 
 PCOD9451912
Probable space group: P M M N
;
_chemical_formula_sum "Si O2"
_cell_formula_units_Z 64
_cell_length_a 7.382290
_cell_length_b 34.477819
_cell_length_c 9.919775
_cell_angle_alpha 90.000000
_cell_angle_beta 90.000000
_cell_angle_gamma 90.000000
_cell_volume 2524.833295
_symmetry_space_group_name_H-M "P M M N"
_symmetry_group_IT_number 59
_space_group.IT_coordinate_system_code '2'
_symmetry_cell_setting 'orthorhombic'
loop_
_space_group_symop_operation_xyz
x,y,z
1/2-x,1/2-y,z
1/2+x,-y,-z
-x,1/2+y,-z
-x,-y,-z
1/2+x,1/2+y,-z
1/2-x,y,z
x,1/2-y,z
loop_
_atom_site_type_symbol
_atom_site_label
_atom_site_fract_x
_atom_site_fract_y
_atom_site_fract_z
Si Si1 0.540746 0.412474 0.438379
Si Si2 0.469581 0.793557 0.148430
Si Si3 0.969559 0.458882 0.189785
Si Si4 0.959254 0.912474 0.061621
Si Si5 0.469559 0.458882 0.689785
Si Si6 0.030419 0.206443 0.351570
Si Si7 0.959632 0.658976 0.895582
Si Si8 0.540368 0.158976 0.604418
O O1 0.750000 0.402327 0.413369
O O2 0.465877 0.425771 0.294866
O O3 0.533618 0.448823 0.540515
O O4 0.456786 0.377119 0.522908
O O5 0.250000 0.794178 0.151116
O O6 0.527276 0.750000 0.183385
O O7 0.536636 0.825547 0.255387
O O8 0.530903 0.805561 0.000272
O O9 0.750000 0.458694 0.188150
O O10 0.027745 0.500000 0.250000
O O11 0.033618 0.448823 0.040515
O O12 0.750000 0.902327 0.086631
O O13 0.043214 0.877119 0.977092
O O14 0.034123 0.925771 0.205134
O O15 0.250000 0.458694 0.688150
O O16 0.250000 0.205822 0.348884
O O17 0.972724 0.250000 0.316615
O O18 0.963364 0.174453 0.244613
O O19 0.969097 0.194439 0.499728
O O20 0.750000 0.648985 0.869557
O O21 0.750000 0.148985 0.630443
#
# Coordination Sequence:
#
# PCOD9451912 Si02
#       8
#     8   8   8   8   8   8   8   8
#     4  10  21  36  55  80 107 139 180 220 264 319
#     4  10  21  36  54  78 106 136 173 215 260 313
#     4  10  21  36  54  79 110 142 179 223 268 317
#     4  10  21  36  55  80 107 139 180 220 264 319
#     4  10  21  36  54  79 110 142 179 223 268 317
#     4  10  21  36  54  78 106 136 173 215 260 313
#     4  10  21  37  56  79 108 140 176 220 266 314
#     4  10  21  37  56  79 108 140 176 220 266 314
#
# _framework density 25.348208
#
# number of rings (size 3 to 8) (size 9 to 14) (size 15 to 20)
#    0.000    2.000    0.000    3.000    0.000    5.000 
#    0.000    0.000    0.000    0.000    0.000    0.000 
#    0.000    0.000    0.000    0.000    0.000    0.000 
#
# Total GULP energy -358159.121666 kJ/mol
# GULP energy per Si atom -5596.236276 kJ/mol
# Density = 2.529051 g / cm^3
# Si number density = 25.348208 Si / 1000 Ang^3
#
#
#
# Elastic Constant Matrix: (Units=GPa)
#
#
# Indices 1 2 3 4 5 6 
#
# 1 100.2926 7.7055 -5.1411 0.0000 0.0000 0.0000
# 2 7.7055 75.7608 -10.6051 0.0000 0.0000 0.0000
# 3 -5.1411 -10.6051 108.5919 0.0000 0.0000 0.0000
# 4 0.0000 0.0000 0.0000 52.4029 0.0000 0.0000
# 5 0.0000 0.0000 0.0000 0.0000 1.5200 0.0000
# 6 0.0000 0.0000 0.0000 0.0000 0.0000 10.9079
#
#
#
# Elastic Compliance Matrix: (Units=1/GPa)
#
#
# Indices 1 2 3 4 5 6 
#
# 1 0.010065 -0.000970 0.000382 0.000000 0.000000 0.000000
# 2 -0.000970 0.013476 0.001270 0.000000 0.000000 0.000000
# 3 0.000382 0.001270 0.009351 0.000000 0.000000 0.000000
# 4 0.000000 0.000000 0.000000 0.019083 0.000000 0.000000
# 5 0.000000 0.000000 0.000000 0.000000 0.657900 0.000000
# 6 0.000000 0.000000 0.000000 0.000000 0.000000 0.091677
#
#
# Mechanical properties :
#
#
# Convention : Reuss Voigt Hill
#
# Bulk Modulus (GPa) = 29.19280 29.84042 29.51661
# Shear Modulus (GPa) = 6.16062 32.47854 19.31958
#
# Velocity S-wave (km/s) = 1.56066 3.58340 2.76373
# Velocity P-wave (km/s) = 3.84568 5.37762 4.67483
#
# Compressibility (1/GPa) = 0.03425503
#
# Stress axis : x y z
#
# Youngs Moduli (GPa) = 99.35477 74.20643 106.94148
#
# Poissons Ratio (x) = 0.07200 -0.04083
# Poissons Ratio (y) = 0.09640 -0.13583
# Poissons Ratio (z) = -0.03793 -0.09425
#
# Static dielectric constant tensor:
#      x y z
#    x 1.930200 0.000000 0.000000 
#    y 0.000000 2.037730 0.000000 
#    z 0.000000 0.000000 1.913030 
# 
# From -- ./inp_files/8031.got.cif
#   From: 2010.05.17/outbox.cif.g08.bks.cpg/sg59_5_cif.got.tgz:8031.got - 2010.06.03 14:40:33.
