data_PCOD9451615
_publ_section_title
;
Structure prediction by ZEFSAII (Michael W. Deem and Ramdas Pophale) SiO2 
 PCOD9451615
Probable space group: P M M N
;
_chemical_formula_sum "Si O2"
_cell_formula_units_Z 64
_cell_length_a 18.672425
_cell_length_b 18.860565
_cell_length_c 9.438998
_cell_angle_alpha 90.000000
_cell_angle_beta 90.000000
_cell_angle_gamma 90.000000
_cell_volume 3324.155386
_symmetry_space_group_name_H-M "P M M N"
_symmetry_group_IT_number 59
_space_group.IT_coordinate_system_code '2'
_symmetry_cell_setting 'orthorhombic'
loop_
_space_group_symop_operation_xyz
x,y,z
1/2-x,1/2-y,z
1/2+x,-y,-z
-x,1/2+y,-z
-x,-y,-z
1/2+x,1/2+y,-z
1/2-x,y,z
x,1/2-y,z
loop_
_atom_site_type_symbol
_atom_site_label
_atom_site_fract_x
_atom_site_fract_y
_atom_site_fract_z
Si Si1 0.071029 0.832291 0.085636
Si Si2 0.468523 0.590382 0.651415
Si Si3 0.113936 0.167426 0.286611
Si Si4 0.451859 0.550804 0.326974
Si Si5 0.166917 0.056159 0.780992
Si Si6 0.666075 0.395929 0.159331
Si Si7 0.407527 0.331290 0.971376
Si Si8 0.169458 0.458211 0.453488
O O1 0.082118 0.750000 0.129143
O O2 0.061886 0.887725 0.214251
O O3 0.993246 0.835672 0.010318
O O4 0.132372 0.856718 0.976279
O O5 0.531599 0.644625 0.688894
O O6 0.471380 0.581637 0.481524
O O7 0.492996 0.512866 0.713479
O O8 0.391665 0.614169 0.712827
O O9 0.123443 0.250000 0.312255
O O10 0.161130 0.119556 0.388840
O O11 0.129066 0.152386 0.121460
O O12 0.379385 0.508056 0.358840
O O13 0.250000 0.079952 0.780826
O O14 0.118165 0.114306 0.853925
O O15 0.146525 0.043337 0.617180
O O16 0.164200 0.981054 0.861229
O O17 0.750000 0.377210 0.187088
O O18 0.391130 0.250000 0.931790
O O19 0.250000 0.484002 0.451194
#
# Coordination Sequence:
#
# PCOD9451615 Si02
#       8
#     8   8   8   8   8   8   8   8
#     4  11  25  42  60  89 122 157 201 252 309 365
#     4  10  20  38  63  94 121 156 204 247 302 359
#     4  10  22  38  59  89 125 162 200 245 297 360
#     4  10  22  38  63  92 122 159 199 254 303 357
#     4  10  22  39  61  91 122 158 203 245 294 359
#     4  11  23  40  64  89 119 158 200 253 308 363
#     4  10  22  39  59  87 126 164 199 244 297 356
#     4  10  22  40  61  89 125 160 200 248 301 362
#
# _framework density 19.25301
#
# number of rings (size 3 to 8) (size 9 to 14) (size 15 to 20)
#    0.000    1.750    2.500    0.750    7.000    3.750 
#    0.000    2.500    0.000    0.000    0.000    0.000 
#    0.000    0.000    0.000    0.000    0.000    0.000 
#
# Total GULP energy -357155.930352 kJ/mol
# GULP energy per Si atom -5580.561412 kJ/mol
# Density = 1.920919 g / cm^3
# Si number density = 19.253010 Si / 1000 Ang^3
#
#
#
# Elastic Constant Matrix: (Units=GPa)
#
#
# Indices 1 2 3 4 5 6 
#
# 1 69.4990 4.2368 6.7600 0.0000 0.0000 0.0000
# 2 4.2368 72.4647 47.2070 0.0000 0.0000 0.0000
# 3 6.7600 47.2070 57.3067 0.0000 0.0000 0.0000
# 4 0.0000 0.0000 0.0000 18.9895 0.0000 0.0000
# 5 0.0000 0.0000 0.0000 0.0000 29.1395 0.0000
# 6 0.0000 0.0000 0.0000 0.0000 0.0000 15.5285
#
#
#
# Elastic Compliance Matrix: (Units=1/GPa)
#
#
# Indices 1 2 3 4 5 6 
#
# 1 0.014567 0.000578 -0.002194 0.000000 0.000000 0.000000
# 2 0.000578 0.029805 -0.024620 0.000000 0.000000 0.000000
# 3 -0.002194 -0.024620 0.037990 0.000000 0.000000 0.000000
# 4 0.000000 0.000000 0.000000 0.052661 0.000000 0.000000
# 5 0.000000 0.000000 0.000000 0.000000 0.034318 0.000000
# 6 0.000000 0.000000 0.000000 0.000000 0.000000 0.064398
#
#
# Mechanical properties :
#
#
# Convention : Reuss Voigt Hill
#
# Bulk Modulus (GPa) = 33.45793 35.07534 34.26664
# Shear Modulus (GPa) = 16.88197 22.13593 19.50895
#
# Velocity S-wave (km/s) = 2.96438 3.39446 3.18668
# Velocity P-wave (km/s) = 5.39745 5.79834 5.60148
#
# Compressibility (1/GPa) = 0.02988828
#
# Stress axis : x y z
#
# Youngs Moduli (GPa) = 68.64872 33.55164 26.32277
#
# Poissons Ratio (x) = -0.01939 0.05776
# Poissons Ratio (y) = -0.03966 0.64807
# Poissons Ratio (z) = 0.15064 0.82605
#
# Static dielectric constant tensor:
#      x y z
#    x 1.702560 0.000000 0.000000 
#    y 0.000000 1.657270 0.000000 
#    z 0.000000 0.000000 1.669680 
# 
# From -- ./inp_files/11655.got.cif
#   From: 2010.05.17/outbox.cif.g08.bks.cpg/sg59_6_cif.got.tgz:11655.got - 2010.06.03 14:40:33.
