data_PCOD9451327
_publ_section_title
;
Structure prediction by ZEFSAII (Michael W. Deem and Ramdas Pophale) SiO2 
 PCOD9451327
Probable space group: P M M N
;
_chemical_formula_sum "Si O2"
_cell_formula_units_Z 64
_cell_length_a 23.384001
_cell_length_b 8.856006
_cell_length_c 16.830776
_cell_angle_alpha 90.000000
_cell_angle_beta 90.000000
_cell_angle_gamma 90.000000
_cell_volume 3485.466100
_symmetry_space_group_name_H-M "P M M N"
_symmetry_group_IT_number 59
_space_group.IT_coordinate_system_code '2'
_symmetry_cell_setting 'orthorhombic'
loop_
_space_group_symop_operation_xyz
x,y,z
1/2-x,1/2-y,z
1/2+x,-y,-z
-x,1/2+y,-z
-x,-y,-z
1/2+x,1/2+y,-z
1/2-x,y,z
x,1/2-y,z
loop_
_atom_site_type_symbol
_atom_site_label
_atom_site_fract_x
_atom_site_fract_y
_atom_site_fract_z
Si Si1 0.816870 0.932219 0.396958
Si Si2 0.316775 0.418391 0.296512
Si Si3 0.135333 0.572075 0.439527
Si Si4 0.973791 0.569214 0.121655
Si Si5 0.924245 0.932161 0.292626
Si Si6 0.916309 0.570588 0.953022
Si Si7 0.515230 0.569470 0.585210
Si Si8 0.317347 0.929135 0.135990
O O1 0.750000 0.977395 0.386857
O O2 0.817550 0.750000 0.405708
O O3 0.860610 0.970981 0.325115
O O4 0.843802 0.002888 0.477030
O O5 0.250000 0.401526 0.280164
O O6 0.340135 0.250000 0.313183
O O7 0.320602 0.528897 0.371076
O O8 0.340317 0.491267 0.216223
O O9 0.126589 0.750000 0.448783
O O10 0.078787 0.493403 0.404122
O O11 0.983776 0.750000 0.124392
O O12 0.940759 0.526321 0.202363
O O13 0.034258 0.488346 0.106536
O O14 0.937123 0.536818 0.042532
O O15 0.929514 0.750000 0.299548
O O16 0.970423 0.008319 0.350682
O O17 0.910369 0.750000 0.944557
O O18 0.857133 0.489690 0.933651
O O19 0.500000 0.500000 0.500000
O O20 0.514080 0.750000 0.582810
O O21 0.250000 0.962615 0.123692
O O22 0.322809 0.750000 0.145089
#
# Coordination Sequence:
#
# PCOD9451327 Si02
#       8
#     8   8   8   8   8   8   8   8
#     4  10  21  38  60  83 111 150 194 241 290 338
#     4  10  21  37  56  80 112 149 191 237 282 334
#     4  12  24  37  56  82 113 152 193 235 283 338
#     4   9  20  38  60  86 116 151 191 237 287 345
#     4  10  21  39  61  85 116 151 191 238 288 344
#     4  10  20  36  59  87 117 150 189 236 289 346
#     4  12  24  39  58  83 115 150 188 235 286 337
#     4  10  21  37  57  82 115 154 193 236 289 349
#
# _framework density 18.361964
#
# number of rings (size 3 to 8) (size 9 to 14) (size 15 to 20)
#    0.000    1.625    1.250    3.750    1.750    4.250 
#    0.000    0.625    0.000    2.250    0.000    0.000 
#    0.000    0.000    0.000    0.000    0.000    0.000 
#
# Total GULP energy -357094.861082 kJ/mol
# GULP energy per Si atom -5579.607204 kJ/mol
# Density = 1.832017 g / cm^3
# Si number density = 18.361964 Si / 1000 Ang^3
#
#
#
# Elastic Constant Matrix: (Units=GPa)
#
#
# Indices 1 2 3 4 5 6 
#
# 1 105.5567 45.6431 52.5463 0.0000 0.0000 0.0000
# 2 45.6431 55.6090 36.6582 0.0000 0.0000 0.0000
# 3 52.5463 36.6582 95.6114 0.0000 0.0000 0.0000
# 4 0.0000 0.0000 0.0000 24.8820 0.0000 0.0000
# 5 0.0000 0.0000 0.0000 0.0000 25.8459 0.0000
# 6 0.0000 0.0000 0.0000 0.0000 0.0000 28.7930
#
#
#
# Elastic Compliance Matrix: (Units=1/GPa)
#
#
# Indices 1 2 3 4 5 6 
#
# 1 0.016384 -0.010053 -0.005150 0.000000 0.000000 0.000000
# 2 -0.010053 0.030233 -0.006067 0.000000 0.000000 0.000000
# 3 -0.005150 -0.006067 0.015615 0.000000 0.000000 0.000000
# 4 0.000000 0.000000 0.000000 0.040190 0.000000 0.000000
# 5 0.000000 0.000000 0.000000 0.000000 0.038691 0.000000
# 6 0.000000 0.000000 0.000000 0.000000 0.000000 0.034731
#
#
# Mechanical properties :
#
#
# Convention : Reuss Voigt Hill
#
# Bulk Modulus (GPa) = 50.77849 58.49689 54.63769
# Shear Modulus (GPa) = 22.22732 24.03282 23.13007
#
# Velocity S-wave (km/s) = 3.48301 3.62171 3.55304
# Velocity P-wave (km/s) = 6.62491 7.02964 6.83027
#
# Compressibility (1/GPa) = 0.01969338
#
# Stress axis : x y z
#
# Youngs Moduli (GPa) = 61.03423 33.07606 64.03906
#
# Poissons Ratio (x) = 0.33251 0.32981
# Poissons Ratio (y) = 0.61357 0.38851
# Poissons Ratio (z) = 0.31433 0.20067
#
# Static dielectric constant tensor:
#      x y z
#    x 1.676810 0.000000 0.000000 
#    y 0.000000 1.625630 0.000000 
#    z 0.000000 0.000000 1.672480 
# 
# From -- ./inp_files/24791.got.cif
#   From: 2010.05.17/outbox.cif.g08.bks.cpg/sg59_13_cif.got.tgz:24791.got - 2010.06.03 14:40:33.
