data_PCOD9451749
_publ_section_title
;
Structure prediction by ZEFSAII (Michael W. Deem and Ramdas Pophale) SiO2 
 PCOD9451749
Probable space group: P M M N
;
_chemical_formula_sum "Si O2"
_cell_formula_units_Z 48
_cell_length_a 9.198596
_cell_length_b 7.785868
_cell_length_c 35.725803
_cell_angle_alpha 90.000000
_cell_angle_beta 90.000000
_cell_angle_gamma 90.000000
_cell_volume 2558.648223
_symmetry_space_group_name_H-M "P M M N"
_symmetry_group_IT_number 59
_space_group.IT_coordinate_system_code '2'
_symmetry_cell_setting 'orthorhombic'
loop_
_space_group_symop_operation_xyz
x,y,z
1/2-x,1/2-y,z
1/2+x,-y,-z
-x,1/2+y,-z
-x,-y,-z
1/2+x,1/2+y,-z
1/2-x,y,z
x,1/2-y,z
loop_
_atom_site_type_symbol
_atom_site_label
_atom_site_fract_x
_atom_site_fract_y
_atom_site_fract_z
Si Si1 0.085697 0.955731 0.112475
Si Si2 0.424732 0.451842 0.811888
Si Si3 0.926782 0.250000 0.244617
Si Si4 0.073207 0.750000 0.670022
Si Si5 0.075232 0.048367 0.613564
Si Si6 0.913699 0.454159 0.037489
Si Si7 0.585281 0.456257 0.537673
O O1 0.250000 0.024755 0.110974
O O2 0.094284 0.750000 0.115226
O O3 0.000627 0.011181 0.149701
O O4 0.999438 0.993596 0.074638
O O5 0.250000 0.462942 0.816552
O O6 0.459169 0.250000 0.804804
O O7 0.468586 0.579687 0.778552
O O8 0.750000 0.250000 0.245808
O O9 0.979514 0.250000 0.287297
O O10 0.250000 0.750000 0.671220
O O11 0.031361 0.579786 0.646835
O O12 0.250000 0.037334 0.608937
O O13 0.040543 0.250000 0.620728
O O14 0.999413 0.990021 0.575094
O O15 0.750000 0.527247 0.037059
O O16 0.902691 0.250000 0.038266
O O17 0.000000 0.500000 0.000000
O O18 0.500000 0.500000 0.500000
O O19 0.750000 0.523750 0.536675
O O20 0.592001 0.250000 0.539543
#
# Coordination Sequence:
#
# PCOD9451749 Si02
#       7
#     8   8   4   4   8   8   8
#     4  10  21  37  57  81 109 142 181 225 274 327
#     4   9  18  33  54  80 111 145 180 225 279 329
#     4   9  18  32  53  83 113 139 181 233 277 333
#     4   9  18  32  53  81 109 141 181 229 279 329
#     4   9  18  33  52  75 106 142 181 225 274 328
#     4  11  24  39  56  80 110 144 183 226 270 320
#     4  10  21  35  52  76 106 140 179 226 277 327
#
# _framework density 18.759905
#
# number of rings (size 3 to 8) (size 9 to 14) (size 15 to 20)
#    0.000    2.333    0.000    2.000    2.333    6.000 
#    0.000    3.333    0.000    2.000    0.000    4.667 
#    0.000    0.000    0.000    0.000    0.000    0.000 
#
# Total GULP energy -267832.714568 kJ/mol
# GULP energy per Si atom -5579.848220 kJ/mol
# Density = 1.871721 g / cm^3
# Si number density = 18.759905 Si / 1000 Ang^3
#
#
#
# Elastic Constant Matrix: (Units=GPa)
#
#
# Indices 1 2 3 4 5 6 
#
# 1 80.1514 37.1233 74.0264 0.0000 0.0000 0.0000
# 2 37.1233 72.1500 70.6837 0.0000 0.0000 0.0000
# 3 74.0264 70.6837 217.7016 0.0000 0.0000 0.0000
# 4 0.0000 0.0000 0.0000 36.3078 0.0000 0.0000
# 5 0.0000 0.0000 0.0000 0.0000 24.9346 0.0000
# 6 0.0000 0.0000 0.0000 0.0000 0.0000 14.6513
#
#
#
# Elastic Compliance Matrix: (Units=1/GPa)
#
#
# Indices 1 2 3 4 5 6 
#
# 1 0.019418 -0.005166 -0.004926 0.000000 0.000000 0.000000
# 2 -0.005166 0.021699 -0.005289 0.000000 0.000000 0.000000
# 3 -0.004926 -0.005289 0.007986 0.000000 0.000000 0.000000
# 4 0.000000 0.000000 0.000000 0.027542 0.000000 0.000000
# 5 0.000000 0.000000 0.000000 0.000000 0.040105 0.000000
# 6 0.000000 0.000000 0.000000 0.000000 0.000000 0.068253
#
#
# Mechanical properties :
#
#
# Convention : Reuss Voigt Hill
#
# Bulk Modulus (GPa) = 54.51778 81.51889 68.01834
# Shear Modulus (GPa) = 22.53487 27.72336 25.12912
#
# Velocity S-wave (km/s) = 3.46963 3.84839 3.66390
# Velocity P-wave (km/s) = 6.72123 7.95581 7.36444
#
# Compressibility (1/GPa) = 0.01834264
#
# Stress axis : x y z
#
# Youngs Moduli (GPa) = 51.49793 46.08446 125.22606
#
# Poissons Ratio (x) = 0.23806 0.61683
# Poissons Ratio (y) = 0.26602 0.66230
# Poissons Ratio (z) = 0.25366 0.24373
#
# Static dielectric constant tensor:
#      x y z
#    x 1.662720 0.000000 0.000000 
#    y 0.000000 1.741170 0.000000 
#    z 0.000000 0.000000 1.321410 
# 
# From -- ./inp_files/33069.got.cif
#   From: 2010.05.17/outbox.cif.g08.bks.cpg/sg59_17_cif.got.tgz:33069.got - 2010.06.03 14:40:33.
