data_PCOD9451815
_publ_section_title
;
Structure prediction by ZEFSAII (Michael W. Deem and Ramdas Pophale) SiO2 
 PCOD9451815
Probable space group: P M M N
;
_chemical_formula_sum "Si O2"
_cell_formula_units_Z 64
_cell_length_a 7.689035
_cell_length_b 31.017526
_cell_length_c 12.218608
_cell_angle_alpha 90.000000
_cell_angle_beta 90.000000
_cell_angle_gamma 90.000000
_cell_volume 2914.074997
_symmetry_space_group_name_H-M "P M M N"
_symmetry_group_IT_number 59
_space_group.IT_coordinate_system_code '2'
_symmetry_cell_setting 'orthorhombic'
loop_
_space_group_symop_operation_xyz
x,y,z
1/2-x,1/2-y,z
1/2+x,-y,-z
-x,1/2+y,-z
-x,-y,-z
1/2+x,1/2+y,-z
1/2-x,y,z
x,1/2-y,z
loop_
_atom_site_type_symbol
_atom_site_label
_atom_site_fract_x
_atom_site_fract_y
_atom_site_fract_z
Si Si1 0.952418 0.297009 0.668701
Si Si2 0.960966 0.131877 0.507996
Si Si3 0.451230 0.037951 0.584126
Si Si4 0.541124 0.798005 0.082408
Si Si5 0.454526 0.701482 0.666117
Si Si6 0.039704 0.150972 0.122143
Si Si7 0.547359 0.534255 0.168591
Si Si8 0.462176 0.057557 0.071133
O O1 0.750000 0.294874 0.636731
O O2 0.030296 0.250000 0.639668
O O3 0.022178 0.339125 0.610384
O O4 0.964327 0.302033 0.797884
O O5 0.750000 0.128724 0.504057
O O6 0.022556 0.161904 0.407593
O O7 0.024041 0.083485 0.523259
O O8 0.250000 0.030444 0.605450
O O9 0.530240 0.039928 0.708610
O O10 0.500000 0.000000 0.500000
O O11 0.750000 0.800889 0.094172
O O12 0.500713 0.750000 0.040174
O O13 0.482342 0.832998 0.996650
O O14 0.250000 0.704572 0.639946
O O15 0.527315 0.750000 0.650769
O O16 0.474596 0.684509 0.788700
O O17 0.250000 0.152441 0.125690
O O18 0.986426 0.101380 0.132426
O O19 0.750000 0.547524 0.173345
O O20 0.532032 0.484092 0.134219
O O21 0.478211 0.557089 0.056834
O O22 0.250000 0.054771 0.070300
#
# Coordination Sequence:
#
# PCOD9451815 Si02
#       8
#     8   8   8   8   8   8   8   8
#     4   9  18  34  57  84 115 150 189 235 284 339
#     4  10  22  40  61  86 115 150 194 240 291 344
#     4  11  25  42  63  88 119 155 193 238 290 346
#     4   9  18  32  51  77 112 150 183 223 280 339
#     4  10  22  40  61  84 115 156 199 244 292 346
#     4  10  21  35  56  84 115 149 190 238 289 342
#     4   9  20  39  60  83 113 149 189 233 285 343
#     4   9  19  36  59  86 114 148 187 233 285 341
#
# _framework density 21.962372999999999
#
# number of rings (size 3 to 8) (size 9 to 14) (size 15 to 20)
#    0.000    2.375    0.000    1.125    3.500    5.250 
#    0.000    1.250    0.000    2.250    0.000    0.000 
#    0.000    0.000    0.000    0.000    0.000    0.000 
#
# Total GULP energy -356922.010722 kJ/mol
# GULP energy per Si atom -5576.906418 kJ/mol
# Density = 2.191239 g / cm^3
# Si number density = 21.962373 Si / 1000 Ang^3
#
#
#
# Elastic Constant Matrix: (Units=GPa)
#
#
# Indices 1 2 3 4 5 6 
#
# 1 26.2994 -10.7926 -1.5896 0.0000 0.0000 0.0000
# 2 -10.7926 125.7235 51.1323 0.0000 0.0000 0.0000
# 3 -1.5896 51.1323 85.7408 0.0000 0.0000 0.0000
# 4 0.0000 0.0000 0.0000 12.3230 0.0000 0.0000
# 5 0.0000 0.0000 0.0000 0.0000 22.8500 0.0000
# 6 0.0000 0.0000 0.0000 0.0000 0.0000 22.0369
#
#
#
# Elastic Compliance Matrix: (Units=1/GPa)
#
#
# Indices 1 2 3 4 5 6 
#
# 1 0.039601 0.004094 -0.001707 0.000000 0.000000 0.000000
# 2 0.004094 0.010924 -0.006439 0.000000 0.000000 0.000000
# 3 -0.001707 -0.006439 0.015471 0.000000 0.000000 0.000000
# 4 0.000000 0.000000 0.000000 0.081149 0.000000 0.000000
# 5 0.000000 0.000000 0.000000 0.000000 0.043764 0.000000
# 6 0.000000 0.000000 0.000000 0.000000 0.000000 0.045379
#
#
# Mechanical properties :
#
#
# Convention : Reuss Voigt Hill
#
# Bulk Modulus (GPa) = 17.27370 35.02931 26.15151
# Shear Modulus (GPa) = 18.96176 24.70954 21.83565
#
# Velocity S-wave (km/s) = 2.94151 3.35787 3.15656
# Velocity P-wave (km/s) = 4.40668 5.56938 5.02180
#
# Compressibility (1/GPa) = 0.05789147
#
# Stress axis : x y z
#
# Youngs Moduli (GPa) = 25.25220 91.54100 64.63607
#
# Poissons Ratio (x) = -0.37475 0.11035
# Poissons Ratio (y) = -0.10338 0.41618
# Poissons Ratio (z) = 0.04311 0.58941
#
# Static dielectric constant tensor:
#      x y z
#    x 1.850600 0.000000 0.000000 
#    y 0.000000 1.780850 0.000000 
#    z 0.000000 0.000000 1.834160 
# 
# From -- ./inp_files/14912.got.cif
#   From: 2010.05.17/outbox.cif.g08.bks.cpg/sg59_8_cif.got.tgz:14912.got - 2010.06.03 14:40:33.
