data_PCOD9451846
_publ_section_title
;
Structure prediction by ZEFSAII (Michael W. Deem and Ramdas Pophale) SiO2 
 PCOD9451846
Probable space group: P M M N
;
_chemical_formula_sum "Si O2"
_cell_formula_units_Z 64
_cell_length_a 7.775301
_cell_length_b 14.737743
_cell_length_c 25.106923
_cell_angle_alpha 90.000000
_cell_angle_beta 90.000000
_cell_angle_gamma 90.000000
_cell_volume 2877.012045
_symmetry_space_group_name_H-M "P M M N"
_symmetry_group_IT_number 59
_space_group.IT_coordinate_system_code '2'
_symmetry_cell_setting 'orthorhombic'
loop_
_space_group_symop_operation_xyz
x,y,z
1/2-x,1/2-y,z
1/2+x,-y,-z
-x,1/2+y,-z
-x,-y,-z
1/2+x,1/2+y,-z
1/2-x,y,z
x,1/2-y,z
loop_
_atom_site_type_symbol
_atom_site_label
_atom_site_fract_x
_atom_site_fract_y
_atom_site_fract_z
Si Si1 0.956295 0.855032 0.468645
Si Si2 0.957634 0.644893 0.033253
Si Si3 0.048732 0.851210 0.699757
Si Si4 0.456774 0.468180 0.748454
Si Si5 0.046037 0.851713 0.914557
Si Si6 0.538993 0.967705 0.135161
Si Si7 0.045791 0.852714 0.354557
Si Si8 0.551219 0.860720 0.582095
O O1 0.750000 0.851949 0.474013
O O2 0.020089 0.750000 0.464930
O O3 0.021237 0.893824 0.525137
O O4 0.996147 0.897095 0.411328
O O5 0.750000 0.640511 0.032053
O O6 0.008959 0.750000 0.038461
O O7 0.019595 0.590264 0.084540
O O8 0.020793 0.614425 0.975231
O O9 0.250000 0.843940 0.713210
O O10 0.972460 0.750000 0.704653
O O11 0.973510 0.931410 0.735105
O O12 0.037873 0.880873 0.637818
O O13 0.250000 0.474643 0.751646
O O14 0.516720 0.435741 0.806446
O O15 0.494623 0.405611 0.698150
O O16 0.250000 0.844697 0.905700
O O17 0.971986 0.750000 0.909968
O O18 0.982101 0.928786 0.874942
O O19 0.750000 0.965393 0.133788
O O20 0.250000 0.847040 0.354958
O O21 0.972310 0.750000 0.352811
O O22 0.750000 0.889358 0.587525
O O23 0.549162 0.750000 0.577771
#
# Coordination Sequence:
#
# PCOD9451846 Si02
#       8
#     8   8   8   8   8   8   8   8
#     4   8  14  27  49  75  99 125 161 203 248 302
#     4   9  17  30  49  73 100 128 159 197 240 286
#     4   9  18  32  50  73 101 131 164 207 256 299
#     4  10  21  36  53  73  98 133 177 214 244 290
#     4   9  17  30  50  76 103 129 158 195 241 290
#     4   9  18  32  50  72  97 128 167 205 238 278
#     4  10  21  36  53  74 101 131 163 206 259 305
#     4   8  14  26  47  74 100 127 161 201 248 303
#
# _framework density 22.245301000000001
#
# number of rings (size 3 to 8) (size 9 to 14) (size 15 to 20)
#    0.000    3.000    0.000    1.500    0.000    2.750 
#    0.000    8.125    0.000    1.500    0.000    3.500 
#    0.000    0.000    0.000    0.000    0.000    0.000 
#
# Total GULP energy -356994.126127 kJ/mol
# GULP energy per Si atom -5578.033221 kJ/mol
# Density = 2.219467 g / cm^3
# Si number density = 22.245301 Si / 1000 Ang^3
#
#
#
# Elastic Constant Matrix: (Units=GPa)
#
#
# Indices 1 2 3 4 5 6 
#
# 1 29.2644 -1.1705 -3.8000 0.0000 0.0000 0.0000
# 2 -1.1705 34.1459 10.5991 0.0000 0.0000 0.0000
# 3 -3.8000 10.5991 61.3348 0.0000 0.0000 0.0000
# 4 0.0000 0.0000 0.0000 22.2167 0.0000 0.0000
# 5 0.0000 0.0000 0.0000 0.0000 16.2492 0.0000
# 6 0.0000 0.0000 0.0000 0.0000 0.0000 5.1648
#
#
#
# Elastic Compliance Matrix: (Units=1/GPa)
#
#
# Indices 1 2 3 4 5 6 
#
# 1 0.034458 0.000548 0.002040 0.000000 0.000000 0.000000
# 2 0.000548 0.030955 -0.005315 0.000000 0.000000 0.000000
# 3 0.002040 -0.005315 0.017349 0.000000 0.000000 0.000000
# 4 0.000000 0.000000 0.000000 0.045011 0.000000 0.000000
# 5 0.000000 0.000000 0.000000 0.000000 0.061541 0.000000
# 6 0.000000 0.000000 0.000000 0.000000 0.000000 0.193619
#
#
# Mechanical properties :
#
#
# Convention : Reuss Voigt Hill
#
# Bulk Modulus (GPa) = 12.93537 15.11136 14.02337
# Shear Modulus (GPa) = 12.07271 16.66723 14.36997
#
# Velocity S-wave (km/s) = 2.33214 2.74021 2.54437
# Velocity P-wave (km/s) = 3.61653 4.10115 3.86644
#
# Compressibility (1/GPa) = 0.07730738
#
# Stress axis : x y z
#
# Youngs Moduli (GPa) = 29.02079 32.30516 57.64058
#
# Poissons Ratio (x) = -0.01770 -0.11759
# Poissons Ratio (y) = -0.01590 0.30638
# Poissons Ratio (z) = -0.05921 0.17171
#
# Static dielectric constant tensor:
#      x y z
#    x 1.809480 0.000000 0.000000 
#    y 0.000000 1.869460 0.000000 
#    z 0.000000 0.000000 1.826320 
# 
# From -- ./inp_files/31609.got.cif
#   From: 2010.05.17/outbox.cif.g08.bks.cpg/sg59_16_cif.got.tgz:31609.got - 2010.06.03 14:40:33.
