data_PCOD9451695
_publ_section_title
;
Structure prediction by ZEFSAII (Michael W. Deem and Ramdas Pophale) SiO2 
 PCOD9451695
Probable space group: P M M N
;
_chemical_formula_sum "Si O2"
_cell_formula_units_Z 52
_cell_length_a 28.998882
_cell_length_b 12.264900
_cell_length_c 7.961862
_cell_angle_alpha 90.000000
_cell_angle_beta 90.000000
_cell_angle_gamma 90.000000
_cell_volume 2831.782622
_symmetry_space_group_name_H-M "P M M N"
_symmetry_group_IT_number 59
_space_group.IT_coordinate_system_code '2'
_symmetry_cell_setting 'orthorhombic'
loop_
_space_group_symop_operation_xyz
x,y,z
1/2-x,1/2-y,z
1/2+x,-y,-z
-x,1/2+y,-z
-x,-y,-z
1/2+x,1/2+y,-z
1/2-x,y,z
x,1/2-y,z
loop_
_atom_site_type_symbol
_atom_site_label
_atom_site_fract_x
_atom_site_fract_y
_atom_site_fract_z
Si Si1 0.329217 0.962974 0.138070
Si Si2 0.989066 0.373606 0.682328
Si Si3 0.652139 0.376804 0.496992
Si Si4 0.750000 0.129970 0.072034
Si Si5 0.750000 0.031789 0.403251
Si Si6 0.061311 0.939315 0.656331
Si Si7 0.418226 0.876667 0.020570
Si Si8 0.250000 0.118655 0.275624
O O1 0.348040 0.911621 0.310012
O O2 0.375505 0.961830 0.026731
O O3 0.296029 0.065580 0.187706
O O4 0.294239 0.882429 0.044892
O O5 0.002449 0.250000 0.714056
O O6 0.962770 0.381904 0.503696
O O7 0.954247 0.405853 0.832342
O O8 0.033601 0.449047 0.675254
O O9 0.640718 0.250000 0.475043
O O10 0.703904 0.401147 0.441106
O O11 0.614833 0.445709 0.394739
O O12 0.750000 0.250000 0.152710
O O13 0.750000 0.028392 0.201483
O O14 0.750000 0.929845 0.532409
O O15 0.059299 0.881673 0.836501
O O16 0.403085 0.750000 0.048718
O O17 0.250000 0.250000 0.270971
#
# Coordination Sequence:
#
# PCOD9451695 Si02
#       8
#     8   8   8   4   4   8   8   4
#     4  10  21  34  57  86 115 153 197 242 295 364
#     4  10  22  40  58  82 120 159 202 253 303 354
#     4  11  19  34  56  84 118 152 188 238 298 353
#     4  11  19  31  50  88 128 151 180 237 304 364
#     4  10  22  34  56  88 116 148 198 238 284 362
#     4  11  22  36  60  87 120 159 202 243 301 366
#     4  11  20  35  60  90 121 152 191 252 315 361
#     4   9  21  43  62  78 116 167 208 245 296 348
#
# _framework density 18.362991999999998
#
# number of rings (size 3 to 8) (size 9 to 14) (size 15 to 20)
#    0.000    1.538    1.538    5.308    0.000    0.000 
#    0.000    5.385    0.000    0.000    0.000    0.000 
#    0.000    0.000    0.000    0.000    0.000    0.000 
#
# Total GULP energy -289790.871886 kJ/mol
# GULP energy per Si atom -5572.901382 kJ/mol
# Density = 1.832120 g / cm^3
# Si number density = 18.362992 Si / 1000 Ang^3
#
#
#
# Elastic Constant Matrix: (Units=GPa)
#
#
# Indices 1 2 3 4 5 6 
#
# 1 109.2190 56.8816 36.0661 0.0000 0.0000 0.0000
# 2 56.8816 85.1672 26.9120 0.0000 0.0000 0.0000
# 3 36.0661 26.9120 113.6076 0.0000 0.0000 0.0000
# 4 0.0000 0.0000 0.0000 14.3282 0.0000 0.0000
# 5 0.0000 0.0000 0.0000 0.0000 20.0258 0.0000
# 6 0.0000 0.0000 0.0000 0.0000 0.0000 19.8952
#
#
#
# Elastic Compliance Matrix: (Units=1/GPa)
#
#
# Indices 1 2 3 4 5 6 
#
# 1 0.014681 -0.009007 -0.002527 0.000000 0.000000 0.000000
# 2 -0.009007 0.018217 -0.001456 0.000000 0.000000 0.000000
# 3 -0.002527 -0.001456 0.009949 0.000000 0.000000 0.000000
# 4 0.000000 0.000000 0.000000 0.069793 0.000000 0.000000
# 5 0.000000 0.000000 0.000000 0.000000 0.049935 0.000000
# 6 0.000000 0.000000 0.000000 0.000000 0.000000 0.050263
#
#
# Mechanical properties :
#
#
# Convention : Reuss Voigt Hill
#
# Bulk Modulus (GPa) = 59.28449 60.85702 60.07075
# Shear Modulus (GPa) = 20.45477 23.39211 21.92344
#
# Velocity S-wave (km/s) = 3.34115 3.57301 3.45902
# Velocity P-wave (km/s) = 6.87308 7.08766 6.98120
#
# Compressibility (1/GPa) = 0.01686782
#
# Stress axis : x y z
#
# Youngs Moduli (GPa) = 68.11460 54.89340 100.50824
#
# Poissons Ratio (x) = 0.49441 0.25400
# Poissons Ratio (y) = 0.61349 0.14635
# Poissons Ratio (z) = 0.17214 0.07993
#
# Static dielectric constant tensor:
#      x y z
#    x 1.551590 0.000000 0.000000 
#    y 0.000000 1.594950 0.000000 
#    z 0.000000 0.000000 1.698860 
# 
# From -- ./inp_files/12617.got.cif
#   From: 2010.05.17/outbox.cif.g08.bks.cpg/sg59_7_cif.got.tgz:12617.got - 2010.06.03 14:40:33.
