data_PCOD9451072
_publ_section_title
;
Structure prediction by ZEFSAII (Michael W. Deem and Ramdas Pophale) SiO2 
 PCOD9451072
Probable space group: P M M N
;
_chemical_formula_sum "Si O2"
_cell_formula_units_Z 56
_cell_length_a 8.987064
_cell_length_b 14.912203
_cell_length_c 21.982735
_cell_angle_alpha 90.000000
_cell_angle_beta 90.000000
_cell_angle_gamma 90.000000
_cell_volume 2946.058498
_symmetry_space_group_name_H-M "P M M N"
_symmetry_group_IT_number 59
_space_group.IT_coordinate_system_code '2'
_symmetry_cell_setting 'orthorhombic'
loop_
_space_group_symop_operation_xyz
x,y,z
1/2-x,1/2-y,z
1/2+x,-y,-z
-x,1/2+y,-z
-x,-y,-z
1/2+x,1/2+y,-z
1/2-x,y,z
x,1/2-y,z
loop_
_atom_site_type_symbol
_atom_site_label
_atom_site_fract_x
_atom_site_fract_y
_atom_site_fract_z
Si Si1 0.927091 0.001525 0.727466
Si Si2 0.077413 0.147147 0.811915
Si Si3 0.071176 0.144804 0.493991
Si Si4 0.921929 0.607941 0.936634
Si Si5 0.572083 0.497508 0.404779
Si Si6 0.922926 0.353329 0.190533
Si Si7 0.578156 0.390569 0.938493
O O1 0.750000 0.000823 0.723828
O O2 0.985619 0.915026 0.763830
O O3 0.983617 0.084740 0.767600
O O4 0.998282 0.004532 0.660893
O O5 0.250000 0.118278 0.812531
O O6 0.070894 0.250000 0.791702
O O7 0.011502 0.140862 0.879695
O O8 0.250000 0.141163 0.484648
O O9 0.028829 0.250000 0.497718
O O10 0.038803 0.086217 0.554599
O O11 0.991316 0.089010 0.440595
O O12 0.750000 0.636679 0.934739
O O13 0.923574 0.499254 0.936724
O O14 0.009116 0.638073 0.876865
O O15 0.001203 0.637783 0.998672
O O16 0.750000 0.490172 0.399319
O O17 0.750000 0.381450 0.189352
O O18 0.930194 0.250000 0.209436
O O19 0.750000 0.361880 0.936054
#
# Coordination Sequence:
#
# PCOD9451072 Si02
#       7
#     8   8   8   8   8   8   8
#     4  12  25  42  63  88 122 163 203 249 299 351
#     4  11  24  41  62  87 117 156 200 249 305 363
#     4   9  19  38  64  94 127 161 199 243 290 342
#     4  10  20  35  58  86 115 152 194 244 305 365
#     4  10  21  38  62  92 125 163 202 243 292 347
#     4  11  24  41  62  87 116 154 200 251 306 364
#     4  10  20  35  58  86 115 152 195 245 303 363
#
# _framework density 19.008447
#
# number of rings (size 3 to 8) (size 9 to 14) (size 15 to 20)
#    0.000    1.571    1.429    3.429    0.000    6.000 
#    0.000    1.429    0.000    0.000    0.000    0.000 
#    0.000    0.000    0.000    0.000    0.000    0.000 
#
# Total GULP energy -313074.832026 kJ/mol
# GULP energy per Si atom -5590.622000 kJ/mol
# Density = 1.896518 g / cm^3
# Si number density = 19.008447 Si / 1000 Ang^3
#
#
#
# Elastic Constant Matrix: (Units=GPa)
#
#
# Indices 1 2 3 4 5 6 
#
# 1 119.9523 49.9540 71.1397 0.0000 0.0000 0.0000
# 2 49.9540 117.9795 53.0857 0.0000 0.0000 0.0000
# 3 71.1397 53.0857 152.9822 0.0000 0.0000 0.0000
# 4 0.0000 0.0000 0.0000 57.1029 0.0000 0.0000
# 5 0.0000 0.0000 0.0000 0.0000 28.3342 0.0000
# 6 0.0000 0.0000 0.0000 0.0000 0.0000 1.5856
#
#
#
# Elastic Compliance Matrix: (Units=1/GPa)
#
#
# Indices 1 2 3 4 5 6 
#
# 1 0.012429 -0.003154 -0.004685 0.000000 0.000000 0.000000
# 2 -0.003154 0.010845 -0.002296 0.000000 0.000000 0.000000
# 3 -0.004685 -0.002296 0.009512 0.000000 0.000000 0.000000
# 4 0.000000 0.000000 0.000000 0.017512 0.000000 0.000000
# 5 0.000000 0.000000 0.000000 0.000000 0.035293 0.000000
# 6 0.000000 0.000000 0.000000 0.000000 0.000000 0.630696
#
#
# Mechanical properties :
#
#
# Convention : Reuss Voigt Hill
#
# Bulk Modulus (GPa) = 79.90892 82.14143 81.02517
# Shear Modulus (GPa) = 6.75010 31.85351 19.30180
#
# Velocity S-wave (km/s) = 1.88648 4.09804 3.19004
# Velocity P-wave (km/s) = 6.84653 8.10548 7.50246
#
# Compressibility (1/GPa) = 0.01251425
#
# Stress axis : x y z
#
# Youngs Moduli (GPa) = 80.45792 92.20871 105.12826
#
# Poissons Ratio (x) = 0.29087 0.49253
# Poissons Ratio (y) = 0.25380 0.24141
# Poissons Ratio (z) = 0.37695 0.21175
#
# Static dielectric constant tensor:
#      x y z
#    x 1.638010 0.000000 0.000000 
#    y 0.000000 1.677480 0.000000 
#    z 0.000000 0.000000 1.613690 
# 
# From -- ./inp_files/29145.got.cif
#   From: 2010.05.17/outbox.cif.g08.bks.cpg/sg59_15_cif.got.tgz:29145.got - 2010.06.03 14:40:33.
