data_PCOD9451201
_publ_section_title
;
Structure prediction by ZEFSAII (Michael W. Deem and Ramdas Pophale) SiO2 
 PCOD9451201
Probable space group: P M M N
;
_chemical_formula_sum "Si O2"
_cell_formula_units_Z 56
_cell_length_a 20.582972
_cell_length_b 7.364204
_cell_length_c 14.761377
_cell_angle_alpha 90.000000
_cell_angle_beta 90.000000
_cell_angle_gamma 90.000000
_cell_volume 2237.488264
_symmetry_space_group_name_H-M "P M M N"
_symmetry_group_IT_number 59
_space_group.IT_coordinate_system_code '2'
_symmetry_cell_setting 'orthorhombic'
loop_
_space_group_symop_operation_xyz
x,y,z
1/2-x,1/2-y,z
1/2+x,-y,-z
-x,1/2+y,-z
-x,-y,-z
1/2+x,1/2+y,-z
1/2-x,y,z
x,1/2-y,z
loop_
_atom_site_type_symbol
_atom_site_label
_atom_site_fract_x
_atom_site_fract_y
_atom_site_fract_z
Si Si1 0.819274 0.032839 0.254990
Si Si2 0.818304 0.954270 0.048059
Si Si3 0.046644 0.035055 0.917990
Si Si4 0.677004 0.470175 0.534484
Si Si5 0.464504 0.462165 0.259703
Si Si6 0.177860 0.460325 0.252037
Si Si7 0.429863 0.970964 0.606916
O O1 0.750000 0.999187 0.300560
O O2 0.824578 0.250000 0.241056
O O3 0.878787 0.976775 0.315086
O O4 0.816674 0.944543 0.157482
O O5 0.750000 0.037769 0.018515
O O6 0.820425 0.750000 0.009659
O O7 0.886872 0.047543 0.041747
O O8 0.057228 0.250000 0.905631
O O9 0.015188 0.970198 0.824076
O O10 0.000000 0.000000 0.000000
O O11 0.750000 0.525675 0.501843
O O12 0.676374 0.250000 0.529828
O O13 0.675000 0.528832 0.638649
O O14 0.611470 0.530689 0.481428
O O15 0.452474 0.250000 0.278073
O O16 0.394000 0.538147 0.228685
O O17 0.500927 0.534426 0.351071
O O18 0.250000 0.535858 0.226248
O O19 0.178924 0.250000 0.222289
O O20 0.434178 0.750000 0.601680
#
# Coordination Sequence:
#
# PCOD9451201 Si02
#       7
#     8   8   8   8   8   8   8
#     4   9  15  24  43  70 100 135 170 202 239 294
#     4   9  18  33  52  76 106 137 167 201 249 310
#     4  11  23  39  60  84 111 141 174 218 269 323
#     4   9  17  30  49  74 106 144 183 222 265 314
#     4  10  20  36  57  79 105 139 179 224 275 327
#     4   9  19  36  55  75 103 142 187 231 275 321
#     4   9  16  27  46  74 106 137 174 215 258 312
#
# _framework density 25.028065000000002
#
# number of rings (size 3 to 8) (size 9 to 14) (size 15 to 20)
#    0.000    2.571    1.429    0.857    0.000    3.429 
#    0.000    2.143    0.000    7.714    0.000    0.000 
#    0.000    0.000    0.000    0.000    0.000    0.000 
#
# Total GULP energy -311939.076792 kJ/mol
# GULP energy per Si atom -5570.340657 kJ/mol
# Density = 2.497110 g / cm^3
# Si number density = 25.028065 Si / 1000 Ang^3
#
#
#
# Elastic Constant Matrix: (Units=GPa)
#
#
# Indices 1 2 3 4 5 6 
#
# 1 229.2601 12.5295 20.9666 0.0000 0.0000 0.0000
# 2 12.5295 92.4354 -9.5100 0.0000 0.0000 0.0000
# 3 20.9666 -9.5100 53.6587 0.0000 0.0000 0.0000
# 4 0.0000 0.0000 0.0000 -3.2663 0.0000 0.0000
# 5 0.0000 0.0000 0.0000 0.0000 20.5910 0.0000
# 6 0.0000 0.0000 0.0000 0.0000 0.0000 -26.3207
#
#
#
# Elastic Compliance Matrix: (Units=1/GPa)
#
#
# Indices 1 2 3 4 5 6 
#
# 1 0.004584 -0.000821 -0.001936 0.000000 0.000000 0.000000
# 2 -0.000821 0.011166 0.002300 0.000000 0.000000 0.000000
# 3 -0.001936 0.002300 0.019801 0.000000 0.000000 0.000000
# 4 0.000000 0.000000 0.000000 -0.306161 0.000000 0.000000
# 5 0.000000 0.000000 0.000000 0.000000 0.048565 0.000000
# 6 0.000000 0.000000 0.000000 0.000000 0.000000 -0.037993
#
#
# Mechanical properties :
#
#
# Convention : Reuss Voigt Hill
#
# Bulk Modulus (GPa) = 28.87199 47.03627 37.95413
# Shear Modulus (GPa) = -20.19565 21.62536 0.71486
#
# Velocity S-wave (km/s) = -2.84372 2.94265 0.53502
# Velocity P-wave (km/s) = 0.88238 5.51179 3.94705
#
# Compressibility (1/GPa) = 0.03463564
#
# Stress axis : x y z
#
# Youngs Moduli (GPa) = 218.15949 89.55614 50.50371
#
# Poissons Ratio (x) = 0.07349 0.09780
# Poissons Ratio (y) = 0.17901 -0.11614
# Poissons Ratio (z) = 0.42247 -0.20595
#
# Static dielectric constant tensor:
#      x y z
#    x 2.114280 0.000000 0.000000 
#    y 0.000000 2.727910 0.000000 
#    z 0.000000 0.000000 1.926980 
# 
# From -- ./inp_files/28087.got.cif
#   From: 2010.05.17/outbox.cif.g08.bks.cpg/sg59_15_cif.got.tgz:28087.got - 2010.06.03 14:40:33.
