data_PCOD9451959
_publ_section_title
;
Structure prediction by ZEFSAII (Michael W. Deem and Ramdas Pophale) SiO2 
 PCOD9451959
Probable space group: P M M N
;
_chemical_formula_sum "Si O2"
_cell_formula_units_Z 40
_cell_length_a 9.436100
_cell_length_b 8.065414
_cell_length_c 26.495513
_cell_angle_alpha 90.000000
_cell_angle_beta 90.000000
_cell_angle_gamma 90.000000
_cell_volume 2016.468918
_symmetry_space_group_name_H-M "P M M N"
_symmetry_group_IT_number 59
_space_group.IT_coordinate_system_code '2'
_symmetry_cell_setting 'orthorhombic'
loop_
_space_group_symop_operation_xyz
x,y,z
1/2-x,1/2-y,z
1/2+x,-y,-z
-x,1/2+y,-z
-x,-y,-z
1/2+x,1/2+y,-z
1/2-x,y,z
x,1/2-y,z
loop_
_atom_site_type_symbol
_atom_site_label
_atom_site_fract_x
_atom_site_fract_y
_atom_site_fract_z
Si Si1 0.911108 0.550872 0.854020
Si Si2 0.587366 0.450071 0.354508
Si Si3 0.087548 0.950430 0.950689
Si Si4 0.911497 0.950397 0.549002
Si Si5 0.087637 0.052138 0.757488
O O1 0.750000 0.486741 0.855994
O O2 0.904418 0.750000 0.858750
O O3 0.006016 0.488782 0.900691
O O4 0.987011 0.511812 0.801444
O O5 0.750000 0.508266 0.361399
O O6 0.588899 0.250000 0.355926
O O7 0.489242 0.509591 0.400093
O O8 0.540261 0.502165 0.298688
O O9 0.250000 0.010300 0.952636
O O10 0.091761 0.750000 0.948626
O O11 0.000000 0.000000 0.000000
O O12 0.750000 0.010662 0.545820
O O13 0.908289 0.750000 0.550993
O O14 0.000000 0.000000 0.500000
O O15 0.250000 0.989144 0.764156
O O16 0.091249 0.250000 0.760267
#
# Coordination Sequence:
#
# PCOD9451959 Si02
#       5
#     8   8   8   8   8
#     4  10  21  37  57  80 107 142 183 224 266 315
#     4   9  18  34  55  77 105 143 183 221 263 315
#     4  10  21  37  58  83 110 142 180 221 267 319
#     4  10  21  36  55  80 109 141 178 220 266 317
#     4  10  21  36  55  81 111 142 177 219 268 319
#
# _framework density 19.836656000000001
#
# number of rings (size 3 to 8) (size 9 to 14) (size 15 to 20)
#    0.000    2.200    0.000    2.400    0.000    7.200 
#    0.000    4.000    0.000    0.000    0.000    0.000 
#    0.000    0.000    0.000    0.000    0.000    0.000 
#
# Total GULP energy -223419.882466 kJ/mol
# GULP energy per Si atom -5585.497062 kJ/mol
# Density = 1.979151 g / cm^3
# Si number density = 19.836656 Si / 1000 Ang^3
#
#
#
# Elastic Constant Matrix: (Units=GPa)
#
#
# Indices 1 2 3 4 5 6 
#
# 1 184.4782 13.4679 142.2320 0.0000 0.0000 0.0000
# 2 13.4679 9.4784 4.9968 0.0000 0.0000 0.0000
# 3 142.2320 4.9968 205.6921 0.0000 0.0000 0.0000
# 4 0.0000 0.0000 0.0000 31.8314 0.0000 0.0000
# 5 0.0000 0.0000 0.0000 0.0000 42.4932 0.0000
# 6 0.0000 0.0000 0.0000 0.0000 0.0000 21.1439
#
#
#
# Elastic Compliance Matrix: (Units=1/GPa)
#
#
# Indices 1 2 3 4 5 6 
#
# 1 0.013260 -0.014189 -0.008824 0.000000 0.000000 0.000000
# 2 -0.014189 0.122055 0.006847 0.000000 0.000000 0.000000
# 3 -0.008824 0.006847 0.010797 0.000000 0.000000 0.000000
# 4 0.000000 0.000000 0.000000 0.031415 0.000000 0.000000
# 5 0.000000 0.000000 0.000000 0.000000 0.023533 0.000000
# 6 0.000000 0.000000 0.000000 0.000000 0.000000 0.047295
#
#
# Mechanical properties :
#
#
# Convention : Reuss Voigt Hill
#
# Bulk Modulus (GPa) = 8.78905 80.11580 44.45242
# Shear Modulus (GPa) = 15.69285 35.02385 25.35835
#
# Velocity S-wave (km/s) = 2.81571 4.20648 3.57929
# Velocity P-wave (km/s) = 3.87444 8.00425 6.28806
#
# Compressibility (1/GPa) = 0.11377796
#
# Stress axis : x y z
#
# Youngs Moduli (GPa) = 75.41340 8.19303 92.61598
#
# Poissons Ratio (x) = 0.11625 0.81729
# Poissons Ratio (y) = 1.07007 -0.63410
# Poissons Ratio (z) = 0.66549 -0.05609
#
# Static dielectric constant tensor:
#      x y z
#    x 1.697760 0.000000 0.000000 
#    y 0.000000 1.712480 0.000000 
#    z 0.000000 0.000000 1.654350 
# 
# From -- ./inp_files/31132.got.cif
#   From: 2010.05.17/outbox.cif.g08.bks.cpg/sg59_16_cif.got.tgz:31132.got - 2010.06.03 14:40:33.
