data_PCOD9451017
_publ_section_title
;
Structure prediction by ZEFSAII (Michael W. Deem and Ramdas Pophale) SiO2 
 PCOD9451017
Probable space group: P M M N
;
_chemical_formula_sum "Si O2"
_cell_formula_units_Z 48
_cell_length_a 18.502928
_cell_length_b 7.998313
_cell_length_c 16.335979
_cell_angle_alpha 90.000000
_cell_angle_beta 90.000000
_cell_angle_gamma 90.000000
_cell_volume 2417.597628
_symmetry_space_group_name_H-M "P M M N"
_symmetry_group_IT_number 59
_space_group.IT_coordinate_system_code '2'
_symmetry_cell_setting 'orthorhombic'
loop_
_space_group_symop_operation_xyz
x,y,z
1/2-x,1/2-y,z
1/2+x,-y,-z
-x,1/2+y,-z
-x,-y,-z
1/2+x,1/2+y,-z
1/2-x,y,z
x,1/2-y,z
loop_
_atom_site_type_symbol
_atom_site_label
_atom_site_fract_x
_atom_site_fract_y
_atom_site_fract_z
Si Si1 0.541285 0.544989 0.817193
Si Si2 0.250000 0.440829 0.766429
Si Si3 0.382666 0.550294 0.878137
Si Si4 0.034548 0.054425 0.366964
Si Si5 0.250000 0.559060 0.587846
Si Si6 0.166874 0.452448 0.059549
Si Si7 0.096261 0.054085 0.536673
O O1 0.540902 0.750000 0.816667
O O2 0.463763 0.493738 0.854810
O O3 0.546923 0.484713 0.723362
O O4 0.609368 0.491738 0.871969
O O5 0.250000 0.250000 0.737665
O O6 0.321077 0.472645 0.820597
O O7 0.250000 0.552705 0.686027
O O8 0.379712 0.750000 0.867274
O O9 0.362278 0.507860 0.971206
O O10 0.053613 0.250000 0.362154
O O11 0.076320 0.985355 0.446470
O O12 0.951347 0.035482 0.394088
O O13 0.250000 0.750000 0.559980
O O14 0.320893 0.469653 0.555403
O O15 0.250000 0.509369 0.071352
O O16 0.167905 0.250000 0.060547
O O17 0.076565 0.250000 0.538903
#
# Coordination Sequence:
#
# PCOD9451017 Si02
#       7
#     8   4   8   8   4   8   8
#     4   9  19  35  56  84 110 145 194 236 274 329
#     4  12  24  38  58  85 116 143 184 239 288 339
#     4  11  21  35  57  83 116 150 186 228 282 343
#     4   9  18  36  59  82 112 149 190 234 283 339
#     4  12  24  38  56  81 114 151 186 227 284 343
#     4  10  20  36  56  79 112 151 191 235 280 324
#     4  10  20  35  57  85 115 146 186 235 286 341
#
# _framework density 19.854419
#
# number of rings (size 3 to 8) (size 9 to 14) (size 15 to 20)
#    0.000    1.833    0.833    4.000    0.000    2.000 
#    1.500    2.500    0.000    0.000    0.000    0.000 
#    0.000    0.000    0.000    0.000    0.000    0.000 
#
# Total GULP energy -268063.193006 kJ/mol
# GULP energy per Si atom -5584.649854 kJ/mol
# Density = 1.980923 g / cm^3
# Si number density = 19.854419 Si / 1000 Ang^3
#
#
#
# Elastic Constant Matrix: (Units=GPa)
#
#
# Indices 1 2 3 4 5 6 
#
# 1 116.2852 -3.5931 77.4292 0.0000 0.0000 0.0000
# 2 -3.5931 29.7243 0.3152 0.0000 0.0000 0.0000
# 3 77.4292 0.3152 97.7403 0.0000 0.0000 0.0000
# 4 0.0000 0.0000 0.0000 17.5547 0.0000 0.0000
# 5 0.0000 0.0000 0.0000 0.0000 22.2013 0.0000
# 6 0.0000 0.0000 0.0000 0.0000 0.0000 22.7035
#
#
#
# Elastic Compliance Matrix: (Units=1/GPa)
#
#
# Indices 1 2 3 4 5 6 
#
# 1 0.018366 0.002374 -0.014557 0.000000 0.000000 0.000000
# 2 0.002374 0.033951 -0.001990 0.000000 0.000000 0.000000
# 3 -0.014557 -0.001990 0.021769 0.000000 0.000000 0.000000
# 4 0.000000 0.000000 0.000000 0.056965 0.000000 0.000000
# 5 0.000000 0.000000 0.000000 0.000000 0.045042 0.000000
# 6 0.000000 0.000000 0.000000 0.000000 0.000000 0.044046
#
#
# Mechanical properties :
#
#
# Convention : Reuss Voigt Hill
#
# Bulk Modulus (GPa) = 21.86270 43.56136 32.71203
# Shear Modulus (GPa) = 18.95869 23.79847 21.37858
#
# Velocity S-wave (km/s) = 3.09347 3.46591 3.28497
# Velocity P-wave (km/s) = 4.87800 6.16479 5.55876
#
# Compressibility (1/GPa) = 0.04574000
#
# Stress axis : x y z
#
# Youngs Moduli (GPa) = 54.44957 29.45452 45.93606
#
# Poissons Ratio (x) = -0.06994 0.66868
# Poissons Ratio (y) = -0.12929 0.09144
# Poissons Ratio (z) = 0.79261 0.05863
#
# Static dielectric constant tensor:
#      x y z
#    x 1.674220 0.000000 0.000000 
#    y 0.000000 1.728880 0.000000 
#    z 0.000000 0.000000 1.682270 
# 
# From -- ./inp_files/23739.got.cif
#   From: 2010.05.17/outbox.cif.g08.bks.cpg/sg59_12_cif.got.tgz:23739.got - 2010.06.03 14:40:33.
