data_PCOD9451130
_publ_section_title
;
Structure prediction by ZEFSAII (Michael W. Deem and Ramdas Pophale) SiO2 
 PCOD9451130
Probable space group: P M M N
;
_chemical_formula_sum "Si O2"
_cell_formula_units_Z 64
_cell_length_a 24.905274
_cell_length_b 13.970714
_cell_length_c 9.322423
_cell_angle_alpha 90.000000
_cell_angle_beta 90.000000
_cell_angle_gamma 90.000000
_cell_volume 3243.685438
_symmetry_space_group_name_H-M "P M M N"
_symmetry_group_IT_number 59
_space_group.IT_coordinate_system_code '2'
_symmetry_cell_setting 'orthorhombic'
loop_
_space_group_symop_operation_xyz
x,y,z
1/2-x,1/2-y,z
1/2+x,-y,-z
-x,1/2+y,-z
-x,-y,-z
1/2+x,1/2+y,-z
1/2-x,y,z
x,1/2-y,z
loop_
_atom_site_type_symbol
_atom_site_label
_atom_site_fract_x
_atom_site_fract_y
_atom_site_fract_z
Si Si1 0.010512 0.865699 0.556624
Si Si2 0.518944 0.138181 0.115849
Si Si3 0.813942 0.355307 0.167211
Si Si4 0.616336 0.446246 0.941041
Si Si5 0.094949 0.141455 0.955800
Si Si6 0.616927 0.135280 0.627036
Si Si7 0.595848 0.863798 0.386639
Si Si8 0.186323 0.512475 0.566563
O O1 0.006414 0.750000 0.562344
O O2 0.958321 0.897624 0.467233
O O3 0.011183 0.897946 0.721751
O O4 0.065933 0.885635 0.475075
O O5 0.536500 0.250000 0.120999
O O6 0.463464 0.136699 0.029373
O O7 0.563230 0.078177 0.032537
O O8 0.750000 0.352805 0.161395
O O9 0.833625 0.250000 0.212602
O O10 0.828495 0.434228 0.284517
O O11 0.837775 0.383284 0.014972
O O12 0.628229 0.557861 0.967404
O O13 0.607717 0.414249 0.779529
O O14 0.115562 0.250000 0.975917
O O15 0.090783 0.123838 0.785284
O O16 0.621579 0.250000 0.642220
O O17 0.668941 0.087626 0.555167
O O18 0.601772 0.750000 0.412230
O O19 0.647695 0.920953 0.441836
O O20 0.250000 0.492343 0.564251
#
# Coordination Sequence:
#
# PCOD9451130 Si02
#       8
#     8   8   8   8   8   8   8   8
#     4   9  20  37  61  93 128 163 204 251 308 373
#     4  10  20  35  59  92 127 164 205 248 301 373
#     4  10  21  39  63  87 115 152 201 259 310 365
#     4  12  22  38  61  91 121 165 208 248 305 368
#     4  10  22  39  58  87 125 162 203 252 304 358
#     4  11  24  40  61  93 131 166 202 253 311 376
#     4  10  21  41  65  91 124 163 206 261 311 364
#     4  11  24  42  63  91 122 161 210 256 309 374
#
# _framework density 19.730642
#
# number of rings (size 3 to 8) (size 9 to 14) (size 15 to 20)
#    0.000    1.625    1.250    3.375    1.750    5.000 
#    0.000    0.000    0.000    0.375    0.000    0.000 
#    0.000    0.000    0.000    0.000    0.000    0.000 
#
# Total GULP energy -357719.408130 kJ/mol
# GULP energy per Si atom -5589.365752 kJ/mol
# Density = 1.968573 g / cm^3
# Si number density = 19.730642 Si / 1000 Ang^3
#
#
#
# Elastic Constant Matrix: (Units=GPa)
#
#
# Indices 1 2 3 4 5 6 
#
# 1 48.8945 2.7066 27.8273 0.0000 0.0000 0.0000
# 2 2.7066 68.9615 27.4914 0.0000 0.0000 0.0000
# 3 27.8273 27.4914 106.1620 0.0000 0.0000 0.0000
# 4 0.0000 0.0000 0.0000 25.3235 0.0000 0.0000
# 5 0.0000 0.0000 0.0000 0.0000 22.4889 0.0000
# 6 0.0000 0.0000 0.0000 0.0000 0.0000 24.6696
#
#
#
# Elastic Compliance Matrix: (Units=1/GPa)
#
#
# Indices 1 2 3 4 5 6 
#
# 1 0.024229 0.001763 -0.006807 0.000000 0.000000 0.000000
# 2 0.001763 0.016298 -0.004683 0.000000 0.000000 0.000000
# 3 -0.006807 -0.004683 0.012417 0.000000 0.000000 0.000000
# 4 0.000000 0.000000 0.000000 0.039489 0.000000 0.000000
# 5 0.000000 0.000000 0.000000 0.000000 0.044466 0.000000
# 6 0.000000 0.000000 0.000000 0.000000 0.000000 0.040536
#
#
# Mechanical properties :
#
#
# Convention : Reuss Voigt Hill
#
# Bulk Modulus (GPa) = 29.86024 37.78542 33.82283
# Shear Modulus (GPa) = 24.03239 25.56258 24.79749
#
# Velocity S-wave (km/s) = 3.49381 3.60332 3.54898
# Velocity P-wave (km/s) = 5.60735 6.04186 5.82866
#
# Compressibility (1/GPa) = 0.03348935
#
# Stress axis : x y z
#
# Youngs Moduli (GPa) = 41.27303 61.35575 80.53774
#
# Poissons Ratio (x) = -0.10816 0.54825
# Poissons Ratio (y) = -0.07276 0.37713
# Poissons Ratio (z) = 0.28096 0.28731
#
# Static dielectric constant tensor:
#      x y z
#    x 1.683410 0.000000 0.000000 
#    y 0.000000 1.761920 0.000000 
#    z 0.000000 0.000000 1.679620 
# 
# From -- ./inp_files/12206.got.cif
#   From: 2010.05.17/outbox.cif.g08.bks.cpg/sg59_7_cif.got.tgz:12206.got - 2010.06.03 14:40:33.
