data_PCOD9451711
_publ_section_title
;
Structure prediction by ZEFSAII (Michael W. Deem and Ramdas Pophale) SiO2 
 PCOD9451711
Probable space group: P M M N
;
_chemical_formula_sum "Si O2"
_cell_formula_units_Z 48
_cell_length_a 10.246547
_cell_length_b 8.491204
_cell_length_c 31.326113
_cell_angle_alpha 90.000000
_cell_angle_beta 90.000000
_cell_angle_gamma 90.000000
_cell_volume 2725.544778
_symmetry_space_group_name_H-M "P M M N"
_symmetry_group_IT_number 59
_space_group.IT_coordinate_system_code '2'
_symmetry_cell_setting 'orthorhombic'
loop_
_space_group_symop_operation_xyz
x,y,z
1/2-x,1/2-y,z
1/2+x,-y,-z
-x,1/2+y,-z
-x,-y,-z
1/2+x,1/2+y,-z
1/2-x,y,z
x,1/2-y,z
loop_
_atom_site_type_symbol
_atom_site_label
_atom_site_fract_x
_atom_site_fract_y
_atom_site_fract_z
Si Si1 0.399399 0.060073 0.534853
Si Si2 0.399474 0.057916 0.631886
Si Si3 0.398949 0.060092 0.965302
Si Si4 0.399867 0.559621 0.296023
Si Si5 0.399838 0.061676 0.202186
Si Si6 0.099942 0.440152 0.867971
O O1 0.250000 0.009798 0.525922
O O2 0.401056 0.250000 0.534507
O O3 0.432162 0.009348 0.583386
O O4 0.500000 0.000000 0.500000
O O5 0.250000 0.010298 0.641072
O O6 0.401121 0.250000 0.632233
O O7 0.501658 0.003595 0.667343
O O8 0.250000 0.009129 0.974580
O O9 0.400114 0.250000 0.965686
O O10 0.430835 0.010209 0.916697
O O11 0.500000 0.000000 0.000000
O O12 0.250000 0.509368 0.304059
O O13 0.401920 0.750000 0.295907
O O14 0.437461 0.501932 0.248923
O O15 0.250000 0.008653 0.193884
O O16 0.400526 0.250000 0.203396
O O17 0.498224 0.004219 0.166049
O O18 0.250000 0.487787 0.858763
O O19 0.096311 0.250000 0.866850
#
# Coordination Sequence:
#
# PCOD9451711 Si02
#       6
#     8   8   8   8   8   8
#     4   9  18  32  49  71  99 129 162 200 242 289
#     4   8  15  29  48  69  93 121 156 199 242 284
#     4   9  19  35  53  75 103 132 164 203 245 290
#     4   9  17  30  49  71  93 121 160 201 239 284
#     4  10  21  35  50  72 103 134 162 197 244 294
#     4   9  19  36  55  74  98 130 168 207 244 285
#
# _framework density 17.611156000000001
#
# number of rings (size 3 to 8) (size 9 to 14) (size 15 to 20)
#    0.000    3.000    0.000    2.500    0.000    4.667 
#    0.000    9.167    0.000    3.000    0.000    0.000 
#    0.000    0.000    0.000    0.000    0.000    0.000 
#
# Total GULP energy -267559.900737 kJ/mol
# GULP energy per Si atom -5574.164599 kJ/mol
# Density = 1.757107 g / cm^3
# Si number density = 17.611156 Si / 1000 Ang^3
#
#
#
# Elastic Constant Matrix: (Units=GPa)
#
#
# Indices 1 2 3 4 5 6 
#
# 1 135.4571 23.0953 144.0922 0.0000 0.0000 0.0000
# 2 23.0953 7.1463 25.8649 0.0000 0.0000 0.0000
# 3 144.0922 25.8649 186.0854 0.0000 0.0000 0.0000
# 4 0.0000 0.0000 0.0000 26.1561 0.0000 0.0000
# 5 0.0000 0.0000 0.0000 0.0000 44.2692 0.0000
# 6 0.0000 0.0000 0.0000 0.0000 0.0000 24.2943
#
#
#
# Elastic Compliance Matrix: (Units=1/GPa)
#
#
# Indices 1 2 3 4 5 6 
#
# 1 0.047098 -0.040678 -0.030815 0.000000 0.000000 0.000000
# 2 -0.040678 0.316728 -0.012525 0.000000 0.000000 0.000000
# 3 -0.030815 -0.012525 0.030976 0.000000 0.000000 0.000000
# 4 0.000000 0.000000 0.000000 0.038232 0.000000 0.000000
# 5 0.000000 0.000000 0.000000 0.000000 0.022589 0.000000
# 6 0.000000 0.000000 0.000000 0.000000 0.000000 0.041162
#
#
# Mechanical properties :
#
#
# Convention : Reuss Voigt Hill
#
# Bulk Modulus (GPa) = 4.40986 79.42151 41.91568
# Shear Modulus (GPa) = 6.75302 27.98634 17.36968
#
# Velocity S-wave (km/s) = 1.96031 3.99071 3.14393
# Velocity P-wave (km/s) = 2.76283 8.15043 6.08534
#
# Compressibility (1/GPa) = 0.22676474
#
# Stress axis : x y z
#
# Youngs Moduli (GPa) = 21.23247 3.15728 32.28294
#
# Poissons Ratio (x) = 0.12843 0.99481
# Poissons Ratio (y) = 0.86370 0.40435
# Poissons Ratio (z) = 0.65428 0.03955
#
# Static dielectric constant tensor:
#      x y z
#    x 1.592680 0.000000 0.000000 
#    y 0.000000 1.611040 0.000000 
#    z 0.000000 0.000000 1.578140 
# 
# From -- ./inp_files/32835.got.cif
#   From: 2010.05.17/outbox.cif.g08.bks.cpg/sg59_17_cif.got.tgz:32835.got - 2010.06.03 14:40:33.
