data_PCOD9451113
_publ_section_title
;
Structure prediction by ZEFSAII (Michael W. Deem and Ramdas Pophale) SiO2 
 PCOD9451113
Probable space group: P M M N
;
_chemical_formula_sum "Si O2"
_cell_formula_units_Z 64
_cell_length_a 25.695635
_cell_length_b 8.579016
_cell_length_c 15.604917
_cell_angle_alpha 90.000000
_cell_angle_beta 90.000000
_cell_angle_gamma 90.000000
_cell_volume 3439.998835
_symmetry_space_group_name_H-M "P M M N"
_symmetry_group_IT_number 59
_space_group.IT_coordinate_system_code '2'
_symmetry_cell_setting 'orthorhombic'
loop_
_space_group_symop_operation_xyz
x,y,z
1/2-x,1/2-y,z
1/2+x,-y,-z
-x,1/2+y,-z
-x,-y,-z
1/2+x,1/2+y,-z
1/2-x,y,z
x,1/2-y,z
loop_
_atom_site_type_symbol
_atom_site_label
_atom_site_fract_x
_atom_site_fract_y
_atom_site_fract_z
Si Si1 0.809980 0.064903 0.659584
Si Si2 0.810723 0.429017 0.307639
Si Si3 0.187538 0.422305 0.519524
Si Si4 0.951662 0.067181 0.084809
Si Si5 0.939147 0.427273 0.903257
Si Si6 0.500574 0.437086 0.598560
Si Si7 0.089741 0.432402 0.273280
Si Si8 0.414725 0.431333 0.740634
O O1 0.750000 0.019713 0.679047
O O2 0.810346 0.250000 0.646673
O O3 0.828353 0.979724 0.573026
O O4 0.854024 0.014442 0.724779
O O5 0.750000 0.469156 0.292658
O O6 0.818871 0.250000 0.281641
O O7 0.821679 0.449517 0.408824
O O8 0.853186 0.544178 0.269980
O O9 0.250000 0.408759 0.515703
O O10 0.166068 0.250000 0.540653
O O11 0.967295 0.250000 0.079608
O O12 0.928188 0.036019 0.177668
O O13 0.917424 0.038662 0.998806
O O14 0.999333 0.947017 0.082031
O O15 0.926004 0.250000 0.878876
O O16 0.928998 0.538533 0.823564
O O17 0.500000 0.500000 0.500000
O O18 0.503562 0.250000 0.593265
O O19 0.549103 0.496899 0.657078
O O20 0.448868 0.476540 0.656113
O O21 0.094624 0.250000 0.291225
O O22 0.426932 0.250000 0.757181
#
# Coordination Sequence:
#
# PCOD9451113 Si02
#       8
#     8   8   8   8   8   8   8   8
#     4  10  21  37  57  80 109 148 192 238 286 334
#     4  10  21  36  55  79 109 148 193 238 284 336
#     4   9  17  31  51  75 104 138 183 235 279 323
#     4  10  20  35  59  87 115 147 185 232 285 338
#     4  10  20  36  58  86 117 147 185 233 282 337
#     4  11  25  42  58  81 117 159 197 236 284 341
#     4  12  24  38  60  86 117 155 192 234 285 342
#     4  11  23  38  59  84 116 153 191 237 287 342
#
# _framework density 18.604659000000002
#
# number of rings (size 3 to 8) (size 9 to 14) (size 15 to 20)
#    0.000    1.625    1.250    3.750    1.750    6.000 
#    0.000    0.000    0.000    0.750    0.000    5.250 
#    0.000    0.000    0.000    0.000    0.000    0.000 
#
# Total GULP energy -356515.473982 kJ/mol
# GULP energy per Si atom -5570.554281 kJ/mol
# Density = 1.856231 g / cm^3
# Si number density = 18.604659 Si / 1000 Ang^3
#
#
#
# Elastic Constant Matrix: (Units=GPa)
#
#
# Indices 1 2 3 4 5 6 
#
# 1 65.9921 22.3010 24.3497 0.0000 0.0000 0.0000
# 2 22.3010 74.0334 27.6799 0.0000 0.0000 0.0000
# 3 24.3497 27.6799 101.3663 0.0000 0.0000 0.0000
# 4 0.0000 0.0000 0.0000 31.5724 0.0000 0.0000
# 5 0.0000 0.0000 0.0000 0.0000 12.3044 0.0000
# 6 0.0000 0.0000 0.0000 0.0000 0.0000 26.0952
#
#
#
# Elastic Compliance Matrix: (Units=1/GPa)
#
#
# Indices 1 2 3 4 5 6 
#
# 1 0.017712 -0.004170 -0.003116 0.000000 0.000000 0.000000
# 2 -0.004170 0.016025 -0.003374 0.000000 0.000000 0.000000
# 3 -0.003116 -0.003374 0.011535 0.000000 0.000000 0.000000
# 4 0.000000 0.000000 0.000000 0.031673 0.000000 0.000000
# 5 0.000000 0.000000 0.000000 0.000000 0.081272 0.000000
# 6 0.000000 0.000000 0.000000 0.000000 0.000000 0.038321
#
#
# Mechanical properties :
#
#
# Convention : Reuss Voigt Hill
#
# Bulk Modulus (GPa) = 41.75105 43.33925 42.54515
# Shear Modulus (GPa) = 22.13919 25.13181 23.63550
#
# Velocity S-wave (km/s) = 3.45335 3.67936 3.56814
# Velocity P-wave (km/s) = 6.19603 6.43394 6.31611
#
# Compressibility (1/GPa) = 0.02395149
#
# Stress axis : x y z
#
# Youngs Moduli (GPa) = 56.45763 62.40160 86.69201
#
# Poissons Ratio (x) = 0.26024 0.27013
# Poissons Ratio (y) = 0.23546 0.29251
# Poissons Ratio (z) = 0.17592 0.21055
#
# Static dielectric constant tensor:
#      x y z
#    x 1.677720 0.000000 0.000000 
#    y 0.000000 1.619640 0.000000 
#    z 0.000000 0.000000 1.721860 
# 
# From -- ./inp_files/24689.got.cif
#   From: 2010.05.17/outbox.cif.g08.bks.cpg/sg59_13_cif.got.tgz:24689.got - 2010.06.03 14:40:33.
