data_PCOD9451581
_publ_section_title
;
Structure prediction by ZEFSAII (Michael W. Deem and Ramdas Pophale) SiO2 
 PCOD9451581
Probable space group: P M M N
;
_chemical_formula_sum "Si O2"
_cell_formula_units_Z 48
_cell_length_a 8.627210
_cell_length_b 10.075630
_cell_length_c 29.371969
_cell_angle_alpha 90.000000
_cell_angle_beta 90.000000
_cell_angle_gamma 90.000000
_cell_volume 2553.145948
_symmetry_space_group_name_H-M "P M M N"
_symmetry_group_IT_number 59
_space_group.IT_coordinate_system_code '2'
_symmetry_cell_setting 'orthorhombic'
loop_
_space_group_symop_operation_xyz
x,y,z
1/2-x,1/2-y,z
1/2+x,-y,-z
-x,1/2+y,-z
-x,-y,-z
1/2+x,1/2+y,-z
1/2-x,y,z
x,1/2-y,z
loop_
_atom_site_type_symbol
_atom_site_label
_atom_site_fract_x
_atom_site_fract_y
_atom_site_fract_z
Si Si1 0.935529 0.750000 0.035422
Si Si2 0.561375 0.750000 0.930686
Si Si3 0.437340 0.903495 0.357992
Si Si4 0.437252 0.533904 0.103361
Si Si5 0.936688 0.400995 0.537471
Si Si6 0.562673 0.398717 0.793717
Si Si7 0.564375 0.403768 0.280875
O O1 0.750000 0.750000 0.035003
O O2 0.995409 0.875883 0.063500
O O3 0.990616 0.750000 0.983206
O O4 0.750000 0.750000 0.931277
O O5 0.513106 0.616855 0.905226
O O6 0.250000 0.908134 0.355010
O O7 0.482334 0.750000 0.347434
O O8 0.482699 0.931681 0.410388
O O9 0.505908 0.010932 0.323868
O O10 0.250000 0.542078 0.101020
O O11 0.482472 0.583067 0.153488
O O12 0.750000 0.403976 0.536505
O O13 0.986604 0.250000 0.527683
O O14 0.000000 0.500000 0.500000
O O15 0.750000 0.405425 0.791167
O O16 0.516396 0.250000 0.778418
O O17 0.494770 0.514689 0.762851
O O18 0.750000 0.402803 0.280817
O O19 0.510403 0.250000 0.281482
#
# Coordination Sequence:
#
# PCOD9451581 Si02
#       7
#     4   4   8   8   8   8   8
#     4  11  21  35  55  85 117 147 183 223 272 329
#     4   9  20  35  57  85 113 145 185 229 272 321
#     4   9  19  38  61  83 110 148 195 238 275 326
#     4  10  20  38  60  82 109 145 187 229 270 322
#     4   9  19  35  55  82 116 152 191 237 283 327
#     4  10  21  38  61  85 105 137 187 231 270 325
#     4  11  25  40  55  82 117 147 177 223 284 341
#
# _framework density 18.800335
#
# number of rings (size 3 to 8) (size 9 to 14) (size 15 to 20)
#    0.000    2.167    0.833    2.750    1.167    6.333 
#    0.000    6.250    0.000    0.000    0.000    0.000 
#    0.000    0.000    0.000    0.000    0.000    0.000 
#
# Total GULP energy -267984.232450 kJ/mol
# GULP energy per Si atom -5583.004843 kJ/mol
# Density = 1.875755 g / cm^3
# Si number density = 18.800335 Si / 1000 Ang^3
#
#
#
# Elastic Constant Matrix: (Units=GPa)
#
#
# Indices 1 2 3 4 5 6 
#
# 1 16.9787 28.4892 25.0103 0.0000 0.0000 0.0000
# 2 28.4892 157.6270 74.5350 0.0000 0.0000 0.0000
# 3 25.0103 74.5350 109.9364 0.0000 0.0000 0.0000
# 4 0.0000 0.0000 0.0000 35.4797 0.0000 0.0000
# 5 0.0000 0.0000 0.0000 0.0000 30.1279 0.0000
# 6 0.0000 0.0000 0.0000 0.0000 0.0000 37.1566
#
#
#
# Elastic Compliance Matrix: (Units=1/GPa)
#
#
# Indices 1 2 3 4 5 6 
#
# 1 0.099533 -0.010718 -0.015377 0.000000 0.000000 0.000000
# 2 -0.010718 0.010492 -0.004675 0.000000 0.000000 0.000000
# 3 -0.015377 -0.004675 0.015764 0.000000 0.000000 0.000000
# 4 0.000000 0.000000 0.000000 0.028185 0.000000 0.000000
# 5 0.000000 0.000000 0.000000 0.000000 0.033192 0.000000
# 6 0.000000 0.000000 0.000000 0.000000 0.000000 0.026913
#
#
# Mechanical properties :
#
#
# Convention : Reuss Voigt Hill
#
# Bulk Modulus (GPa) = 15.56455 60.06790 37.81622
# Shear Modulus (GPa) = 16.83308 30.98670 23.90989
#
# Velocity S-wave (km/s) = 2.99550 4.06421 3.57007
# Velocity P-wave (km/s) = 4.50121 7.35143 6.09526
#
# Compressibility (1/GPa) = 0.06424855
#
# Stress axis : x y z
#
# Youngs Moduli (GPa) = 10.04696 95.31187 63.43657
#
# Poissons Ratio (x) = 1.02160 0.97543
# Poissons Ratio (y) = 0.10769 0.29656
# Poissons Ratio (z) = 0.15449 0.44557
#
# Static dielectric constant tensor:
#      x y z
#    x 1.643250 0.000000 0.000000 
#    y 0.000000 1.663020 0.000000 
#    z 0.000000 0.000000 1.633780 
# 
# From -- ./inp_files/32997.got.cif
#   From: 2010.05.17/outbox.cif.g08.bks.cpg/sg59_17_cif.got.tgz:32997.got - 2010.06.03 14:40:33.
