data_PCOD9451159
_publ_section_title
;
Structure prediction by ZEFSAII (Michael W. Deem and Ramdas Pophale) SiO2 
 PCOD9451159
Probable space group: P M M N
;
_chemical_formula_sum "Si O2"
_cell_formula_units_Z 64
_cell_length_a 26.019909
_cell_length_b 7.475331
_cell_length_c 14.838180
_cell_angle_alpha 90.000000
_cell_angle_beta 90.000000
_cell_angle_gamma 90.000000
_cell_volume 2886.136293
_symmetry_space_group_name_H-M "P M M N"
_symmetry_group_IT_number 59
_space_group.IT_coordinate_system_code '2'
_symmetry_cell_setting 'orthorhombic'
loop_
_space_group_symop_operation_xyz
x,y,z
1/2-x,1/2-y,z
1/2+x,-y,-z
-x,1/2+y,-z
-x,-y,-z
1/2+x,1/2+y,-z
1/2-x,y,z
x,1/2-y,z
loop_
_atom_site_type_symbol
_atom_site_label
_atom_site_fract_x
_atom_site_fract_y
_atom_site_fract_z
Si Si1 0.901912 0.030709 0.077469
Si Si2 0.690939 0.534920 0.396554
Si Si3 0.514674 0.457100 0.219013
Si Si4 0.807997 0.037596 0.194442
Si Si5 0.192967 0.962151 0.238108
Si Si6 0.522712 0.535515 0.597827
Si Si7 0.906532 0.032476 0.870416
Si Si8 0.361681 0.465813 0.421983
O O1 0.902423 0.250000 0.075836
O O2 0.848279 0.970679 0.121370
O O3 0.946995 0.967119 0.144180
O O4 0.908510 0.975198 0.974435
O O5 0.750000 0.470265 0.403954
O O6 0.692268 0.750000 0.401920
O O7 0.672130 0.489082 0.296449
O O8 0.657647 0.469624 0.480631
O O9 0.530484 0.250000 0.228347
O O10 0.511484 0.535779 0.319533
O O11 0.456829 0.466686 0.181416
O O12 0.750000 0.963313 0.189205
O O13 0.804342 0.250000 0.180753
O O14 0.250000 0.035688 0.220666
O O15 0.195203 0.750000 0.220774
O O16 0.145730 0.030821 0.177889
O O17 0.177242 0.987389 0.342167
O O18 0.500000 0.500000 0.500000
O O19 0.525171 0.750000 0.609577
O O20 0.581278 0.467565 0.601461
O O21 0.907587 0.250000 0.867044
O O22 0.364069 0.250000 0.426048
#
# Coordination Sequence:
#
# PCOD9451159 Si02
#       8
#     8   8   8   8   8   8   8   8
#     4   9  19  34  55  80 105 136 175 217 265 317
#     4   9  18  32  50  72  99 131 166 208 256 304
#     4  10  20  37  57  78 107 140 176 219 264 315
#     4   9  18  33  53  77 104 136 174 214 258 312
#     4  10  21  35  53  80 110 140 177 222 271 320
#     4  10  22  36  53  79 109 142 177 216 266 318
#     4  10  20  36  56  79 106 138 175 219 268 315
#     4  10  20  36  55  76 104 141 182 218 261 321
#
# _framework density 22.174975
#
# number of rings (size 3 to 8) (size 9 to 14) (size 15 to 20)
#    0.000    2.375    1.250    0.750    1.750    2.750 
#    0.000    5.000    0.000    0.000    0.000    1.750 
#    0.000    0.000    0.000    0.000    0.000    0.000 
#
# Total GULP energy -357531.798500 kJ/mol
# GULP energy per Si atom -5586.434352 kJ/mol
# Density = 2.212450 g / cm^3
# Si number density = 22.174975 Si / 1000 Ang^3
#
#
#
# Elastic Constant Matrix: (Units=GPa)
#
#
# Indices 1 2 3 4 5 6 
#
# 1 72.0889 -10.1511 32.5915 0.0000 0.0000 0.0000
# 2 -10.1511 63.0245 -13.1915 0.0000 0.0000 0.0000
# 3 32.5915 -13.1915 143.8773 0.0000 0.0000 0.0000
# 4 0.0000 0.0000 0.0000 -3.8088 0.0000 0.0000
# 5 0.0000 0.0000 0.0000 0.0000 95.5123 0.0000
# 6 0.0000 0.0000 0.0000 0.0000 0.0000 51.5055
#
#
#
# Elastic Compliance Matrix: (Units=1/GPa)
#
#
# Indices 1 2 3 4 5 6 
#
# 1 0.015655 0.001814 -0.003380 0.000000 0.000000 0.000000
# 2 0.001814 0.016388 0.001092 0.000000 0.000000 0.000000
# 3 -0.003380 0.001092 0.007816 0.000000 0.000000 0.000000
# 4 0.000000 0.000000 0.000000 -0.262549 0.000000 0.000000
# 5 0.000000 0.000000 0.000000 0.000000 0.010470 0.000000
# 6 0.000000 0.000000 0.000000 0.000000 0.000000 0.019415
#
#
# Mechanical properties :
#
#
# Convention : Reuss Voigt Hill
#
# Bulk Modulus (GPa) = 25.70014 33.05427 29.37720
# Shear Modulus (GPa) = -27.95071 46.62459 9.33694
#
# Velocity S-wave (km/s) = -3.55415 4.59036 2.05419
# Velocity P-wave (km/s) = 2.28643 6.56001 4.34775
#
# Compressibility (1/GPa) = 0.03891030
#
# Stress axis : x y z
#
# Youngs Moduli (GPa) = 63.87620 61.02207 127.94133
#
# Poissons Ratio (x) = -0.11070 0.43244
# Poissons Ratio (y) = -0.11588 -0.13966
# Poissons Ratio (z) = 0.21590 -0.06661
#
# Static dielectric constant tensor:
#      x y z
#    x 1.801680 0.000000 0.000000 
#    y 0.000000 1.835600 0.000000 
#    z 0.000000 0.000000 1.786710 
# 
# From -- ./inp_files/24718.got.cif
#   From: 2010.05.17/outbox.cif.g08.bks.cpg/sg59_13_cif.got.tgz:24718.got - 2010.06.03 14:40:33.
