data_PCOD9451566
_publ_section_title
;
Structure prediction by ZEFSAII (Michael W. Deem and Ramdas Pophale) SiO2 
 PCOD9451566
Probable space group: P M M N
;
_chemical_formula_sum "Si O2"
_cell_formula_units_Z 48
_cell_length_a 10.154659
_cell_length_b 7.627361
_cell_length_c 29.654819
_cell_angle_alpha 90.000000
_cell_angle_beta 90.000000
_cell_angle_gamma 90.000000
_cell_volume 2296.862110
_symmetry_space_group_name_H-M "P M M N"
_symmetry_group_IT_number 59
_space_group.IT_coordinate_system_code '2'
_symmetry_cell_setting 'orthorhombic'
loop_
_space_group_symop_operation_xyz
x,y,z
1/2-x,1/2-y,z
1/2+x,-y,-z
-x,1/2+y,-z
-x,-y,-z
1/2+x,1/2+y,-z
1/2-x,y,z
x,1/2-y,z
loop_
_atom_site_type_symbol
_atom_site_label
_atom_site_fract_x
_atom_site_fract_y
_atom_site_fract_z
Si Si1 0.395907 0.461782 0.704913
Si Si2 0.602991 0.040020 0.038788
Si Si3 0.599949 0.540769 0.782675
Si Si4 0.022252 0.041632 0.606445
Si Si5 0.098932 0.964300 0.859174
Si Si6 0.250000 0.541086 0.537123
Si Si7 0.750000 0.034100 0.566149
O O1 0.250000 0.523184 0.719837
O O2 0.391305 0.250000 0.704115
O O3 0.514190 0.511307 0.737848
O O4 0.423580 0.526360 0.654041
O O5 0.750000 0.974344 0.027753
O O6 0.609987 0.250000 0.041796
O O7 0.569031 0.979347 0.089470
O O8 0.500000 0.000000 0.000000
O O9 0.750000 0.472016 0.780641
O O10 0.609949 0.750000 0.788847
O O11 0.509625 0.472420 0.823786
O O12 0.008484 0.250000 0.612645
O O13 0.880511 0.973396 0.591639
O O14 0.123782 0.014294 0.565920
O O15 0.250000 0.017074 0.848301
O O16 0.098128 0.750000 0.858082
O O17 0.250000 0.750000 0.534907
O O18 0.250000 0.475468 0.485889
O O19 0.750000 0.250000 0.565752
#
# Coordination Sequence:
#
# PCOD9451566 Si02
#       7
#     8   8   8   8   8   4   4
#     4  10  21  37  57  79 101 135 182 218 251 309
#     4   9  18  32  51  77 107 140 181 224 263 311
#     4  10  21  35  54  82 110 135 168 215 270 321
#     4  10  20  38  59  78 104 143 181 212 255 316
#     4   8  15  31  53  74 101 141 183 217 257 313
#     4  11  21  35  55  85 113 135 173 221 262 305
#     4   9  20  35  57  83 107 139 179 217 258 309
#
# _framework density 20.898077000000001
#
# number of rings (size 3 to 8) (size 9 to 14) (size 15 to 20)
#    0.000    2.500    0.833    2.250    1.167    3.000 
#    0.000    3.750    0.000    1.000    0.000    0.000 
#    0.000    0.000    0.000    0.000    0.000    0.000 
#
# Total GULP energy -267952.790721 kJ/mol
# GULP energy per Si atom -5582.349807 kJ/mol
# Density = 2.085051 g / cm^3
# Si number density = 20.898077 Si / 1000 Ang^3
#
#
#
# Elastic Constant Matrix: (Units=GPa)
#
#
# Indices 1 2 3 4 5 6 
#
# 1 192.0464 8.8117 90.5481 0.0000 0.0000 0.0000
# 2 8.8117 35.6372 8.2841 0.0000 0.0000 0.0000
# 3 90.5481 8.2841 122.0574 0.0000 0.0000 0.0000
# 4 0.0000 0.0000 0.0000 17.6553 0.0000 0.0000
# 5 0.0000 0.0000 0.0000 0.0000 40.5503 0.0000
# 6 0.0000 0.0000 0.0000 0.0000 0.0000 19.9050
#
#
#
# Elastic Compliance Matrix: (Units=1/GPa)
#
#
# Indices 1 2 3 4 5 6 
#
# 1 0.008021 -0.000610 -0.005909 0.000000 0.000000 0.000000
# 2 -0.000610 0.028557 -0.001486 0.000000 0.000000 0.000000
# 3 -0.005909 -0.001486 0.012677 0.000000 0.000000 0.000000
# 4 0.000000 0.000000 0.000000 0.056640 0.000000 0.000000
# 5 0.000000 0.000000 0.000000 0.000000 0.024661 0.000000
# 6 0.000000 0.000000 0.000000 0.000000 0.000000 0.050239
#
#
# Mechanical properties :
#
#
# Convention : Reuss Voigt Hill
#
# Bulk Modulus (GPa) = 30.07890 62.78099 46.42995
# Shear Modulus (GPa) = 24.05164 31.76192 27.90678
#
# Velocity S-wave (km/s) = 3.39618 3.90275 3.65824
# Velocity P-wave (km/s) = 5.45922 7.10038 6.33318
#
# Compressibility (1/GPa) = 0.03324590
#
# Stress axis : x y z
#
# Youngs Moduli (GPa) = 124.67070 35.01805 78.88077
#
# Poissons Ratio (x) = 0.02135 0.46611
# Poissons Ratio (y) = 0.07601 0.11721
# Poissons Ratio (z) = 0.73669 0.05203
#
# Static dielectric constant tensor:
#      x y z
#    x 1.745540 0.000000 0.000000 
#    y 0.000000 1.796490 0.000000 
#    z 0.000000 0.000000 1.728920 
# 
# From -- ./inp_files/32968.got.cif
#   From: 2010.05.17/outbox.cif.g08.bks.cpg/sg59_17_cif.got.tgz:32968.got - 2010.06.03 14:40:33.
