data_PCOD9451702
_publ_section_title
;
Structure prediction by ZEFSAII (Michael W. Deem and Ramdas Pophale) SiO2 
 PCOD9451702
Probable space group: P M M N
;
_chemical_formula_sum "Si O2"
_cell_formula_units_Z 40
_cell_length_a 15.037013
_cell_length_b 7.470438
_cell_length_c 15.795946
_cell_angle_alpha 90.000000
_cell_angle_beta 90.000000
_cell_angle_gamma 90.000000
_cell_volume 1774.407160
_symmetry_space_group_name_H-M "P M M N"
_symmetry_group_IT_number 59
_space_group.IT_coordinate_system_code '2'
_symmetry_cell_setting 'orthorhombic'
loop_
_space_group_symop_operation_xyz
x,y,z
1/2-x,1/2-y,z
1/2+x,-y,-z
-x,1/2+y,-z
-x,-y,-z
1/2+x,1/2+y,-z
1/2-x,y,z
x,1/2-y,z
loop_
_atom_site_type_symbol
_atom_site_label
_atom_site_fract_x
_atom_site_fract_y
_atom_site_fract_z
Si Si1 0.147650 0.530560 0.227194
Si Si2 0.641276 0.459611 0.588111
Si Si3 0.649650 0.537462 0.222839
Si Si4 0.500680 0.964405 0.099161
Si Si5 0.146717 0.534490 0.592431
O O1 0.250000 0.477167 0.215371
O O2 0.147059 0.750000 0.230048
O O3 0.115886 0.466536 0.320205
O O4 0.085081 0.470990 0.151159
O O5 0.750000 0.467549 0.586073
O O6 0.616819 0.250000 0.589058
O O7 0.609812 0.534287 0.497461
O O8 0.750000 0.462248 0.221946
O O9 0.657049 0.750000 0.210691
O O10 0.587004 0.465805 0.149077
O O11 0.607897 0.513616 0.316498
O O12 0.501011 0.750000 0.108503
O O13 0.500000 0.000000 0.000000
O O14 0.250000 0.473206 0.596685
O O15 0.147411 0.750000 0.587494
#
# Coordination Sequence:
#
# PCOD9451702 Si02
#       5
#     8   8   8   8   8
#     4   8  14  27  48  71  92 115 147 188 230 269
#     4   7  10  19  39  67  94 116 141 179 224 262
#     4   9  18  32  47  64  92 128 155 175 212 270
#     4  10  21  35  50  68  89 115 151 193 233 272
#     4   8  13  23  43  70  94 117 149 186 219 253
#
# _framework density 22.542740999999999
#
# number of rings (size 3 to 8) (size 9 to 14) (size 15 to 20)
#    0.000    3.600    0.000    2.400    0.000    1.600 
#    0.000    1.000    0.000    1.200    0.000    2.800 
#    0.000    0.000    0.000    0.000    0.000    0.000 
#
# Total GULP energy -222993.062101 kJ/mol
# GULP energy per Si atom -5574.826553 kJ/mol
# Density = 2.249143 g / cm^3
# Si number density = 22.542741 Si / 1000 Ang^3
#
#
#
# Elastic Constant Matrix: (Units=GPa)
#
#
# Indices 1 2 3 4 5 6 
#
# 1 98.3875 4.6831 95.6210 0.0000 0.0000 0.0000
# 2 4.6831 65.6837 1.1119 0.0000 0.0000 0.0000
# 3 95.6210 1.1119 269.6036 0.0000 0.0000 0.0000
# 4 0.0000 0.0000 0.0000 -11.2640 0.0000 0.0000
# 5 0.0000 0.0000 0.0000 0.0000 44.6329 0.0000
# 6 0.0000 0.0000 0.0000 0.0000 0.0000 -7.9402
#
#
#
# Elastic Compliance Matrix: (Units=1/GPa)
#
#
# Indices 1 2 3 4 5 6 
#
# 1 0.015578 -0.001017 -0.005521 0.000000 0.000000 0.000000
# 2 -0.001017 0.015292 0.000298 0.000000 0.000000 0.000000
# 3 -0.005521 0.000298 0.005666 0.000000 0.000000 0.000000
# 4 0.000000 0.000000 0.000000 -0.088779 0.000000 0.000000
# 5 0.000000 0.000000 0.000000 0.000000 0.022405 0.000000
# 6 0.000000 0.000000 0.000000 0.000000 0.000000 -0.125942
#
#
# Mechanical properties :
#
#
# Convention : Reuss Voigt Hill
#
# Bulk Modulus (GPa) = 41.57109 70.72297 56.14703
# Shear Modulus (GPa) = -36.96038 27.23633 -4.86202
#
# Velocity S-wave (km/s) = -4.05355 3.47970 -1.47020
# Velocity P-wave (km/s) = 1.85131 6.89821 4.69883
#
# Compressibility (1/GPa) = 0.02405518
#
# Stress axis : x y z
#
# Youngs Moduli (GPa) = 64.19328 65.39378 176.49060
#
# Poissons Ratio (x) = 0.06652 0.97438
# Poissons Ratio (y) = 0.06530 -0.05254
# Poissons Ratio (z) = 0.35440 -0.01947
#
# Static dielectric constant tensor:
#      x y z
#    x 1.866040 0.000000 0.000000 
#    y 0.000000 1.862680 0.000000 
#    z 0.000000 0.000000 1.847310 
# 
# From -- ./inp_files/16603.got.cif
#   From: 2010.05.17/outbox.cif.g08.bks.cpg/sg59_9_cif.got.tgz:16603.got - 2010.06.03 14:40:33.
