data_PCOD9451969
_publ_section_title
;
Structure prediction by ZEFSAII (Michael W. Deem and Ramdas Pophale) SiO2 
 PCOD9451969
Probable space group: P M M N
;
_chemical_formula_sum "Si O2"
_cell_formula_units_Z 48
_cell_length_a 8.868820
_cell_length_b 9.186184
_cell_length_c 31.598508
_cell_angle_alpha 90.000000
_cell_angle_beta 90.000000
_cell_angle_gamma 90.000000
_cell_volume 2574.349797
_symmetry_space_group_name_H-M "P M M N"
_symmetry_group_IT_number 59
_space_group.IT_coordinate_system_code '2'
_symmetry_cell_setting 'orthorhombic'
loop_
_space_group_symop_operation_xyz
x,y,z
1/2-x,1/2-y,z
1/2+x,-y,-z
-x,1/2+y,-z
-x,-y,-z
1/2+x,1/2+y,-z
1/2-x,y,z
x,1/2-y,z
loop_
_atom_site_type_symbol
_atom_site_label
_atom_site_fract_x
_atom_site_fract_y
_atom_site_fract_z
Si Si1 0.429615 0.077510 0.373735
Si Si2 0.569185 0.421796 0.959116
Si Si3 0.931836 0.419141 0.540247
Si Si4 0.069823 0.921483 0.203730
Si Si5 0.070587 0.922680 0.715937
Si Si6 0.069329 0.921650 0.877480
O O1 0.250000 0.054444 0.367849
O O2 0.453649 0.250000 0.380565
O O3 0.513903 0.034944 0.330772
O O4 0.479347 0.992133 0.415502
O O5 0.750000 0.436123 0.959686
O O6 0.532449 0.250000 0.959517
O O7 0.503697 0.496686 0.917236
O O8 0.500000 0.500000 0.000000
O O9 0.750000 0.429996 0.538272
O O10 0.973961 0.250000 0.539525
O O11 0.000000 0.500000 0.500000
O O12 0.250000 0.938195 0.200739
O O13 0.034134 0.750000 0.200900
O O14 0.011613 0.987001 0.247783
O O15 0.992106 0.007335 0.165440
O O16 0.250000 0.941404 0.719304
O O17 0.036814 0.750000 0.721328
O O18 0.250000 0.936139 0.879247
O O19 0.032491 0.750000 0.878774
#
# Coordination Sequence:
#
# PCOD9451969 Si02
#       6
#     8   8   8   8   8   8
#     4   9  18  34  55  78 108 147 187 227 274 329
#     4  11  24  41  62  90 122 156 197 241 286 340
#     4  10  21  36  55  80 110 144 183 228 277 330
#     4  11  24  40  59  85 116 151 192 236 282 335
#     4  10  21  37  58  85 115 147 185 229 278 334
#     4  11  24  41  62  89 119 152 193 239 287 341
#
# _framework density 18.645484
#
# number of rings (size 3 to 8) (size 9 to 14) (size 15 to 20)
#    0.000    1.667    0.000    4.000    0.000   13.333 
#    0.000    3.333    0.000    0.000    0.000    0.000 
#    0.000    0.000    0.000    0.000    0.000    0.000 
#
# Total GULP energy -268360.954989 kJ/mol
# GULP energy per Si atom -5590.853229 kJ/mol
# Density = 1.860305 g / cm^3
# Si number density = 18.645484 Si / 1000 Ang^3
#
#
#
# Elastic Constant Matrix: (Units=GPa)
#
#
# Indices 1 2 3 4 5 6 
#
# 1 54.6568 76.9266 60.2040 0.0000 0.0000 0.0000
# 2 76.9266 146.6148 110.0300 0.0000 0.0000 0.0000
# 3 60.2040 110.0300 180.0393 0.0000 0.0000 0.0000
# 4 0.0000 0.0000 0.0000 43.1330 0.0000 0.0000
# 5 0.0000 0.0000 0.0000 0.0000 43.0029 0.0000
# 6 0.0000 0.0000 0.0000 0.0000 0.0000 29.5850
#
#
#
# Elastic Compliance Matrix: (Units=1/GPa)
#
#
# Indices 1 2 3 4 5 6 
#
# 1 0.070265 -0.035529 -0.001783 0.000000 0.000000 0.000000
# 2 -0.035529 0.030564 -0.006798 0.000000 0.000000 0.000000
# 3 -0.001783 -0.006798 0.010305 0.000000 0.000000 0.000000
# 4 0.000000 0.000000 0.000000 0.023184 0.000000 0.000000
# 5 0.000000 0.000000 0.000000 0.000000 0.023254 0.000000
# 6 0.000000 0.000000 0.000000 0.000000 0.000000 0.033801
#
#
# Mechanical properties :
#
#
# Convention : Reuss Voigt Hill
#
# Bulk Modulus (GPa) = 43.64153 97.29246 70.46699
# Shear Modulus (GPa) = 17.40749 32.08754 24.74751
#
# Velocity S-wave (km/s) = 3.05881 4.15291 3.64712
# Velocity P-wave (km/s) = 5.99432 8.67692 7.45724
#
# Compressibility (1/GPa) = 0.02291395
#
# Stress axis : x y z
#
# Youngs Moduli (GPa) = 14.23180 32.71796 97.03730
#
# Poissons Ratio (x) = 1.16244 0.17300
# Poissons Ratio (y) = 0.50564 0.65970
# Poissons Ratio (z) = 0.02537 0.22243
#
# Static dielectric constant tensor:
#      x y z
#    x 1.626510 0.000000 0.000000 
#    y 0.000000 1.625950 0.000000 
#    z 0.000000 0.000000 1.603950 
# 
# From -- ./inp_files/32876.got.cif
#   From: 2010.05.17/outbox.cif.g08.bks.cpg/sg59_17_cif.got.tgz:32876.got - 2010.06.03 14:40:33.
