data_PCOD9451306
_publ_section_title
;
Structure prediction by ZEFSAII (Michael W. Deem and Ramdas Pophale) SiO2 
 PCOD9451306
Probable space group: P M M N
;
_chemical_formula_sum "Si O2"
_cell_formula_units_Z 64
_cell_length_a 19.209679
_cell_length_b 9.169596
_cell_length_c 21.066729
_cell_angle_alpha 90.000000
_cell_angle_beta 90.000000
_cell_angle_gamma 90.000000
_cell_volume 3710.798890
_symmetry_space_group_name_H-M "P M M N"
_symmetry_group_IT_number 59
_space_group.IT_coordinate_system_code '2'
_symmetry_cell_setting 'orthorhombic'
loop_
_space_group_symop_operation_xyz
x,y,z
1/2-x,1/2-y,z
1/2+x,-y,-z
-x,1/2+y,-z
-x,-y,-z
1/2+x,1/2+y,-z
1/2-x,y,z
x,1/2-y,z
loop_
_atom_site_type_symbol
_atom_site_label
_atom_site_fract_x
_atom_site_fract_y
_atom_site_fract_z
Si Si1 0.167414 0.423253 0.275462
Si Si2 0.667430 0.923802 0.073291
Si Si3 0.334353 0.578797 0.543956
Si Si4 0.930358 0.074913 0.825438
Si Si5 0.429855 0.924555 0.025467
Si Si6 0.168098 0.425429 0.672088
Si Si7 0.165413 0.579957 0.403849
Si Si8 0.411496 0.072813 0.798031
O O1 0.250000 0.454938 0.269275
O O2 0.158440 0.250000 0.274751
O O3 0.125343 0.497150 0.218853
O O4 0.142984 0.487912 0.343193
O O5 0.750000 0.944279 0.076671
O O6 0.653711 0.750000 0.064899
O O7 0.631504 0.970140 0.139394
O O8 0.632742 0.011647 0.016161
O O9 0.250000 0.566735 0.543580
O O10 0.350913 0.750000 0.550010
O O11 0.357977 0.491982 0.605786
O O12 0.358329 0.529187 0.473866
O O13 0.925006 0.250000 0.817442
O O14 0.921086 0.042859 0.899952
O O15 0.008383 0.029119 0.805423
O O16 0.435427 0.750000 0.018542
O O17 0.500000 0.000000 0.000000
O O18 0.250000 0.463090 0.680542
O O19 0.164076 0.250000 0.668562
O O20 0.124741 0.476595 0.733106
O O21 0.250000 0.574920 0.404915
O O22 0.146020 0.750000 0.396083
O O23 0.410006 0.250000 0.797042
#
# Coordination Sequence:
#
# PCOD9451306 Si02
#       8
#     8   8   8   8   8   8   8   8
#     4  10  21  35  52  78 108 132 163 215 269 312
#     4  10  20  36  59  84 111 143 178 219 268 319
#     4   8  14  25  42  67 100 135 169 207 253 306
#     4  10  21  37  57  76 100 138 177 211 251 311
#     4  11  22  38  59  81 107 139 179 223 267 318
#     4   9  16  26  45  73 102 133 170 213 255 297
#     4   8  14  27  48  71  97 133 172 207 252 311
#     4   9  17  33  53  75 103 138 180 214 250 307
#
# _framework density 17.246959
#
# number of rings (size 3 to 8) (size 9 to 14) (size 15 to 20)
#    0.000    2.625    1.250    1.875    0.000    4.500 
#    0.000    6.250    0.000    2.250    0.000    0.000 
#    0.000    0.000    0.000    0.000    0.000    0.000 
#
# Total GULP energy -356755.779063 kJ/mol
# GULP energy per Si atom -5574.309048 kJ/mol
# Density = 1.720770 g / cm^3
# Si number density = 17.246959 Si / 1000 Ang^3
#
#
#
# Elastic Constant Matrix: (Units=GPa)
#
#
# Indices 1 2 3 4 5 6 
#
# 1 63.5788 40.7901 75.2137 0.0000 0.0000 0.0000
# 2 40.7901 39.7310 73.4065 0.0000 0.0000 0.0000
# 3 75.2137 73.4065 200.8596 0.0000 0.0000 0.0000
# 4 0.0000 0.0000 0.0000 34.0543 0.0000 0.0000
# 5 0.0000 0.0000 0.0000 0.0000 14.4372 0.0000
# 6 0.0000 0.0000 0.0000 0.0000 0.0000 20.5466
#
#
#
# Elastic Compliance Matrix: (Units=1/GPa)
#
#
# Indices 1 2 3 4 5 6 
#
# 1 0.046081 -0.047504 0.000106 0.000000 0.000000 0.000000
# 2 -0.047504 0.126468 -0.028431 0.000000 0.000000 0.000000
# 3 0.000106 -0.028431 0.015329 0.000000 0.000000 0.000000
# 4 0.000000 0.000000 0.000000 0.029365 0.000000 0.000000
# 5 0.000000 0.000000 0.000000 0.000000 0.069266 0.000000
# 6 0.000000 0.000000 0.000000 0.000000 0.000000 0.048670
#
#
# Mechanical properties :
#
#
# Convention : Reuss Voigt Hill
#
# Bulk Modulus (GPa) = 27.60949 75.88777 51.74863
# Shear Modulus (GPa) = 10.02185 21.45823 15.74004
#
# Velocity S-wave (km/s) = 2.41317 3.53111 3.02425
# Velocity P-wave (km/s) = 4.87931 7.79238 6.50111
#
# Compressibility (1/GPa) = 0.03621943
#
# Stress axis : x y z
#
# Youngs Moduli (GPa) = 21.70111 7.90716 65.23388
#
# Poissons Ratio (x) = 0.37562 -0.00689
# Poissons Ratio (y) = 1.03089 1.85465
# Poissons Ratio (z) = -0.00229 0.22481
#
# Static dielectric constant tensor:
#      x y z
#    x 1.577410 0.000000 0.000000 
#    y 0.000000 1.575440 0.000000 
#    z 0.000000 0.000000 1.586680 
# 
# From -- ./inp_files/30722.got.cif
#   From: 2010.05.17/outbox.cif.g08.bks.cpg/sg59_16_cif.got.tgz:30722.got - 2010.06.03 14:40:33.
