data_PCOD9451619
_publ_section_title
;
Structure prediction by ZEFSAII (Michael W. Deem and Ramdas Pophale) SiO2 
 PCOD9451619
Probable space group: P M M N
;
_chemical_formula_sum "Si O2"
_cell_formula_units_Z 64
_cell_length_a 19.484550
_cell_length_b 19.115813
_cell_length_c 8.599381
_cell_angle_alpha 90.000000
_cell_angle_beta 90.000000
_cell_angle_gamma 90.000000
_cell_volume 3202.951367
_symmetry_space_group_name_H-M "P M M N"
_symmetry_group_IT_number 59
_space_group.IT_coordinate_system_code '2'
_symmetry_cell_setting 'orthorhombic'
loop_
_space_group_symop_operation_xyz
x,y,z
1/2-x,1/2-y,z
1/2+x,-y,-z
-x,1/2+y,-z
-x,-y,-z
1/2+x,1/2+y,-z
1/2-x,y,z
x,1/2-y,z
loop_
_atom_site_type_symbol
_atom_site_label
_atom_site_fract_x
_atom_site_fract_y
_atom_site_fract_z
Si Si1 0.590210 0.542577 0.153869
Si Si2 0.943379 0.425751 0.908148
Si Si3 0.033786 0.666350 0.804368
Si Si4 0.327833 0.910050 0.324612
Si Si5 0.324763 0.833836 0.647721
Si Si6 0.831501 0.668705 0.994183
Si Si7 0.331272 0.043196 0.536419
Si Si8 0.607472 0.667957 0.649344
O O1 0.509200 0.550235 0.190669
O O2 0.625907 0.614021 0.096155
O O3 0.630963 0.519602 0.306731
O O4 0.588954 0.488947 0.008872
O O5 0.884195 0.394038 0.803091
O O6 0.974368 0.371937 0.032661
O O7 0.031991 0.750000 0.824570
O O8 0.107895 0.644273 0.740173
O O9 0.971401 0.648988 0.689163
O O10 0.250000 0.908954 0.262682
O O11 0.331354 0.857896 0.470238
O O12 0.341468 0.986252 0.400016
O O13 0.250000 0.860443 0.704349
O O14 0.323519 0.750000 0.655043
O O15 0.750000 0.657011 0.012367
O O16 0.846618 0.750000 0.033521
O O17 0.852140 0.659613 0.812929
O O18 0.250000 0.048291 0.564295
O O19 0.361259 0.116670 0.477728
O O20 0.610991 0.750000 0.605707
#
# Coordination Sequence:
#
# PCOD9451619 Si02
#       8
#     8   8   8   8   8   8   8   8
#     4  11  24  39  57  88 122 157 205 248 297 358
#     4  11  24  39  59  88 120 160 199 250 301 356
#     4  10  21  39  62  89 121 157 198 246 299 357
#     4  10  23  40  60  89 119 152 197 246 298 354
#     4   9  19  38  62  87 116 152 194 240 296 360
#     4  10  20  38  64  88 119 163 203 246 301 358
#     4  11  24  40  60  86 120 160 202 250 298 354
#     4  10  21  38  60  89 121 155 199 246 297 357
#
# _framework density 19.981570999999999
#
# number of rings (size 3 to 8) (size 9 to 14) (size 15 to 20)
#    0.000    1.750    1.250    2.250    3.500    4.750 
#    0.000    0.000    0.000    0.000    0.000    0.000 
#    0.000    0.000    0.000    0.000    0.000    0.000 
#
# Total GULP energy -357520.839190 kJ/mol
# GULP energy per Si atom -5586.263112 kJ/mol
# Density = 1.993609 g / cm^3
# Si number density = 19.981571 Si / 1000 Ang^3
#
#
#
# Elastic Constant Matrix: (Units=GPa)
#
#
# Indices 1 2 3 4 5 6 
#
# 1 85.5453 20.4775 19.9061 0.0000 0.0000 0.0000
# 2 20.4775 46.4941 7.7970 0.0000 0.0000 0.0000
# 3 19.9061 7.7970 18.6347 0.0000 0.0000 0.0000
# 4 0.0000 0.0000 0.0000 22.6889 0.0000 0.0000
# 5 0.0000 0.0000 0.0000 0.0000 37.6058 0.0000
# 6 0.0000 0.0000 0.0000 0.0000 0.0000 18.8857
#
#
#
# Elastic Compliance Matrix: (Units=1/GPa)
#
#
# Indices 1 2 3 4 5 6 
#
# 1 0.016429 -0.004617 -0.015618 0.000000 0.000000 0.000000
# 2 -0.004617 0.024428 -0.005290 0.000000 0.000000 0.000000
# 3 -0.015618 -0.005290 0.072560 0.000000 0.000000 0.000000
# 4 0.000000 0.000000 0.000000 0.044074 0.000000 0.000000
# 5 0.000000 0.000000 0.000000 0.000000 0.026592 0.000000
# 6 0.000000 0.000000 0.000000 0.000000 0.000000 0.052950
#
#
# Mechanical properties :
#
#
# Convention : Reuss Voigt Hill
#
# Bulk Modulus (GPa) = 16.03367 27.44837 21.74102
# Shear Modulus (GPa) = 16.18790 22.66901 19.42846
#
# Velocity S-wave (km/s) = 2.84939 3.37188 3.12159
# Velocity P-wave (km/s) = 4.34361 5.37830 4.88841
#
# Compressibility (1/GPa) = 0.06236876
#
# Stress axis : x y z
#
# Youngs Moduli (GPa) = 60.86730 40.93580 13.78165
#
# Poissons Ratio (x) = 0.18899 0.21525
# Poissons Ratio (y) = 0.28101 0.07290
# Poissons Ratio (z) = 0.95064 0.21653
#
# Static dielectric constant tensor:
#      x y z
#    x 1.714880 0.000000 0.000000 
#    y 0.000000 1.702950 0.000000 
#    z 0.000000 0.000000 1.665770 
# 
# From -- ./inp_files/10667.got.cif
#   From: 2010.05.17/outbox.cif.g08.bks.cpg/sg59_6_cif.got.tgz:10667.got - 2010.06.03 14:40:33.
