data_PCOD9451462
_publ_section_title
;
Structure prediction by ZEFSAII (Michael W. Deem and Ramdas Pophale) SiO2 
 PCOD9451462
Probable space group: P M M N
;
_chemical_formula_sum "Si O2"
_cell_formula_units_Z 64
_cell_length_a 20.149158
_cell_length_b 8.040017
_cell_length_c 19.431347
_cell_angle_alpha 90.000000
_cell_angle_beta 90.000000
_cell_angle_gamma 90.000000
_cell_volume 3147.869914
_symmetry_space_group_name_H-M "P M M N"
_symmetry_group_IT_number 59
_space_group.IT_coordinate_system_code '2'
_symmetry_cell_setting 'orthorhombic'
loop_
_space_group_symop_operation_xyz
x,y,z
1/2-x,1/2-y,z
1/2+x,-y,-z
-x,1/2+y,-z
-x,-y,-z
1/2+x,1/2+y,-z
1/2-x,y,z
x,1/2-y,z
loop_
_atom_site_type_symbol
_atom_site_label
_atom_site_fract_x
_atom_site_fract_y
_atom_site_fract_z
Si Si1 0.822156 0.948648 0.673717
Si Si2 0.323819 0.549415 0.034688
Si Si3 0.057363 0.947291 0.946564
Si Si4 0.377335 0.053427 0.182632
Si Si5 0.976048 0.557389 0.206590
Si Si6 0.928699 0.056894 0.571661
Si Si7 0.437773 0.047704 0.642272
Si Si8 0.826838 0.049625 0.456338
O O1 0.750000 0.003152 0.647033
O O2 0.829178 0.750000 0.661058
O O3 0.826269 0.972599 0.755416
O O4 0.883045 0.041809 0.639176
O O5 0.250000 0.482802 0.026862
O O6 0.321467 0.750000 0.029517
O O7 0.351235 0.507278 0.109904
O O8 0.374439 0.483954 0.977752
O O9 0.058965 0.750000 0.950752
O O10 0.047632 0.989802 0.866939
O O11 0.000000 0.000000 0.000000
O O12 0.391613 0.250000 0.177948
O O13 0.444925 0.964090 0.203540
O O14 0.958062 0.750000 0.207440
O O15 0.950728 0.486661 0.279659
O O16 0.939230 0.250000 0.553391
O O17 0.878737 0.982415 0.514276
O O18 0.001281 0.987589 0.592286
O O19 0.441316 0.250000 0.642090
O O20 0.366683 0.992910 0.613187
O O21 0.750000 0.989628 0.460124
O O22 0.823832 0.250000 0.464147
#
# Coordination Sequence:
#
# PCOD9451462 Si02
#       8
#     8   8   8   8   8   8   8   8
#     4  10  21  34  49  78 119 157 192 231 279 340
#     4  10  22  39  58  82 114 152 192 235 285 344
#     4  11  22  37  60  87 117 153 193 237 287 338
#     4  11  21  34  55  82 116 154 191 235 288 343
#     4  11  22  38  59  86 117 149 196 244 287 346
#     4  10  20  37  59  85 116 151 192 236 286 344
#     4  10  22  39  61  87 116 152 195 243 292 346
#     4  10  22  39  60  87 117 151 194 242 293 350
#
# _framework density 20.331208
#
# number of rings (size 3 to 8) (size 9 to 14) (size 15 to 20)
#    0.000    1.625    2.500    2.250    0.000    4.750 
#    0.000    0.625    0.000    2.250    0.000    0.000 
#    0.000    0.000    0.000    0.000    0.000    0.000 
#
# Total GULP energy -357165.071909 kJ/mol
# GULP energy per Si atom -5580.704249 kJ/mol
# Density = 2.028493 g / cm^3
# Si number density = 20.331208 Si / 1000 Ang^3
#
#
#
# Elastic Constant Matrix: (Units=GPa)
#
#
# Indices 1 2 3 4 5 6 
#
# 1 103.8159 3.5132 81.1836 0.0000 0.0000 0.0000
# 2 3.5132 15.1606 8.7578 0.0000 0.0000 0.0000
# 3 81.1836 8.7578 125.4905 0.0000 0.0000 0.0000
# 4 0.0000 0.0000 0.0000 24.7682 0.0000 0.0000
# 5 0.0000 0.0000 0.0000 0.0000 34.7809 0.0000
# 6 0.0000 0.0000 0.0000 0.0000 0.0000 18.3655
#
#
#
# Elastic Compliance Matrix: (Units=1/GPa)
#
#
# Indices 1 2 3 4 5 6 
#
# 1 0.019617 0.002902 -0.012893 0.000000 0.000000 0.000000
# 2 0.002902 0.069160 -0.006704 0.000000 0.000000 0.000000
# 3 -0.012893 -0.006704 0.016778 0.000000 0.000000 0.000000
# 4 0.000000 0.000000 0.000000 0.040374 0.000000 0.000000
# 5 0.000000 0.000000 0.000000 0.000000 0.028751 0.000000
# 6 0.000000 0.000000 0.000000 0.000000 0.000000 0.054450
#
#
# Mechanical properties :
#
#
# Convention : Reuss Voigt Hill
#
# Bulk Modulus (GPa) = 13.85724 47.93069 30.89397
# Shear Modulus (GPa) = 17.44745 25.65044 21.54894
#
# Velocity S-wave (km/s) = 2.93262 3.55579 3.25913
# Velocity P-wave (km/s) = 4.27756 6.36273 5.42134
#
# Compressibility (1/GPa) = 0.07216446
#
# Stress axis : x y z
#
# Youngs Moduli (GPa) = 50.97735 14.45913 59.60360
#
# Poissons Ratio (x) = -0.04196 0.76847
# Poissons Ratio (y) = -0.14794 0.39959
# Poissons Ratio (z) = 0.65725 0.09694
#
# Static dielectric constant tensor:
#      x y z
#    x 1.739180 0.000000 0.000000 
#    y 0.000000 1.735840 0.000000 
#    z 0.000000 0.000000 1.764300 
# 
# From -- ./inp_files/28171.got.cif
#   From: 2010.05.17/outbox.cif.g08.bks.cpg/sg59_15_cif.got.tgz:28171.got - 2010.06.03 14:40:33.
