data_PCOD9451446
_publ_section_title
;
Structure prediction by ZEFSAII (Michael W. Deem and Ramdas Pophale) SiO2 
 PCOD9451446
Probable space group: P M M N
;
_chemical_formula_sum "Si O2"
_cell_formula_units_Z 64
_cell_length_a 14.413854
_cell_length_b 13.235293
_cell_length_c 18.741988
_cell_angle_alpha 90.000000
_cell_angle_beta 90.000000
_cell_angle_gamma 90.000000
_cell_volume 3575.438681
_symmetry_space_group_name_H-M "P M M N"
_symmetry_group_IT_number 59
_space_group.IT_coordinate_system_code '2'
_symmetry_cell_setting 'orthorhombic'
loop_
_space_group_symop_operation_xyz
x,y,z
1/2-x,1/2-y,z
1/2+x,-y,-z
-x,1/2+y,-z
-x,-y,-z
1/2+x,1/2+y,-z
1/2-x,y,z
x,1/2-y,z
loop_
_atom_site_type_symbol
_atom_site_label
_atom_site_fract_x
_atom_site_fract_y
_atom_site_fract_z
Si Si1 0.143832 0.962876 0.717925
Si Si2 0.859460 0.467823 0.698600
Si Si3 0.992357 0.990839 0.084157
Si Si4 0.526804 0.866045 0.786281
Si Si5 0.458638 0.628915 0.438052
Si Si6 0.849830 0.366563 0.843643
Si Si7 0.139317 0.134795 0.825539
Si Si8 0.357427 0.006007 0.551002
O O1 0.250000 0.941862 0.739762
O O2 0.071648 0.882046 0.747001
O O3 0.115755 0.070243 0.754522
O O4 0.140968 0.972665 0.633381
O O5 0.750000 0.481528 0.680324
O O6 0.902229 0.565202 0.739702
O O7 0.919731 0.430790 0.631545
O O8 0.866062 0.382759 0.759820
O O9 0.010240 0.088915 0.134087
O O10 0.899737 0.933907 0.110693
O O11 0.072463 0.917253 0.110699
O O12 0.000000 0.000000 0.000000
O O13 0.554916 0.750000 0.788252
O O14 0.451753 0.750000 0.430262
O O15 0.564757 0.594183 0.454295
O O16 0.394801 0.584845 0.501714
O O17 0.750000 0.414974 0.859044
O O18 0.846762 0.250000 0.859907
O O19 0.250000 0.140812 0.829445
O O20 0.102569 0.250000 0.824864
O O21 0.250000 0.032913 0.533239
#
# Coordination Sequence:
#
# PCOD9451446 Si02
#       8
#     8   8   8   8   8   8   8   8
#     4   9  18  36  58  81 111 147 185 228 278 337
#     4  10  20  37  58  84 114 145 189 245 288 332
#     4  10  21  35  53  78 111 148 180 227 278 331
#     4  10  21  37  55  79 111 150 195 234 280 341
#     4  11  23  39  62  89 118 156 198 239 288 344
#     4   9  18  33  55  81 107 138 178 226 279 330
#     4   9  18  33  56  84 110 139 178 225 277 333
#     4  10  22  40  58  86 125 157 191 238 290 343
#
# _framework density 17.899902000000001
#
# number of rings (size 3 to 8) (size 9 to 14) (size 15 to 20)
#    0.000    2.250    1.250    1.125    0.000    4.750 
#    0.000    2.500    0.000    1.500    0.000    0.000 
#    0.000    0.000    0.000    0.000    0.000    0.000 
#
# Total GULP energy -356608.101794 kJ/mol
# GULP energy per Si atom -5572.001591 kJ/mol
# Density = 1.785916 g / cm^3
# Si number density = 17.899902 Si / 1000 Ang^3
#
#
#
# Elastic Constant Matrix: (Units=GPa)
#
#
# Indices 1 2 3 4 5 6 
#
# 1 95.0123 24.8438 27.7237 0.0000 0.0000 0.0000
# 2 24.8438 102.4031 34.3213 0.0000 0.0000 0.0000
# 3 27.7237 34.3213 96.7493 0.0000 0.0000 0.0000
# 4 0.0000 0.0000 0.0000 1.0199 0.0000 0.0000
# 5 0.0000 0.0000 0.0000 0.0000 48.1813 0.0000
# 6 0.0000 0.0000 0.0000 0.0000 0.0000 4.3415
#
#
#
# Elastic Compliance Matrix: (Units=1/GPa)
#
#
# Indices 1 2 3 4 5 6 
#
# 1 0.011824 -0.001967 -0.002691 0.000000 0.000000 0.000000
# 2 -0.001967 0.011410 -0.003484 0.000000 0.000000 0.000000
# 3 -0.002691 -0.003484 0.012343 0.000000 0.000000 0.000000
# 4 0.000000 0.000000 0.000000 0.980526 0.000000 0.000000
# 5 0.000000 0.000000 0.000000 0.000000 0.020755 0.000000
# 6 0.000000 0.000000 0.000000 0.000000 0.000000 0.230336
#
#
# Mechanical properties :
#
#
# Convention : Reuss Voigt Hill
#
# Bulk Modulus (GPa) = 51.82846 51.99357 51.91101
# Shear Modulus (GPa) = 3.87624 24.52692 14.20158
#
# Velocity S-wave (km/s) = 1.47316 3.70567 2.81977
# Velocity P-wave (km/s) = 5.64899 6.88616 6.29803
#
# Compressibility (1/GPa) = 0.01929442
#
# Stress axis : x y z
#
# Youngs Moduli (GPa) = 84.57135 87.64047 81.01804
#
# Poissons Ratio (x) = 0.17238 0.21798
# Poissons Ratio (y) = 0.16634 0.28228
# Poissons Ratio (z) = 0.22754 0.30535
#
# Static dielectric constant tensor:
#      x y z
#    x 0.865830 0.000000 0.000000 
#    y 0.000000 1.611120 0.000000 
#    z 0.000000 0.000000 1.636340 
# 
# From -- ./inp_files/27683.got.cif
#   From: 2010.05.17/outbox.cif.g08.bks.cpg/sg59_14_cif.got.tgz:27683.got - 2010.06.03 14:40:33.
