data_PCOD9451817
_publ_section_title
;
Structure prediction by ZEFSAII (Michael W. Deem and Ramdas Pophale) SiO2 
 PCOD9451817
Probable space group: P M M N
;
_chemical_formula_sum "Si O2"
_cell_formula_units_Z 48
_cell_length_a 7.737627
_cell_length_b 18.199106
_cell_length_c 17.707442
_cell_angle_alpha 90.000000
_cell_angle_beta 90.000000
_cell_angle_gamma 90.000000
_cell_volume 2493.524690
_symmetry_space_group_name_H-M "P M M N"
_symmetry_group_IT_number 59
_space_group.IT_coordinate_system_code '2'
_symmetry_cell_setting 'orthorhombic'
loop_
_space_group_symop_operation_xyz
x,y,z
1/2-x,1/2-y,z
1/2+x,-y,-z
-x,1/2+y,-z
-x,-y,-z
1/2+x,1/2+y,-z
1/2-x,y,z
x,1/2-y,z
loop_
_atom_site_type_symbol
_atom_site_label
_atom_site_fract_x
_atom_site_fract_y
_atom_site_fract_z
Si Si1 0.960003 0.397458 0.842973
Si Si2 0.750000 0.660202 0.440052
Si Si3 0.250000 0.338265 0.733701
Si Si4 0.942318 0.160533 0.452189
Si Si5 0.544391 0.567135 0.855049
Si Si6 0.959595 0.834739 0.716778
Si Si7 0.957462 0.331681 0.005139
O O1 0.750000 0.391715 0.830825
O O2 0.010455 0.482703 0.854446
O O3 0.077974 0.365839 0.776445
O O4 0.004618 0.355184 0.920475
O O5 0.750000 0.750000 0.439870
O O6 0.750000 0.636650 0.353413
O O7 0.583692 0.635752 0.487788
O O8 0.250000 0.250000 0.735221
O O9 0.750000 0.137414 0.473068
O O10 0.948478 0.250000 0.451577
O O11 0.983151 0.139161 0.365985
O O12 0.750000 0.565051 0.845542
O O13 0.475278 0.614454 0.784654
O O14 0.509520 0.608943 0.932876
O O15 0.750000 0.834279 0.716901
O O16 0.016077 0.750000 0.727650
O O17 0.750000 0.328948 0.006580
O O18 0.024880 0.250000 0.023316
#
# Coordination Sequence:
#
# PCOD9451817 Si02
#       7
#     8   4   4   8   8   8   8
#     4  10  23  42  60  84 119 156 195 243 288 347
#     4   9  18  34  54  83 115 138 183 243 285 338
#     4  11  24  40  66  91 108 150 195 237 302 346
#     4   9  16  28  50  80 113 148 182 229 291 343
#     4  10  21  35  56  85 115 161 197 236 289 345
#     4   9  16  29  50  80 118 153 192 240 285 338
#     4  10  21  36  56  83 118 154 195 248 294 333
#
# _framework density 19.249860000000002
#
# number of rings (size 3 to 8) (size 9 to 14) (size 15 to 20)
#    0.000    2.333    0.833    1.500    2.333    3.333 
#    0.000    3.333    0.000    1.000    0.000    0.000 
#    0.000    0.000    0.000    0.000    0.000    0.000 
#
# Total GULP energy -267887.523548 kJ/mol
# GULP energy per Si atom -5580.990074 kJ/mol
# Density = 1.920605 g / cm^3
# Si number density = 19.249860 Si / 1000 Ang^3
#
#
#
# Elastic Constant Matrix: (Units=GPa)
#
#
# Indices 1 2 3 4 5 6 
#
# 1 60.2427 7.3955 24.5093 0.0000 0.0000 0.0000
# 2 7.3955 49.2836 -0.7003 0.0000 0.0000 0.0000
# 3 24.5093 -0.7003 81.9115 0.0000 0.0000 0.0000
# 4 0.0000 0.0000 0.0000 -14.1201 0.0000 0.0000
# 5 0.0000 0.0000 0.0000 0.0000 -37.3951 0.0000
# 6 0.0000 0.0000 0.0000 0.0000 0.0000 -3.5631
#
#
#
# Elastic Compliance Matrix: (Units=1/GPa)
#
#
# Indices 1 2 3 4 5 6 
#
# 1 0.019329 -0.002983 -0.005809 0.000000 0.000000 0.000000
# 2 -0.002983 0.020754 0.001070 0.000000 0.000000 0.000000
# 3 -0.005809 0.001070 0.013956 0.000000 0.000000 0.000000
# 4 0.000000 0.000000 0.000000 -0.070821 0.000000 0.000000
# 5 0.000000 0.000000 0.000000 0.000000 -0.026741 0.000000
# 6 0.000000 0.000000 0.000000 0.000000 0.000000 -0.280654
#
#
# Mechanical properties :
#
#
# Convention : Reuss Voigt Hill
#
# Bulk Modulus (GPa) = 25.91075 28.20519 27.05797
# Shear Modulus (GPa) = -16.89937 -0.33344 -8.61641
#
# Velocity S-wave (km/s) = -2.96614 -0.41665 -2.11797
# Velocity P-wave (km/s) = 1.32618 3.80164 2.84704
#
# Compressibility (1/GPa) = 0.03859402
#
# Stress axis : x y z
#
# Youngs Moduli (GPa) = 51.73538 48.18443 71.65561
#
# Poissons Ratio (x) = 0.14374 0.41626
# Poissons Ratio (y) = 0.15433 -0.07667
# Poissons Ratio (z) = 0.30054 -0.05156
#
# Static dielectric constant tensor:
#      x y z
#    x 1.696750 0.000000 0.000000 
#    y 0.000000 1.673510 0.000000 
#    z 0.000000 0.000000 1.643060 
# 
# From -- ./inp_files/20585.got.cif
#   From: 2010.05.17/outbox.cif.g08.bks.cpg/sg59_11_cif.got.tgz:20585.got - 2010.06.03 14:40:33.
