data_PCOD9451586
_publ_section_title
;
Structure prediction by ZEFSAII (Michael W. Deem and Ramdas Pophale) SiO2 
 PCOD9451586
Probable space group: P M M N
;
_chemical_formula_sum "Si O2"
_cell_formula_units_Z 64
_cell_length_a 24.438816
_cell_length_b 15.618895
_cell_length_c 8.769063
_cell_angle_alpha 90.000000
_cell_angle_beta 90.000000
_cell_angle_gamma 90.000000
_cell_volume 3347.215370
_symmetry_space_group_name_H-M "P M M N"
_symmetry_group_IT_number 59
_space_group.IT_coordinate_system_code '2'
_symmetry_cell_setting 'orthorhombic'
loop_
_space_group_symop_operation_xyz
x,y,z
1/2-x,1/2-y,z
1/2+x,-y,-z
-x,1/2+y,-z
-x,-y,-z
1/2+x,1/2+y,-z
1/2-x,y,z
x,1/2-y,z
loop_
_atom_site_type_symbol
_atom_site_label
_atom_site_fract_x
_atom_site_fract_y
_atom_site_fract_z
Si Si1 0.116483 0.845588 0.560085
Si Si2 0.110298 0.346276 0.439959
Si Si3 0.997181 0.405419 0.568952
Si Si4 0.812961 0.002222 0.577248
Si Si5 0.013863 0.851703 0.095359
Si Si6 0.901341 0.650345 0.923929
Si Si7 0.187823 0.490299 0.055196
Si Si8 0.127846 0.848662 0.923301
O O1 0.134091 0.750000 0.516211
O O2 0.053906 0.858689 0.509359
O O3 0.153668 0.916423 0.481010
O O4 0.120883 0.854357 0.741820
O O5 0.130785 0.250000 0.463614
O O6 0.154965 0.417806 0.477557
O O7 0.096149 0.356097 0.259973
O O8 0.054763 0.360909 0.532997
O O9 0.000000 0.500000 0.500000
O O10 0.986865 0.404780 0.749298
O O11 0.750000 0.003718 0.526938
O O12 0.813766 0.000919 0.761322
O O13 0.012284 0.750000 0.134929
O O14 0.960179 0.870413 0.995819
O O15 0.069348 0.866192 0.002315
O O16 0.888540 0.750000 0.959874
O O17 0.855285 0.584847 0.981691
O O18 0.250000 0.468386 0.011695
O O19 0.169290 0.579447 0.980988
O O20 0.143571 0.750000 0.960444
#
# Coordination Sequence:
#
# PCOD9451586 Si02
#       8
#     8   8   8   8   8   8   8   8
#     4  11  23  41  61  85 118 155 195 243 297 353
#     4  10  20  38  60  86 121 156 193 241 291 348
#     4  12  23  35  58  91 121 153 189 239 293 351
#     4  10  22  40  60  88 118 153 202 243 289 350
#     4  10  21  38  59  87 118 152 193 238 291 353
#     4   9  20  37  60  87 117 153 193 238 289 345
#     4  10  22  38  59  85 116 154 196 241 286 341
#     4  10  23  40  61  86 115 153 195 241 294 348
#
# _framework density 19.120372
#
# number of rings (size 3 to 8) (size 9 to 14) (size 15 to 20)
#    0.000    1.750    1.250    2.625    3.500    5.500 
#    0.000    5.000    0.000    0.000    0.000    3.500 
#    0.000    0.000    0.000    0.000    0.000    0.000 
#
# Total GULP energy -357684.097041 kJ/mol
# GULP energy per Si atom -5588.814016 kJ/mol
# Density = 1.907685 g / cm^3
# Si number density = 19.120372 Si / 1000 Ang^3
#
#
#
# Elastic Constant Matrix: (Units=GPa)
#
#
# Indices 1 2 3 4 5 6 
#
# 1 60.3958 16.0353 -2.6747 0.0000 0.0000 0.0000
# 2 16.0353 81.4008 10.4092 0.0000 0.0000 0.0000
# 3 -2.6747 10.4092 9.9927 0.0000 0.0000 0.0000
# 4 0.0000 0.0000 0.0000 -33.5370 0.0000 0.0000
# 5 0.0000 0.0000 0.0000 0.0000 26.5628 0.0000
# 6 0.0000 0.0000 0.0000 0.0000 0.0000 6.7230
#
#
#
# Elastic Compliance Matrix: (Units=1/GPa)
#
#
# Indices 1 2 3 4 5 6 
#
# 1 0.018295 -0.004880 0.009981 0.000000 0.000000 0.000000
# 2 -0.004880 0.015475 -0.017426 0.000000 0.000000 0.000000
# 3 0.009981 -0.017426 0.120896 0.000000 0.000000 0.000000
# 4 0.000000 0.000000 0.000000 -0.029818 0.000000 0.000000
# 5 0.000000 0.000000 0.000000 0.000000 0.037647 0.000000
# 6 0.000000 0.000000 0.000000 0.000000 0.000000 0.148743
#
#
# Mechanical properties :
#
#
# Convention : Reuss Voigt Hill
#
# Bulk Modulus (GPa) = 7.69140 22.14766 14.91953
# Shear Modulus (GPa) = 13.18472 8.48440 10.83456
#
# Velocity S-wave (km/s) = 2.62880 2.10879 2.38302
# Velocity P-wave (km/s) = 3.63944 4.18781 3.92322
#
# Compressibility (1/GPa) = 0.13001529
#
# Stress axis : x y z
#
# Youngs Moduli (GPa) = 54.65917 64.62197 8.27155
#
# Poissons Ratio (x) = 0.31537 -0.08256
# Poissons Ratio (y) = 0.26675 0.14414
# Poissons Ratio (z) = -0.54554 1.12609
#
# Static dielectric constant tensor:
#      x y z
#    x 1.637710 0.000000 0.000000 
#    y 0.000000 1.664850 0.000000 
#    z 0.000000 0.000000 1.649900 
# 
# From -- ./inp_files/12183.got.cif
#   From: 2010.05.17/outbox.cif.g08.bks.cpg/sg59_7_cif.got.tgz:12183.got - 2010.06.03 14:40:33.
