data_PCOD9451794
_publ_section_title
;
Structure prediction by ZEFSAII (Michael W. Deem and Ramdas Pophale) SiO2 
 PCOD9451794
Probable space group: P M M N
;
_chemical_formula_sum "Si O2"
_cell_formula_units_Z 56
_cell_length_a 18.848882
_cell_length_b 13.333633
_cell_length_c 12.223275
_cell_angle_alpha 90.000000
_cell_angle_beta 90.000000
_cell_angle_gamma 90.000000
_cell_volume 3072.003283
_symmetry_space_group_name_H-M "P M M N"
_symmetry_group_IT_number 59
_space_group.IT_coordinate_system_code '2'
_symmetry_cell_setting 'orthorhombic'
loop_
_space_group_symop_operation_xyz
x,y,z
1/2-x,1/2-y,z
1/2+x,-y,-z
-x,1/2+y,-z
-x,-y,-z
1/2+x,1/2+y,-z
1/2-x,y,z
x,1/2-y,z
loop_
_atom_site_type_symbol
_atom_site_label
_atom_site_fract_x
_atom_site_fract_y
_atom_site_fract_z
Si Si1 0.040589 0.868132 0.624518
Si Si2 0.331940 0.930072 0.467307
Si Si3 0.446931 0.629910 0.059530
Si Si4 0.666950 0.636518 0.263965
Si Si5 0.607923 0.863104 0.504487
Si Si6 0.066667 0.989844 0.842532
Si Si7 0.828631 0.368620 0.774200
O O1 0.041858 0.750000 0.653303
O O2 0.112049 0.894859 0.557952
O O3 0.971803 0.883807 0.546768
O O4 0.037766 0.936908 0.732373
O O5 0.250000 0.905543 0.493542
O O6 0.351299 0.882406 0.350956
O O7 0.341868 0.049172 0.452931
O O8 0.453842 0.750000 0.064060
O O9 0.515838 0.575810 0.108474
O O10 0.383949 0.592733 0.138519
O O11 0.430114 0.592882 0.937509
O O12 0.750000 0.623160 0.293329
O O13 0.659713 0.750000 0.218133
O O14 0.618884 0.633431 0.373549
O O15 0.639073 0.547560 0.187938
O O16 0.626831 0.750000 0.539238
O O17 0.750000 0.413013 0.785245
O O18 0.823954 0.250000 0.793837
#
# Coordination Sequence:
#
# PCOD9451794 Si02
#       7
#     8   8   8   8   8   8   8
#     4  11  23  36  54  84 119 151 188 234 291 354
#     4  11  21  35  56  83 117 151 186 234 291 349
#     4  10  22  39  59  82 109 146 194 239 279 332
#     4  10  21  37  57  84 115 147 189 235 281 340
#     4  10  21  35  54  81 113 152 189 229 277 338
#     4  11  22  37  59  83 112 150 188 237 293 337
#     4   9  19  35  55  79 107 143 186 227 269 328
#
# _framework density 18.229147999999999
#
# number of rings (size 3 to 8) (size 9 to 14) (size 15 to 20)
#    0.000    1.714    1.429    3.000    2.000    2.286 
#    0.000    0.000    0.000    3.429    0.000    0.000 
#    0.000    0.000    0.000    0.000    0.000    0.000 
#
# Total GULP energy -312314.366954 kJ/mol
# GULP energy per Si atom -5577.042267 kJ/mol
# Density = 1.818766 g / cm^3
# Si number density = 18.229148 Si / 1000 Ang^3
#
#
#
# Elastic Constant Matrix: (Units=GPa)
#
#
# Indices 1 2 3 4 5 6 
#
# 1 54.6220 22.5803 53.1343 0.0000 0.0000 0.0000
# 2 22.5803 70.1624 13.4430 0.0000 0.0000 0.0000
# 3 53.1343 13.4430 78.8681 0.0000 0.0000 0.0000
# 4 0.0000 0.0000 0.0000 14.1146 0.0000 0.0000
# 5 0.0000 0.0000 0.0000 0.0000 16.3857 0.0000
# 6 0.0000 0.0000 0.0000 0.0000 0.0000 21.4669
#
#
#
# Elastic Compliance Matrix: (Units=1/GPa)
#
#
# Indices 1 2 3 4 5 6 
#
# 1 0.061995 -0.012353 -0.039661 0.000000 0.000000 0.000000
# 2 -0.012353 0.017195 0.005391 0.000000 0.000000 0.000000
# 3 -0.039661 0.005391 0.038481 0.000000 0.000000 0.000000
# 4 0.000000 0.000000 0.000000 0.070848 0.000000 0.000000
# 5 0.000000 0.000000 0.000000 0.000000 0.061029 0.000000
# 6 0.000000 0.000000 0.000000 0.000000 0.000000 0.046583
#
#
# Mechanical properties :
#
#
# Convention : Reuss Voigt Hill
#
# Bulk Modulus (GPa) = 40.94088 42.44087 41.69087
# Shear Modulus (GPa) = 12.57801 18.02645 15.30223
#
# Velocity S-wave (km/s) = 2.62962 3.14806 2.90045
# Velocity P-wave (km/s) = 5.63273 6.04534 5.84268
#
# Compressibility (1/GPa) = 0.02442547
#
# Stress axis : x y z
#
# Youngs Moduli (GPa) = 16.13027 58.15582 25.98705
#
# Poissons Ratio (x) = 0.71839 1.03068
# Poissons Ratio (y) = 0.19925 -0.14010
# Poissons Ratio (z) = 0.63975 -0.31354
#
# Static dielectric constant tensor:
#      x y z
#    x 1.645150 0.000000 0.000000 
#    y 0.000000 1.654950 0.000000 
#    z 0.000000 0.000000 1.613840 
# 
# From -- ./inp_files/16992.got.cif
#   From: 2010.05.17/outbox.cif.g08.bks.cpg/sg59_9_cif.got.tgz:16992.got - 2010.06.03 14:40:33.
