data_PCOD9451824
_publ_section_title
;
Structure prediction by ZEFSAII (Michael W. Deem and Ramdas Pophale) SiO2 
 PCOD9451824
Probable space group: P M M N
;
_chemical_formula_sum "Si O2"
_cell_formula_units_Z 48
_cell_length_a 14.369070
_cell_length_b 7.647709
_cell_length_c 21.457355
_cell_angle_alpha 90.000000
_cell_angle_beta 90.000000
_cell_angle_gamma 90.000000
_cell_volume 2357.958739
_symmetry_space_group_name_H-M "P M M N"
_symmetry_group_IT_number 59
_space_group.IT_coordinate_system_code '2'
_symmetry_cell_setting 'orthorhombic'
loop_
_space_group_symop_operation_xyz
x,y,z
1/2-x,1/2-y,z
1/2+x,-y,-z
-x,1/2+y,-z
-x,-y,-z
1/2+x,1/2+y,-z
1/2-x,y,z
x,1/2-y,z
loop_
_atom_site_type_symbol
_atom_site_label
_atom_site_fract_x
_atom_site_fract_y
_atom_site_fract_z
Si Si1 0.645285 0.044570 0.715927
Si Si2 0.536278 0.459213 0.597392
Si Si3 0.467327 0.049797 0.164282
Si Si4 0.643445 0.035750 0.098766
Si Si5 0.360102 0.540328 0.041338
Si Si6 0.644763 0.538692 0.471650
O O1 0.750000 0.970018 0.717993
O O2 0.654714 0.250000 0.701751
O O3 0.581019 0.969683 0.660827
O O4 0.594794 0.033100 0.782286
O O5 0.525597 0.250000 0.603818
O O6 0.606739 0.492554 0.540272
O O7 0.434843 0.526686 0.576013
O O8 0.479516 0.250000 0.183447
O O9 0.569075 0.973576 0.149205
O O10 0.415114 0.042483 0.098003
O O11 0.750000 0.982907 0.109554
O O12 0.641895 0.250000 0.098339
O O13 0.614727 0.981289 0.028617
O O14 0.250000 0.506652 0.048551
O O15 0.373409 0.750000 0.044695
O O16 0.750000 0.474942 0.461756
O O17 0.646740 0.750000 0.467868
#
# Coordination Sequence:
#
# PCOD9451824 Si02
#       6
#     8   8   8   8   8   8
#     4  10  21  36  51  67  94 133 167 192 227 281
#     4   9  18  33  52  73  98 131 168 197 225 275
#     4  11  21  31  48  73  97 122 156 201 244 278
#     4   8  16  32  51  69  91 122 158 194 238 292
#     4   9  17  31  51  71  93 124 157 189 234 293
#     4   9  17  30  51  79 106 127 151 194 248 285
#
# _framework density 20.356587999999999
#
# number of rings (size 3 to 8) (size 9 to 14) (size 15 to 20)
#    0.000    2.667    0.000    3.000    0.000    4.333 
#    0.000    1.667    0.000    5.000    0.000    0.000 
#    0.000    0.000    0.000    0.000    0.000    0.000 
#
# Total GULP energy -267805.939088 kJ/mol
# GULP energy per Si atom -5579.290398 kJ/mol
# Density = 2.031026 g / cm^3
# Si number density = 20.356588 Si / 1000 Ang^3
#
#
#
# Elastic Constant Matrix: (Units=GPa)
#
#
# Indices 1 2 3 4 5 6 
#
# 1 153.7703 0.3957 81.7398 0.0000 0.0000 0.0000
# 2 0.3957 29.2566 -6.5404 0.0000 0.0000 0.0000
# 3 81.7398 -6.5404 89.4880 0.0000 0.0000 0.0000
# 4 0.0000 0.0000 0.0000 14.2278 0.0000 0.0000
# 5 0.0000 0.0000 0.0000 0.0000 21.1593 0.0000
# 6 0.0000 0.0000 0.0000 0.0000 0.0000 13.4364
#
#
#
# Elastic Compliance Matrix: (Units=1/GPa)
#
#
# Indices 1 2 3 4 5 6 
#
# 1 0.012870 -0.002849 -0.011964 0.000000 0.000000 0.000000
# 2 -0.002849 0.035379 0.005188 0.000000 0.000000 0.000000
# 3 -0.011964 0.005188 0.022482 0.000000 0.000000 0.000000
# 4 0.000000 0.000000 0.000000 0.070285 0.000000 0.000000
# 5 0.000000 0.000000 0.000000 0.000000 0.047261 0.000000
# 6 0.000000 0.000000 0.000000 0.000000 0.000000 0.074424
#
#
# Mechanical properties :
#
#
# Convention : Reuss Voigt Hill
#
# Bulk Modulus (GPa) = 19.42472 47.07835 33.25154
# Shear Modulus (GPa) = 16.71618 22.89270 19.80444
#
# Velocity S-wave (km/s) = 2.86871 3.35712 3.12248
# Velocity P-wave (km/s) = 4.53162 6.18094 5.41939
#
# Compressibility (1/GPa) = 0.05148079
#
# Stress axis : x y z
#
# Youngs Moduli (GPa) = 77.69789 28.26569 44.47975
#
# Poissons Ratio (x) = 0.08052 0.53216
# Poissons Ratio (y) = 0.22134 -0.23075
# Poissons Ratio (z) = 0.92959 -0.14664
#
# Static dielectric constant tensor:
#      x y z
#    x 1.753950 0.000000 0.000000 
#    y 0.000000 1.765400 0.000000 
#    z 0.000000 0.000000 1.685800 
# 
# From -- ./inp_files/27375.got.cif
#   From: 2010.05.17/outbox.cif.g08.bks.cpg/sg59_14_cif.got.tgz:27375.got - 2010.06.03 14:40:33.
