data_PCOD9451182
_publ_section_title
;
Structure prediction by ZEFSAII (Michael W. Deem and Ramdas Pophale) SiO2 
 PCOD9451182
Probable space group: P M M N
;
_chemical_formula_sum "Si O2"
_cell_formula_units_Z 48
_cell_length_a 7.714967
_cell_length_b 13.547310
_cell_length_c 21.037866
_cell_angle_alpha 90.000000
_cell_angle_beta 90.000000
_cell_angle_gamma 90.000000
_cell_volume 2198.815684
_symmetry_space_group_name_H-M "P M M N"
_symmetry_group_IT_number 59
_space_group.IT_coordinate_system_code '2'
_symmetry_cell_setting 'orthorhombic'
loop_
_space_group_symop_operation_xyz
x,y,z
1/2-x,1/2-y,z
1/2+x,-y,-z
-x,1/2+y,-z
-x,-y,-z
1/2+x,1/2+y,-z
1/2-x,y,z
x,1/2-y,z
loop_
_atom_site_type_symbol
_atom_site_label
_atom_site_fract_x
_atom_site_fract_y
_atom_site_fract_z
Si Si1 0.554904 0.543034 0.691802
Si Si2 0.455621 0.927399 0.089807
Si Si3 0.946074 0.546169 0.433864
Si Si4 0.956599 0.250000 0.511554
Si Si5 0.962996 0.140120 0.773551
Si Si6 0.460827 0.250000 0.359721
Si Si7 0.540122 0.360344 0.048904
O O1 0.750000 0.560778 0.716630
O O2 0.561744 0.492456 0.622796
O O3 0.474985 0.456623 0.735234
O O4 0.477565 0.650943 0.676526
O O5 0.250000 0.910060 0.088359
O O6 0.519055 0.875621 0.153520
O O7 0.485269 0.045385 0.090279
O O8 0.523594 0.884795 0.022947
O O9 0.750000 0.518593 0.417651
O O10 0.000000 0.500000 0.500000
O O11 0.965703 0.659135 0.450420
O O12 0.750000 0.250000 0.517584
O O13 0.993864 0.250000 0.435279
O O14 0.750000 0.138789 0.770667
O O15 0.015740 0.250000 0.751037
O O16 0.250000 0.250000 0.358694
O O17 0.750000 0.360421 0.048254
O O18 0.483435 0.250000 0.067785
#
# Coordination Sequence:
#
# PCOD9451182 Si02
#       7
#     8   8   8   4   8   4   8
#     4  10  21  37  57  82 111 147 187 229 280 339
#     4   9  17  31  52  79 107 140 184 230 273 323
#     4  12  24  39  59  86 116 145 184 234 287 343
#     4  12  24  38  60  86 114 150 187 230 287 344
#     4   9  18  34  56  82 110 143 186 231 276 332
#     4  10  20  36  56  78 112 148 183 226 279 338
#     4   9  17  30  50  76 109 146 181 223 277 331
#
# _framework density 21.829931999999999
#
# number of rings (size 3 to 8) (size 9 to 14) (size 15 to 20)
#    0.000    2.000    1.667    2.750    1.167    2.333 
#    1.500    0.833    0.000    2.500    0.000    0.000 
#    0.000    0.000    0.000    0.000    0.000    0.000 
#
# Total GULP energy -267772.246341 kJ/mol
# GULP energy per Si atom -5578.588465 kJ/mol
# Density = 2.178025 g / cm^3
# Si number density = 21.829932 Si / 1000 Ang^3
#
#
#
# Elastic Constant Matrix: (Units=GPa)
#
#
# Indices 1 2 3 4 5 6 
#
# 1 58.7173 -12.5397 -2.9076 0.0000 0.0000 0.0000
# 2 -12.5397 169.8607 33.5596 0.0000 0.0000 0.0000
# 3 -2.9076 33.5596 53.4492 0.0000 0.0000 0.0000
# 4 0.0000 0.0000 0.0000 33.2897 0.0000 0.0000
# 5 0.0000 0.0000 0.0000 0.0000 9.9199 0.0000
# 6 0.0000 0.0000 0.0000 0.0000 0.0000 18.0638
#
#
#
# Elastic Compliance Matrix: (Units=1/GPa)
#
#
# Indices 1 2 3 4 5 6 
#
# 1 0.017305 0.001246 0.000159 0.000000 0.000000 0.000000
# 2 0.001246 0.006811 -0.004208 0.000000 0.000000 0.000000
# 3 0.000159 -0.004208 0.021360 0.000000 0.000000 0.000000
# 4 0.000000 0.000000 0.000000 0.030039 0.000000 0.000000
# 5 0.000000 0.000000 0.000000 0.000000 0.100807 0.000000
# 6 0.000000 0.000000 0.000000 0.000000 0.000000 0.055359
#
#
# Mechanical properties :
#
#
# Convention : Reuss Voigt Hill
#
# Bulk Modulus (GPa) = 25.08214 35.36130 30.22172
# Shear Modulus (GPa) = 19.95387 29.84901 24.90144
#
# Velocity S-wave (km/s) = 3.02662 3.70177 3.38109
# Velocity P-wave (km/s) = 4.87121 5.87406 5.39598
#
# Compressibility (1/GPa) = 0.03986900
#
# Stress axis : x y z
#
# Youngs Moduli (GPa) = 57.78764 146.82904 46.81554
#
# Poissons Ratio (x) = -0.18296 -0.00744
# Poissons Ratio (y) = -0.07201 0.19702
# Poissons Ratio (z) = -0.00919 0.61793
#
# Static dielectric constant tensor:
#      x y z
#    x 1.795350 0.000000 0.000000 
#    y 0.000000 1.815520 0.000000 
#    z 0.000000 0.000000 1.749900 
# 
# From -- ./inp_files/25548.got.cif
#   From: 2010.05.17/outbox.cif.g08.bks.cpg/sg59_13_cif.got.tgz:25548.got - 2010.06.03 14:40:33.
