data_PCOD9451308
_publ_section_title
;
Structure prediction by ZEFSAII (Michael W. Deem and Ramdas Pophale) SiO2 
 PCOD9451308
Probable space group: P M M N
;
_chemical_formula_sum "Si O2"
_cell_formula_units_Z 48
_cell_length_a 18.407925
_cell_length_b 9.003585
_cell_length_c 15.886055
_cell_angle_alpha 90.000000
_cell_angle_beta 90.000000
_cell_angle_gamma 90.000000
_cell_volume 2632.912140
_symmetry_space_group_name_H-M "P M M N"
_symmetry_group_IT_number 59
_space_group.IT_coordinate_system_code '2'
_symmetry_cell_setting 'orthorhombic'
loop_
_space_group_symop_operation_xyz
x,y,z
1/2-x,1/2-y,z
1/2+x,-y,-z
-x,1/2+y,-z
-x,-y,-z
1/2+x,1/2+y,-z
1/2-x,y,z
x,1/2-y,z
loop_
_atom_site_type_symbol
_atom_site_label
_atom_site_fract_x
_atom_site_fract_y
_atom_site_fract_z
Si Si1 0.538392 0.572086 0.824402
Si Si2 0.250000 0.427387 0.766415
Si Si3 0.375515 0.571184 0.877716
Si Si4 0.008226 0.076702 0.367513
Si Si5 0.250000 0.923270 0.584241
Si Si6 0.167255 0.571430 0.070025
Si Si7 0.111735 0.078885 0.527408
O O1 0.545292 0.750000 0.833286
O O2 0.459547 0.529764 0.862232
O O3 0.535534 0.537217 0.725059
O O4 0.605617 0.497059 0.871046
O O5 0.250000 0.250000 0.768570
O O6 0.320872 0.491287 0.813996
O O7 0.250000 0.486446 0.671389
O O8 0.369118 0.750000 0.865675
O O9 0.351538 0.535970 0.972861
O O10 0.983491 0.250000 0.365106
O O11 0.069974 0.066559 0.438773
O O12 0.943634 0.972977 0.399880
O O13 0.250000 0.750000 0.603199
O O14 0.179712 0.971686 0.532522
O O15 0.250000 0.522275 0.088737
O O16 0.165142 0.750000 0.077634
O O17 0.133300 0.250000 0.539758
#
# Coordination Sequence:
#
# PCOD9451308 Si02
#       7
#     8   4   8   8   4   8   8
#     4  10  21  36  59  87 111 148 197 239 282 340
#     4  12  24  36  58  91 120 147 188 239 290 343
#     4  10  20  38  60  83 118 156 189 231 291 349
#     4   9  19  37  58  84 116 150 187 232 292 347
#     4  12  24  38  56  81 114 151 190 231 284 347
#     4  10  21  38  57  79 116 159 194 236 290 336
#     4  10  20  36  59  84 115 148 186 237 287 341
#
# _framework density 18.230764000000001
#
# number of rings (size 3 to 8) (size 9 to 14) (size 15 to 20)
#    0.000    1.833    0.833    3.500    0.000    4.333 
#    1.500    0.000    0.000    0.000    0.000    0.000 
#    0.000    0.000    0.000    0.000    0.000    0.000 
#
# Total GULP energy -268136.563666 kJ/mol
# GULP energy per Si atom -5586.178410 kJ/mol
# Density = 1.818927 g / cm^3
# Si number density = 18.230764 Si / 1000 Ang^3
#
#
#
# Elastic Constant Matrix: (Units=GPa)
#
#
# Indices 1 2 3 4 5 6 
#
# 1 116.7817 39.1443 29.7499 0.0000 0.0000 0.0000
# 2 39.1443 47.3567 25.7286 0.0000 0.0000 0.0000
# 3 29.7499 25.7286 36.6117 0.0000 0.0000 0.0000
# 4 0.0000 0.0000 0.0000 24.7936 0.0000 0.0000
# 5 0.0000 0.0000 0.0000 0.0000 21.0099 0.0000
# 6 0.0000 0.0000 0.0000 0.0000 0.0000 29.2344
#
#
#
# Elastic Compliance Matrix: (Units=1/GPa)
#
#
# Indices 1 2 3 4 5 6 
#
# 1 0.012308 -0.007668 -0.004613 0.000000 0.000000 0.000000
# 2 -0.007668 0.038934 -0.021130 0.000000 0.000000 0.000000
# 3 -0.004613 -0.021130 0.045911 0.000000 0.000000 0.000000
# 4 0.000000 0.000000 0.000000 0.040333 0.000000 0.000000
# 5 0.000000 0.000000 0.000000 0.000000 0.047597 0.000000
# 6 0.000000 0.000000 0.000000 0.000000 0.000000 0.034206
#
#
# Mechanical properties :
#
#
# Convention : Reuss Voigt Hill
#
# Bulk Modulus (GPa) = 32.96850 43.33285 38.15068
# Shear Modulus (GPa) = 16.87924 22.08271 19.48097
#
# Velocity S-wave (km/s) = 3.04610 3.48413 3.27246
# Velocity P-wave (km/s) = 5.52222 6.32505 5.93722
#
# Compressibility (1/GPa) = 0.03033198
#
# Stress axis : x y z
#
# Youngs Moduli (GPa) = 81.24612 25.68444 21.78116
#
# Poissons Ratio (x) = 0.19694 0.10048
# Poissons Ratio (y) = 0.62296 0.46024
# Poissons Ratio (z) = 0.37480 0.54271
#
# Static dielectric constant tensor:
#      x y z
#    x 1.619480 0.000000 0.000000 
#    y 0.000000 1.614300 0.000000 
#    z 0.000000 0.000000 1.600260 
# 
# From -- ./inp_files/20487.got.cif
#   From: 2010.05.17/outbox.cif.g08.bks.cpg/sg59_11_cif.got.tgz:20487.got - 2010.06.03 14:40:33.
