data_PCOD9451326
_publ_section_title
;
Structure prediction by ZEFSAII (Michael W. Deem and Ramdas Pophale) SiO2 
 PCOD9451326
Probable space group: P M M N
;
_chemical_formula_sum "Si O2"
_cell_formula_units_Z 52
_cell_length_a 13.926521
_cell_length_b 25.774860
_cell_length_c 7.315866
_cell_angle_alpha 90.000000
_cell_angle_beta 90.000000
_cell_angle_gamma 90.000000
_cell_volume 2626.060308
_symmetry_space_group_name_H-M "P M M N"
_symmetry_group_IT_number 59
_space_group.IT_coordinate_system_code '2'
_symmetry_cell_setting 'orthorhombic'
loop_
_space_group_symop_operation_xyz
x,y,z
1/2-x,1/2-y,z
1/2+x,-y,-z
-x,1/2+y,-z
-x,-y,-z
1/2+x,1/2+y,-z
1/2-x,y,z
x,1/2-y,z
loop_
_atom_site_type_symbol
_atom_site_label
_atom_site_fract_x
_atom_site_fract_y
_atom_site_fract_z
Si Si1 0.359515 0.863373 0.803555
Si Si2 0.363178 0.363701 0.390112
Si Si3 0.944590 0.865009 0.014828
Si Si4 0.952729 0.750000 0.043290
Si Si5 0.360380 0.954595 0.514803
Si Si6 0.141890 0.750000 0.852050
Si Si7 0.134348 0.250000 0.364061
Si Si8 0.052568 0.443936 0.670163
O O1 0.250000 0.869306 0.874741
O O2 0.369401 0.902771 0.636543
O O3 0.371483 0.803283 0.742767
O O4 0.444033 0.870213 0.950796
O O5 0.250000 0.369886 0.420982
O O6 0.392057 0.305177 0.450091
O O7 0.418079 0.407401 0.500550
O O8 0.385921 0.367403 0.174425
O O9 0.922401 0.911616 0.150487
O O10 0.926333 0.808142 0.107319
O O11 0.912076 0.750000 0.836009
O O12 0.067229 0.750000 0.017424
O O13 0.250000 0.960259 0.455708
O O14 0.438789 0.954014 0.353592
O O15 0.391204 0.002512 0.644298
O O16 0.250000 0.750000 0.922398
O O17 0.250000 0.250000 0.344390
#
# Coordination Sequence:
#
# PCOD9451326 Si02
#       8
#     8   8   8   4   8   4   4   8
#     4   9  17  34  58  83 114 148 185 227 279 336
#     4  10  20  37  57  83 116 152 191 234 284 334
#     4  10  20  36  59  87 114 149 188 228 280 337
#     4   8  16  31  52  83 118 142 176 230 277 326
#     4  10  22  41  58  80 116 149 187 242 285 330
#     4   8  14  26  52  83 108 145 184 218 270 337
#     4   8  16  31  54  78 110 151 188 228 277 335
#     4  11  23  38  60  83 114 149 192 236 285 341
#
# _framework density 19.801527
#
# number of rings (size 3 to 8) (size 9 to 14) (size 15 to 20)
#    0.000    2.462    1.538    0.462    0.000    3.077 
#    0.000    0.769    0.000    2.769    0.000    0.000 
#    0.000    0.000    0.000    0.000    0.000    0.000 
#
# Total GULP energy -289734.301996 kJ/mol
# GULP energy per Si atom -5571.813500 kJ/mol
# Density = 1.975646 g / cm^3
# Si number density = 19.801527 Si / 1000 Ang^3
#
#
#
# Elastic Constant Matrix: (Units=GPa)
#
#
# Indices 1 2 3 4 5 6 
#
# 1 47.1983 14.2567 4.2182 0.0000 0.0000 0.0000
# 2 14.2567 84.4323 5.3216 0.0000 0.0000 0.0000
# 3 4.2182 5.3216 33.4970 0.0000 0.0000 0.0000
# 4 0.0000 0.0000 0.0000 23.5287 0.0000 0.0000
# 5 0.0000 0.0000 0.0000 0.0000 2.0263 0.0000
# 6 0.0000 0.0000 0.0000 0.0000 0.0000 12.6313
#
#
#
# Elastic Compliance Matrix: (Units=1/GPa)
#
#
# Indices 1 2 3 4 5 6 
#
# 1 0.022493 -0.003656 -0.002252 0.000000 0.000000 0.000000
# 2 -0.003656 0.012558 -0.001535 0.000000 0.000000 0.000000
# 3 -0.002252 -0.001535 0.030381 0.000000 0.000000 0.000000
# 4 0.000000 0.000000 0.000000 0.042501 0.000000 0.000000
# 5 0.000000 0.000000 0.000000 0.000000 0.493513 0.000000
# 6 0.000000 0.000000 0.000000 0.000000 0.000000 0.079169
#
#
# Mechanical properties :
#
#
# Convention : Reuss Voigt Hill
#
# Bulk Modulus (GPa) = 19.78366 23.63561 21.70964
# Shear Modulus (GPa) = 7.01904 17.05932 12.03918
#
# Velocity S-wave (km/s) = 1.88478 2.93834 2.46843
# Velocity P-wave (km/s) = 3.84047 4.84499 4.37168
#
# Compressibility (1/GPa) = 0.05054676
#
# Stress axis : x y z
#
# Youngs Moduli (GPa) = 44.45867 79.63133 32.91558
#
# Poissons Ratio (x) = 0.29114 0.07411
# Poissons Ratio (y) = 0.16254 0.05051
# Poissons Ratio (z) = 0.10010 0.12221
#
# Static dielectric constant tensor:
#      x y z
#    x 1.724050 0.000000 0.000000 
#    y 0.000000 1.729560 0.000000 
#    z 0.000000 0.000000 1.654860 
# 
# From -- ./inp_files/9489.got.cif
#   From: 2010.05.17/outbox.cif.g08.bks.cpg/sg59_5_cif.got.tgz:9489.got - 2010.06.03 14:40:33.
