data_PCOD9451025
_publ_section_title
;
Structure prediction by ZEFSAII (Michael W. Deem and Ramdas Pophale) SiO2 
 PCOD9451025
Probable space group: P M M N
;
_chemical_formula_sum "Si O2"
_cell_formula_units_Z 56
_cell_length_a 8.646771
_cell_length_b 14.661702
_cell_length_c 23.470495
_cell_angle_alpha 90.000000
_cell_angle_beta 90.000000
_cell_angle_gamma 90.000000
_cell_volume 2975.504385
_symmetry_space_group_name_H-M "P M M N"
_symmetry_group_IT_number 59
_space_group.IT_coordinate_system_code '2'
_symmetry_cell_setting 'orthorhombic'
loop_
_space_group_symop_operation_xyz
x,y,z
1/2-x,1/2-y,z
1/2+x,-y,-z
-x,1/2+y,-z
-x,-y,-z
1/2+x,1/2+y,-z
1/2-x,y,z
x,1/2-y,z
loop_
_atom_site_type_symbol
_atom_site_label
_atom_site_fract_x
_atom_site_fract_y
_atom_site_fract_z
Si Si1 0.935849 0.147419 0.095407
Si Si2 0.438882 0.038456 0.858201
Si Si3 0.934863 0.145699 0.403171
Si Si4 0.567832 0.642372 0.470956
Si Si5 0.567258 0.641830 0.028040
Si Si6 0.062597 0.355998 0.744843
Si Si7 0.066290 0.963898 0.363247
O O1 0.750000 0.150783 0.098319
O O2 0.995759 0.250000 0.106454
O O3 0.988371 0.066905 0.137152
O O4 0.981608 0.121167 0.030880
O O5 0.250000 0.040778 0.858018
O O6 0.488209 0.088095 0.916484
O O7 0.489214 0.092401 0.802251
O O8 0.750000 0.139793 0.399991
O O9 0.981671 0.250000 0.389557
O O10 0.987678 0.127503 0.468205
O O11 0.008853 0.068183 0.364262
O O12 0.750000 0.622171 0.476288
O O13 0.550988 0.750000 0.456969
O O14 0.495858 0.583012 0.420941
O O15 0.750000 0.622962 0.020160
O O16 0.550485 0.750000 0.038750
O O17 0.250000 0.357954 0.743219
O O18 0.015168 0.250000 0.745228
O O19 0.000148 0.408235 0.689932
O O20 0.250000 0.960824 0.362887
#
# Coordination Sequence:
#
# PCOD9451025 Si02
#       7
#     8   8   8   8   8   8   8
#     4   9  17  29  46  71 102 132 162 201 252 311
#     4   9  17  31  51  72  96 130 172 215 259 309
#     4  10  21  38  60  85 112 142 179 222 265 313
#     4  10  20  35  57  85 116 148 182 222 268 317
#     4   9  16  27  46  72  99 128 164 206 254 308
#     4  10  21  38  58  77  99 132 178 228 271 315
#     4  12  24  37  55  79 111 147 180 219 268 322
#
# _framework density 18.820338
#
# number of rings (size 3 to 8) (size 9 to 14) (size 15 to 20)
#    0.000    2.143    0.000    3.857    0.000    5.429 
#    0.000    2.143    0.000    4.286    0.000    0.000 
#    0.000    0.000    0.000    0.000    0.000    0.000 
#
# Total GULP energy -312701.744751 kJ/mol
# GULP energy per Si atom -5583.959728 kJ/mol
# Density = 1.877750 g / cm^3
# Si number density = 18.820338 Si / 1000 Ang^3
#
#
#
# Elastic Constant Matrix: (Units=GPa)
#
#
# Indices 1 2 3 4 5 6 
#
# 1 24.6802 28.2658 11.3900 0.0000 0.0000 0.0000
# 2 28.2658 136.4045 82.7472 0.0000 0.0000 0.0000
# 3 11.3900 82.7472 64.1013 0.0000 0.0000 0.0000
# 4 0.0000 0.0000 0.0000 15.6355 0.0000 0.0000
# 5 0.0000 0.0000 0.0000 0.0000 23.5635 0.0000
# 6 0.0000 0.0000 0.0000 0.0000 0.0000 19.7326
#
#
#
# Elastic Compliance Matrix: (Units=1/GPa)
#
#
# Indices 1 2 3 4 5 6 
#
# 1 0.060829 -0.027883 0.025186 0.000000 0.000000 0.000000
# 2 -0.027883 0.046579 -0.055174 0.000000 0.000000 0.000000
# 3 0.025186 -0.055174 0.082348 0.000000 0.000000 0.000000
# 4 0.000000 0.000000 0.000000 0.063957 0.000000 0.000000
# 5 0.000000 0.000000 0.000000 0.000000 0.042439 0.000000
# 6 0.000000 0.000000 0.000000 0.000000 0.000000 0.050678
#
#
# Mechanical properties :
#
#
# Convention : Reuss Voigt Hill
#
# Bulk Modulus (GPa) = 13.51109 52.22135 32.86622
# Shear Modulus (GPa) = 10.26181 18.63852 14.45016
#
# Velocity S-wave (km/s) = 2.33759 3.15038 2.77392
# Velocity P-wave (km/s) = 3.80531 6.40630 5.26883
#
# Compressibility (1/GPa) = 0.07401327
#
# Stress axis : x y z
#
# Youngs Moduli (GPa) = 16.43943 21.46881 12.14361
#
# Poissons Ratio (x) = 0.59862 -0.30584
# Poissons Ratio (y) = 0.45839 0.67001
# Poissons Ratio (z) = -0.41404 1.18451
#
# Static dielectric constant tensor:
#      x y z
#    x 1.635680 0.000000 0.000000 
#    y 0.000000 1.684510 0.000000 
#    z 0.000000 0.000000 1.612080 
# 
# From -- ./inp_files/29046.got.cif
#   From: 2010.05.17/outbox.cif.g08.bks.cpg/sg59_15_cif.got.tgz:29046.got - 2010.06.03 14:40:33.
