data_PCOD9451011
_publ_section_title
;
Structure prediction by ZEFSAII (Michael W. Deem and Ramdas Pophale) SiO2 
 PCOD9451011
Probable space group: P M M N
;
_chemical_formula_sum "Si O2"
_cell_formula_units_Z 56
_cell_length_a 23.005858
_cell_length_b 7.814761
_cell_length_c 15.302194
_cell_angle_alpha 90.000000
_cell_angle_beta 90.000000
_cell_angle_gamma 90.000000
_cell_volume 2751.109262
_symmetry_space_group_name_H-M "P M M N"
_symmetry_group_IT_number 59
_space_group.IT_coordinate_system_code '2'
_symmetry_cell_setting 'orthorhombic'
loop_
_space_group_symop_operation_xyz
x,y,z
1/2-x,1/2-y,z
1/2+x,-y,-z
-x,1/2+y,-z
-x,-y,-z
1/2+x,1/2+y,-z
1/2-x,y,z
x,1/2-y,z
loop_
_atom_site_type_symbol
_atom_site_label
_atom_site_fract_x
_atom_site_fract_y
_atom_site_fract_z
Si Si1 0.314231 0.449189 0.685992
Si Si2 0.814419 0.458814 0.929175
Si Si3 0.058265 0.549380 0.389132
Si Si4 0.430022 0.951974 0.584555
Si Si5 0.912947 0.459711 0.795659
Si Si6 0.844961 0.052155 0.121710
Si Si7 0.475756 0.454622 0.904296
O O1 0.250000 0.522145 0.664276
O O2 0.313693 0.250000 0.662756
O O3 0.370714 0.524391 0.637865
O O4 0.323369 0.464900 0.790226
O O5 0.750000 0.503441 0.899149
O O6 0.818792 0.250000 0.932883
O O7 0.863315 0.518732 0.862150
O O8 0.823358 0.518880 0.028730
O O9 0.072826 0.750000 0.392416
O O10 0.073816 0.478838 0.484831
O O11 0.089945 0.477721 0.303745
O O12 0.988573 0.533286 0.376004
O O13 0.442382 0.750000 0.580064
O O14 0.910968 0.250000 0.794963
O O15 0.974952 0.507235 0.836061
O O16 0.826682 0.250000 0.127820
O O17 0.914607 0.040884 0.115555
O O18 0.467618 0.250000 0.899358
O O19 0.500000 0.500000 0.000000
#
# Coordination Sequence:
#
# PCOD9451011 Si02
#       7
#     8   8   8   8   8   8   8
#     4  11  24  40  57  79 110 151 192 231 282 340
#     4   9  17  30  49  73 102 137 175 215 261 315
#     4   9  18  34  58  84 112 143 177 224 282 337
#     4  10  20  35  57  85 112 140 180 230 281 334
#     4   9  17  31  50  75 106 138 175 218 266 321
#     4  11  21  35  55  81 109 141 184 229 278 334
#     4  11  20  32  51  78 112 147 183 226 274 325
#
# _framework density 20.355426000000001
#
# number of rings (size 3 to 8) (size 9 to 14) (size 15 to 20)
#    0.000    2.000    1.429    3.000    0.000    3.429 
#    0.000    1.429    0.000    2.571    0.000    0.000 
#    0.000    0.000    0.000    0.000    0.000    0.000 
#
# Total GULP energy -312665.659858 kJ/mol
# GULP energy per Si atom -5583.315355 kJ/mol
# Density = 2.030910 g / cm^3
# Si number density = 20.355426 Si / 1000 Ang^3
#
#
#
# Elastic Constant Matrix: (Units=GPa)
#
#
# Indices 1 2 3 4 5 6 
#
# 1 94.1854 -14.2803 38.3358 0.0000 0.0000 0.0000
# 2 -14.2803 28.4601 -6.8436 0.0000 0.0000 0.0000
# 3 38.3358 -6.8436 115.5422 0.0000 0.0000 0.0000
# 4 0.0000 0.0000 0.0000 13.7354 0.0000 0.0000
# 5 0.0000 0.0000 0.0000 0.0000 10.1300 0.0000
# 6 0.0000 0.0000 0.0000 0.0000 0.0000 11.7280
#
#
#
# Elastic Compliance Matrix: (Units=1/GPa)
#
#
# Indices 1 2 3 4 5 6 
#
# 1 0.013102 0.005609 -0.004015 0.000000 0.000000 0.000000
# 2 0.005609 0.038046 0.000393 0.000000 0.000000 0.000000
# 3 -0.004015 0.000393 0.010010 0.000000 0.000000 0.000000
# 4 0.000000 0.000000 0.000000 0.072804 0.000000 0.000000
# 5 0.000000 0.000000 0.000000 0.000000 0.098717 0.000000
# 6 0.000000 0.000000 0.000000 0.000000 0.000000 0.085266
#
#
# Mechanical properties :
#
#
# Convention : Reuss Voigt Hill
#
# Bulk Modulus (GPa) = 15.35384 30.29018 22.82201
# Shear Modulus (GPa) = 14.89503 21.85040 18.37272
#
# Velocity S-wave (km/s) = 2.70802 3.27990 3.00758
# Velocity P-wave (km/s) = 4.16378 5.40894 4.82668
#
# Compressibility (1/GPa) = 0.06513028
#
# Stress axis : x y z
#
# Youngs Moduli (GPa) = 76.32492 26.28428 99.89816
#
# Poissons Ratio (x) = -0.14742 0.40108
# Poissons Ratio (y) = -0.42808 -0.03922
# Poissons Ratio (z) = 0.30644 -0.01032
#
# Static dielectric constant tensor:
#      x y z
#    x 1.706870 0.000000 0.000000 
#    y 0.000000 1.786230 0.000000 
#    z 0.000000 0.000000 1.734470 
# 
# From -- ./inp_files/24300.got.cif
#   From: 2010.05.17/outbox.cif.g08.bks.cpg/sg59_13_cif.got.tgz:24300.got - 2010.06.03 14:40:33.
