data_PCOD9451345
_publ_section_title
;
Structure prediction by ZEFSAII (Michael W. Deem and Ramdas Pophale) SiO2 
 PCOD9451345
Probable space group: P M M N
;
_chemical_formula_sum "Si O2"
_cell_formula_units_Z 56
_cell_length_a 16.361501
_cell_length_b 8.640755
_cell_length_c 20.182250
_cell_angle_alpha 90.000000
_cell_angle_beta 90.000000
_cell_angle_gamma 90.000000
_cell_volume 2853.280157
_symmetry_space_group_name_H-M "P M M N"
_symmetry_group_IT_number 59
_space_group.IT_coordinate_system_code '2'
_symmetry_cell_setting 'orthorhombic'
loop_
_space_group_symop_operation_xyz
x,y,z
1/2-x,1/2-y,z
1/2+x,-y,-z
-x,1/2+y,-z
-x,-y,-z
1/2+x,1/2+y,-z
1/2-x,y,z
x,1/2-y,z
loop_
_atom_site_type_symbol
_atom_site_label
_atom_site_fract_x
_atom_site_fract_y
_atom_site_fract_z
Si Si1 0.412841 0.436519 0.976326
Si Si2 0.652704 0.935360 0.431767
Si Si3 0.250000 0.936371 0.049059
Si Si4 0.250000 0.935235 0.205031
Si Si5 0.575694 0.936522 0.294169
Si Si6 0.651216 0.074158 0.571571
Si Si7 0.158353 0.438334 0.839208
Si Si8 0.602054 0.567827 0.708858
O O1 0.412733 0.250000 0.980832
O O2 0.333094 0.498252 0.015801
O O3 0.500000 0.500000 0.000000
O O4 0.399828 0.483116 0.899465
O O5 0.750000 0.964114 0.423398
O O6 0.642503 0.750000 0.438348
O O7 0.606183 0.990664 0.366133
O O8 0.624403 0.014408 0.499701
O O9 0.250000 0.750000 0.042829
O O10 0.250000 0.976248 0.127380
O O11 0.250000 0.750000 0.210582
O O12 0.328776 0.999435 0.243393
O O13 0.579942 0.750000 0.295978
O O14 0.631395 0.991115 0.233273
O O15 0.484506 0.988472 0.279087
O O16 0.750000 0.074394 0.570844
O O17 0.622562 0.250000 0.583034
O O18 0.624526 0.969735 0.632697
O O19 0.250000 0.490077 0.854573
O O20 0.158753 0.250000 0.837741
O O21 0.596766 0.750000 0.718737
#
# Coordination Sequence:
#
# PCOD9451345 Si02
#       8
#     8   8   4   4   8   8   8   8
#     4  11  23  41  66  98 135 172 214 264 317 379
#     4   9  18  34  58  88 118 152 200 255 302 350
#     4  11  25  45  69  97 128 169 216 263 321 384
#     4  11  25  45  67  87 116 157 202 247 305 376
#     4  10  21  37  60  88 121 159 202 250 303 361
#     4  10  20  36  60  84 113 157 202 245 300 366
#     4   9  18  37  65  92 120 162 209 250 300 364
#     4  12  25  40  60  88 121 155 197 250 305 361
#
# _framework density 19.626535000000001
#
# number of rings (size 3 to 8) (size 9 to 14) (size 15 to 20)
#    0.000    1.714    1.429    3.000    2.000    4.571 
#    0.000    0.714    0.000    0.857    0.000    0.000 
#    0.000    0.000    0.000    0.000    0.000    0.000 
#
# Total GULP energy -312851.308912 kJ/mol
# GULP energy per Si atom -5586.630516 kJ/mol
# Density = 1.958186 g / cm^3
# Si number density = 19.626535 Si / 1000 Ang^3
#
#
#
# Elastic Constant Matrix: (Units=GPa)
#
#
# Indices 1 2 3 4 5 6 
#
# 1 69.3887 1.7439 23.2326 0.0000 0.0000 0.0000
# 2 1.7439 19.1896 14.3261 0.0000 0.0000 0.0000
# 3 23.2326 14.3261 107.0796 0.0000 0.0000 0.0000
# 4 0.0000 0.0000 0.0000 27.7837 0.0000 0.0000
# 5 0.0000 0.0000 0.0000 0.0000 41.4038 0.0000
# 6 0.0000 0.0000 0.0000 0.0000 0.0000 25.5637
#
#
#
# Elastic Compliance Matrix: (Units=1/GPa)
#
#
# Indices 1 2 3 4 5 6 
#
# 1 0.015567 0.001230 -0.003542 0.000000 0.000000 0.000000
# 2 0.001230 0.057991 -0.008025 0.000000 0.000000 0.000000
# 3 -0.003542 -0.008025 0.011181 0.000000 0.000000 0.000000
# 4 0.000000 0.000000 0.000000 0.035992 0.000000 0.000000
# 5 0.000000 0.000000 0.000000 0.000000 0.024152 0.000000
# 6 0.000000 0.000000 0.000000 0.000000 0.000000 0.039118
#
#
# Mechanical properties :
#
#
# Convention : Reuss Voigt Hill
#
# Bulk Modulus (GPa) = 15.60954 30.47368 23.04161
# Shear Modulus (GPa) = 22.12083 29.37393 25.74738
#
# Velocity S-wave (km/s) = 3.36085 3.87284 3.62590
# Velocity P-wave (km/s) = 4.79906 5.96314 5.41249
#
# Compressibility (1/GPa) = 0.06406337
#
# Stress axis : x y z
#
# Youngs Moduli (GPa) = 64.24021 17.24399 89.43715
#
# Poissons Ratio (x) = -0.02120 0.31678
# Poissons Ratio (y) = -0.07899 0.71777
# Poissons Ratio (z) = 0.22753 0.13839
#
# Static dielectric constant tensor:
#      x y z
#    x 1.670140 0.000000 0.000000 
#    y 0.000000 1.655210 0.000000 
#    z 0.000000 0.000000 1.685990 
# 
# From -- ./inp_files/30507.got.cif
#   From: 2010.05.17/outbox.cif.g08.bks.cpg/sg59_16_cif.got.tgz:30507.got - 2010.06.03 14:40:33.
