data_PCOD9451479
_publ_section_title
;
Structure prediction by ZEFSAII (Michael W. Deem and Ramdas Pophale) SiO2 
 PCOD9451479
Probable space group: P M M N
;
_chemical_formula_sum "Si O2"
_cell_formula_units_Z 56
_cell_length_a 15.563335
_cell_length_b 7.875489
_cell_length_c 22.508630
_cell_angle_alpha 90.000000
_cell_angle_beta 90.000000
_cell_angle_gamma 90.000000
_cell_volume 2758.857425
_symmetry_space_group_name_H-M "P M M N"
_symmetry_group_IT_number 59
_space_group.IT_coordinate_system_code '2'
_symmetry_cell_setting 'orthorhombic'
loop_
_space_group_symop_operation_xyz
x,y,z
1/2-x,1/2-y,z
1/2+x,-y,-z
-x,1/2+y,-z
-x,-y,-z
1/2+x,1/2+y,-z
1/2-x,y,z
x,1/2-y,z
loop_
_atom_site_type_symbol
_atom_site_label
_atom_site_fract_x
_atom_site_fract_y
_atom_site_fract_z
Si Si1 0.936041 0.548097 0.662796
Si Si2 0.155802 0.048362 0.856364
Si Si3 0.058101 0.954979 0.557249
Si Si4 0.512284 0.454052 0.795328
Si Si5 0.750000 0.042109 0.476272
Si Si6 0.342925 0.542639 0.114788
Si Si7 0.598299 0.452864 0.012693
Si Si8 0.250000 0.952228 0.386753
O O1 0.942533 0.750000 0.661308
O O2 0.838462 0.503677 0.644959
O O3 0.004768 0.480518 0.614355
O O4 0.959581 0.490435 0.728731
O O5 0.250000 0.973560 0.846662
O O6 0.160639 0.250000 0.845264
O O7 0.080810 0.978418 0.814492
O O8 0.129547 0.026831 0.925164
O O9 0.061698 0.750000 0.560023
O O10 0.157827 0.012956 0.551288
O O11 0.000000 0.000000 0.500000
O O12 0.510367 0.250000 0.802217
O O13 0.581258 0.519397 0.843221
O O14 0.750000 0.250000 0.475020
O O15 0.750000 0.985046 0.545125
O O16 0.250000 0.492469 0.138468
O O17 0.346597 0.750000 0.114099
O O18 0.352707 0.488396 0.046517
O O19 0.607068 0.250000 0.017031
O O20 0.500000 0.500000 0.000000
O O21 0.250000 0.750000 0.389480
#
# Coordination Sequence:
#
# PCOD9451479 Si02
#       8
#     8   8   8   8   4   8   8   4
#     4  11  24  39  57  88 125 154 188 247 299 335
#     4  10  21  39  61  84 112 150 197 249 298 347
#     4  10  20  37  60  85 117 151 189 237 289 339
#     4  10  21  39  59  79 110 155 199 233 281 354
#     4   9  18  35  61  89 113 149 196 231 276 349
#     4   9  18  33  54  80 107 139 184 232 280 339
#     4  11  20  34  57  84 115 148 187 240 297 352
#     4  11  21  37  65  91 115 157 198 227 276 361
#
# _framework density 20.298258000000001
#
# number of rings (size 3 to 8) (size 9 to 14) (size 15 to 20)
#    0.000    1.857    2.857    1.500    1.000    2.000 
#    1.286    0.357    0.000    1.714    0.000    0.000 
#    0.000    0.000    0.000    0.000    0.000    0.000 
#
# Total GULP energy -312655.900386 kJ/mol
# GULP energy per Si atom -5583.141078 kJ/mol
# Density = 2.025206 g / cm^3
# Si number density = 20.298258 Si / 1000 Ang^3
#
#
#
# Elastic Constant Matrix: (Units=GPa)
#
#
# Indices 1 2 3 4 5 6 
#
# 1 215.0486 3.8273 81.1965 0.0000 0.0000 0.0000
# 2 3.8273 19.9945 -6.6443 0.0000 0.0000 0.0000
# 3 81.1965 -6.6443 116.5460 0.0000 0.0000 0.0000
# 4 0.0000 0.0000 0.0000 23.2493 0.0000 0.0000
# 5 0.0000 0.0000 0.0000 0.0000 5.3828 0.0000
# 6 0.0000 0.0000 0.0000 0.0000 0.0000 3.6970
#
#
#
# Elastic Compliance Matrix: (Units=1/GPa)
#
#
# Indices 1 2 3 4 5 6 
#
# 1 0.006459 -0.002784 -0.004658 0.000000 0.000000 0.000000
# 2 -0.002784 0.052180 0.004915 0.000000 0.000000 0.000000
# 3 -0.004658 0.004915 0.012106 0.000000 0.000000 0.000000
# 4 0.000000 0.000000 0.000000 0.043012 0.000000 0.000000
# 5 0.000000 0.000000 0.000000 0.000000 0.185777 0.000000
# 6 0.000000 0.000000 0.000000 0.000000 0.000000 0.270493
#
#
# Mechanical properties :
#
#
# Convention : Reuss Voigt Hill
#
# Bulk Modulus (GPa) = 15.22342 56.48313 35.85327
# Shear Modulus (GPa) = 8.37551 24.67979 16.52765
#
# Velocity S-wave (km/s) = 2.03351 3.49070 2.85658
# Velocity P-wave (km/s) = 3.60967 6.64331 5.34618
#
# Compressibility (1/GPa) = 0.06568828
#
# Stress axis : x y z
#
# Youngs Moduli (GPa) = 154.83424 19.16445 82.60441
#
# Poissons Ratio (x) = 0.05336 0.38480
# Poissons Ratio (y) = 0.43110 -0.40596
# Poissons Ratio (z) = 0.72127 -0.09418
#
# Static dielectric constant tensor:
#      x y z
#    x 1.754480 0.000000 0.000000 
#    y 0.000000 1.730560 0.000000 
#    z 0.000000 0.000000 1.695830 
# 
# From -- ./inp_files/30424.got.cif
#   From: 2010.05.17/outbox.cif.g08.bks.cpg/sg59_16_cif.got.tgz:30424.got - 2010.06.03 14:40:33.
