data_PCOD9451122
_publ_section_title
;
Structure prediction by ZEFSAII (Michael W. Deem and Ramdas Pophale) SiO2 
 PCOD9451122
Probable space group: P M M N
;
_chemical_formula_sum "Si O2"
_cell_formula_units_Z 48
_cell_length_a 21.073823
_cell_length_b 13.866898
_cell_length_c 8.267102
_cell_angle_alpha 90.000000
_cell_angle_beta 90.000000
_cell_angle_gamma 90.000000
_cell_volume 2415.883263
_symmetry_space_group_name_H-M "P M M N"
_symmetry_group_IT_number 59
_space_group.IT_coordinate_system_code '2'
_symmetry_cell_setting 'orthorhombic'
loop_
_space_group_symop_operation_xyz
x,y,z
1/2-x,1/2-y,z
1/2+x,-y,-z
-x,1/2+y,-z
-x,-y,-z
1/2+x,1/2+y,-z
1/2-x,y,z
x,1/2-y,z
loop_
_atom_site_type_symbol
_atom_site_label
_atom_site_fract_x
_atom_site_fract_y
_atom_site_fract_z
Si Si1 0.178986 0.450050 0.783548
Si Si2 0.930121 0.137171 0.769548
Si Si3 0.410690 0.496593 0.526779
Si Si4 0.680633 0.144000 0.030195
Si Si5 0.004881 0.134230 0.317323
Si Si6 0.442574 0.135171 0.960690
O O1 0.250000 0.408382 0.799459
O O2 0.153006 0.453769 0.601281
O O3 0.181973 0.560107 0.841527
O O4 0.123953 0.403815 0.894371
O O5 0.934404 0.250000 0.718321
O O6 0.908643 0.067698 0.626040
O O7 0.877152 0.131485 0.908359
O O8 0.997528 0.107877 0.847734
O O9 0.452861 0.405970 0.466456
O O10 0.443753 0.565405 0.661975
O O11 0.750000 0.141165 0.945478
O O12 0.673947 0.250000 0.105414
O O13 0.993232 0.250000 0.325475
O O14 0.039765 0.113018 0.147022
O O15 0.439216 0.250000 0.951813
#
# Coordination Sequence:
#
# PCOD9451122 Si02
#       6
#     8   8   8   8   8   8
#     4  11  24  39  55  78 111 151 193 234 277 329
#     4  10  20  35  59  89 116 144 182 228 278 335
#     4  11  22  34  55  85 119 149 175 220 287 345
#     4   9  19  36  56  79 111 151 191 230 274 330
#     4  10  21  37  59  87 115 142 179 231 285 338
#     4  10  21  39  62  84 107 141 190 240 280 323
#
# _framework density 19.868510000000001
#
# number of rings (size 3 to 8) (size 9 to 14) (size 15 to 20)
#    0.000    1.833    0.000    4.500    0.000    7.667 
#    0.000    0.833    0.000    1.000    0.000    0.000 
#    0.000    0.000    0.000    0.000    0.000    0.000 
#
# Total GULP energy -267838.299744 kJ/mol
# GULP energy per Si atom -5579.964578 kJ/mol
# Density = 1.982329 g / cm^3
# Si number density = 19.868510 Si / 1000 Ang^3
#
#
#
# Elastic Constant Matrix: (Units=GPa)
#
#
# Indices 1 2 3 4 5 6 
#
# 1 122.1940 13.1257 34.9438 0.0000 0.0000 0.0000
# 2 13.1257 76.9258 17.4551 0.0000 0.0000 0.0000
# 3 34.9438 17.4551 72.3670 0.0000 0.0000 0.0000
# 4 0.0000 0.0000 0.0000 21.2824 0.0000 0.0000
# 5 0.0000 0.0000 0.0000 0.0000 27.9772 0.0000
# 6 0.0000 0.0000 0.0000 0.0000 0.0000 20.6658
#
#
#
# Elastic Compliance Matrix: (Units=1/GPa)
#
#
# Indices 1 2 3 4 5 6 
#
# 1 0.009522 -0.000615 -0.004450 0.000000 0.000000 0.000000
# 2 -0.000615 0.013792 -0.003030 0.000000 0.000000 0.000000
# 3 -0.004450 -0.003030 0.016698 0.000000 0.000000 0.000000
# 4 0.000000 0.000000 0.000000 0.046987 0.000000 0.000000
# 5 0.000000 0.000000 0.000000 0.000000 0.035743 0.000000
# 6 0.000000 0.000000 0.000000 0.000000 0.000000 0.048389
#
#
# Mechanical properties :
#
#
# Convention : Reuss Voigt Hill
#
# Bulk Modulus (GPa) = 41.97583 44.72623 43.35103
# Shear Modulus (GPa) = 25.60667 27.71588 26.66128
#
# Velocity S-wave (km/s) = 3.59389 3.73898 3.66715
# Velocity P-wave (km/s) = 6.19630 6.41871 6.30849
#
# Compressibility (1/GPa) = 0.02382323
#
# Stress axis : x y z
#
# Youngs Moduli (GPa) = 105.01732 72.50604 59.88817
#
# Poissons Ratio (x) = 0.04460 0.26648
# Poissons Ratio (y) = 0.06460 0.18144
# Poissons Ratio (z) = 0.46729 0.21967
#
# Static dielectric constant tensor:
#      x y z
#    x 1.751420 0.000000 0.000000 
#    y 0.000000 1.715200 0.000000 
#    z 0.000000 0.000000 1.710760 
# 
# From -- ./inp_files/10262.got.cif
#   From: 2010.05.17/outbox.cif.g08.bks.cpg/sg59_6_cif.got.tgz:10262.got - 2010.06.03 14:40:33.
