data_PCOD9451270
_publ_section_title
;
Structure prediction by ZEFSAII (Michael W. Deem and Ramdas Pophale) SiO2 
 PCOD9451270
Probable space group: P M M N
;
_chemical_formula_sum "Si O2"
_cell_formula_units_Z 48
_cell_length_a 16.985666
_cell_length_b 14.821781
_cell_length_c 7.364682
_cell_angle_alpha 90.000000
_cell_angle_beta 90.000000
_cell_angle_gamma 90.000000
_cell_volume 1854.116297
_symmetry_space_group_name_H-M "P M M N"
_symmetry_group_IT_number 59
_space_group.IT_coordinate_system_code '2'
_symmetry_cell_setting 'orthorhombic'
loop_
_space_group_symop_operation_xyz
x,y,z
1/2-x,1/2-y,z
1/2+x,-y,-z
-x,1/2+y,-z
-x,-y,-z
1/2+x,1/2+y,-z
1/2-x,y,z
x,1/2-y,z
loop_
_atom_site_type_symbol
_atom_site_label
_atom_site_fract_x
_atom_site_fract_y
_atom_site_fract_z
Si Si1 0.165044 0.114510 0.717391
Si Si2 0.834681 0.099705 0.205845
Si Si3 0.505482 0.921851 0.350696
Si Si4 0.334912 0.147677 0.146632
Si Si5 0.503843 0.640193 0.959279
Si Si6 0.332337 0.850011 0.387185
O O1 0.250000 0.139772 0.635799
O O2 0.165568 0.149609 0.924489
O O3 0.085235 0.136437 0.608792
O O4 0.163082 0.005483 0.736049
O O5 0.750000 0.114655 0.109923
O O6 0.832301 0.152181 0.394627
O O7 0.915250 0.125087 0.108452
O O8 0.517657 0.924004 0.132778
O O9 0.417334 0.885855 0.345791
O O10 0.500000 0.000000 0.500000
O O11 0.250000 0.104163 0.196497
O O12 0.332809 0.250000 0.213427
O O13 0.424326 0.113831 0.178093
O O14 0.511227 0.750000 0.995476
O O15 0.250000 0.897346 0.335249
O O16 0.329924 0.750000 0.310011
#
# Coordination Sequence:
#
# PCOD9451270 Si02
#       6
#     8   8   8   8   8   8
#     4   9  18  34  56  80 112 149 194 244 291 351
#     4  10  20  36  58  83 113 154 199 245 299 353
#     4  11  21  35  56  85 116 155 196 242 292 354
#     4   8  15  29  49  73 101 136 178 226 281 338
#     4  10  21  35  55  83 112 143 190 245 287 336
#     4  10  21  38  59  82 115 160 203 245 299 360
#
# _framework density 25.888344
#
# number of rings (size 3 to 8) (size 9 to 14) (size 15 to 20)
#    0.000    2.333    1.667    1.000    0.000    5.000 
#    0.000    0.000    0.000    2.000    0.000    0.000 
#    0.000    0.000    0.000    0.000    0.000    0.000 
#
# Total GULP energy -267355.261420 kJ/mol
# GULP energy per Si atom -5569.901280 kJ/mol
# Density = 2.582942 g / cm^3
# Si number density = 25.888344 Si / 1000 Ang^3
#
#
#
# Elastic Constant Matrix: (Units=GPa)
#
#
# Indices 1 2 3 4 5 6 
#
# 1 330.4561 22.9431 25.1864 0.0000 0.0000 0.0000
# 2 22.9431 94.8471 4.7378 0.0000 0.0000 0.0000
# 3 25.1864 4.7378 71.6118 0.0000 0.0000 0.0000
# 4 0.0000 0.0000 0.0000 15.5164 0.0000 0.0000
# 5 0.0000 0.0000 0.0000 0.0000 2.1360 0.0000
# 6 0.0000 0.0000 0.0000 0.0000 0.0000 3.5601
#
#
#
# Elastic Compliance Matrix: (Units=1/GPa)
#
#
# Indices 1 2 3 4 5 6 
#
# 1 0.003156 -0.000710 -0.001063 0.000000 0.000000 0.000000
# 2 -0.000710 0.010738 -0.000461 0.000000 0.000000 0.000000
# 3 -0.001063 -0.000461 0.014369 0.000000 0.000000 0.000000
# 4 0.000000 0.000000 0.000000 0.064448 0.000000 0.000000
# 5 0.000000 0.000000 0.000000 0.000000 0.468174 0.000000
# 6 0.000000 0.000000 0.000000 0.000000 0.000000 0.280892
#
#
# Mechanical properties :
#
#
# Convention : Reuss Voigt Hill
#
# Bulk Modulus (GPa) = 42.02585 66.96108 54.49347
# Shear Modulus (GPa) = 5.85358 33.84566 19.84962
#
# Velocity S-wave (km/s) = 1.50532 3.61968 2.77201
# Velocity P-wave (km/s) = 4.39205 6.58718 5.59826
#
# Compressibility (1/GPa) = 0.02379488
#
# Stress axis : x y z
#
# Youngs Moduli (GPa) = 316.80900 93.12599 69.59631
#
# Poissons Ratio (x) = 0.06616 0.07399
# Poissons Ratio (y) = 0.22507 0.03205
# Poissons Ratio (z) = 0.33682 0.04289
#
# Static dielectric constant tensor:
#      x y z
#    x 2.237150 0.000000 0.000000 
#    y 0.000000 2.068140 0.000000 
#    z 0.000000 0.000000 2.059610 
# 
# From -- ./inp_files/9040.got.cif
#   From: 2010.05.17/outbox.cif.g08.bks.cpg/sg59_5_cif.got.tgz:9040.got - 2010.06.03 14:40:33.
