data_PCOD9451687
_publ_section_title
;
Structure prediction by ZEFSAII (Michael W. Deem and Ramdas Pophale) SiO2 
 PCOD9451687
Probable space group: P M M N
;
_chemical_formula_sum "Si O2"
_cell_formula_units_Z 64
_cell_length_a 7.565954
_cell_length_b 15.284384
_cell_length_c 24.629648
_cell_angle_alpha 90.000000
_cell_angle_beta 90.000000
_cell_angle_gamma 90.000000
_cell_volume 2848.195801
_symmetry_space_group_name_H-M "P M M N"
_symmetry_group_IT_number 59
_space_group.IT_coordinate_system_code '2'
_symmetry_cell_setting 'orthorhombic'
loop_
_space_group_symop_operation_xyz
x,y,z
1/2-x,1/2-y,z
1/2+x,-y,-z
-x,1/2+y,-z
-x,-y,-z
1/2+x,1/2+y,-z
1/2-x,y,z
x,1/2-y,z
loop_
_atom_site_type_symbol
_atom_site_label
_atom_site_fract_x
_atom_site_fract_y
_atom_site_fract_z
Si Si1 0.036183 0.531604 0.629830
Si Si2 0.045671 0.843860 0.250553
Si Si3 0.540518 0.650883 0.847631
Si Si4 0.963454 0.149916 0.469764
Si Si5 0.540303 0.013623 0.063037
Si Si6 0.456641 0.152540 0.594337
Si Si7 0.459693 0.463864 0.253484
Si Si8 0.035815 0.343532 0.874965
O O1 0.250000 0.529493 0.627794
O O2 0.975172 0.585095 0.577184
O O3 0.967608 0.431608 0.624938
O O4 0.983850 0.575642 0.686712
O O5 0.250000 0.844280 0.268653
O O6 0.967067 0.750000 0.269170
O O7 0.040458 0.841812 0.185190
O O8 0.960820 0.938494 0.260423
O O9 0.750000 0.657883 0.837889
O O10 0.468992 0.750000 0.848775
O O11 0.519971 0.599460 0.904406
O O12 0.469532 0.591546 0.797479
O O13 0.750000 0.145217 0.472574
O O14 0.012154 0.250000 0.456560
O O15 0.031763 0.131539 0.530164
O O16 0.750000 0.013415 0.068524
O O17 0.469598 0.928205 0.094090
O O18 0.500000 0.000000 0.000000
O O19 0.250000 0.157699 0.608791
O O20 0.534384 0.250000 0.602320
O O21 0.250000 0.475560 0.243512
O O22 0.250000 0.348258 0.870358
O O23 0.993710 0.250000 0.901848
#
# Coordination Sequence:
#
# PCOD9451687 Si02
#       8
#     8   8   8   8   8   8   8   8
#     4  10  21  34  50  75 107 141 178 223 273 325
#     4   9  17  31  53  78 103 133 171 218 270 323
#     4  10  22  42  64  84 113 154 196 240 289 335
#     4   9  18  33  52  74 101 134 175 224 276 326
#     4  11  23  38  60  89 120 151 188 232 280 336
#     4   9  18  33  52  75 104 138 176 219 270 329
#     4  10  21  36  54  79 110 144 185 230 278 332
#     4   9  18  33  54  80 108 138 173 215 265 322
#
# _framework density 22.470365000000001
#
# number of rings (size 3 to 8) (size 9 to 14) (size 15 to 20)
#    0.000    2.375    1.250    0.750    0.000    4.250 
#    0.000    1.250    0.000    0.000    0.000    0.000 
#    0.000    0.000    0.000    0.000    0.000    0.000 
#
# Total GULP energy -357161.491477 kJ/mol
# GULP energy per Si atom -5580.648304 kJ/mol
# Density = 2.241922 g / cm^3
# Si number density = 22.470365 Si / 1000 Ang^3
#
#
#
# Elastic Constant Matrix: (Units=GPa)
#
#
# Indices 1 2 3 4 5 6 
#
# 1 58.3965 12.0381 -7.4862 0.0000 0.0000 0.0000
# 2 12.0381 142.6074 73.7039 0.0000 0.0000 0.0000
# 3 -7.4862 73.7039 137.2765 0.0000 0.0000 0.0000
# 4 0.0000 0.0000 0.0000 -3.3752 0.0000 0.0000
# 5 0.0000 0.0000 0.0000 0.0000 17.6339 0.0000
# 6 0.0000 0.0000 0.0000 0.0000 0.0000 2.8405
#
#
#
# Elastic Compliance Matrix: (Units=1/GPa)
#
#
# Indices 1 2 3 4 5 6 
#
# 1 0.018023 -0.002809 0.002491 0.000000 0.000000 0.000000
# 2 -0.002809 0.010143 -0.005599 0.000000 0.000000 0.000000
# 3 0.002491 -0.005599 0.010427 0.000000 0.000000 0.000000
# 4 0.000000 0.000000 0.000000 -0.296275 0.000000 0.000000
# 5 0.000000 0.000000 0.000000 0.000000 0.056709 0.000000
# 6 0.000000 0.000000 0.000000 0.000000 0.000000 0.352051
#
#
# Mechanical properties :
#
#
# Convention : Reuss Voigt Hill
#
# Bulk Modulus (GPa) = 37.37133 54.97690 46.17412
# Shear Modulus (GPa) = 29.09834 20.75480 24.92657
#
# Velocity S-wave (km/s) = 3.60247 3.04246 3.33424
# Velocity P-wave (km/s) = 5.82848 6.07138 5.95117
#
# Compressibility (1/GPa) = 0.02675848
#
# Stress axis : x y z
#
# Youngs Moduli (GPa) = 55.48581 98.58922 95.90925
#
# Poissons Ratio (x) = 0.27691 -0.23890
# Poissons Ratio (y) = 0.15584 0.53700
# Poissons Ratio (z) = -0.13821 0.55200
#
# Static dielectric constant tensor:
#      x y z
#    x 1.849780 0.000000 0.000000 
#    y 0.000000 1.891050 0.000000 
#    z 0.000000 0.000000 1.958620 
# 
# From -- ./inp_files/31405.got.cif
#   From: 2010.05.17/outbox.cif.g08.bks.cpg/sg59_16_cif.got.tgz:31405.got - 2010.06.03 14:40:33.
