data_PCOD9451788
_publ_section_title
;
Structure prediction by ZEFSAII (Michael W. Deem and Ramdas Pophale) SiO2 
 PCOD9451788
Probable space group: P M M N
;
_chemical_formula_sum "Si O2"
_cell_formula_units_Z 56
_cell_length_a 9.377879
_cell_length_b 18.887529
_cell_length_c 16.704716
_cell_angle_alpha 90.000000
_cell_angle_beta 90.000000
_cell_angle_gamma 90.000000
_cell_volume 2958.822180
_symmetry_space_group_name_H-M "P M M N"
_symmetry_group_IT_number 59
_space_group.IT_coordinate_system_code '2'
_symmetry_cell_setting 'orthorhombic'
loop_
_space_group_symop_operation_xyz
x,y,z
1/2-x,1/2-y,z
1/2+x,-y,-z
-x,1/2+y,-z
-x,-y,-z
1/2+x,1/2+y,-z
1/2-x,y,z
x,1/2-y,z
loop_
_atom_site_type_symbol
_atom_site_label
_atom_site_fract_x
_atom_site_fract_y
_atom_site_fract_z
Si Si1 0.082440 0.037513 0.427009
Si Si2 0.583924 0.450414 0.265192
Si Si3 0.079359 0.424230 0.004068
Si Si4 0.583779 0.830960 0.472414
Si Si5 0.913455 0.595507 0.178084
Si Si6 0.578853 0.166088 0.139782
Si Si7 0.912424 0.335260 0.682635
O O1 0.250000 0.018775 0.427344
O O2 0.068340 0.120225 0.450760
O O3 0.011478 0.028553 0.340727
O O4 0.000000 0.000000 0.500000
O O5 0.750000 0.448114 0.290617
O O6 0.571400 0.512181 0.198700
O O7 0.546969 0.376675 0.221851
O O8 0.250000 0.433418 0.017900
O O9 0.061068 0.391990 0.915172
O O10 0.000000 0.500000 0.000000
O O11 0.008331 0.373552 0.070019
O O12 0.750000 0.832606 0.448714
O O13 0.542498 0.750000 0.488337
O O14 0.494883 0.858818 0.397024
O O15 0.750000 0.614944 0.196890
O O16 0.015176 0.636584 0.237681
O O17 0.750000 0.157564 0.125862
O O18 0.548210 0.250000 0.143790
O O19 0.750000 0.358761 0.678284
O O20 0.917511 0.250000 0.683080
#
# Coordination Sequence:
#
# PCOD9451788 Si02
#       7
#     8   8   8   8   8   8   8
#     4  11  23  37  56  85 116 149 192 243 295 347
#     4  10  21  39  59  83 116 154 194 239 291 351
#     4  11  22  39  63  89 119 155 199 247 296 353
#     4   9  19  37  57  75 104 148 189 228 282 343
#     4  10  21  37  58  82 112 151 192 231 280 347
#     4  10  22  42  65  90 124 163 201 246 303 361
#     4  10  21  35  53  82 115 144 184 238 288 339
#
# _framework density 18.926449999999999
#
# number of rings (size 3 to 8) (size 9 to 14) (size 15 to 20)
#    0.000    1.857    1.429    2.143    0.000    9.143 
#    0.000    2.857    0.000    0.000    0.000    0.000 
#    0.000    0.000    0.000    0.000    0.000    0.000 
#
# Total GULP energy -312655.931963 kJ/mol
# GULP energy per Si atom -5583.141642 kJ/mol
# Density = 1.888337 g / cm^3
# Si number density = 18.926450 Si / 1000 Ang^3
#
#
#
# Elastic Constant Matrix: (Units=GPa)
#
#
# Indices 1 2 3 4 5 6 
#
# 1 61.3953 32.1996 48.4215 0.0000 0.0000 0.0000
# 2 32.1996 63.5895 28.0274 0.0000 0.0000 0.0000
# 3 48.4215 28.0274 92.9271 0.0000 0.0000 0.0000
# 4 0.0000 0.0000 0.0000 31.0784 0.0000 0.0000
# 5 0.0000 0.0000 0.0000 0.0000 30.5858 0.0000
# 6 0.0000 0.0000 0.0000 0.0000 0.0000 26.4631
#
#
#
# Elastic Compliance Matrix: (Units=1/GPa)
#
#
# Indices 1 2 3 4 5 6 
#
# 1 0.032734 -0.010446 -0.013906 0.000000 0.000000 0.000000
# 2 -0.010446 0.021471 -0.001032 0.000000 0.000000 0.000000
# 3 -0.013906 -0.001032 0.018319 0.000000 0.000000 0.000000
# 4 0.000000 0.000000 0.000000 0.032177 0.000000 0.000000
# 5 0.000000 0.000000 0.000000 0.000000 0.032695 0.000000
# 6 0.000000 0.000000 0.000000 0.000000 0.000000 0.037789
#
#
# Mechanical properties :
#
#
# Convention : Reuss Voigt Hill
#
# Bulk Modulus (GPa) = 45.96931 48.35654 47.16293
# Shear Modulus (GPa) = 21.44045 24.90969 23.17507
#
# Velocity S-wave (km/s) = 3.36941 3.63179 3.50305
# Velocity P-wave (km/s) = 6.28318 6.57204 6.42923
#
# Compressibility (1/GPa) = 0.02175364
#
# Stress axis : x y z
#
# Youngs Moduli (GPa) = 30.54919 46.57539 54.58952
#
# Poissons Ratio (x) = 0.48654 0.75913
# Poissons Ratio (y) = 0.31913 0.05636
# Poissons Ratio (z) = 0.42482 0.04808
#
# Static dielectric constant tensor:
#      x y z
#    x 1.642510 0.000000 0.000000 
#    y 0.000000 1.690580 0.000000 
#    z 0.000000 0.000000 1.619430 
# 
# From -- ./inp_files/20941.got.cif
#   From: 2010.05.17/outbox.cif.g08.bks.cpg/sg59_11_cif.got.tgz:20941.got - 2010.06.03 14:40:33.
