data_PCOD9451022
_publ_section_title
;
Structure prediction by ZEFSAII (Michael W. Deem and Ramdas Pophale) SiO2 
 PCOD9451022
Probable space group: P M M N
;
_chemical_formula_sum "Si O2"
_cell_formula_units_Z 64
_cell_length_a 22.735327
_cell_length_b 8.869012
_cell_length_c 17.891669
_cell_angle_alpha 90.000000
_cell_angle_beta 90.000000
_cell_angle_gamma 90.000000
_cell_volume 3607.674133
_symmetry_space_group_name_H-M "P M M N"
_symmetry_group_IT_number 59
_space_group.IT_coordinate_system_code '2'
_symmetry_cell_setting 'orthorhombic'
loop_
_space_group_symop_operation_xyz
x,y,z
1/2-x,1/2-y,z
1/2+x,-y,-z
-x,1/2+y,-z
-x,-y,-z
1/2+x,1/2+y,-z
1/2-x,y,z
x,1/2-y,z
loop_
_atom_site_type_symbol
_atom_site_label
_atom_site_fract_x
_atom_site_fract_y
_atom_site_fract_z
Si Si1 0.858210 0.070793 0.902840
Si Si2 0.018565 0.072882 0.078498
Si Si3 0.447918 0.069405 0.671653
Si Si4 0.585296 0.068975 0.647163
Si Si5 0.183967 0.430078 0.246276
Si Si6 0.680372 0.573351 0.058843
Si Si7 0.565124 0.569426 0.494702
Si Si8 0.597459 0.425782 0.179129
O O1 0.853548 0.250000 0.896989
O O2 0.925172 0.016335 0.892021
O O3 0.821290 0.991189 0.838039
O O4 0.839397 0.017042 0.985169
O O5 0.032863 0.250000 0.068674
O O6 0.963924 0.060890 0.134190
O O7 0.000000 0.000000 0.000000
O O8 0.447033 0.250000 0.682294
O O9 0.517545 0.025043 0.667983
O O10 0.418209 0.036708 0.591138
O O11 0.414757 0.990165 0.739065
O O12 0.587083 0.250000 0.645510
O O13 0.632692 0.005538 0.705034
O O14 0.598442 0.003540 0.564488
O O15 0.250000 0.463968 0.274531
O O16 0.176022 0.250000 0.246276
O O17 0.750000 0.555223 0.068969
O O18 0.667453 0.750000 0.046710
O O19 0.645218 0.514631 0.130551
O O20 0.500000 0.500000 0.500000
O O21 0.563035 0.750000 0.503596
O O22 0.613489 0.250000 0.181998
#
# Coordination Sequence:
#
# PCOD9451022 Si02
#       8
#     8   8   8   8   8   8   8   8
#     4  12  24  38  58  83 111 145 185 232 282 330
#     4  11  22  36  55  81 112 146 183 225 278 334
#     4   9  19  34  54  83 116 148 181 221 273 333
#     4  10  20  35  57  85 115 148 185 226 280 336
#     4  11  24  40  57  79 110 150 194 237 282 335
#     4  11  24  41  60  78 101 140 186 231 279 330
#     4   9  17  31  53  82 115 148 181 217 265 324
#     4  11  23  36  55  83 111 143 182 226 278 327
#
# _framework density 17.739961999999998
#
# number of rings (size 3 to 8) (size 9 to 14) (size 15 to 20)
#    0.000    1.500    1.250    5.250    0.000   10.000 
#    0.000    0.000    0.000    0.750    0.000    5.250 
#    0.000    0.000    0.000    0.000    0.000    0.000 
#
# Total GULP energy -357472.389533 kJ/mol
# GULP energy per Si atom -5585.506086 kJ/mol
# Density = 1.769959 g / cm^3
# Si number density = 17.739962 Si / 1000 Ang^3
#
#
#
# Elastic Constant Matrix: (Units=GPa)
#
#
# Indices 1 2 3 4 5 6 
#
# 1 47.3225 24.1728 9.3456 0.0000 0.0000 0.0000
# 2 24.1728 70.7160 33.4146 0.0000 0.0000 0.0000
# 3 9.3456 33.4146 95.8820 0.0000 0.0000 0.0000
# 4 0.0000 0.0000 0.0000 34.5863 0.0000 0.0000
# 5 0.0000 0.0000 0.0000 0.0000 13.4866 0.0000
# 6 0.0000 0.0000 0.0000 0.0000 0.0000 21.9719
#
#
#
# Elastic Compliance Matrix: (Units=1/GPa)
#
#
# Indices 1 2 3 4 5 6 
#
# 1 0.025637 -0.009078 0.000665 0.000000 0.000000 0.000000
# 2 -0.009078 0.020143 -0.006135 0.000000 0.000000 0.000000
# 3 0.000665 -0.006135 0.012503 0.000000 0.000000 0.000000
# 4 0.000000 0.000000 0.000000 0.028913 0.000000 0.000000
# 5 0.000000 0.000000 0.000000 0.000000 0.074148 0.000000
# 6 0.000000 0.000000 0.000000 0.000000 0.000000 0.045513
#
#
# Mechanical properties :
#
#
# Convention : Reuss Voigt Hill
#
# Bulk Modulus (GPa) = 34.26172 38.64294 36.45233
# Shear Modulus (GPa) = 20.35153 23.80810 22.07981
#
# Velocity S-wave (km/s) = 3.39073 3.66739 3.53177
# Velocity P-wave (km/s) = 5.88936 6.30581 6.10114
#
# Compressibility (1/GPa) = 0.02918710
#
# Stress axis : x y z
#
# Youngs Moduli (GPa) = 39.00565 49.64511 79.98255
#
# Poissons Ratio (x) = 0.45066 -0.05316
# Poissons Ratio (y) = 0.35408 0.49069
# Poissons Ratio (z) = -0.02593 0.30457
#
# Static dielectric constant tensor:
#      x y z
#    x 0.044620 0.000000 0.000000 
#    y 0.000000 1.591960 0.000000 
#    z 0.000000 0.000000 1.604540 
# 
# From -- ./inp_files/28187.got.cif
#   From: 2010.05.17/outbox.cif.g08.bks.cpg/sg59_15_cif.got.tgz:28187.got - 2010.06.03 14:40:33.
