data_PCOD9451842
_publ_section_title
;
Structure prediction by ZEFSAII (Michael W. Deem and Ramdas Pophale) SiO2 
 PCOD9451842
Probable space group: P M M N
;
_chemical_formula_sum "Si O2"
_cell_formula_units_Z 48
_cell_length_a 14.373671
_cell_length_b 7.604368
_cell_length_c 21.152532
_cell_angle_alpha 90.000000
_cell_angle_beta 90.000000
_cell_angle_gamma 90.000000
_cell_volume 2312.028517
_symmetry_space_group_name_H-M "P M M N"
_symmetry_group_IT_number 59
_space_group.IT_coordinate_system_code '2'
_symmetry_cell_setting 'orthorhombic'
loop_
_space_group_symop_operation_xyz
x,y,z
1/2-x,1/2-y,z
1/2+x,-y,-z
-x,1/2+y,-z
-x,-y,-z
1/2+x,1/2+y,-z
1/2-x,y,z
x,1/2-y,z
loop_
_atom_site_type_symbol
_atom_site_label
_atom_site_fract_x
_atom_site_fract_y
_atom_site_fract_z
Si Si1 0.644963 0.039018 0.527868
Si Si2 0.855891 0.462087 0.280006
Si Si3 0.151163 0.953407 0.125074
Si Si4 0.392091 0.041248 0.987433
Si Si5 0.037132 0.961124 0.597067
Si Si6 0.056572 0.460201 0.854979
O O1 0.750000 0.972847 0.536985
O O2 0.650344 0.250000 0.522562
O O3 0.598176 0.972491 0.462567
O O4 0.570282 0.001042 0.582510
O O5 0.750000 0.525646 0.287292
O O6 0.853574 0.250000 0.283840
O O7 0.921087 0.526734 0.337087
O O8 0.896098 0.507742 0.211643
O O9 0.250000 0.032101 0.147387
O O10 0.150117 0.750000 0.145864
O O11 0.050094 0.030962 0.143413
O O12 0.153667 0.957621 0.048670
O O13 0.372583 0.250000 0.990569
O O14 0.381797 0.977639 0.915112
O O15 0.500000 0.000000 0.000000
O O16 0.045712 0.750000 0.597117
O O17 0.048355 0.250000 0.865165
#
# Coordination Sequence:
#
# PCOD9451842 Si02
#       6
#     8   8   8   8   8   8
#     4   9  17  31  53  79 105 133 165 201 243 290
#     4  10  21  36  53  72  96 130 168 203 244 294
#     4   9  18  33  52  73  98 129 164 203 250 301
#     4   9  17  30  48  70  96 125 159 202 250 295
#     4   9  18  33  52  75 104 134 165 204 245 286
#     4   9  19  34  50  71 100 131 163 202 246 292
#
# _framework density 20.760988999999999
#
# number of rings (size 3 to 8) (size 9 to 14) (size 15 to 20)
#    0.000    2.833    0.000    2.000    0.000    7.667 
#    0.000    4.167    0.000    6.000    0.000    0.000 
#    0.000    0.000    0.000    0.000    0.000    0.000 
#
# Total GULP energy -267459.254328 kJ/mol
# GULP energy per Si atom -5572.067799 kJ/mol
# Density = 2.071374 g / cm^3
# Si number density = 20.760989 Si / 1000 Ang^3
#
#
#
# Elastic Constant Matrix: (Units=GPa)
#
#
# Indices 1 2 3 4 5 6 
#
# 1 139.5894 -4.2679 48.4786 0.0000 0.0000 0.0000
# 2 -4.2679 46.1817 -7.4807 0.0000 0.0000 0.0000
# 3 48.4786 -7.4807 115.7317 0.0000 0.0000 0.0000
# 4 0.0000 0.0000 0.0000 19.0809 0.0000 0.0000
# 5 0.0000 0.0000 0.0000 0.0000 13.1049 0.0000
# 6 0.0000 0.0000 0.0000 0.0000 0.0000 14.7917
#
#
#
# Elastic Compliance Matrix: (Units=1/GPa)
#
#
# Indices 1 2 3 4 5 6 
#
# 1 0.008385 0.000208 -0.003499 0.000000 0.000000 0.000000
# 2 0.000208 0.021888 0.001328 0.000000 0.000000 0.000000
# 3 -0.003499 0.001328 0.010192 0.000000 0.000000 0.000000
# 4 0.000000 0.000000 0.000000 0.052409 0.000000 0.000000
# 5 0.000000 0.000000 0.000000 0.000000 0.076307 0.000000
# 6 0.000000 0.000000 0.000000 0.000000 0.000000 0.067606
#
#
# Mechanical properties :
#
#
# Convention : Reuss Voigt Hill
#
# Bulk Modulus (GPa) = 27.36813 41.66254 34.51533
# Shear Modulus (GPa) = 19.77117 27.04700 23.40908
#
# Velocity S-wave (km/s) = 3.08932 3.61332 3.36155
# Velocity P-wave (km/s) = 5.09277 6.12531 5.63275
#
# Compressibility (1/GPa) = 0.03653885
#
# Stress axis : x y z
#
# Youngs Moduli (GPa) = 119.25408 45.68735 98.11401
#
# Poissons Ratio (x) = -0.00951 0.34331
# Poissons Ratio (y) = -0.02482 -0.13026
# Poissons Ratio (z) = 0.41728 -0.06065
#
# Static dielectric constant tensor:
#      x y z
#    x 1.775990 0.000000 0.000000 
#    y 0.000000 1.791520 0.000000 
#    z 0.000000 0.000000 1.704020 
# 
# From -- ./inp_files/28837.got.cif
#   From: 2010.05.17/outbox.cif.g08.bks.cpg/sg59_15_cif.got.tgz:28837.got - 2010.06.03 14:40:33.
