data_PCOD9451943
_publ_section_title
;
Structure prediction by ZEFSAII (Michael W. Deem and Ramdas Pophale) SiO2 
 PCOD9451943
Probable space group: P M M N
;
_chemical_formula_sum "Si O2"
_cell_formula_units_Z 48
_cell_length_a 11.857807
_cell_length_b 16.593450
_cell_length_c 14.011200
_cell_angle_alpha 90.000000
_cell_angle_beta 90.000000
_cell_angle_gamma 90.000000
_cell_volume 2756.870719
_symmetry_space_group_name_H-M "P M M N"
_symmetry_group_IT_number 59
_space_group.IT_coordinate_system_code '2'
_symmetry_cell_setting 'orthorhombic'
loop_
_space_group_symop_operation_xyz
x,y,z
1/2-x,1/2-y,z
1/2+x,-y,-z
-x,1/2+y,-z
-x,-y,-z
1/2+x,1/2+y,-z
1/2-x,y,z
x,1/2-y,z
loop_
_atom_site_type_symbol
_atom_site_label
_atom_site_fract_x
_atom_site_fract_y
_atom_site_fract_z
Si Si1 0.250000 0.654931 0.820255
Si Si2 0.614958 0.927893 0.388766
Si Si3 0.750000 0.153096 0.949230
Si Si4 0.116002 0.337291 0.798169
Si Si5 0.962359 0.460155 0.901207
Si Si6 0.884094 0.843099 0.581441
Si Si7 0.476578 0.573143 0.736714
O O1 0.250000 0.750000 0.794441
O O2 0.362544 0.611701 0.780163
O O3 0.250000 0.649507 0.935277
O O4 0.750000 0.940766 0.391059
O O5 0.592502 0.856957 0.312334
O O6 0.579031 0.899948 0.493439
O O7 0.558748 0.005200 0.340542
O O8 0.750000 0.250000 0.923681
O O9 0.642327 0.101100 0.913251
O O10 0.250000 0.337454 0.809137
O O11 0.070323 0.250000 0.824838
O O12 0.064352 0.406247 0.862085
O O13 0.952223 0.529696 0.820745
O O14 0.000000 0.500000 0.000000
O O15 0.750000 0.855152 0.595115
O O16 0.901491 0.750000 0.554305
O O17 0.950234 0.863510 0.677569
#
# Coordination Sequence:
#
# PCOD9451943 Si02
#       7
#     4   8   4   8   8   8   8
#     4  11  22  38  60  83 114 153 191 232 287 341
#     4   9  17  32  58  83 108 142 183 226 273 330
#     4  11  24  42  60  81 114 155 193 234 289 349
#     4   9  18  33  56  84 111 139 179 229 278 327
#     4  11  23  36  59  81 111 145 192 232 280 331
#     4  10  21  36  54  81 115 147 183 226 280 339
#     4  11  21  37  58  85 112 147 190 235 279 335
#
# _framework density 17.411045000000001
#
# number of rings (size 3 to 8) (size 9 to 14) (size 15 to 20)
#    0.000    1.833    2.500    2.000    3.500    2.000 
#    0.000    0.000    0.000    2.000    0.000    3.500 
#    0.000    0.000    0.000    0.000    0.000    0.000 
#
# Total GULP energy -267575.537332 kJ/mol
# GULP energy per Si atom -5574.490361 kJ/mol
# Density = 1.737142 g / cm^3
# Si number density = 17.411045 Si / 1000 Ang^3
#
#
#
# Elastic Constant Matrix: (Units=GPa)
#
#
# Indices 1 2 3 4 5 6 
#
# 1 54.3557 36.0900 38.8494 0.0000 0.0000 0.0000
# 2 36.0900 77.9936 38.7571 0.0000 0.0000 0.0000
# 3 38.8494 38.7571 104.8223 0.0000 0.0000 0.0000
# 4 0.0000 0.0000 0.0000 25.2896 0.0000 0.0000
# 5 0.0000 0.0000 0.0000 0.0000 26.7025 0.0000
# 6 0.0000 0.0000 0.0000 0.0000 0.0000 27.2406
#
#
#
# Elastic Compliance Matrix: (Units=1/GPa)
#
#
# Indices 1 2 3 4 5 6 
#
# 1 0.030728 -0.010486 -0.007511 0.000000 0.000000 0.000000
# 2 -0.010486 0.019286 -0.003244 0.000000 0.000000 0.000000
# 3 -0.007511 -0.003244 0.013523 0.000000 0.000000 0.000000
# 4 0.000000 0.000000 0.000000 0.039542 0.000000 0.000000
# 5 0.000000 0.000000 0.000000 0.000000 0.037450 0.000000
# 6 0.000000 0.000000 0.000000 0.000000 0.000000 0.036710
#
#
# Mechanical properties :
#
#
# Convention : Reuss Voigt Hill
#
# Bulk Modulus (GPa) = 47.49756 51.61828 49.55792
# Shear Modulus (GPa) = 22.05151 24.07822 23.06486
#
# Velocity S-wave (km/s) = 3.56269 3.72281 3.64363
# Velocity P-wave (km/s) = 6.65305 6.94192 6.79902
#
# Compressibility (1/GPa) = 0.02105371
#
# Stress axis : x y z
#
# Youngs Moduli (GPa) = 32.54310 51.85067 73.94569
#
# Poissons Ratio (x) = 0.54373 0.55544
# Poissons Ratio (y) = 0.34126 0.23991
# Poissons Ratio (z) = 0.24444 0.16822
#
# Static dielectric constant tensor:
#      x y z
#    x 1.570000 0.000000 0.000000 
#    y 0.000000 1.616120 0.000000 
#    z 0.000000 0.000000 1.583590 
# 
# From -- ./inp_files/22437.got.cif
#   From: 2010.05.17/outbox.cif.g08.bks.cpg/sg59_12_cif.got.tgz:22437.got - 2010.06.03 14:40:33.
