data_PCOD9451336
_publ_section_title
;
Structure prediction by ZEFSAII (Michael W. Deem and Ramdas Pophale) SiO2 
 PCOD9451336
Probable space group: P M M N
;
_chemical_formula_sum "Si O2"
_cell_formula_units_Z 48
_cell_length_a 29.047023
_cell_length_b 7.915899
_cell_length_c 10.373014
_cell_angle_alpha 90.000000
_cell_angle_beta 90.000000
_cell_angle_gamma 90.000000
_cell_volume 2385.101343
_symmetry_space_group_name_H-M "P M M N"
_symmetry_group_IT_number 59
_space_group.IT_coordinate_system_code '2'
_symmetry_cell_setting 'orthorhombic'
loop_
_space_group_symop_operation_xyz
x,y,z
1/2-x,1/2-y,z
1/2+x,-y,-z
-x,1/2+y,-z
-x,-y,-z
1/2+x,1/2+y,-z
1/2-x,y,z
x,1/2-y,z
loop_
_atom_site_type_symbol
_atom_site_label
_atom_site_fract_x
_atom_site_fract_y
_atom_site_fract_z
Si Si1 0.850609 0.950425 0.014311
Si Si2 0.007906 0.953828 0.350879
Si Si3 0.606912 0.050166 0.745191
Si Si4 0.750000 0.945528 0.066571
Si Si5 0.750000 0.053959 0.355594
Si Si6 0.655413 0.547308 0.486709
Si Si7 0.089026 0.043555 0.746087
O O1 0.846117 0.750000 0.040367
O O2 0.798649 0.022028 0.021211
O O3 0.873585 0.973882 0.876199
O O4 0.883505 0.017227 0.128242
O O5 0.009135 0.750000 0.344902
O O6 0.056671 0.017520 0.297284
O O7 0.963583 0.013050 0.269813
O O8 0.000000 0.000000 0.500000
O O9 0.602776 0.250000 0.766006
O O10 0.640940 0.018198 0.626000
O O11 0.750000 0.750000 0.022455
O O12 0.750000 0.951680 0.221994
O O13 0.750000 0.250000 0.319543
O O14 0.795288 0.013128 0.437255
O O15 0.655586 0.750000 0.490162
O O16 0.617526 0.493081 0.380947
O O17 0.088320 0.250000 0.748786
#
# Coordination Sequence:
#
# PCOD9451336 Si02
#       7
#     8   8   8   4   4   8   8
#     4  10  21  39  62  86 117 158 208 254 296 361
#     4  10  20  36  59  88 120 156 200 250 303 360
#     4  11  24  39  56  88 130 160 194 253 313 358
#     4  10  20  39  64  89 114 156 210 250 290 355
#     4  12  24  37  60  95 128 152 188 250 314 359
#     4  11  21  39  65  88 115 157 206 247 287 353
#     4   9  18  35  62  89 113 149 203 252 288 346
#
# _framework density 20.124931
#
# number of rings (size 3 to 8) (size 9 to 14) (size 15 to 20)
#    0.000    1.667    3.333    1.750    0.000    2.667 
#    0.000    3.333    0.000    0.000    0.000    0.000 
#    0.000    0.000    0.000    0.000    0.000    0.000 
#
# Total GULP energy -268146.981067 kJ/mol
# GULP energy per Si atom -5586.395439 kJ/mol
# Density = 2.007913 g / cm^3
# Si number density = 20.124931 Si / 1000 Ang^3
#
#
#
# Elastic Constant Matrix: (Units=GPa)
#
#
# Indices 1 2 3 4 5 6 
#
# 1 162.1939 -2.3290 57.2294 0.0000 0.0000 0.0000
# 2 -2.3290 19.2209 -17.5151 0.0000 0.0000 0.0000
# 3 57.2294 -17.5151 117.1649 0.0000 0.0000 0.0000
# 4 0.0000 0.0000 0.0000 11.3310 0.0000 0.0000
# 5 0.0000 0.0000 0.0000 0.0000 32.4174 0.0000
# 6 0.0000 0.0000 0.0000 0.0000 0.0000 1.8872
#
#
#
# Elastic Compliance Matrix: (Units=1/GPa)
#
#
# Indices 1 2 3 4 5 6 
#
# 1 0.007581 -0.002843 -0.004128 0.000000 0.000000 0.000000
# 2 -0.002843 0.061298 0.010552 0.000000 0.000000 0.000000
# 3 -0.004128 0.010552 0.012129 0.000000 0.000000 0.000000
# 4 0.000000 0.000000 0.000000 0.088253 0.000000 0.000000
# 5 0.000000 0.000000 0.000000 0.000000 0.030848 0.000000
# 6 0.000000 0.000000 0.000000 0.000000 0.000000 0.529873
#
#
# Mechanical properties :
#
#
# Convention : Reuss Voigt Hill
#
# Bulk Modulus (GPa) = 11.34174 41.48336 26.41255
# Shear Modulus (GPa) = 6.64708 26.54008 16.59358
#
# Velocity S-wave (km/s) = 1.81936 3.63542 2.87458
# Velocity P-wave (km/s) = 3.17196 6.18703 4.91634
#
# Compressibility (1/GPa) = 0.08816987
#
# Stress axis : x y z
#
# Youngs Moduli (GPa) = 131.90515 16.31379 82.44844
#
# Poissons Ratio (x) = 0.04638 0.34035
# Poissons Ratio (y) = 0.37502 -0.87001
# Poissons Ratio (z) = 0.54451 -0.17215
#
# Static dielectric constant tensor:
#      x y z
#    x 1.727350 0.000000 0.000000 
#    y 0.000000 1.730970 0.000000 
#    z 0.000000 0.000000 1.659590 
# 
# From -- ./inp_files/13070.got.cif
#   From: 2010.05.17/outbox.cif.g08.bks.cpg/sg59_7_cif.got.tgz:13070.got - 2010.06.03 14:40:33.
