data_PCOD9451138
_publ_section_title
;
Structure prediction by ZEFSAII (Michael W. Deem and Ramdas Pophale) SiO2 
 PCOD9451138
Probable space group: P M M N
;
_chemical_formula_sum "Si O2"
_cell_formula_units_Z 58
_cell_length_a 30.589233
_cell_length_b 7.693337
_cell_length_c 9.473442
_cell_angle_alpha 90.000000
_cell_angle_beta 90.000000
_cell_angle_gamma 90.000000
_cell_volume 2229.416160
_symmetry_space_group_name_H-M "P M M N"
_symmetry_group_IT_number 59
_space_group.IT_coordinate_system_code '2'
_symmetry_cell_setting 'orthorhombic'
loop_
_space_group_symop_operation_xyz
x,y,z
1/2-x,1/2-y,z
1/2+x,-y,-z
-x,1/2+y,-z
-x,-y,-z
1/2+x,1/2+y,-z
1/2-x,y,z
x,1/2-y,z
loop_
_atom_site_type_symbol
_atom_site_label
_atom_site_fract_x
_atom_site_fract_y
_atom_site_fract_z
Si Si1 0.929412 0.448763 0.728361
Si Si2 0.933147 0.949334 0.044964
Si Si3 0.202773 0.955827 0.686120
Si Si4 0.612571 0.462756 0.449779
Si Si5 0.023077 0.948457 0.694168
Si Si6 0.298090 0.558767 0.258306
Si Si7 0.662486 0.541015 0.030019
Si Si8 0.750000 0.750000 0.606397
O O1 0.918887 0.250000 0.761385
O O2 0.933366 0.544341 0.876281
O O3 0.894912 0.513426 0.612918
O O4 0.978006 0.456409 0.661322
O O5 0.937160 0.750000 0.088901
O O6 0.885005 0.020444 0.081611
O O7 0.031270 0.951988 0.863522
O O8 0.250000 0.036436 0.643755
O O9 0.204689 0.750000 0.656641
O O10 0.157846 0.024297 0.618061
O O11 0.196848 0.980176 0.853910
O O12 0.612332 0.250000 0.443769
O O13 0.568298 0.519710 0.369975
O O14 0.017670 0.750000 0.649086
O O15 0.250000 0.567890 0.185548
O O16 0.306695 0.750000 0.322395
O O17 0.329729 0.521899 0.128694
O O18 0.288185 0.404023 0.366118
O O19 0.662671 0.750000 0.026717
#
# Coordination Sequence:
#
# PCOD9451138 Si02
#       8
#     8   8   8   8   8   8   8   2
#     4  11  23  40  62  87 125 170 211 257 318 385
#     4  11  24  39  58  88 126 167 211 257 315 380
#     4  10  20  35  60  91 121 155 201 257 317 384
#     4   9  20  39  62  93 125 161 207 259 317 379
#     4  11  21  39  65  92 125 161 207 265 317 380
#     4   9  16  26  44  68 100 144 187 238 302 364
#     4  11  20  33  51  78 119 156 200 255 309 370
#     4   8  14  28  40  66 104 136 188 244 296 362
#
# _framework density 26.015779999999999
#
# number of rings (size 3 to 8) (size 9 to 14) (size 15 to 20)
#    0.414    1.379    2.069    2.897    0.000    3.586 
#    0.000    3.448    0.000    1.655    0.000    3.862 
#    0.000    0.000    0.000    0.000    0.000    0.000 
#
# Total GULP energy -324009.142730 kJ/mol
# GULP energy per Si atom -5586.364530 kJ/mol
# Density = 2.595657 g / cm^3
# Si number density = 26.015780 Si / 1000 Ang^3
#
#
#
# Elastic Constant Matrix: (Units=GPa)
#
#
# Indices 1 2 3 4 5 6 
#
# 1 144.5332 6.0281 40.7304 0.0000 0.0000 0.0000
# 2 6.0281 87.3552 4.4396 0.0000 0.0000 0.0000
# 3 40.7304 4.4396 129.0752 0.0000 0.0000 0.0000
# 4 0.0000 0.0000 0.0000 -275.4656 0.0000 0.0000
# 5 0.0000 0.0000 0.0000 0.0000 52.4977 0.0000
# 6 0.0000 0.0000 0.0000 0.0000 0.0000 19.3767
#
#
#
# Elastic Compliance Matrix: (Units=1/GPa)
#
#
# Indices 1 2 3 4 5 6 
#
# 1 0.007608 -0.000404 -0.002387 0.000000 0.000000 0.000000
# 2 -0.000404 0.011489 -0.000268 0.000000 0.000000 0.000000
# 3 -0.002387 -0.000268 0.008510 0.000000 0.000000 0.000000
# 4 0.000000 0.000000 0.000000 -0.003630 0.000000 0.000000
# 5 0.000000 0.000000 0.000000 0.000000 0.019048 0.000000
# 6 0.000000 0.000000 0.000000 0.000000 0.000000 0.051608
#
#
# Mechanical properties :
#
#
# Convention : Reuss Voigt Hill
#
# Bulk Modulus (GPa) = 46.53273 51.48444 49.00858
# Shear Modulus (GPa) = 46.33313 -20.06721 13.13296
#
# Velocity S-wave (km/s) = 4.22472 -2.78033 2.24923
# Velocity P-wave (km/s) = 6.45933 3.08637 5.06204
#
# Compressibility (1/GPa) = 0.02149025
#
# Stress axis : x y z
#
# Youngs Moduli (GPa) = 131.43496 87.03995 117.51086
#
# Poissons Ratio (x) = 0.03514 0.28049
# Poissons Ratio (y) = 0.05306 0.03147
# Poissons Ratio (z) = 0.31373 0.02331
#
# Static dielectric constant tensor:
#      x y z
#    x 2.088080 0.000000 0.000000 
#    y 0.000000 1.930870 0.000000 
#    z 0.000000 0.000000 2.066270 
# 
# From -- ./inp_files/19150.got.cif
#   From: 2010.05.17/outbox.cif.g08.bks.cpg/sg59_10_cif.got.tgz:19150.got - 2010.06.03 14:40:33.
