data_PCOD9451176
_publ_section_title
;
Structure prediction by ZEFSAII (Michael W. Deem and Ramdas Pophale) SiO2 
 PCOD9451176
Probable space group: P M M N
;
_chemical_formula_sum "Si O2"
_cell_formula_units_Z 38
_cell_length_a 10.963144
_cell_length_b 32.467798
_cell_length_c 4.986948
_cell_angle_alpha 90.000000
_cell_angle_beta 90.000000
_cell_angle_gamma 90.000000
_cell_volume 1775.099876
_symmetry_space_group_name_H-M "P M M N"
_symmetry_group_IT_number 59
_space_group.IT_coordinate_system_code '2'
_symmetry_cell_setting 'orthorhombic'
loop_
_space_group_symop_operation_xyz
x,y,z
1/2-x,1/2-y,z
1/2+x,-y,-z
-x,1/2+y,-z
-x,-y,-z
1/2+x,1/2+y,-z
1/2-x,y,z
x,1/2-y,z
loop_
_atom_site_type_symbol
_atom_site_label
_atom_site_fract_x
_atom_site_fract_y
_atom_site_fract_z
Si Si1 0.250000 0.975608 0.159214
Si Si2 0.508519 0.048163 0.580036
Si Si3 0.106521 0.885899 0.805308
Si Si4 0.106582 0.830119 0.291387
Si Si5 0.750000 0.533477 0.335141
Si Si6 0.250000 0.250000 0.250054
Si Si7 0.439657 0.250000 0.750382
O O1 0.372117 0.950654 0.231789
O O2 0.250000 0.014830 0.363666
O O3 0.250000 0.994638 0.865425
O O4 0.532934 0.076476 0.323802
O O5 0.376433 0.057394 0.705107
O O6 0.500000 0.000000 0.500000
O O7 0.250000 0.897528 0.816027
O O8 0.096485 0.849276 0.586521
O O9 0.067382 0.865908 0.084092
O O10 0.250000 0.821665 0.237436
O O11 0.025248 0.790244 0.254537
O O12 0.355753 0.250000 0.486873
O O13 0.356122 0.250000 0.013749
#
# Coordination Sequence:
#
# PCOD9451176 Si02
#       7
#     4   8   8   8   4   2   4
#     4  10  20  36  56  78 104 151 196 259 304 355
#     4  10  21  39  59  83 118 163 209 262 317 377
#     4  10  21  38  58  93 124 164 207 264 326 386
#     4  10  22  39  68  97 128 158 213 271 328 369
#     4  10  22  34  53  82 108 141 208 245 302 374
#     4  10  24  38  68  98 128 178 224 228 296 412
#     4  11  21  44  66  98 133 171 214 254 312 387
#
# _framework density 21.407243999999999
#
# number of rings (size 3 to 8) (size 9 to 14) (size 15 to 20)
#    0.000    1.895    1.053    2.211    0.000    6.737 
#    0.000   10.526    0.000    0.000    0.000    0.000 
#    0.000    0.000    0.000    0.000    0.000    0.000 
#
# Total GULP energy -212033.903800 kJ/mol
# GULP energy per Si atom -5579.839574 kJ/mol
# Density = 2.135852 g / cm^3
# Si number density = 21.407244 Si / 1000 Ang^3
#
#
#
# Elastic Constant Matrix: (Units=GPa)
#
#
# Indices 1 2 3 4 5 6 
#
# 1 157.9693 45.1730 21.9077 0.0000 0.0000 0.0000
# 2 45.1730 107.9577 11.6447 0.0000 0.0000 0.0000
# 3 21.9077 11.6447 93.4814 0.0000 0.0000 0.0000
# 4 0.0000 0.0000 0.0000 9.9601 0.0000 0.0000
# 5 0.0000 0.0000 0.0000 0.0000 23.6303 0.0000
# 6 0.0000 0.0000 0.0000 0.0000 0.0000 -6.5750
#
#
#
# Elastic Compliance Matrix: (Units=1/GPa)
#
#
# Indices 1 2 3 4 5 6 
#
# 1 0.007357 -0.002932 -0.001359 0.000000 0.000000 0.000000
# 2 -0.002932 0.010557 -0.000628 0.000000 0.000000 0.000000
# 3 -0.001359 -0.000628 0.011094 0.000000 0.000000 0.000000
# 4 0.000000 0.000000 0.000000 0.100401 0.000000 0.000000
# 5 0.000000 0.000000 0.000000 0.000000 0.042319 0.000000
# 6 0.000000 0.000000 0.000000 0.000000 0.000000 -0.152091
#
#
# Mechanical properties :
#
#
# Convention : Reuss Voigt Hill
#
# Bulk Modulus (GPa) = 52.16241 57.42881 54.79561
# Shear Modulus (GPa) = 139.40914 24.11527 81.76220
#
# Velocity S-wave (km/s) = 8.07860 3.35998 6.18681
# Velocity P-wave (km/s) = 10.55642 6.47593 8.75716
#
# Compressibility (1/GPa) = 0.01917089
#
# Stress axis : x y z
#
# Youngs Moduli (GPa) = 135.92086 94.72004 90.13861
#
# Poissons Ratio (x) = 0.27771 0.12250
# Poissons Ratio (y) = 0.39851 0.05661
# Poissons Ratio (z) = 0.18471 0.05948
#
# Static dielectric constant tensor:
#      x y z
#    x 1.804930 0.000000 0.000000 
#    y 0.000000 1.777580 0.000000 
#    z 0.000000 0.000000 1.781470 
# 
# From -- ./inp_files/1462.got.cif
#   From: 2010.05.17/outbox.cif.g08.bks.cpg/sg59_1_cif.got.tgz:1462.got - 2010.06.03 14:40:33.
