data_PCOD9451319
_publ_section_title
;
Structure prediction by ZEFSAII (Michael W. Deem and Ramdas Pophale) SiO2 
 PCOD9451319
Probable space group: P M M N
;
_chemical_formula_sum "Si O2"
_cell_formula_units_Z 64
_cell_length_a 8.449290
_cell_length_b 18.126576
_cell_length_c 22.079442
_cell_angle_alpha 90.000000
_cell_angle_beta 90.000000
_cell_angle_gamma 90.000000
_cell_volume 3381.614416
_symmetry_space_group_name_H-M "P M M N"
_symmetry_group_IT_number 59
_space_group.IT_coordinate_system_code '2'
_symmetry_cell_setting 'orthorhombic'
loop_
_space_group_symop_operation_xyz
x,y,z
1/2-x,1/2-y,z
1/2+x,-y,-z
-x,1/2+y,-z
-x,-y,-z
1/2+x,1/2+y,-z
1/2-x,y,z
x,1/2-y,z
loop_
_atom_site_type_symbol
_atom_site_label
_atom_site_fract_x
_atom_site_fract_y
_atom_site_fract_z
Si Si1 0.058812 0.906890 0.247588
Si Si2 0.434297 0.564751 0.608946
Si Si3 0.936680 0.835215 0.504059
Si Si4 0.936576 0.401993 0.616367
Si Si5 0.940255 0.482648 0.933258
Si Si6 0.437753 0.555820 0.813430
Si Si7 0.061143 0.335686 0.281783
Si Si8 0.942199 0.169429 0.874548
O O1 0.250000 0.916366 0.247307
O O2 0.012202 0.884248 0.314981
O O3 0.017582 0.849151 0.195072
O O4 0.985841 0.984868 0.227360
O O5 0.250000 0.545085 0.612713
O O6 0.469554 0.610878 0.548510
O O7 0.533496 0.489427 0.608877
O O8 0.481283 0.616346 0.665353
O O9 0.750000 0.842794 0.517074
O O10 0.981464 0.750000 0.514112
O O11 0.971396 0.858584 0.435373
O O12 0.750000 0.386286 0.610199
O O13 0.750000 0.484351 0.931601
O O14 0.994874 0.400400 0.913755
O O15 0.002740 0.537228 0.880949
O O16 0.000000 0.500000 0.000000
O O17 0.250000 0.563875 0.813386
O O18 0.515723 0.626321 0.781624
O O19 0.250000 0.339674 0.290158
O O20 0.013193 0.250000 0.284664
O O21 0.750000 0.170466 0.877873
O O22 0.000976 0.250000 0.892699
#
# Coordination Sequence:
#
# PCOD9451319 Si02
#       8
#     8   8   8   8   8   8   8   8
#     4   9  18  33  56  83 113 148 185 229 281 340
#     4  12  24  39  61  86 113 147 192 242 291 353
#     4  11  25  43  59  78 111 152 193 243 300 352
#     4  11  22  37  60  86 115 150 191 237 288 349
#     4  10  20  36  59  85 116 156 199 241 289 343
#     4  11  21  35  58  85 116 151 189 233 280 341
#     4  11  23  39  60  86 117 151 189 238 296 350
#     4   8  15  30  54  84 114 145 186 235 283 331
#
# _framework density 18.925871000000001
#
# number of rings (size 3 to 8) (size 9 to 14) (size 15 to 20)
#    0.000    1.625    1.250    5.250    0.000    4.500 
#    0.000    1.875    0.000   11.625    0.000    0.000 
#    0.000    0.000    0.000    0.000    0.000    0.000 
#
# Total GULP energy -357599.653178 kJ/mol
# GULP energy per Si atom -5587.494581 kJ/mol
# Density = 1.888279 g / cm^3
# Si number density = 18.925871 Si / 1000 Ang^3
#
#
#
# Elastic Constant Matrix: (Units=GPa)
#
#
# Indices 1 2 3 4 5 6 
#
# 1 28.3619 -10.7041 -0.3644 0.0000 0.0000 0.0000
# 2 -10.7041 37.3721 2.5740 0.0000 0.0000 0.0000
# 3 -0.3644 2.5740 98.5531 0.0000 0.0000 0.0000
# 4 0.0000 0.0000 0.0000 12.8327 0.0000 0.0000
# 5 0.0000 0.0000 0.0000 0.0000 32.3643 0.0000
# 6 0.0000 0.0000 0.0000 0.0000 0.0000 14.7218
#
#
#
# Elastic Compliance Matrix: (Units=1/GPa)
#
#
# Indices 1 2 3 4 5 6 
#
# 1 0.039534 0.011334 -0.000150 0.000000 0.000000 0.000000
# 2 0.011334 0.030055 -0.000743 0.000000 0.000000 0.000000
# 3 -0.000150 -0.000743 0.010166 0.000000 0.000000 0.000000
# 4 0.000000 0.000000 0.000000 0.077926 0.000000 0.000000
# 5 0.000000 0.000000 0.000000 0.000000 0.030898 0.000000
# 6 0.000000 0.000000 0.000000 0.000000 0.000000 0.067926
#
#
# Mechanical properties :
#
#
# Convention : Reuss Voigt Hill
#
# Bulk Modulus (GPa) = 9.93674 16.36646 13.15160
# Shear Modulus (GPa) = 18.57567 23.50256 21.03911
#
# Velocity S-wave (km/s) = 3.13628 3.52777 3.33777
# Velocity P-wave (km/s) = 4.28681 5.02593 4.67102
#
# Compressibility (1/GPa) = 0.10063663
#
# Stress axis : x y z
#
# Youngs Moduli (GPa) = 25.29461 33.27199 98.37034
#
# Poissons Ratio (x) = -0.37709 0.01474
# Poissons Ratio (y) = -0.28668 0.07310
# Poissons Ratio (z) = 0.00379 0.02472
#
# Static dielectric constant tensor:
#      x y z
#    x 1.649470 0.000000 0.000000 
#    y 0.000000 1.645770 0.000000 
#    z 0.000000 0.000000 1.647560 
# 
# From -- ./inp_files/29514.got.cif
#   From: 2010.05.17/outbox.cif.g08.bks.cpg/sg59_15_cif.got.tgz:29514.got - 2010.06.03 14:40:33.
