data_PCOD9451809
_publ_section_title
;
Structure prediction by ZEFSAII (Michael W. Deem and Ramdas Pophale) SiO2 
 PCOD9451809
Probable space group: P M M N
;
_chemical_formula_sum "Si O2"
_cell_formula_units_Z 64
_cell_length_a 14.437121
_cell_length_b 18.251131
_cell_length_c 11.946987
_cell_angle_alpha 90.000000
_cell_angle_beta 90.000000
_cell_angle_gamma 90.000000
_cell_volume 3147.956843
_symmetry_space_group_name_H-M "P M M N"
_symmetry_group_IT_number 59
_space_group.IT_coordinate_system_code '2'
_symmetry_cell_setting 'orthorhombic'
loop_
_space_group_symop_operation_xyz
x,y,z
1/2-x,1/2-y,z
1/2+x,-y,-z
-x,1/2+y,-z
-x,-y,-z
1/2+x,1/2+y,-z
1/2-x,y,z
x,1/2-y,z
loop_
_atom_site_type_symbol
_atom_site_label
_atom_site_fract_x
_atom_site_fract_y
_atom_site_fract_z
Si Si1 0.644577 0.883070 0.064575
Si Si2 0.995957 0.335096 0.257310
Si Si3 0.860090 0.404664 0.811498
Si Si4 0.076593 0.552137 0.557995
Si Si5 0.043704 0.665706 0.383269
Si Si6 0.053034 0.669268 0.995270
Si Si7 0.146505 0.087549 0.675437
Si Si8 0.355698 0.437594 0.178587
O O1 0.750000 0.850555 0.060291
O O2 0.553792 0.834540 0.038956
O O3 0.634038 0.915761 0.189222
O O4 0.640601 0.936601 0.956808
O O5 0.994748 0.250000 0.290988
O O6 0.096979 0.365768 0.226509
O O7 0.959057 0.391488 0.348223
O O8 0.945101 0.342157 0.137702
O O9 0.750000 0.402220 0.797901
O O10 0.888548 0.389785 0.938437
O O11 0.897270 0.485666 0.779540
O O12 0.911374 0.344364 0.738190
O O13 0.140937 0.492517 0.618438
O O14 0.000000 0.500000 0.500000
O O15 0.102736 0.609424 0.460136
O O16 0.046445 0.750000 0.419624
O O17 0.937545 0.636660 0.373515
O O18 0.090180 0.750000 0.018860
O O19 0.250000 0.118004 0.655277
O O20 0.250000 0.437319 0.213033
#
# Coordination Sequence:
#
# PCOD9451809 Si02
#       8
#     8   8   8   8   8   8   8   8
#     4   9  18  32  55  87 121 155 191 234 294 360
#     4  10  21  37  60  88 120 160 199 246 307 368
#     4  11  23  38  59  87 118 159 207 254 301 360
#     4  10  22  40  61  85 116 156 204 250 297 349
#     4  11  23  41  63  86 120 161 204 252 304 361
#     4  10  21  35  55  86 124 161 195 241 304 366
#     4  10  21  37  61  92 121 154 198 252 306 356
#     4   9  19  34  55  86 121 158 198 241 294 359
#
# _framework density 20.330646999999999
#
# number of rings (size 3 to 8) (size 9 to 14) (size 15 to 20)
#    0.000    2.000    1.250    2.250    1.750    3.250 
#    0.000    7.500    0.000    4.875    0.000    0.000 
#    0.000    0.000    0.000    0.000    0.000    0.000 
#
# Total GULP energy -356503.484310 kJ/mol
# GULP energy per Si atom -5570.366942 kJ/mol
# Density = 2.028437 g / cm^3
# Si number density = 20.330647 Si / 1000 Ang^3
#
#
#
# Elastic Constant Matrix: (Units=GPa)
#
#
# Indices 1 2 3 4 5 6 
#
# 1 43.1754 17.8181 3.7672 0.0000 0.0000 0.0000
# 2 17.8181 102.0859 17.9146 0.0000 0.0000 0.0000
# 3 3.7672 17.9146 57.3093 0.0000 0.0000 0.0000
# 4 0.0000 0.0000 0.0000 26.9704 0.0000 0.0000
# 5 0.0000 0.0000 0.0000 0.0000 10.4308 0.0000
# 6 0.0000 0.0000 0.0000 0.0000 0.0000 3.0788
#
#
#
# Elastic Compliance Matrix: (Units=1/GPa)
#
#
# Indices 1 2 3 4 5 6 
#
# 1 0.024964 -0.004305 -0.000295 0.000000 0.000000 0.000000
# 2 -0.004305 0.011107 -0.003189 0.000000 0.000000 0.000000
# 3 -0.000295 -0.003189 0.018465 0.000000 0.000000 0.000000
# 4 0.000000 0.000000 0.000000 0.037078 0.000000 0.000000
# 5 0.000000 0.000000 0.000000 0.000000 0.095870 0.000000
# 6 0.000000 0.000000 0.000000 0.000000 0.000000 0.324799
#
#
# Mechanical properties :
#
#
# Convention : Reuss Voigt Hill
#
# Bulk Modulus (GPa) = 25.66922 31.28559 28.47741
# Shear Modulus (GPa) = 9.24475 18.96738 14.10607
#
# Velocity S-wave (km/s) = 2.13473 3.05773 2.63693
# Velocity P-wave (km/s) = 4.32775 5.28092 4.82791
#
# Compressibility (1/GPa) = 0.03895716
#
# Stress axis : x y z
#
# Youngs Moduli (GPa) = 40.05781 90.03541 54.15529
#
# Poissons Ratio (x) = 0.38764 0.01598
# Poissons Ratio (y) = 0.17247 0.17270
# Poissons Ratio (z) = 0.01182 0.28711
#
# Static dielectric constant tensor:
#      x y z
#    x 1.722060 0.000000 0.000000 
#    y 0.000000 1.711960 0.000000 
#    z 0.000000 0.000000 1.771990 
# 
# From -- ./inp_files/17195.got.cif
#   From: 2010.05.17/outbox.cif.g08.bks.cpg/sg59_9_cif.got.tgz:17195.got - 2010.06.03 14:40:33.
