data_PCOD9451787
_publ_section_title
;
Structure prediction by ZEFSAII (Michael W. Deem and Ramdas Pophale) SiO2 
 PCOD9451787
Probable space group: P M M N
;
_chemical_formula_sum "Si O2"
_cell_formula_units_Z 56
_cell_length_a 9.104611
_cell_length_b 21.431693
_cell_length_c 13.830512
_cell_angle_alpha 90.000000
_cell_angle_beta 90.000000
_cell_angle_gamma 90.000000
_cell_volume 2698.709466
_symmetry_space_group_name_H-M "P M M N"
_symmetry_group_IT_number 59
_space_group.IT_coordinate_system_code '2'
_symmetry_cell_setting 'orthorhombic'
loop_
_space_group_symop_operation_xyz
x,y,z
1/2-x,1/2-y,z
1/2+x,-y,-z
-x,1/2+y,-z
-x,-y,-z
1/2+x,1/2+y,-z
1/2-x,y,z
x,1/2-y,z
loop_
_atom_site_type_symbol
_atom_site_label
_atom_site_fract_x
_atom_site_fract_y
_atom_site_fract_z
Si Si1 0.424967 0.510153 0.897156
Si Si2 0.927395 0.179288 0.339275
Si Si3 0.919509 0.452933 0.426907
Si Si4 0.416833 0.323010 0.934937
Si Si5 0.415480 0.064613 0.716945
Si Si6 0.926829 0.865546 0.854039
Si Si7 0.924352 0.181309 0.729486
O O1 0.250000 0.523468 0.904823
O O2 0.442000 0.449943 0.829524
O O3 0.514290 0.564667 0.845031
O O4 0.500000 0.500000 0.000000
O O5 0.750000 0.174191 0.329430
O O6 0.958943 0.250000 0.376805
O O7 0.974011 0.117452 0.401469
O O8 0.001005 0.172636 0.233413
O O9 0.750000 0.446177 0.458061
O O10 0.923031 0.497116 0.332433
O O11 0.000000 0.500000 0.500000
O O12 0.250000 0.346966 0.918116
O O13 0.403012 0.250000 0.956310
O O14 0.513880 0.324950 0.838589
O O15 0.474839 0.349766 0.035976
O O16 0.250000 0.087730 0.703522
O O17 0.518587 0.119078 0.677342
O O18 0.750000 0.860536 0.849913
O O19 0.750000 0.180762 0.729998
O O20 0.973425 0.250000 0.692983
#
# Coordination Sequence:
#
# PCOD9451787 Si02
#       7
#     8   8   8   8   8   8   8
#     4  11  22  36  53  80 120 163 208 255 301 358
#     4  10  21  40  65  91 123 160 196 244 309 375
#     4  10  22  43  67  94 121 155 198 244 303 370
#     4   9  18  32  48  70 108 157 201 240 290 350
#     4  10  21  39  60  81 115 156 196 240 293 358
#     4  11  21  33  52  82 119 159 205 254 304 358
#     4  10  21  35  53  81 114 149 198 255 301 346
#
# _framework density 20.750658000000001
#
# number of rings (size 3 to 8) (size 9 to 14) (size 15 to 20)
#    0.000    1.857    1.429    2.571    0.000    8.571 
#    0.000    2.143    0.000    2.571    0.000    0.000 
#    0.000    0.000    0.000    0.000    0.000    0.000 
#
# Total GULP energy -312066.341327 kJ/mol
# GULP energy per Si atom -5572.613238 kJ/mol
# Density = 2.070343 g / cm^3
# Si number density = 20.750658 Si / 1000 Ang^3
#
#
#
# Elastic Constant Matrix: (Units=GPa)
#
#
# Indices 1 2 3 4 5 6 
#
# 1 26.7043 27.7115 2.1823 0.0000 0.0000 0.0000
# 2 27.7115 145.0681 5.7657 0.0000 0.0000 0.0000
# 3 2.1823 5.7657 21.2138 0.0000 0.0000 0.0000
# 4 0.0000 0.0000 0.0000 23.6746 0.0000 0.0000
# 5 0.0000 0.0000 0.0000 0.0000 24.3198 0.0000
# 6 0.0000 0.0000 0.0000 0.0000 0.0000 32.3633
#
#
#
# Elastic Compliance Matrix: (Units=1/GPa)
#
#
# Indices 1 2 3 4 5 6 
#
# 1 0.046827 -0.008849 -0.002412 0.000000 0.000000 0.000000
# 2 -0.008849 0.008641 -0.001438 0.000000 0.000000 0.000000
# 3 -0.002412 -0.001438 0.047778 0.000000 0.000000 0.000000
# 4 0.000000 0.000000 0.000000 0.042239 0.000000 0.000000
# 5 0.000000 0.000000 0.000000 0.000000 0.041119 0.000000
# 6 0.000000 0.000000 0.000000 0.000000 0.000000 0.030899
#
#
# Mechanical properties :
#
#
# Convention : Reuss Voigt Hill
#
# Bulk Modulus (GPa) = 12.84566 29.36725 21.10646
# Shear Modulus (GPa) = 18.59760 26.55997 22.57879
#
# Velocity S-wave (km/s) = 2.99698 3.58153 3.30221
# Velocity P-wave (km/s) = 4.26377 5.59342 4.97323
#
# Compressibility (1/GPa) = 0.07784730
#
# Stress axis : x y z
#
# Youngs Moduli (GPa) = 21.35510 115.72884 20.93005
#
# Poissons Ratio (x) = 1.02411 0.05048
# Poissons Ratio (y) = 0.18898 0.03010
# Poissons Ratio (z) = 0.05151 0.16644
#
# Static dielectric constant tensor:
#      x y z
#    x 1.717380 0.000000 0.000000 
#    y 0.000000 1.837900 0.000000 
#    z 0.000000 0.000000 1.861140 
# 
# From -- ./inp_files/21018.got.cif
#   From: 2010.05.17/outbox.cif.g08.bks.cpg/sg59_11_cif.got.tgz:21018.got - 2010.06.03 14:40:33.
