data_PCOD9451781
_publ_section_title
;
Structure prediction by ZEFSAII (Michael W. Deem and Ramdas Pophale) SiO2 
 PCOD9451781
Probable space group: P M M N
;
_chemical_formula_sum "Si O2"
_cell_formula_units_Z 32
_cell_length_a 7.580929
_cell_length_b 9.021167
_cell_length_c 24.838881
_cell_angle_alpha 90.000000
_cell_angle_beta 90.000000
_cell_angle_gamma 90.000000
_cell_volume 1698.701924
_symmetry_space_group_name_H-M "P M M N"
_symmetry_group_IT_number 59
_space_group.IT_coordinate_system_code '2'
_symmetry_cell_setting 'orthorhombic'
loop_
_space_group_symop_operation_xyz
x,y,z
1/2-x,1/2-y,z
1/2+x,-y,-z
-x,1/2+y,-z
-x,-y,-z
1/2+x,1/2+y,-z
1/2-x,y,z
x,1/2-y,z
loop_
_atom_site_type_symbol
_atom_site_label
_atom_site_fract_x
_atom_site_fract_y
_atom_site_fract_z
Si Si1 0.544567 0.927341 0.164689
Si Si2 0.750000 0.071515 0.748762
Si Si3 0.957849 0.926343 0.442419
Si Si4 0.538467 0.416799 0.055325
Si Si5 0.250000 0.072257 0.367874
O O1 0.750000 0.967860 0.173948
O O2 0.536881 0.750000 0.157487
O O3 0.420313 0.965010 0.214733
O O4 0.478564 0.000959 0.109398
O O5 0.750000 0.250000 0.738863
O O6 0.750000 0.984656 0.693166
O O7 0.750000 0.944768 0.431054
O O8 0.995697 0.750000 0.444331
O O9 0.000000 0.000000 0.500000
O O10 0.080538 0.005208 0.398655
O O11 0.750000 0.411026 0.059675
O O12 0.468883 0.250000 0.053072
O O13 0.500000 0.500000 0.000000
O O14 0.250000 0.250000 0.371282
#
# Coordination Sequence:
#
# PCOD9451781 Si02
#       5
#     8   4   8   8   4
#     4   9  19  37  59  82 112 150 193 246 304 357
#     4  10  22  40  62  86 116 158 207 252 297 362
#     4  11  23  40  66  96 129 168 209 258 313 367
#     4  10  21  35  53  80 113 147 187 237 295 358
#     4  12  26  42  62  94 132 170 213 256 305 368
#
# _framework density 18.837913
#
# number of rings (size 3 to 8) (size 9 to 14) (size 15 to 20)
#    0.000    1.750    1.250    2.625    1.750    5.000 
#    0.000    2.500    0.000    0.000    0.000    0.000 
#    0.000    0.000    0.000    0.000    0.000    0.000 
#
# Total GULP energy -178786.196466 kJ/mol
# GULP energy per Si atom -5587.068640 kJ/mol
# Density = 1.879504 g / cm^3
# Si number density = 18.837913 Si / 1000 Ang^3
#
#
#
# Elastic Constant Matrix: (Units=GPa)
#
#
# Indices 1 2 3 4 5 6 
#
# 1 113.1237 73.8969 81.8141 0.0000 0.0000 0.0000
# 2 73.8969 123.1544 104.0676 0.0000 0.0000 0.0000
# 3 81.8141 104.0676 197.2733 0.0000 0.0000 0.0000
# 4 0.0000 0.0000 0.0000 41.4863 0.0000 0.0000
# 5 0.0000 0.0000 0.0000 0.0000 34.9496 0.0000
# 6 0.0000 0.0000 0.0000 0.0000 0.0000 20.8960
#
#
#
# Elastic Compliance Matrix: (Units=1/GPa)
#
#
# Indices 1 2 3 4 5 6 
#
# 1 0.015302 -0.006891 -0.002711 0.000000 0.000000 0.000000
# 2 -0.006891 0.017754 -0.006508 0.000000 0.000000 0.000000
# 3 -0.002711 -0.006508 0.009627 0.000000 0.000000 0.000000
# 4 0.000000 0.000000 0.000000 0.024104 0.000000 0.000000
# 5 0.000000 0.000000 0.000000 0.000000 0.028613 0.000000
# 6 0.000000 0.000000 0.000000 0.000000 0.000000 0.047856
#
#
# Mechanical properties :
#
#
# Convention : Reuss Voigt Hill
#
# Bulk Modulus (GPa) = 95.57575 105.90095 100.73835
# Shear Modulus (GPa) = 27.93881 31.05123 29.49502
#
# Velocity S-wave (km/s) = 3.85530 4.06438 3.96122
# Velocity P-wave (km/s) = 8.40618 8.85237 8.63216
#
# Compressibility (1/GPa) = 0.01046291
#
# Stress axis : x y z
#
# Youngs Moduli (GPa) = 65.35141 56.32539 103.87962
#
# Poissons Ratio (x) = 0.38813 0.28161
# Poissons Ratio (y) = 0.45033 0.67604
# Poissons Ratio (z) = 0.17716 0.36656
#
# Static dielectric constant tensor:
#      x y z
#    x 1.664340 0.000000 0.000000 
#    y 0.000000 1.645130 0.000000 
#    z 0.000000 0.000000 1.607360 
# 
# From -- ./inp_files/31107.got.cif
#   From: 2010.05.17/outbox.cif.g08.bks.cpg/sg59_16_cif.got.tgz:31107.got - 2010.06.03 14:40:33.
