data_PCOD9451375
_publ_section_title
;
Structure prediction by ZEFSAII (Michael W. Deem and Ramdas Pophale) SiO2 
 PCOD9451375
Probable space group: P M M N
;
_chemical_formula_sum "Si O2"
_cell_formula_units_Z 48
_cell_length_a 8.757482
_cell_length_b 19.377894
_cell_length_c 15.446170
_cell_angle_alpha 90.000000
_cell_angle_beta 90.000000
_cell_angle_gamma 90.000000
_cell_volume 2621.239113
_symmetry_space_group_name_H-M "P M M N"
_symmetry_group_IT_number 59
_space_group.IT_coordinate_system_code '2'
_symmetry_cell_setting 'orthorhombic'
loop_
_space_group_symop_operation_xyz
x,y,z
1/2-x,1/2-y,z
1/2+x,-y,-z
-x,1/2+y,-z
-x,-y,-z
1/2+x,1/2+y,-z
1/2-x,y,z
x,1/2-y,z
loop_
_atom_site_type_symbol
_atom_site_label
_atom_site_fract_x
_atom_site_fract_y
_atom_site_fract_z
Si Si1 0.567650 0.830780 0.879887
Si Si2 0.434154 0.926371 0.528433
Si Si3 0.934518 0.169831 0.630573
Si Si4 0.933664 0.419826 0.273656
Si Si5 0.067421 0.077072 0.783127
Si Si6 0.932091 0.073881 0.971763
O O1 0.750000 0.837683 0.888223
O O2 0.528388 0.750000 0.878651
O O3 0.512995 0.868203 0.792546
O O4 0.489140 0.869802 0.959732
O O5 0.250000 0.931435 0.528427
O O6 0.478907 0.869145 0.458026
O O7 0.480816 0.909657 0.626672
O O8 0.500000 0.000000 0.500000
O O9 0.750000 0.166118 0.637631
O O10 0.978589 0.250000 0.629589
O O11 0.007082 0.129130 0.710587
O O12 0.750000 0.411261 0.267335
O O13 0.968849 0.498654 0.246346
O O14 0.250000 0.082468 0.790936
O O15 0.991122 0.090086 0.875695
O O16 0.750000 0.069730 0.973135
O O17 0.000000 0.000000 0.000000
#
# Coordination Sequence:
#
# PCOD9451375 Si02
#       6
#     8   8   8   8   8   8
#     4  11  25  43  63  91 126 161 200 249 303 360
#     4  10  20  36  60  89 119 156 203 251 298 357
#     4  10  22  39  59  87 123 162 203 250 305 360
#     4  10  21  37  61  91 121 159 204 248 300 362
#     4  11  22  38  62  92 122 157 202 250 300 360
#     4  12  24  40  65  93 121 159 203 250 301 361
#
# _framework density 18.311948999999998
#
# number of rings (size 3 to 8) (size 9 to 14) (size 15 to 20)
#    0.000    1.333    3.333    2.500    0.000    4.333 
#    0.000    1.667    0.000    0.000    0.000    0.000 
#    0.000    0.000    0.000    0.000    0.000    0.000 
#
# Total GULP energy -268341.653197 kJ/mol
# GULP energy per Si atom -5590.451108 kJ/mol
# Density = 1.827027 g / cm^3
# Si number density = 18.311949 Si / 1000 Ang^3
#
#
#
# Elastic Constant Matrix: (Units=GPa)
#
#
# Indices 1 2 3 4 5 6 
#
# 1 61.2197 75.8170 73.4627 0.0000 0.0000 0.0000
# 2 75.8170 175.6770 112.7650 0.0000 0.0000 0.0000
# 3 73.4627 112.7650 219.0120 0.0000 0.0000 0.0000
# 4 0.0000 0.0000 0.0000 33.9858 0.0000 0.0000
# 5 0.0000 0.0000 0.0000 0.0000 31.2154 0.0000
# 6 0.0000 0.0000 0.0000 0.0000 0.0000 25.9860
#
#
#
# Elastic Compliance Matrix: (Units=1/GPa)
#
#
# Indices 1 2 3 4 5 6 
#
# 1 0.041142 -0.013290 -0.006958 0.000000 0.000000 0.000000
# 2 -0.013290 0.012795 -0.002130 0.000000 0.000000 0.000000
# 3 -0.006958 -0.002130 0.007997 0.000000 0.000000 0.000000
# 4 0.000000 0.000000 0.000000 0.029424 0.000000 0.000000
# 5 0.000000 0.000000 0.000000 0.000000 0.032035 0.000000
# 6 0.000000 0.000000 0.000000 0.000000 0.000000 0.038482
#
#
# Mechanical properties :
#
#
# Convention : Reuss Voigt Hill
#
# Bulk Modulus (GPa) = 58.21154 108.88867 83.55010
# Shear Modulus (GPa) = 23.54526 31.16170 27.35348
#
# Velocity S-wave (km/s) = 3.58968 4.12966 3.86910
# Velocity P-wave (km/s) = 7.00278 9.07365 8.10463
#
# Compressibility (1/GPa) = 0.01717872
#
# Stress axis : x y z
#
# Youngs Moduli (GPa) = 24.30594 78.15514 125.05436
#
# Poissons Ratio (x) = 1.03866 0.87008
# Poissons Ratio (y) = 0.32302 0.26639
# Poissons Ratio (z) = 0.16911 0.16648
#
# Static dielectric constant tensor:
#      x y z
#    x 1.618120 0.000000 0.000000 
#    y 0.000000 1.595090 0.000000 
#    z 0.000000 0.000000 1.610400 
# 
# From -- ./inp_files/20314.got.cif
#   From: 2010.05.17/outbox.cif.g08.bks.cpg/sg59_11_cif.got.tgz:20314.got - 2010.06.03 14:40:33.
