data_PCOD9451667
_publ_section_title
;
Structure prediction by ZEFSAII (Michael W. Deem and Ramdas Pophale) SiO2 
 PCOD9451667
Probable space group: P M M N
;
_chemical_formula_sum "Si O2"
_cell_formula_units_Z 64
_cell_length_a 14.657041
_cell_length_b 9.273342
_cell_length_c 24.578244
_cell_angle_alpha 90.000000
_cell_angle_beta 90.000000
_cell_angle_gamma 90.000000
_cell_volume 3340.668876
_symmetry_space_group_name_H-M "P M M N"
_symmetry_group_IT_number 59
_space_group.IT_coordinate_system_code '2'
_symmetry_cell_setting 'orthorhombic'
loop_
_space_group_symop_operation_xyz
x,y,z
1/2-x,1/2-y,z
1/2+x,-y,-z
-x,1/2+y,-z
-x,-y,-z
1/2+x,1/2+y,-z
1/2-x,y,z
x,1/2-y,z
loop_
_atom_site_type_symbol
_atom_site_label
_atom_site_fract_x
_atom_site_fract_y
_atom_site_fract_z
Si Si1 0.358988 0.912795 0.368548
Si Si2 0.645124 0.577795 0.739062
Si Si3 0.860811 0.584497 0.289042
Si Si4 0.357690 0.421495 0.022862
Si Si5 0.480257 0.421144 0.916540
Si Si6 0.594198 0.076163 0.510800
Si Si7 0.855255 0.410305 0.391447
Si Si8 0.531737 0.077365 0.195506
O O1 0.250000 0.902912 0.363808
O O2 0.396731 0.750000 0.364635
O O3 0.374931 0.971820 0.429351
O O4 0.387746 0.007817 0.317507
O O5 0.750000 0.532676 0.750757
O O6 0.645561 0.750000 0.732387
O O7 0.571928 0.543070 0.785322
O O8 0.750000 0.582783 0.286294
O O9 0.890104 0.750000 0.282378
O O10 0.892569 0.522972 0.347877
O O11 0.902625 0.485485 0.242097
O O12 0.250000 0.459849 0.024273
O O13 0.364644 0.250000 0.035587
O O14 0.403831 0.442612 0.963489
O O15 0.424182 0.510589 0.062594
O O16 0.490306 0.250000 0.908125
O O17 0.451211 0.500742 0.861639
O O18 0.591052 0.250000 0.513664
O O19 0.645692 0.043749 0.454480
O O20 0.500000 0.000000 0.500000
O O21 0.750000 0.394717 0.375929
O O22 0.898623 0.250000 0.387422
O O23 0.541221 0.250000 0.191588
#
# Coordination Sequence:
#
# PCOD9451667 Si02
#       8
#     8   8   8   8   8   8   8   8
#     4   9  18  34  54  74  98 131 172 220 275 333
#     4   9  20  38  57  78 106 143 187 232 280 336
#     4  10  22  39  58  81 110 145 188 239 292 342
#     4   9  19  38  63  88 120 162 199 235 284 337
#     4  10  21  37  58  90 125 156 197 243 286 333
#     4  10  21  33  48  74 103 132 168 215 272 338
#     4   9  18  35  56  74  98 135 177 222 276 341
#     4  11  23  38  59  85 117 157 195 235 283 338
#
# _framework density 19.15784
#
# number of rings (size 3 to 8) (size 9 to 14) (size 15 to 20)
#    0.000    2.375    0.000    1.500    1.750    6.000 
#    0.000    2.500    0.000    3.750    0.000    0.000 
#    0.000    0.000    0.000    0.000    0.000    0.000 
#
# Total GULP energy -356736.362259 kJ/mol
# GULP energy per Si atom -5574.005660 kJ/mol
# Density = 1.911424 g / cm^3
# Si number density = 19.157840 Si / 1000 Ang^3
#
#
#
# Elastic Constant Matrix: (Units=GPa)
#
#
# Indices 1 2 3 4 5 6 
#
# 1 42.6406 8.4887 -20.9315 0.0000 0.0000 0.0000
# 2 8.4887 38.3568 24.7678 0.0000 0.0000 0.0000
# 3 -20.9315 24.7678 51.1140 0.0000 0.0000 0.0000
# 4 0.0000 0.0000 0.0000 35.4881 0.0000 0.0000
# 5 0.0000 0.0000 0.0000 0.0000 24.7220 0.0000
# 6 0.0000 0.0000 0.0000 0.0000 0.0000 26.3096
#
#
#
# Elastic Compliance Matrix: (Units=1/GPa)
#
#
# Indices 1 2 3 4 5 6 
#
# 1 0.047851 -0.033827 0.035987 0.000000 0.000000 0.000000
# 2 -0.033827 0.061857 -0.043826 0.000000 0.000000 0.000000
# 3 0.035987 -0.043826 0.055537 0.000000 0.000000 0.000000
# 4 0.000000 0.000000 0.000000 0.028178 0.000000 0.000000
# 5 0.000000 0.000000 0.000000 0.000000 0.040450 0.000000
# 6 0.000000 0.000000 0.000000 0.000000 0.000000 0.038009
#
#
# Mechanical properties :
#
#
# Convention : Reuss Voigt Hill
#
# Bulk Modulus (GPa) = 12.20815 17.41791 14.81303
# Shear Modulus (GPa) = 13.07124 25.28969 19.18047
#
# Velocity S-wave (km/s) = 2.61491 3.63722 3.16758
# Velocity P-wave (km/s) = 3.93741 5.17211 4.59641
#
# Compressibility (1/GPa) = 0.08191250
#
# Stress axis : x y z
#
# Youngs Moduli (GPa) = 20.89804 16.16644 18.00597
#
# Poissons Ratio (x) = 0.54687 -0.64798
# Poissons Ratio (y) = 0.70693 0.78912
# Poissons Ratio (z) = -0.75205 0.70851
#
# Static dielectric constant tensor:
#      x y z
#    x 1.680500 0.000000 0.000000 
#    y 0.000000 1.664770 0.000000 
#    z 0.000000 0.000000 1.691250 
# 
# From -- ./inp_files/32227.got.cif
#   From: 2010.05.17/outbox.cif.g08.bks.cpg/sg59_17_cif.got.tgz:32227.got - 2010.06.03 14:40:33.
