data_PCOD9451029
_publ_section_title
;
Structure prediction by ZEFSAII (Michael W. Deem and Ramdas Pophale) SiO2 
 PCOD9451029
Probable space group: P M M N
;
_chemical_formula_sum "Si O2"
_cell_formula_units_Z 64
_cell_length_a 13.784499
_cell_length_b 19.234176
_cell_length_c 10.965225
_cell_angle_alpha 90.000000
_cell_angle_beta 90.000000
_cell_angle_gamma 90.000000
_cell_volume 2907.248261
_symmetry_space_group_name_H-M "P M M N"
_symmetry_group_IT_number 59
_space_group.IT_coordinate_system_code '2'
_symmetry_cell_setting 'orthorhombic'
loop_
_space_group_symop_operation_xyz
x,y,z
1/2-x,1/2-y,z
1/2+x,-y,-z
-x,1/2+y,-z
-x,-y,-z
1/2+x,1/2+y,-z
1/2-x,y,z
x,1/2-y,z
loop_
_atom_site_type_symbol
_atom_site_label
_atom_site_fract_x
_atom_site_fract_y
_atom_site_fract_z
Si Si1 0.961581 0.167354 0.810574
Si Si2 0.133958 0.533107 0.565148
Si Si3 0.634883 0.962552 0.689654
Si Si4 0.632985 0.329255 0.555594
Si Si5 0.633826 0.673192 0.811953
Si Si6 0.635150 0.901990 0.069567
Si Si7 0.865177 0.167278 0.070565
Si Si8 0.048339 0.529105 0.824185
O O1 0.973489 0.250000 0.804578
O O2 0.909663 0.147076 0.685461
O O3 0.066817 0.134616 0.831209
O O4 0.896396 0.154099 0.930255
O O5 0.250000 0.530078 0.570785
O O6 0.107395 0.490627 0.443146
O O7 0.104858 0.613148 0.542231
O O8 0.095090 0.509511 0.694120
O O9 0.750000 0.975506 0.710955
O O10 0.614443 0.880188 0.702961
O O11 0.564139 0.989106 0.796742
O O12 0.750000 0.329786 0.565679
O O13 0.603296 0.250000 0.528577
O O14 0.750000 0.679699 0.812099
O O15 0.591306 0.750000 0.802064
O O16 0.613794 0.637803 0.943024
O O17 0.750000 0.899125 0.091860
O O18 0.597137 0.980871 0.074049
O O19 0.750000 0.156083 0.087342
O O20 0.883450 0.250000 0.095890
O O21 0.923084 0.109239 0.148118
#
# Coordination Sequence:
#
# PCOD9451029 Si02
#       8
#     8   8   8   8   8   8   8   8
#     4  10  20  35  57  85 116 151 193 242 295 348
#     4  10  21  38  58  82 115 155 199 244 289 341
#     4  10  22  39  62  88 114 151 197 246 294 338
#     4   9  18  34  58  86 115 151 197 247 293 338
#     4   9  19  38  62  86 113 146 187 234 282 336
#     4  11  23  37  56  85 120 156 192 235 291 353
#     4  10  22  40  62  90 124 159 194 237 291 348
#     4  12  24  39  59  86 121 157 195 237 289 353
#
# _framework density 22.013943000000001
#
# number of rings (size 3 to 8) (size 9 to 14) (size 15 to 20)
#    0.000    1.875    0.000    3.750    0.000    7.250 
#    0.000    5.625    0.000    1.500    0.000    5.250 
#    0.000    0.000    0.000    0.000    0.000    0.000 
#
# Total GULP energy -357466.241271 kJ/mol
# GULP energy per Si atom -5585.410020 kJ/mol
# Density = 2.196384 g / cm^3
# Si number density = 22.013943 Si / 1000 Ang^3
#
#
#
# Elastic Constant Matrix: (Units=GPa)
#
#
# Indices 1 2 3 4 5 6 
#
# 1 97.0498 11.7287 15.4881 0.0000 0.0000 0.0000
# 2 11.7287 92.6143 39.0971 0.0000 0.0000 0.0000
# 3 15.4881 39.0971 76.7363 0.0000 0.0000 0.0000
# 4 0.0000 0.0000 0.0000 13.1184 0.0000 0.0000
# 5 0.0000 0.0000 0.0000 0.0000 23.3136 0.0000
# 6 0.0000 0.0000 0.0000 0.0000 0.0000 28.3978
#
#
#
# Elastic Compliance Matrix: (Units=1/GPa)
#
#
# Indices 1 2 3 4 5 6 
#
# 1 0.010670 -0.000563 -0.001867 0.000000 0.000000 0.000000
# 2 -0.000563 0.013786 -0.006910 0.000000 0.000000 0.000000
# 3 -0.001867 -0.006910 0.016929 0.000000 0.000000 0.000000
# 4 0.000000 0.000000 0.000000 0.076229 0.000000 0.000000
# 5 0.000000 0.000000 0.000000 0.000000 0.042893 0.000000
# 6 0.000000 0.000000 0.000000 0.000000 0.000000 0.035214
#
#
# Mechanical properties :
#
#
# Convention : Reuss Voigt Hill
#
# Bulk Modulus (GPa) = 44.04346 44.33648 44.18997
# Shear Modulus (GPa) = 22.52558 26.30506 24.41532
#
# Velocity S-wave (km/s) = 3.20228 3.46052 3.33390
# Velocity P-wave (km/s) = 5.80718 6.01256 5.91076
#
# Compressibility (1/GPa) = 0.02270484
#
# Stress axis : x y z
#
# Youngs Moduli (GPa) = 93.72116 72.53756 59.06969
#
# Poissons Ratio (x) = 0.04086 0.11026
# Poissons Ratio (y) = 0.05279 0.40819
# Poissons Ratio (z) = 0.17494 0.50125
#
# Static dielectric constant tensor:
#      x y z
#    x 1.825040 0.000000 0.000000 
#    y 0.000000 1.875790 0.000000 
#    z 0.000000 0.000000 1.752810 
# 
# From -- ./inp_files/17263.got.cif
#   From: 2010.05.17/outbox.cif.g08.bks.cpg/sg59_9_cif.got.tgz:17263.got - 2010.06.03 14:40:33.
