data_PCOD9451643
_publ_section_title
;
Structure prediction by ZEFSAII (Michael W. Deem and Ramdas Pophale) SiO2 
 PCOD9451643
Probable space group: P M M N
;
_chemical_formula_sum "Si O2"
_cell_formula_units_Z 48
_cell_length_a 28.836860
_cell_length_b 8.522561
_cell_length_c 10.389875
_cell_angle_alpha 90.000000
_cell_angle_beta 90.000000
_cell_angle_gamma 90.000000
_cell_volume 2553.456184
_symmetry_space_group_name_H-M "P M M N"
_symmetry_group_IT_number 59
_space_group.IT_coordinate_system_code '2'
_symmetry_cell_setting 'orthorhombic'
loop_
_space_group_symop_operation_xyz
x,y,z
1/2-x,1/2-y,z
1/2+x,-y,-z
-x,1/2+y,-z
-x,-y,-z
1/2+x,1/2+y,-z
1/2-x,y,z
x,1/2-y,z
loop_
_atom_site_type_symbol
_atom_site_label
_atom_site_fract_x
_atom_site_fract_y
_atom_site_fract_z
Si Si1 0.006463 0.438723 0.146135
Si Si2 0.103544 0.938721 0.253783
Si Si3 0.649609 0.563678 0.487604
Si Si4 0.250000 0.561635 0.579229
Si Si5 0.345975 0.940801 0.999111
Si Si6 0.750000 0.441724 0.121324
Si Si7 0.907309 0.060609 0.243556
O O1 0.008522 0.250000 0.140927
O O2 0.961091 0.483520 0.229567
O O3 0.052714 0.504558 0.211362
O O4 0.000000 0.500000 0.000000
O O5 0.103430 0.750000 0.258704
O O6 0.137896 0.992100 0.139142
O O7 0.121867 0.003323 0.388218
O O8 0.652205 0.750000 0.489732
O O9 0.702001 0.496859 0.482286
O O10 0.621300 0.509419 0.361383
O O11 0.250000 0.750000 0.576048
O O12 0.250000 0.510343 0.729499
O O13 0.345138 0.750000 0.001067
O O14 0.295929 0.994977 0.951814
O O15 0.382909 0.986133 0.890304
O O16 0.750000 0.250000 0.121937
O O17 0.904411 0.250000 0.253983
#
# Coordination Sequence:
#
# PCOD9451643 Si02
#       7
#     8   8   8   4   8   4   8
#     4  11  22  38  63  93 126 163 209 264 319 377
#     4  11  23  41  63  90 126 168 212 258 315 380
#     4  12  26  42  61  93 132 166 205 260 317 372
#     4  11  21  40  69  92 120 168 209 249 308 373
#     4   9  17  33  59  92 119 149 202 258 301 359
#     4   9  16  30  61  94 116 142 195 257 300 349
#     4  10  20  39  64  91 120 160 211 256 304 375
#
# _framework density 18.798051999999998
#
# number of rings (size 3 to 8) (size 9 to 14) (size 15 to 20)
#    0.000    1.500    3.333    2.750    0.000    2.667 
#    0.000    1.667    0.000    0.000    0.000    0.000 
#    0.000    0.000    0.000    0.000    0.000    0.000 
#
# Total GULP energy -268148.843597 kJ/mol
# GULP energy per Si atom -5586.434242 kJ/mol
# Density = 1.875527 g / cm^3
# Si number density = 18.798052 Si / 1000 Ang^3
#
#
#
# Elastic Constant Matrix: (Units=GPa)
#
#
# Indices 1 2 3 4 5 6 
#
# 1 130.6704 35.8742 37.6968 0.0000 0.0000 0.0000
# 2 35.8742 61.5294 30.2254 0.0000 0.0000 0.0000
# 3 37.6968 30.2254 102.6358 0.0000 0.0000 0.0000
# 4 0.0000 0.0000 0.0000 20.1728 0.0000 0.0000
# 5 0.0000 0.0000 0.0000 0.0000 33.6202 0.0000
# 6 0.0000 0.0000 0.0000 0.0000 0.0000 31.9665
#
#
#
# Elastic Compliance Matrix: (Units=1/GPa)
#
#
# Indices 1 2 3 4 5 6 
#
# 1 0.009509 -0.004476 -0.002174 0.000000 0.000000 0.000000
# 2 -0.004476 0.021108 -0.004572 0.000000 0.000000 0.000000
# 3 -0.002174 -0.004572 0.011888 0.000000 0.000000 0.000000
# 4 0.000000 0.000000 0.000000 0.049572 0.000000 0.000000
# 5 0.000000 0.000000 0.000000 0.000000 0.029744 0.000000
# 6 0.000000 0.000000 0.000000 0.000000 0.000000 0.031283
#
#
# Mechanical properties :
#
#
# Convention : Reuss Voigt Hill
#
# Bulk Modulus (GPa) = 49.84988 55.82538 52.83763
# Shear Modulus (GPa) = 27.43703 29.88787 28.66245
#
# Velocity S-wave (km/s) = 3.82457 3.99174 3.90905
# Velocity P-wave (km/s) = 6.78818 7.14193 6.96730
#
# Compressibility (1/GPa) = 0.02006023
#
# Stress axis : x y z
#
# Youngs Moduli (GPa) = 105.16394 47.37520 84.11653
#
# Poissons Ratio (x) = 0.21205 0.18290
# Poissons Ratio (y) = 0.47071 0.38460
# Poissons Ratio (z) = 0.22867 0.21661
#
# Static dielectric constant tensor:
#      x y z
#    x 1.646460 0.000000 0.000000 
#    y 0.000000 1.645320 0.000000 
#    z 0.000000 0.000000 1.618320 
# 
# From -- ./inp_files/13066.got.cif
#   From: 2010.05.17/outbox.cif.g08.bks.cpg/sg59_7_cif.got.tgz:13066.got - 2010.06.03 14:40:33.
