data_PCOD9451133
_publ_section_title
;
Structure prediction by ZEFSAII (Michael W. Deem and Ramdas Pophale) SiO2 
 PCOD9451133
Probable space group: P M M N
;
_chemical_formula_sum "Si O2"
_cell_formula_units_Z 48
_cell_length_a 14.516986
_cell_length_b 17.361519
_cell_length_c 9.870409
_cell_angle_alpha 90.000000
_cell_angle_beta 90.000000
_cell_angle_gamma 90.000000
_cell_volume 2487.707565
_symmetry_space_group_name_H-M "P M M N"
_symmetry_group_IT_number 59
_space_group.IT_coordinate_system_code '2'
_symmetry_cell_setting 'orthorhombic'
loop_
_space_group_symop_operation_xyz
x,y,z
1/2-x,1/2-y,z
1/2+x,-y,-z
-x,1/2+y,-z
-x,-y,-z
1/2+x,1/2+y,-z
1/2-x,y,z
x,1/2-y,z
loop_
_atom_site_type_symbol
_atom_site_label
_atom_site_fract_x
_atom_site_fract_y
_atom_site_fract_z
Si Si1 0.996421 0.841584 0.936208
Si Si2 0.353040 0.657951 0.163775
Si Si3 0.049119 0.582920 0.415899
Si Si4 0.853879 0.571907 0.111494
Si Si5 0.853347 0.658827 0.387660
Si Si6 0.949207 0.055869 0.294980
O O1 0.977285 0.750000 0.944298
O O2 0.021098 0.868872 0.785811
O O3 0.080270 0.860801 0.038737
O O4 0.914874 0.895820 0.990403
O O5 0.250000 0.626339 0.147296
O O6 0.347982 0.750000 0.165991
O O7 0.397896 0.631662 0.304350
O O8 0.097701 0.575684 0.561304
O O9 0.946429 0.618700 0.441132
O O10 0.031189 0.500379 0.345533
O O11 0.750000 0.557909 0.068623
O O12 0.855809 0.637918 0.227985
O O13 0.892690 0.497416 0.190373
O O14 0.750000 0.633344 0.435120
O O15 0.859773 0.750000 0.408349
#
# Coordination Sequence:
#
# PCOD9451133 Si02
#       6
#     8   8   8   8   8   8
#     4  11  22  39  59  85 120 151 192 244 295 352
#     4  10  21  37  59  85 114 154 200 242 287 341
#     4  10  20  37  59  81 120 156 196 241 284 348
#     4  10  20  35  60  87 115 150 192 241 294 351
#     4   9  16  29  54  85 114 149 193 237 285 342
#     4  10  22  38  57  86 118 154 192 237 292 347
#
# _framework density 19.294872000000002
#
# number of rings (size 3 to 8) (size 9 to 14) (size 15 to 20)
#    0.000    2.000    3.333    1.500    0.000    3.667 
#    0.000    3.333    0.000    2.000    0.000    0.000 
#    0.000    0.000    0.000    0.000    0.000    0.000 
#
# Total GULP energy -267525.337861 kJ/mol
# GULP energy per Si atom -5573.444539 kJ/mol
# Density = 1.925096 g / cm^3
# Si number density = 19.294872 Si / 1000 Ang^3
#
#
#
# Elastic Constant Matrix: (Units=GPa)
#
#
# Indices 1 2 3 4 5 6 
#
# 1 57.2942 12.1283 17.9190 0.0000 0.0000 0.0000
# 2 12.1283 39.0943 25.3359 0.0000 0.0000 0.0000
# 3 17.9190 25.3359 89.8722 0.0000 0.0000 0.0000
# 4 0.0000 0.0000 0.0000 33.1523 0.0000 0.0000
# 5 0.0000 0.0000 0.0000 0.0000 -1.4936 0.0000
# 6 0.0000 0.0000 0.0000 0.0000 0.0000 9.5100
#
#
#
# Elastic Compliance Matrix: (Units=1/GPa)
#
#
# Indices 1 2 3 4 5 6 
#
# 1 0.019174 -0.004247 -0.002626 0.000000 0.000000 0.000000
# 2 -0.004247 0.032238 -0.008241 0.000000 0.000000 0.000000
# 3 -0.002626 -0.008241 0.013974 0.000000 0.000000 0.000000
# 4 0.000000 0.000000 0.000000 0.030164 0.000000 0.000000
# 5 0.000000 0.000000 0.000000 0.000000 -0.669521 0.000000
# 6 0.000000 0.000000 0.000000 0.000000 0.000000 0.105153
#
#
# Mechanical properties :
#
#
# Convention : Reuss Voigt Hill
#
# Bulk Modulus (GPa) = 28.44331 33.00302 30.72316
# Shear Modulus (GPa) = -11.71310 16.95891 2.62290
#
# Velocity S-wave (km/s) = -2.46653 2.96790 1.16719
# Velocity P-wave (km/s) = 2.58103 5.37459 4.21592
#
# Compressibility (1/GPa) = 0.03515766
#
# Stress axis : x y z
#
# Youngs Moduli (GPa) = 52.15413 31.01964 71.56253
#
# Poissons Ratio (x) = 0.13173 0.18791
# Poissons Ratio (y) = 0.22148 0.58978
# Poissons Ratio (z) = 0.13695 0.25565
#
# Static dielectric constant tensor:
#      x y z
#    x 1.718400 0.000000 0.000000 
#    y 0.000000 1.686720 0.000000 
#    z 0.000000 0.000000 1.676780 
# 
# From -- ./inp_files/9015.got.cif
#   From: 2010.05.17/outbox.cif.g08.bks.cpg/sg59_5_cif.got.tgz:9015.got - 2010.06.03 14:40:33.
