data_PCOD9451556
_publ_section_title
;
Structure prediction by ZEFSAII (Michael W. Deem and Ramdas Pophale) SiO2 
 PCOD9451556
Probable space group: P M M N
;
_chemical_formula_sum "Si O2"
_cell_formula_units_Z 34
_cell_length_a 9.954009
_cell_length_b 19.121503
_cell_length_c 7.319672
_cell_angle_alpha 90.000000
_cell_angle_beta 90.000000
_cell_angle_gamma 90.000000
_cell_volume 1393.194257
_symmetry_space_group_name_H-M "P M M N"
_symmetry_group_IT_number 59
_space_group.IT_coordinate_system_code '2'
_symmetry_cell_setting 'orthorhombic'
loop_
_space_group_symop_operation_xyz
x,y,z
1/2-x,1/2-y,z
1/2+x,-y,-z
-x,1/2+y,-z
-x,-y,-z
1/2+x,1/2+y,-z
1/2-x,y,z
x,1/2-y,z
loop_
_atom_site_type_symbol
_atom_site_label
_atom_site_fract_x
_atom_site_fract_y
_atom_site_fract_z
Si Si1 0.549852 0.645476 0.038853
Si Si2 0.750000 0.530303 0.976156
Si Si3 0.750000 0.561658 0.541163
Si Si4 0.750000 0.377469 0.885875
Si Si5 0.250000 0.250000 0.797545
Si Si6 0.470761 0.169029 0.378129
Si Si7 0.750000 0.403890 0.451870
O O1 0.614964 0.568019 0.048061
O O2 0.579567 0.669916 0.831759
O O3 0.392875 0.655954 0.071294
O O4 0.634355 0.690468 0.177029
O O5 0.750000 0.540061 0.755843
O O6 0.750000 0.448374 0.004734
O O7 0.622030 0.612331 0.519432
O O8 0.750000 0.488692 0.430289
O O9 0.750000 0.391958 0.670246
O O10 0.464260 0.250000 0.442459
O O11 0.618755 0.135889 0.379040
#
# Coordination Sequence:
#
# PCOD9451556 Si02
#       7
#     8   4   4   4   2   8   4
#     4  10  20  37  66  88 115 149 203 251 294 348
#     4   8  18  35  62  91 119 149 197 250 289 349
#     4   9  20  38  66  86 117 163 206 249 304 353
#     4  11  22  38  56  90 124 165 186 229 308 374
#     4  10  20  40  58  88 108 142 204 252 288 330
#     4  11  21  39  64  91 115 156 210 263 294 346
#     4  11  24  40  55  92 134 159 193 244 309 372
#
# _framework density 24.404350000000001
#
# number of rings (size 3 to 8) (size 9 to 14) (size 15 to 20)
#    0.000    1.882    1.176    3.529    0.000    0.471 
#    4.235    4.706    0.000    0.000    0.000    0.000 
#    0.000    0.000    0.000    0.000    0.000    0.000 
#
# Total GULP energy -189675.821303 kJ/mol
# GULP energy per Si atom -5578.700627 kJ/mol
# Density = 2.434880 g / cm^3
# Si number density = 24.404350 Si / 1000 Ang^3
#
#
#
# Elastic Constant Matrix: (Units=GPa)
#
#
# Indices 1 2 3 4 5 6 
#
# 1 155.2316 23.6114 -5.3803 0.0000 0.0000 0.0000
# 2 23.6114 123.6897 10.3995 0.0000 0.0000 0.0000
# 3 -5.3803 10.3995 83.8888 0.0000 0.0000 0.0000
# 4 0.0000 0.0000 0.0000 20.2026 0.0000 0.0000
# 5 0.0000 0.0000 0.0000 0.0000 -6.2574 0.0000
# 6 0.0000 0.0000 0.0000 0.0000 0.0000 111.0482
#
#
#
# Elastic Compliance Matrix: (Units=1/GPa)
#
#
# Indices 1 2 3 4 5 6 
#
# 1 0.006664 -0.001322 0.000591 0.000000 0.000000 0.000000
# 2 -0.001322 0.008432 -0.001130 0.000000 0.000000 0.000000
# 3 0.000591 -0.001130 0.012099 0.000000 0.000000 0.000000
# 4 0.000000 0.000000 0.000000 0.049499 0.000000 0.000000
# 5 0.000000 0.000000 0.000000 0.000000 -0.159810 0.000000
# 6 0.000000 0.000000 0.000000 0.000000 0.000000 0.009005
#
#
# Mechanical properties :
#
#
# Convention : Reuss Voigt Hill
#
# Bulk Modulus (GPa) = 42.60213 46.67457 44.63835
# Shear Modulus (GPa) = -79.91524 47.27730 -16.31897
#
# Velocity S-wave (km/s) = -5.72865 4.40619 -2.58871
# Velocity P-wave (km/s) = 5.12463 6.71216 3.06523
#
# Compressibility (1/GPa) = 0.02347300
#
# Stress axis : x y z
#
# Youngs Moduli (GPa) = 150.07082 118.59482 82.65446
#
# Poissons Ratio (x) = 0.15675 -0.04887
# Poissons Ratio (y) = 0.19835 0.09341
# Poissons Ratio (z) = -0.08873 0.13402
#
# Static dielectric constant tensor:
#      x y z
#    x 1.813320 0.000000 0.000000 
#    y 0.000000 1.931590 0.000000 
#    z 0.000000 0.000000 2.021410 
# 
# From -- ./inp_files/5512.got.cif
#   From: 2010.05.17/outbox.cif.g08.bks.cpg/sg59_3_cif.got.tgz:5512.got - 2010.06.03 14:40:33.
