data_PCOD9451256
_publ_section_title
;
Structure prediction by ZEFSAII (Michael W. Deem and Ramdas Pophale) SiO2 
 PCOD9451256
Probable space group: P M M N
;
_chemical_formula_sum "Si O2"
_cell_formula_units_Z 48
_cell_length_a 24.101210
_cell_length_b 8.234525
_cell_length_c 11.238099
_cell_angle_alpha 90.000000
_cell_angle_beta 90.000000
_cell_angle_gamma 90.000000
_cell_volume 2230.335787
_symmetry_space_group_name_H-M "P M M N"
_symmetry_group_IT_number 59
_space_group.IT_coordinate_system_code '2'
_symmetry_cell_setting 'orthorhombic'
loop_
_space_group_symop_operation_xyz
x,y,z
1/2-x,1/2-y,z
1/2+x,-y,-z
-x,1/2+y,-z
-x,-y,-z
1/2+x,1/2+y,-z
1/2-x,y,z
x,1/2-y,z
loop_
_atom_site_type_symbol
_atom_site_label
_atom_site_fract_x
_atom_site_fract_y
_atom_site_fract_z
Si Si1 0.188057 0.054648 0.194974
Si Si2 0.081922 0.056770 0.803416
Si Si3 0.477373 0.057296 0.308824
Si Si4 0.373190 0.556726 0.433840
Si Si5 0.081319 0.052026 0.065691
Si Si6 0.314086 0.946750 0.676104
O O1 0.250000 0.988696 0.183412
O O2 0.190486 0.250000 0.190086
O O3 0.144615 0.003354 0.094168
O O4 0.160854 0.009452 0.320899
O O5 0.075861 0.250000 0.801580
O O6 0.145324 0.010878 0.778071
O O7 0.065140 0.993591 0.934883
O O8 0.041783 0.985357 0.702105
O O9 0.471152 0.250000 0.313945
O O10 0.452749 0.996349 0.181312
O O11 0.437545 0.987583 0.410579
O O12 0.369208 0.750000 0.433792
O O13 0.343381 0.496886 0.553352
O O14 0.078075 0.250000 0.064516
O O15 0.250000 0.998888 0.683256
O O16 0.314850 0.750000 0.677869
#
# Coordination Sequence:
#
# PCOD9451256 Si02
#       6
#     8   8   8   8   8   8
#     4   9  17  31  53  80 110 143 179 223 277 332
#     4  11  22  36  57  84 112 144 184 225 264 316
#     4  10  20  37  60  84 112 143 176 220 276 331
#     4  10  20  36  58  82 108 139 181 232 278 320
#     4   8  17  33  53  80 112 145 180 221 271 322
#     4  10  23  42  59  77 108 149 186 222 269 321
#
# _framework density 21.521424
#
# number of rings (size 3 to 8) (size 9 to 14) (size 15 to 20)
#    0.000    2.333    0.000    3.500    0.000    4.000 
#    0.000    9.167    0.000    0.000    0.000    0.000 
#    0.000    0.000    0.000    0.000    0.000    0.000 
#
# Total GULP energy -267999.296456 kJ/mol
# GULP energy per Si atom -5583.318676 kJ/mol
# Density = 2.147244 g / cm^3
# Si number density = 21.521424 Si / 1000 Ang^3
#
#
#
# Elastic Constant Matrix: (Units=GPa)
#
#
# Indices 1 2 3 4 5 6 
#
# 1 93.7064 -5.8854 4.8003 0.0000 0.0000 0.0000
# 2 -5.8854 9.6021 -5.5213 0.0000 0.0000 0.0000
# 3 4.8003 -5.5213 59.1397 0.0000 0.0000 0.0000
# 4 0.0000 0.0000 0.0000 -42.7009 0.0000 0.0000
# 5 0.0000 0.0000 0.0000 0.0000 12.8338 0.0000
# 6 0.0000 0.0000 0.0000 0.0000 0.0000 29.1249
#
#
#
# Elastic Compliance Matrix: (Units=1/GPa)
#
#
# Indices 1 2 3 4 5 6 
#
# 1 0.011103 0.006644 -0.000281 0.000000 0.000000 0.000000
# 2 0.006644 0.114027 0.010106 0.000000 0.000000 0.000000
# 3 -0.000281 0.010106 0.017875 0.000000 0.000000 0.000000
# 4 0.000000 0.000000 0.000000 -0.023419 0.000000 0.000000
# 5 0.000000 0.000000 0.000000 0.000000 0.077919 0.000000
# 6 0.000000 0.000000 0.000000 0.000000 0.000000 0.034335
#
#
# Mechanical properties :
#
#
# Convention : Reuss Voigt Hill
#
# Bulk Modulus (GPa) = 5.68360 16.58171 11.13266
# Shear Modulus (GPa) = 19.41363 11.12187 15.26775
#
# Velocity S-wave (km/s) = 3.00669 2.27575 2.66639
# Velocity P-wave (km/s) = 3.83409 3.82451 3.82930
#
# Compressibility (1/GPa) = 0.17594476
#
# Stress axis : x y z
#
# Youngs Moduli (GPa) = 90.06328 8.76983 55.94267
#
# Poissons Ratio (x) = -0.05827 0.01572
# Poissons Ratio (y) = -0.59838 -0.56537
# Poissons Ratio (z) = 0.02530 -0.08863
#
# Static dielectric constant tensor:
#      x y z
#    x 1.802080 0.000000 0.000000 
#    y 0.000000 1.742080 0.000000 
#    z 0.000000 0.000000 1.800020 
# 
# From -- ./inp_files/18612.got.cif
#   From: 2010.05.17/outbox.cif.g08.bks.cpg/sg59_10_cif.got.tgz:18612.got - 2010.06.03 14:40:33.
