data_PCOD9451092
_publ_section_title
;
Structure prediction by ZEFSAII (Michael W. Deem and Ramdas Pophale) SiO2 
 PCOD9451092
Probable space group: P M M N
;
_chemical_formula_sum "Si O2"
_cell_formula_units_Z 64
_cell_length_a 8.460012
_cell_length_b 14.904725
_cell_length_c 25.047711
_cell_angle_alpha 90.000000
_cell_angle_beta 90.000000
_cell_angle_gamma 90.000000
_cell_volume 3158.369887
_symmetry_space_group_name_H-M "P M M N"
_symmetry_group_IT_number 59
_space_group.IT_coordinate_system_code '2'
_symmetry_cell_setting 'orthorhombic'
loop_
_space_group_symop_operation_xyz
x,y,z
1/2-x,1/2-y,z
1/2+x,-y,-z
-x,1/2+y,-z
-x,-y,-z
1/2+x,1/2+y,-z
1/2-x,y,z
x,1/2-y,z
loop_
_atom_site_type_symbol
_atom_site_label
_atom_site_fract_x
_atom_site_fract_y
_atom_site_fract_z
Si Si1 0.559995 0.010213 0.560129
Si Si2 0.061532 0.532456 0.132813
Si Si3 0.066554 0.848219 0.629186
Si Si4 0.934824 0.848896 0.745064
Si Si5 0.434853 0.454923 0.755835
Si Si6 0.559436 0.146922 0.650923
Si Si7 0.057807 0.646912 0.032787
Si Si8 0.058958 0.646900 0.911095
O O1 0.750000 0.008572 0.559961
O O2 0.509917 0.095990 0.596352
O O3 0.500000 0.000000 0.500000
O O4 0.490766 0.925582 0.591315
O O5 0.250000 0.537033 0.133567
O O6 0.000315 0.582919 0.079778
O O7 0.000149 0.577403 0.187102
O O8 0.011443 0.428806 0.126553
O O9 0.250000 0.862484 0.645812
O O10 0.058659 0.750000 0.603199
O O11 0.957365 0.846290 0.681170
O O12 0.750000 0.859376 0.758796
O O13 0.989770 0.750000 0.764765
O O14 0.028268 0.938736 0.758436
O O15 0.250000 0.439896 0.752837
O O16 0.509588 0.409749 0.703283
O O17 0.750000 0.148668 0.650800
O O18 0.502441 0.250000 0.653577
O O19 0.250000 0.643174 0.032424
O O20 0.013530 0.750000 0.043584
O O21 0.007999 0.625454 0.972249
O O22 0.250000 0.643101 0.908656
O O23 0.012353 0.750000 0.899743
#
# Coordination Sequence:
#
# PCOD9451092 Si02
#       8
#     8   8   8   8   8   8   8   8
#     4  11  23  39  63  93 127 163 201 249 301 352
#     4  11  22  35  56  85 117 153 197 247 298 354
#     4  10  20  35  58  88 121 155 190 233 289 350
#     4  10  20  36  60  87 114 147 189 237 292 355
#     4  12  25  40  60  86 120 159 202 251 303 358
#     4  10  23  45  69  90 118 161 208 251 299 355
#     4   8  16  33  57  83 111 148 194 242 296 359
#     4   9  18  35  58  83 115 154 194 240 298 361
#
# _framework density 20.263618000000001
#
# number of rings (size 3 to 8) (size 9 to 14) (size 15 to 20)
#    0.000    1.875    1.250    3.750    0.000    4.000 
#    0.000    3.125    0.000    2.625    0.000    0.000 
#    0.000    0.000    0.000    0.000    0.000    0.000 
#
# Total GULP energy -357228.401741 kJ/mol
# GULP energy per Si atom -5581.693777 kJ/mol
# Density = 2.021750 g / cm^3
# Si number density = 20.263618 Si / 1000 Ang^3
#
#
#
# Elastic Constant Matrix: (Units=GPa)
#
#
# Indices 1 2 3 4 5 6 
#
# 1 36.0378 16.0316 13.8958 0.0000 0.0000 0.0000
# 2 16.0316 97.8558 60.1715 0.0000 0.0000 0.0000
# 3 13.8958 60.1715 128.5103 0.0000 0.0000 0.0000
# 4 0.0000 0.0000 0.0000 4.6682 0.0000 0.0000
# 5 0.0000 0.0000 0.0000 0.0000 29.1293 0.0000
# 6 0.0000 0.0000 0.0000 0.0000 0.0000 20.8962
#
#
#
# Elastic Compliance Matrix: (Units=1/GPa)
#
#
# Indices 1 2 3 4 5 6 
#
# 1 0.030090 -0.004113 -0.001328 0.000000 0.000000 0.000000
# 2 -0.004113 0.014913 -0.006538 0.000000 0.000000 0.000000
# 3 -0.001328 -0.006538 0.010986 0.000000 0.000000 0.000000
# 4 0.000000 0.000000 0.000000 0.214216 0.000000 0.000000
# 5 0.000000 0.000000 0.000000 0.000000 0.034330 0.000000
# 6 0.000000 0.000000 0.000000 0.000000 0.000000 0.047855
#
#
# Mechanical properties :
#
#
# Convention : Reuss Voigt Hill
#
# Bulk Modulus (GPa) = 31.21879 49.17798 40.19838
# Shear Modulus (GPa) = 12.91902 22.42574 17.67238
#
# Velocity S-wave (km/s) = 2.52771 3.33032 2.95638
# Velocity P-wave (km/s) = 4.89478 6.25378 5.61554
#
# Compressibility (1/GPa) = 0.03203200
#
# Stress axis : x y z
#
# Youngs Moduli (GPa) = 33.23313 67.05492 91.02284
#
# Poissons Ratio (x) = 0.27581 0.12086
# Poissons Ratio (y) = 0.13670 0.59510
# Poissons Ratio (z) = 0.04413 0.43840
#
# Static dielectric constant tensor:
#      x y z
#    x 1.695240 0.000000 0.000000 
#    y 0.000000 1.736470 0.000000 
#    z 0.000000 0.000000 1.720480 
# 
# From -- ./inp_files/31679.got.cif
#   From: 2010.05.17/outbox.cif.g08.bks.cpg/sg59_16_cif.got.tgz:31679.got - 2010.06.03 14:40:33.
