data_PCOD9451288
_publ_section_title
;
Structure prediction by ZEFSAII (Michael W. Deem and Ramdas Pophale) SiO2 
 PCOD9451288
Probable space group: P M M N
;
_chemical_formula_sum "Si O2"
_cell_formula_units_Z 64
_cell_length_a 29.482641
_cell_length_b 8.384195
_cell_length_c 12.805769
_cell_angle_alpha 90.000000
_cell_angle_beta 90.000000
_cell_angle_gamma 90.000000
_cell_volume 3165.435133
_symmetry_space_group_name_H-M "P M M N"
_symmetry_group_IT_number 59
_space_group.IT_coordinate_system_code '2'
_symmetry_cell_setting 'orthorhombic'
loop_
_space_group_symop_operation_xyz
x,y,z
1/2-x,1/2-y,z
1/2+x,-y,-z
-x,1/2+y,-z
-x,-y,-z
1/2+x,1/2+y,-z
1/2-x,y,z
x,1/2-y,z
loop_
_atom_site_type_symbol
_atom_site_label
_atom_site_fract_x
_atom_site_fract_y
_atom_site_fract_z
Si Si1 0.047062 0.557592 0.549118
Si Si2 0.605617 0.935039 0.021400
Si Si3 0.548798 0.061322 0.832195
Si Si4 0.301330 0.557594 0.457739
Si Si5 0.195156 0.069321 0.683212
Si Si6 0.550414 0.439401 0.211647
Si Si7 0.197806 0.561540 0.908881
Si Si8 0.889734 0.444230 0.639031
O O1 0.046564 0.750000 0.551719
O O2 0.053570 0.503724 0.668207
O O3 0.085254 0.506608 0.467324
O O4 0.000000 0.500000 0.500000
O O5 0.600101 0.750000 0.997120
O O6 0.584670 0.973010 0.134604
O O7 0.658624 0.980558 0.023462
O O8 0.576214 0.033235 0.938258
O O9 0.539899 0.250000 0.818615
O O10 0.581011 0.002922 0.737695
O O11 0.500791 0.972983 0.827099
O O12 0.250000 0.498400 0.441661
O O13 0.299916 0.750000 0.456836
O O14 0.317998 0.507044 0.573110
O O15 0.337741 0.503524 0.372167
O O16 0.250000 0.075314 0.679027
O O17 0.178006 0.250000 0.693504
O O18 0.185287 0.971211 0.787532
O O19 0.559515 0.250000 0.207941
O O20 0.250000 0.504759 0.924848
O O21 0.196963 0.750000 0.927639
O O22 0.889739 0.250000 0.642927
#
# Coordination Sequence:
#
# PCOD9451288 Si02
#       8
#     8   8   8   8   8   8   8   8
#     4  10  20  36  58  86 119 153 191 238 295 359
#     4  12  26  42  62  89 121 156 201 248 298 358
#     4  11  22  41  64  84 115 158 204 253 304 358
#     4   9  17  31  53  81 113 153 200 243 288 346
#     4   9  17  30  49  77 114 152 188 232 289 344
#     4  11  23  39  62  91 123 157 198 249 301 358
#     4  10  21  39  62  87 116 152 196 244 295 351
#     4   9  19  35  57  84 116 155 195 244 298 352
#
# _framework density 20.218388999999998
#
# number of rings (size 3 to 8) (size 9 to 14) (size 15 to 20)
#    0.000    1.875    1.250    3.000    1.750    2.750 
#    0.000    2.500    0.000    2.250    0.000    0.000 
#    0.000    0.000    0.000    0.000    0.000    0.000 
#
# Total GULP energy -357420.376293 kJ/mol
# GULP energy per Si atom -5584.693380 kJ/mol
# Density = 2.017237 g / cm^3
# Si number density = 20.218389 Si / 1000 Ang^3
#
#
#
# Elastic Constant Matrix: (Units=GPa)
#
#
# Indices 1 2 3 4 5 6 
#
# 1 82.7293 -2.0845 28.5693 0.0000 0.0000 0.0000
# 2 -2.0845 22.3446 -9.2010 0.0000 0.0000 0.0000
# 3 28.5693 -9.2010 62.5854 0.0000 0.0000 0.0000
# 4 0.0000 0.0000 0.0000 15.1889 0.0000 0.0000
# 5 0.0000 0.0000 0.0000 0.0000 14.3052 0.0000
# 6 0.0000 0.0000 0.0000 0.0000 0.0000 19.7073
#
#
#
# Elastic Compliance Matrix: (Units=1/GPa)
#
#
# Indices 1 2 3 4 5 6 
#
# 1 0.014394 -0.001451 -0.006784 0.000000 0.000000 0.000000
# 2 -0.001451 0.047784 0.007687 0.000000 0.000000 0.000000
# 3 -0.006784 0.007687 0.020205 0.000000 0.000000 0.000000
# 4 0.000000 0.000000 0.000000 0.065837 0.000000 0.000000
# 5 0.000000 0.000000 0.000000 0.000000 0.069905 0.000000
# 6 0.000000 0.000000 0.000000 0.000000 0.000000 0.050743
#
#
# Mechanical properties :
#
#
# Convention : Reuss Voigt Hill
#
# Bulk Modulus (GPa) = 12.30200 22.46966 17.38583
# Shear Modulus (GPa) = 16.83177 19.86533 18.34855
#
# Velocity S-wave (km/s) = 2.88843 3.13795 3.01577
# Velocity P-wave (km/s) = 4.14992 4.92611 4.55458
#
# Compressibility (1/GPa) = 0.08128762
#
# Stress axis : x y z
#
# Youngs Moduli (GPa) = 69.47464 20.92769 49.49275
#
# Poissons Ratio (x) = 0.03036 0.33575
# Poissons Ratio (y) = 0.10078 -0.38045
# Poissons Ratio (z) = 0.47130 -0.16087
#
# Static dielectric constant tensor:
#      x y z
#    x 1.734840 0.000000 0.000000 
#    y 0.000000 1.697750 0.000000 
#    z 0.000000 0.000000 1.698650 
# 
# From -- ./inp_files/19333.got.cif
#   From: 2010.05.17/outbox.cif.g08.bks.cpg/sg59_10_cif.got.tgz:19333.got - 2010.06.03 14:40:33.
