data_PCOD9451309
_publ_section_title
;
Structure prediction by ZEFSAII (Michael W. Deem and Ramdas Pophale) SiO2 
 PCOD9451309
Probable space group: P M M N
;
_chemical_formula_sum "Si O2"
_cell_formula_units_Z 48
_cell_length_a 7.960317
_cell_length_b 15.006583
_cell_length_c 18.647222
_cell_angle_alpha 90.000000
_cell_angle_beta 90.000000
_cell_angle_gamma 90.000000
_cell_volume 2227.544140
_symmetry_space_group_name_H-M "P M M N"
_symmetry_group_IT_number 59
_space_group.IT_coordinate_system_code '2'
_symmetry_cell_setting 'orthorhombic'
loop_
_space_group_symop_operation_xyz
x,y,z
1/2-x,1/2-y,z
1/2+x,-y,-z
-x,1/2+y,-z
-x,-y,-z
1/2+x,1/2+y,-z
1/2-x,y,z
x,1/2-y,z
loop_
_atom_site_type_symbol
_atom_site_label
_atom_site_fract_x
_atom_site_fract_y
_atom_site_fract_z
Si Si1 0.439439 0.250000 0.748884
Si Si2 0.438430 0.750000 0.402576
Si Si3 0.050050 0.250000 0.261254
Si Si4 0.954404 0.250000 0.094720
Si Si5 0.548140 0.100473 0.984039
Si Si6 0.045781 0.447198 0.291282
Si Si7 0.051471 0.059510 0.567177
Si Si8 0.553812 0.079270 0.826399
O O1 0.250000 0.250000 0.777341
O O2 0.436486 0.250000 0.663883
O O3 0.534064 0.162532 0.774371
O O4 0.250000 0.750000 0.373025
O O5 0.466624 0.843665 0.441144
O O6 0.250000 0.250000 0.273807
O O7 0.986132 0.344424 0.292674
O O8 0.020315 0.250000 0.175510
O O9 0.750000 0.250000 0.099257
O O10 0.011903 0.334325 0.046779
O O11 0.750000 0.112948 0.983132
O O12 0.483164 0.111861 0.902742
O O13 0.500000 0.000000 0.000000
O O14 0.250000 0.446928 0.289054
O O15 0.983517 0.495014 0.217648
O O16 0.996569 0.507592 0.359385
O O17 0.250000 0.072969 0.567838
O O18 0.000000 0.000000 0.500000
O O19 0.750000 0.059329 0.839109
#
# Coordination Sequence:
#
# PCOD9451309 Si02
#       8
#     4   4   4   4   8   8   8   8
#     4  12  23  35  58  93 124 155 202 256 311 369
#     4  12  24  44  70  98 133 170 208 255 314 374
#     4  10  22  40  64  90 120 165 219 264 315 381
#     4  10  21  37  56  83 123 164 207 259 320 380
#     4  10  21  37  57  83 116 160 208 258 319 381
#     4  10  21  39  63  91 123 164 215 270 321 379
#     4  12  26  45  70 101 137 175 215 261 314 379
#     4  10  20  36  59  84 119 166 210 256 322 387
#
# _framework density 21.548397000000001
#
# number of rings (size 3 to 8) (size 9 to 14) (size 15 to 20)
#    0.000    1.333    1.667    4.500    0.000    5.333 
#    0.000    3.333    0.000    0.000    0.000    0.000 
#    0.000    0.000    0.000    0.000    0.000    0.000 
#
# Total GULP energy -268030.756413 kJ/mol
# GULP energy per Si atom -5583.974092 kJ/mol
# Density = 2.149935 g / cm^3
# Si number density = 21.548397 Si / 1000 Ang^3
#
#
#
# Elastic Constant Matrix: (Units=GPa)
#
#
# Indices 1 2 3 4 5 6 
#
# 1 42.3953 0.6110 -1.6702 0.0000 0.0000 0.0000
# 2 0.6110 157.2250 34.1316 0.0000 0.0000 0.0000
# 3 -1.6702 34.1316 79.3165 0.0000 0.0000 0.0000
# 4 0.0000 0.0000 0.0000 -6.3242 0.0000 0.0000
# 5 0.0000 0.0000 0.0000 0.0000 25.4854 0.0000
# 6 0.0000 0.0000 0.0000 0.0000 0.0000 20.1416
#
#
#
# Elastic Compliance Matrix: (Units=1/GPa)
#
#
# Indices 1 2 3 4 5 6 
#
# 1 0.023614 -0.000220 0.000592 0.000000 0.000000 0.000000
# 2 -0.000220 0.007018 -0.003025 0.000000 0.000000 0.000000
# 3 0.000592 -0.003025 0.013922 0.000000 0.000000 0.000000
# 4 0.000000 0.000000 0.000000 -0.158124 0.000000 0.000000
# 5 0.000000 0.000000 0.000000 0.000000 0.039238 0.000000
# 6 0.000000 0.000000 0.000000 0.000000 0.000000 0.049649
#
#
# Mechanical properties :
#
#
# Convention : Reuss Voigt Hill
#
# Bulk Modulus (GPa) = 25.47906 38.34240 31.91073
# Shear Modulus (GPa) = -794.23173 24.25152 -384.99010
#
# Velocity S-wave (km/s) = -19.21928 3.35840 -13.38099
# Velocity P-wave (km/s) = 21.92391 5.73330 14.96307
#
# Compressibility (1/GPa) = 0.03924791
#
# Stress axis : x y z
#
# Youngs Moduli (GPa) = 42.34774 142.49571 71.83027
#
# Poissons Ratio (x) = 0.03139 -0.04253
# Poissons Ratio (y) = 0.00933 0.21725
# Poissons Ratio (z) = -0.02507 0.43098
#
# Static dielectric constant tensor:
#      x y z
#    x 1.767920 0.000000 0.000000 
#    y 0.000000 1.771410 0.000000 
#    z 0.000000 0.000000 1.808040 
# 
# From -- ./inp_files/25636.got.cif
#   From: 2010.05.17/outbox.cif.g08.bks.cpg/sg59_13_cif.got.tgz:25636.got - 2010.06.03 14:40:33.
