data_PCOD9451141
_publ_section_title
;
Structure prediction by ZEFSAII (Michael W. Deem and Ramdas Pophale) SiO2 
 PCOD9451141
Probable space group: P M M N
;
_chemical_formula_sum "Si O2"
_cell_formula_units_Z 40
_cell_length_a 13.768169
_cell_length_b 12.848583
_cell_length_c 9.891120
_cell_angle_alpha 90.000000
_cell_angle_beta 90.000000
_cell_angle_gamma 90.000000
_cell_volume 1749.753590
_symmetry_space_group_name_H-M "P M M N"
_symmetry_group_IT_number 59
_space_group.IT_coordinate_system_code '2'
_symmetry_cell_setting 'orthorhombic'
loop_
_space_group_symop_operation_xyz
x,y,z
1/2-x,1/2-y,z
1/2+x,-y,-z
-x,1/2+y,-z
-x,-y,-z
1/2+x,1/2+y,-z
1/2-x,y,z
x,1/2-y,z
loop_
_atom_site_type_symbol
_atom_site_label
_atom_site_fract_x
_atom_site_fract_y
_atom_site_fract_z
Si Si1 0.131975 0.019530 0.636805
Si Si2 0.366690 0.250000 0.731161
Si Si3 0.015072 0.918127 0.878568
Si Si4 0.646105 0.368252 0.897476
Si Si5 0.367117 0.250000 0.053642
Si Si6 0.368116 0.870483 0.388157
O O1 0.250000 0.011876 0.658286
O O2 0.106743 0.142649 0.654526
O O3 0.070279 0.959755 0.749423
O O4 0.108943 0.958060 0.498771
O O5 0.250000 0.250000 0.737886
O O6 0.397164 0.250000 0.891600
O O7 0.917922 0.849098 0.874984
O O8 0.097499 0.856514 0.959715
O O9 0.000000 0.000000 0.000000
O O10 0.750000 0.421623 0.916403
O O11 0.657430 0.250000 0.849485
O O12 0.598239 0.411340 0.760469
O O13 0.250000 0.250000 0.061164
O O14 0.250000 0.868017 0.382315
O O15 0.399394 0.750000 0.420111
#
# Coordination Sequence:
#
# PCOD9451141 Si02
#       6
#     8   4   8   8   4   8
#     4  10  20  35  60  96 130 166 214 265 315 380
#     4   9  18  36  58  80 123 178 211 249 313 377
#     4  12  23  36  61  92 117 162 219 260 314 376
#     4   9  18  35  59  91 129 160 194 255 329 388
#     4  11  24  42  57  80 127 174 208 257 324 385
#     4   8  16  32  56  89 131 167 195 250 327 383
#
# _framework density 22.860361000000001
#
# number of rings (size 3 to 8) (size 9 to 14) (size 15 to 20)
#    0.000    2.200    3.000    1.800    1.400    0.800 
#    0.000    1.000    0.000    2.400    0.000   11.200 
#    0.000    0.000    0.000    0.000    0.000    0.000 
#
# Total GULP energy -222734.375901 kJ/mol
# GULP energy per Si atom -5568.359398 kJ/mol
# Density = 2.280833 g / cm^3
# Si number density = 22.860361 Si / 1000 Ang^3
#
#
#
# Elastic Constant Matrix: (Units=GPa)
#
#
# Indices 1 2 3 4 5 6 
#
# 1 105.2064 21.0470 18.6427 0.0000 0.0000 0.0000
# 2 21.0470 95.6447 21.9228 0.0000 0.0000 0.0000
# 3 18.6427 21.9228 90.1710 0.0000 0.0000 0.0000
# 4 0.0000 0.0000 0.0000 18.4763 0.0000 0.0000
# 5 0.0000 0.0000 0.0000 0.0000 21.9166 0.0000
# 6 0.0000 0.0000 0.0000 0.0000 0.0000 33.7949
#
#
#
# Elastic Compliance Matrix: (Units=1/GPa)
#
#
# Indices 1 2 3 4 5 6 
#
# 1 0.010170 -0.001860 -0.001650 0.000000 0.000000 0.000000
# 2 -0.001860 0.011412 -0.002390 0.000000 0.000000 0.000000
# 3 -0.001650 -0.002390 0.012012 0.000000 0.000000 0.000000
# 4 0.000000 0.000000 0.000000 0.054123 0.000000 0.000000
# 5 0.000000 0.000000 0.000000 0.000000 0.045627 0.000000
# 6 0.000000 0.000000 0.000000 0.000000 0.000000 0.029590
#
#
# Mechanical properties :
#
#
# Convention : Reuss Voigt Hill
#
# Bulk Modulus (GPa) = 45.88412 46.02745 45.95578
# Shear Modulus (GPa) = 27.47244 30.13154 28.80199
#
# Velocity S-wave (km/s) = 3.47039 3.63446 3.55337
# Velocity P-wave (km/s) = 6.01441 6.14738 6.08126
#
# Compressibility (1/GPa) = 0.02179403
#
# Stress axis : x y z
#
# Youngs Moduli (GPa) = 98.33232 87.62378 83.24749
#
# Poissons Ratio (x) = 0.16294 0.13739
# Poissons Ratio (y) = 0.18286 0.19898
# Poissons Ratio (z) = 0.16229 0.20944
#
# Static dielectric constant tensor:
#      x y z
#    x 2.385360 0.000000 0.000000 
#    y 0.000000 1.931310 0.000000 
#    z 0.000000 0.000000 1.859980 
# 
# From -- ./inp_files/8648.got.cif
#   From: 2010.05.17/outbox.cif.g08.bks.cpg/sg59_5_cif.got.tgz:8648.got - 2010.06.03 14:40:33.
