data_PCOD9451405
_publ_section_title
;
Structure prediction by ZEFSAII (Michael W. Deem and Ramdas Pophale) SiO2 
 PCOD9451405
Probable space group: P M M N
;
_chemical_formula_sum "Si O2"
_cell_formula_units_Z 64
_cell_length_a 22.965014
_cell_length_b 13.996400
_cell_length_c 9.421872
_cell_angle_alpha 90.000000
_cell_angle_beta 90.000000
_cell_angle_gamma 90.000000
_cell_volume 3028.448969
_symmetry_space_group_name_H-M "P M M N"
_symmetry_group_IT_number 59
_space_group.IT_coordinate_system_code '2'
_symmetry_cell_setting 'orthorhombic'
loop_
_space_group_symop_operation_xyz
x,y,z
1/2-x,1/2-y,z
1/2+x,-y,-z
-x,1/2+y,-z
-x,-y,-z
1/2+x,1/2+y,-z
1/2-x,y,z
x,1/2-y,z
loop_
_atom_site_type_symbol
_atom_site_label
_atom_site_fract_x
_atom_site_fract_y
_atom_site_fract_z
Si Si1 0.055084 0.861473 0.483133
Si Si2 0.431286 0.140209 0.221588
Si Si3 0.909005 0.009069 0.260175
Si Si4 0.813600 0.645821 0.953604
Si Si5 0.113203 0.862273 0.193795
Si Si6 0.815609 0.442774 0.058260
Si Si7 0.984907 0.865663 0.067518
Si Si8 0.578601 0.638866 0.464047
O O1 0.064644 0.750000 0.519051
O O2 0.100328 0.887605 0.357761
O O3 0.989692 0.865767 0.418155
O O4 0.057823 0.924704 0.624722
O O5 0.447975 0.250000 0.250165
O O6 0.367754 0.136993 0.150865
O O7 0.425158 0.098061 0.376651
O O8 0.474831 0.108946 0.098152
O O9 0.944992 0.941005 0.152226
O O10 0.882938 0.927810 0.365081
O O11 0.864230 0.076872 0.176219
O O12 0.750000 0.641906 0.881175
O O13 0.818810 0.750000 0.022742
O O14 0.814714 0.557931 0.058874
O O15 0.126820 0.750000 0.190692
O O16 0.051322 0.875949 0.114587
O O17 0.161058 0.914413 0.097819
O O18 0.750000 0.406804 0.081990
O O19 0.969571 0.750000 0.084699
O O20 0.596243 0.750000 0.461816
#
# Coordination Sequence:
#
# PCOD9451405 Si02
#       8
#     8   8   8   8   8   8   8   8
#     4  10  23  41  59  90 128 164 206 253 315 389
#     4   9  18  32  55  89 128 163 202 248 301 366
#     4  12  23  36  63  89 130 169 198 253 328 377
#     4   9  18  35  58  83 116 159 204 252 300 351
#     4  10  23  44  67  88 120 162 210 266 316 368
#     4  11  26  43  62  93 122 159 216 264 304 367
#     4  10  20  36  61  98 130 162 209 260 315 381
#     4  10  21  37  58  91 134 167 198 242 305 389
#
# _framework density 21.132930000000002
#
# number of rings (size 3 to 8) (size 9 to 14) (size 15 to 20)
#    0.000    1.875    2.500    0.750    3.500    1.750 
#    0.000    1.250    0.000    1.500    0.000    0.000 
#    0.000    0.000    0.000    0.000    0.000    0.000 
#
# Total GULP energy -356914.724191 kJ/mol
# GULP energy per Si atom -5576.792565 kJ/mol
# Density = 2.108483 g / cm^3
# Si number density = 21.132930 Si / 1000 Ang^3
#
#
#
# Elastic Constant Matrix: (Units=GPa)
#
#
# Indices 1 2 3 4 5 6 
#
# 1 56.8658 2.8209 1.8917 0.0000 0.0000 0.0000
# 2 2.8209 93.4292 18.9999 0.0000 0.0000 0.0000
# 3 1.8917 18.9999 91.8551 0.0000 0.0000 0.0000
# 4 0.0000 0.0000 0.0000 30.2515 0.0000 0.0000
# 5 0.0000 0.0000 0.0000 0.0000 13.6558 0.0000
# 6 0.0000 0.0000 0.0000 0.0000 0.0000 14.2425
#
#
#
# Elastic Compliance Matrix: (Units=1/GPa)
#
#
# Indices 1 2 3 4 5 6 
#
# 1 0.017618 -0.000478 -0.000264 0.000000 0.000000 0.000000
# 2 -0.000478 0.011186 -0.002304 0.000000 0.000000 0.000000
# 3 -0.000264 -0.002304 0.011369 0.000000 0.000000 0.000000
# 4 0.000000 0.000000 0.000000 0.033056 0.000000 0.000000
# 5 0.000000 0.000000 0.000000 0.000000 0.073229 0.000000
# 6 0.000000 0.000000 0.000000 0.000000 0.000000 0.070212
#
#
# Mechanical properties :
#
#
# Convention : Reuss Voigt Hill
#
# Bulk Modulus (GPa) = 29.34236 32.17502 30.75869
# Shear Modulus (GPa) = 21.35632 26.19246 23.77439
#
# Velocity S-wave (km/s) = 3.18240 3.52435 3.35773
# Velocity P-wave (km/s) = 5.23625 5.64088 5.44233
#
# Compressibility (1/GPa) = 0.03408042
#
# Stress axis : x y z
#
# Youngs Moduli (GPa) = 56.76091 89.39529 87.96065
#
# Poissons Ratio (x) = 0.04276 0.02321
# Poissons Ratio (y) = 0.02715 0.20266
# Poissons Ratio (z) = 0.01498 0.20597
#
# Static dielectric constant tensor:
#      x y z
#    x 1.790520 0.000000 0.000000 
#    y 0.000000 1.842500 0.000000 
#    z 0.000000 0.000000 1.795850 
# 
# From -- ./inp_files/12199.got.cif
#   From: 2010.05.17/outbox.cif.g08.bks.cpg/sg59_7_cif.got.tgz:12199.got - 2010.06.03 14:40:33.
