data_PCOD9451676
_publ_section_title
;
Structure prediction by ZEFSAII (Michael W. Deem and Ramdas Pophale) SiO2 
 PCOD9451676
Probable space group: P M M N
;
_chemical_formula_sum "Si O2"
_cell_formula_units_Z 64
_cell_length_a 24.051560
_cell_length_b 7.585181
_cell_length_c 16.696652
_cell_angle_alpha 90.000000
_cell_angle_beta 90.000000
_cell_angle_gamma 90.000000
_cell_volume 3046.060986
_symmetry_space_group_name_H-M "P M M N"
_symmetry_group_IT_number 59
_space_group.IT_coordinate_system_code '2'
_symmetry_cell_setting 'orthorhombic'
loop_
_space_group_symop_operation_xyz
x,y,z
1/2-x,1/2-y,z
1/2+x,-y,-z
-x,1/2+y,-z
-x,-y,-z
1/2+x,1/2+y,-z
1/2-x,y,z
x,1/2-y,z
loop_
_atom_site_type_symbol
_atom_site_label
_atom_site_fract_x
_atom_site_fract_y
_atom_site_fract_z
Si Si1 0.883663 0.052863 0.684229
Si Si2 0.183456 0.455925 0.464941
Si Si3 0.589937 0.957914 0.954149
Si Si4 0.813974 0.958547 0.840821
Si Si5 0.972237 0.535925 0.112817
Si Si6 0.919245 0.965040 0.277847
Si Si7 0.507442 0.038283 0.593939
Si Si8 0.187310 0.465628 0.642266
O O1 0.898934 0.250000 0.711363
O O2 0.938926 0.969875 0.643964
O O3 0.842681 0.056196 0.608466
O O4 0.848930 0.975096 0.758137
O O5 0.250000 0.463677 0.461847
O O6 0.167111 0.250000 0.457193
O O7 0.167497 0.519290 0.553454
O O8 0.599882 0.750000 0.966422
O O9 0.645120 0.030974 0.910864
O O10 0.535898 0.977983 0.897565
O O11 0.566231 0.028019 0.038838
O O12 0.750000 0.028165 0.835986
O O13 0.808737 0.750000 0.855236
O O14 0.919803 0.750000 0.276008
O O15 0.947304 0.475371 0.196458
O O16 0.811377 0.750000 0.360262
O O17 0.954392 0.019229 0.355082
O O18 0.856154 0.021218 0.291313
O O19 0.511659 0.250000 0.597920
O O20 0.500000 0.000000 0.500000
O O21 0.250000 0.526005 0.655110
O O22 0.972599 0.750000 0.110402
#
# Coordination Sequence:
#
# PCOD9451676 Si02
#       8
#     8   8   8   8   8   8   8   8
#     4  11  22  33  47  71  99 126 164 211 253 294
#     4   9  17  30  48  67  89 124 166 199 232 281
#     4   9  18  33  52  74  98 125 160 200 241 288
#     4  10  21  36  52  71 100 138 174 206 247 304
#     4   9  17  31  53  77  99 125 156 194 244 295
#     4   9  16  28  46  67  93 122 151 187 233 282
#     4  10  21  34  48  69  98 132 166 202 247 295
#     4   8  14  25  43  67  91 116 150 189 226 270
#
# _framework density 21.010743000000002
#
# number of rings (size 3 to 8) (size 9 to 14) (size 15 to 20)
#    0.000    2.625    0.000    3.000    0.000    5.500 
#    0.000    1.250    0.000    4.500    0.000    0.000 
#    0.000    1.000    0.000    0.000    0.000    0.000 
#
# Total GULP energy -356882.870731 kJ/mol
# GULP energy per Si atom -5576.294855 kJ/mol
# Density = 2.096292 g / cm^3
# Si number density = 21.010743 Si / 1000 Ang^3
#
#
#
# Elastic Constant Matrix: (Units=GPa)
#
#
# Indices 1 2 3 4 5 6 
#
# 1 134.3044 5.7734 79.4280 0.0000 0.0000 0.0000
# 2 5.7734 43.4530 -5.3613 0.0000 0.0000 0.0000
# 3 79.4280 -5.3613 105.7508 0.0000 0.0000 0.0000
# 4 0.0000 0.0000 0.0000 1.1313 0.0000 0.0000
# 5 0.0000 0.0000 0.0000 0.0000 31.0833 0.0000
# 6 0.0000 0.0000 0.0000 0.0000 0.0000 12.5547
#
#
#
# Elastic Compliance Matrix: (Units=1/GPa)
#
#
# Indices 1 2 3 4 5 6 
#
# 1 0.013808 -0.003134 -0.010530 0.000000 0.000000 0.000000
# 2 -0.003134 0.023869 0.003564 0.000000 0.000000 0.000000
# 3 -0.010530 0.003564 0.017546 0.000000 0.000000 0.000000
# 4 0.000000 0.000000 0.000000 0.883938 0.000000 0.000000
# 5 0.000000 0.000000 0.000000 0.000000 0.032172 0.000000
# 6 0.000000 0.000000 0.000000 0.000000 0.000000 0.079652
#
#
# Mechanical properties :
#
#
# Convention : Reuss Voigt Hill
#
# Bulk Modulus (GPa) = 28.55223 49.24316 38.89770
# Shear Modulus (GPa) = 4.61741 22.53172 13.57457
#
# Velocity S-wave (km/s) = 1.48405 3.27829 2.54456
# Velocity P-wave (km/s) = 4.06883 6.14960 5.21407
#
# Compressibility (1/GPa) = 0.03502353
#
# Stress axis : x y z
#
# Youngs Moduli (GPa) = 72.42296 41.89462 56.99441
#
# Poissons Ratio (x) = 0.13129 0.60013
# Poissons Ratio (y) = 0.22695 -0.20312
# Poissons Ratio (z) = 0.76259 -0.14930
#
# Static dielectric constant tensor:
#      x y z
#    x 1.784160 0.000000 0.000000 
#    y 0.000000 1.804210 0.000000 
#    z 0.000000 0.000000 1.733120 
# 
# From -- ./inp_files/24652.got.cif
#   From: 2010.05.17/outbox.cif.g08.bks.cpg/sg59_13_cif.got.tgz:24652.got - 2010.06.03 14:40:33.
