data_PCOD9451268
_publ_section_title
;
Structure prediction by ZEFSAII (Michael W. Deem and Ramdas Pophale) SiO2 
 PCOD9451268
Probable space group: P M M N
;
_chemical_formula_sum "Si O2"
_cell_formula_units_Z 40
_cell_length_a 7.754188
_cell_length_b 14.909908
_cell_length_c 15.620076
_cell_angle_alpha 90.000000
_cell_angle_beta 90.000000
_cell_angle_gamma 90.000000
_cell_volume 1805.903055
_symmetry_space_group_name_H-M "P M M N"
_symmetry_group_IT_number 59
_space_group.IT_coordinate_system_code '2'
_symmetry_cell_setting 'orthorhombic'
loop_
_space_group_symop_operation_xyz
x,y,z
1/2-x,1/2-y,z
1/2+x,-y,-z
-x,1/2+y,-z
-x,-y,-z
1/2+x,1/2+y,-z
1/2-x,y,z
x,1/2-y,z
loop_
_atom_site_type_symbol
_atom_site_label
_atom_site_fract_x
_atom_site_fract_y
_atom_site_fract_z
Si Si1 0.960514 0.904236 0.278021
Si Si2 0.950381 0.612912 0.092353
Si Si3 0.551886 0.750000 0.397772
Si Si4 0.961551 0.902594 0.909472
Si Si5 0.938613 0.250000 0.416473
Si Si6 0.548684 0.612232 0.721931
O O1 0.750000 0.911392 0.275423
O O2 0.019760 0.863766 0.186096
O O3 0.019924 0.839959 0.354395
O O4 0.026690 0.005482 0.286636
O O5 0.750000 0.639127 0.092618
O O6 0.967937 0.504376 0.091053
O O7 0.019729 0.640929 0.999144
O O8 0.750000 0.750000 0.368029
O O9 0.553702 0.750000 0.499609
O O10 0.750000 0.906940 0.910408
O O11 0.012832 0.862512 0.817923
O O12 0.750000 0.250000 0.455136
O O13 0.961282 0.334630 0.354431
O O14 0.750000 0.635174 0.717531
#
# Coordination Sequence:
#
# PCOD9451268 Si02
#       6
#     8   8   4   8   4   8
#     4   9  18  34  57  84 113 146 182 220 264 316
#     4   8  13  24  45  75 109 142 176 211 249 301
#     4  10  22  40  59  80 108 140 179 228 277 324
#     4   8  14  25  45  75 108 142 176 209 251 304
#     4  12  26  42  59  78 102 136 181 232 283 332
#     4  10  20  36  58  83 112 145 180 221 269 320
#
# _framework density 22.149581000000001
#
# number of rings (size 3 to 8) (size 9 to 14) (size 15 to 20)
#    0.000    2.800    0.000    1.500    0.000    2.400 
#    0.000    1.000    0.000    4.800    0.000    1.400 
#    0.000    0.000    0.000    0.000    0.000    0.000 
#
# Total GULP energy -222983.162882 kJ/mol
# GULP energy per Si atom -5574.579072 kJ/mol
# Density = 2.209917 g / cm^3
# Si number density = 22.149581 Si / 1000 Ang^3
#
#
#
# Elastic Constant Matrix: (Units=GPa)
#
#
# Indices 1 2 3 4 5 6 
#
# 1 41.0155 -3.1899 -7.9436 0.0000 0.0000 0.0000
# 2 -3.1899 90.9121 51.8317 0.0000 0.0000 0.0000
# 3 -7.9436 51.8317 159.6885 0.0000 0.0000 0.0000
# 4 0.0000 0.0000 0.0000 35.4261 0.0000 0.0000
# 5 0.0000 0.0000 0.0000 0.0000 12.0647 0.0000
# 6 0.0000 0.0000 0.0000 0.0000 0.0000 22.3805
#
#
#
# Elastic Compliance Matrix: (Units=1/GPa)
#
#
# Indices 1 2 3 4 5 6 
#
# 1 0.024621 0.000203 0.001159 0.000000 0.000000 0.000000
# 2 0.000203 0.013499 -0.004371 0.000000 0.000000 0.000000
# 3 0.001159 -0.004371 0.007739 0.000000 0.000000 0.000000
# 4 0.000000 0.000000 0.000000 0.028228 0.000000 0.000000
# 5 0.000000 0.000000 0.000000 0.000000 0.082886 0.000000
# 6 0.000000 0.000000 0.000000 0.000000 0.000000 0.044682
#
#
# Mechanical properties :
#
#
# Convention : Reuss Voigt Hill
#
# Bulk Modulus (GPa) = 25.10024 41.44584 33.27304
# Shear Modulus (GPa) = 22.62918 30.70213 26.66566
#
# Velocity S-wave (km/s) = 3.19980 3.72711 3.47348
# Velocity P-wave (km/s) = 5.00084 6.10526 5.58044
#
# Compressibility (1/GPa) = 0.03984025
#
# Stress axis : x y z
#
# Youngs Moduli (GPa) = 40.61531 74.07939 129.22060
#
# Poissons Ratio (x) = -0.01506 -0.14974
# Poissons Ratio (y) = -0.00825 0.56488
# Poissons Ratio (z) = -0.04706 0.32383
#
# Static dielectric constant tensor:
#      x y z
#    x 1.806260 0.000000 0.000000 
#    y 0.000000 1.810180 0.000000 
#    z 0.000000 0.000000 1.829610 
# 
# From -- ./inp_files/19928.got.cif
#   From: 2010.05.17/outbox.cif.g08.bks.cpg/sg59_10_cif.got.tgz:19928.got - 2010.06.03 14:40:33.
