data_PCOD9451147
_publ_section_title
;
Structure prediction by ZEFSAII (Michael W. Deem and Ramdas Pophale) SiO2 
 PCOD9451147
Probable space group: P M M N
;
_chemical_formula_sum "Si O2"
_cell_formula_units_Z 64
_cell_length_a 16.902980
_cell_length_b 14.583732
_cell_length_c 12.997853
_cell_angle_alpha 90.000000
_cell_angle_beta 90.000000
_cell_angle_gamma 90.000000
_cell_volume 3204.081640
_symmetry_space_group_name_H-M "P M M N"
_symmetry_group_IT_number 59
_space_group.IT_coordinate_system_code '2'
_symmetry_cell_setting 'orthorhombic'
loop_
_space_group_symop_operation_xyz
x,y,z
1/2-x,1/2-y,z
1/2+x,-y,-z
-x,1/2+y,-z
-x,-y,-z
1/2+x,1/2+y,-z
1/2-x,y,z
x,1/2-y,z
loop_
_atom_site_type_symbol
_atom_site_label
_atom_site_fract_x
_atom_site_fract_y
_atom_site_fract_z
Si Si1 0.953106 0.140534 0.814421
Si Si2 0.563176 0.471313 0.194131
Si Si3 0.161980 0.531468 0.597145
Si Si4 0.928481 0.143678 0.578107
Si Si5 0.346393 0.552953 0.009943
Si Si6 0.840801 0.651664 0.933303
Si Si7 0.890346 0.855985 0.496617
Si Si8 0.082443 0.354445 0.271855
O O1 0.969975 0.250000 0.819098
O O2 0.920319 0.120271 0.698847
O O3 0.889263 0.111614 0.900999
O O4 0.029827 0.074477 0.825926
O O5 0.614359 0.464490 0.297223
O O6 0.485314 0.412499 0.218066
O O7 0.613595 0.429789 0.100391
O O8 0.250000 0.568142 0.609523
O O9 0.118024 0.583284 0.504152
O O10 0.162910 0.425121 0.565578
O O11 0.905348 0.250000 0.565251
O O12 0.021310 0.136316 0.549787
O O13 0.250000 0.562188 0.011159
O O14 0.369625 0.446123 0.028682
O O15 0.750000 0.655785 0.966144
O O16 0.879442 0.750000 0.962960
O O17 0.846883 0.647086 0.809643
O O18 0.865719 0.750000 0.492696
O O19 0.894620 0.886954 0.615412
O O20 0.053532 0.250000 0.286369
#
# Coordination Sequence:
#
# PCOD9451147 Si02
#       8
#     8   8   8   8   8   8   8   8
#     4  11  24  42  68  94 120 163 216 263 307 366
#     4  12  23  42  61  92 126 164 206 256 302 375
#     4  12  25  38  62  95 131 169 204 248 310 374
#     4  10  21  41  66  92 122 161 209 259 304 358
#     4  11  25  43  62  88 125 164 204 258 319 373
#     4   9  19  36  58  88 121 153 198 259 320 369
#     4  10  20  38  61  89 125 162 204 250 300 364
#     4  10  20  35  63  92 118 158 204 251 305 365
#
# _framework density 19.974520999999999
#
# number of rings (size 3 to 8) (size 9 to 14) (size 15 to 20)
#    0.000    1.375    3.750    1.875    0.000    2.750 
#    0.000    2.500    0.000    4.500    0.000    0.000 
#    0.000    0.000    0.000    0.000    0.000    0.000 
#
# Total GULP energy -357101.268307 kJ/mol
# GULP energy per Si atom -5579.707317 kJ/mol
# Density = 1.992906 g / cm^3
# Si number density = 19.974521 Si / 1000 Ang^3
#
#
#
# Elastic Constant Matrix: (Units=GPa)
#
#
# Indices 1 2 3 4 5 6 
#
# 1 53.4356 14.0621 18.3295 0.0000 0.0000 0.0000
# 2 14.0621 59.1190 16.4404 0.0000 0.0000 0.0000
# 3 18.3295 16.4404 99.0678 0.0000 0.0000 0.0000
# 4 0.0000 0.0000 0.0000 22.2483 0.0000 0.0000
# 5 0.0000 0.0000 0.0000 0.0000 -60.3539 0.0000
# 6 0.0000 0.0000 0.0000 0.0000 0.0000 5.4267
#
#
#
# Elastic Compliance Matrix: (Units=1/GPa)
#
#
# Indices 1 2 3 4 5 6 
#
# 1 0.020881 -0.004081 -0.003186 0.000000 0.000000 0.000000
# 2 -0.004081 0.018531 -0.002320 0.000000 0.000000 0.000000
# 3 -0.003186 -0.002320 0.011069 0.000000 0.000000 0.000000
# 4 0.000000 0.000000 0.000000 0.044947 0.000000 0.000000
# 5 0.000000 0.000000 0.000000 0.000000 -0.016569 0.000000
# 6 0.000000 0.000000 0.000000 0.000000 0.000000 0.184274
#
#
# Mechanical properties :
#
#
# Convention : Reuss Voigt Hill
#
# Bulk Modulus (GPa) = 31.94247 34.36513 33.15380
# Shear Modulus (GPa) = 17.07984 4.31692 10.69838
#
# Velocity S-wave (km/s) = 2.92735 1.47170 2.31682
# Velocity P-wave (km/s) = 5.23948 4.48661 4.87759
#
# Compressibility (1/GPa) = 0.03130628
#
# Stress axis : x y z
#
# Youngs Moduli (GPa) = 47.89064 53.96395 90.34527
#
# Poissons Ratio (x) = 0.22021 0.28786
# Poissons Ratio (y) = 0.19543 0.20962
# Poissons Ratio (z) = 0.15259 0.12521
#
# Static dielectric constant tensor:
#      x y z
#    x 1.748930 0.000000 0.000000 
#    y 0.000000 1.758610 0.000000 
#    z 0.000000 0.000000 1.720160 
# 
# From -- ./inp_files/17831.got.cif
#   From: 2010.05.17/outbox.cif.g08.bks.cpg/sg59_9_cif.got.tgz:17831.got - 2010.06.03 14:40:33.
