data_PCOD9451448
_publ_section_title
;
Structure prediction by ZEFSAII (Michael W. Deem and Ramdas Pophale) SiO2 
 PCOD9451448
Probable space group: P M M N
;
_chemical_formula_sum "Si O2"
_cell_formula_units_Z 40
_cell_length_a 15.645865
_cell_length_b 13.342313
_cell_length_c 9.494231
_cell_angle_alpha 90.000000
_cell_angle_beta 90.000000
_cell_angle_gamma 90.000000
_cell_volume 1981.939975
_symmetry_space_group_name_H-M "P M M N"
_symmetry_group_IT_number 59
_space_group.IT_coordinate_system_code '2'
_symmetry_cell_setting 'orthorhombic'
loop_
_space_group_symop_operation_xyz
x,y,z
1/2-x,1/2-y,z
1/2+x,-y,-z
-x,1/2+y,-z
-x,-y,-z
1/2+x,1/2+y,-z
1/2-x,y,z
x,1/2-y,z
loop_
_atom_site_type_symbol
_atom_site_label
_atom_site_fract_x
_atom_site_fract_y
_atom_site_fract_z
Si Si1 0.153184 0.634968 0.094137
Si Si2 0.423750 0.509706 0.337195
Si Si3 0.495641 0.131718 0.108270
Si Si4 0.344835 0.129285 0.890151
Si Si5 0.915479 0.869524 0.419176
O O1 0.250000 0.628622 0.043721
O O2 0.136845 0.750000 0.140831
O O3 0.137676 0.563069 0.226167
O O4 0.084788 0.616087 0.971518
O O5 0.482830 0.434824 0.245236
O O6 0.486056 0.594345 0.401898
O O7 0.381385 0.440049 0.455745
O O8 0.487643 0.250000 0.141173
O O9 0.420266 0.103637 0.998111
O O10 0.250000 0.090725 0.925746
O O11 0.341082 0.250000 0.896819
O O12 0.370241 0.106980 0.729489
O O13 0.908903 0.750000 0.445471
#
# Coordination Sequence:
#
# PCOD9451448 Si02
#       5
#     8   8   8   8   8
#     4  10  21  37  58  84 116 152 190 237 290 344
#     4  11  21  35  58  86 111 149 198 238 285 344
#     4  10  20  37  58  85 117 149 192 243 291 341
#     4   9  18  34  56  80 110 149 186 229 291 349
#     4  10  21  37  56  81 116 152 188 236 292 346
#
# _framework density 20.182245999999999
#
# number of rings (size 3 to 8) (size 9 to 14) (size 15 to 20)
#    0.000    2.000    2.000    1.800    0.000    1.600 
#    0.000    0.000    0.000    7.200    0.000   11.200 
#    0.000    0.000    0.000    0.000    0.000    0.000 
#
# Total GULP energy -223387.767060 kJ/mol
# GULP energy per Si atom -5584.694177 kJ/mol
# Density = 2.013631 g / cm^3
# Si number density = 20.182246 Si / 1000 Ang^3
#
#
#
# Elastic Constant Matrix: (Units=GPa)
#
#
# Indices 1 2 3 4 5 6 
#
# 1 79.1379 3.8612 5.6487 0.0000 0.0000 0.0000
# 2 3.8612 110.2999 21.3014 0.0000 0.0000 0.0000
# 3 5.6487 21.3014 67.2625 0.0000 0.0000 0.0000
# 4 0.0000 0.0000 0.0000 43.4496 0.0000 0.0000
# 5 0.0000 0.0000 0.0000 0.0000 -51.7259 0.0000
# 6 0.0000 0.0000 0.0000 0.0000 0.0000 -0.1528
#
#
#
# Elastic Compliance Matrix: (Units=1/GPa)
#
#
# Indices 1 2 3 4 5 6 
#
# 1 0.012719 -0.000255 -0.000988 0.000000 0.000000 0.000000
# 2 -0.000255 0.009662 -0.003038 0.000000 0.000000 0.000000
# 3 -0.000988 -0.003038 0.015912 0.000000 0.000000 0.000000
# 4 0.000000 0.000000 0.000000 0.023015 0.000000 0.000000
# 5 0.000000 0.000000 0.000000 0.000000 -0.019333 0.000000
# 6 0.000000 0.000000 0.000000 0.000000 0.000000 -6.543458
#
#
# Mechanical properties :
#
#
# Convention : Reuss Voigt Hill
#
# Bulk Modulus (GPa) = 33.63354 35.36922 34.50138
# Shear Modulus (GPa) = -0.77125 13.37343 6.30109
#
# Velocity S-wave (km/s) = -0.61885 2.57696 1.76886
# Velocity P-wave (km/s) = 4.02374 5.13977 4.61561
#
# Compressibility (1/GPa) = 0.02973223
#
# Stress axis : x y z
#
# Youngs Moduli (GPa) = 78.62204 103.49934 62.84444
#
# Poissons Ratio (x) = 0.02634 0.06206
# Poissons Ratio (y) = 0.02001 0.19095
# Poissons Ratio (z) = 0.07764 0.31448
#
# Static dielectric constant tensor:
#      x y z
#    x 1.717880 0.000000 0.000000 
#    y 0.000000 1.749900 0.000000 
#    z 0.000000 0.000000 1.695740 
# 
# From -- ./inp_files/8610.got.cif
#   From: 2010.05.17/outbox.cif.g08.bks.cpg/sg59_5_cif.got.tgz:8610.got - 2010.06.03 14:40:33.
