data_PCOD9451036
_publ_section_title
;
Structure prediction by ZEFSAII (Michael W. Deem and Ramdas Pophale) SiO2 
 PCOD9451036
Probable space group: P M M N
;
_chemical_formula_sum "Si O2"
_cell_formula_units_Z 64
_cell_length_a 8.971416
_cell_length_b 14.325051
_cell_length_c 27.047198
_cell_angle_alpha 90.000000
_cell_angle_beta 90.000000
_cell_angle_gamma 90.000000
_cell_volume 3475.997475
_symmetry_space_group_name_H-M "P M M N"
_symmetry_group_IT_number 59
_space_group.IT_coordinate_system_code '2'
_symmetry_cell_setting 'orthorhombic'
loop_
_space_group_symop_operation_xyz
x,y,z
1/2-x,1/2-y,z
1/2+x,-y,-z
-x,1/2+y,-z
-x,-y,-z
1/2+x,1/2+y,-z
1/2-x,y,z
x,1/2-y,z
loop_
_atom_site_type_symbol
_atom_site_label
_atom_site_fract_x
_atom_site_fract_y
_atom_site_fract_z
Si Si1 0.574410 0.012268 0.947096
Si Si2 0.571339 0.358620 0.475175
Si Si3 0.572407 0.030818 0.576527
Si Si4 0.571912 0.642123 0.334335
Si Si5 0.574537 0.354652 0.231610
Si Si6 0.919660 0.357298 0.112685
Si Si7 0.571550 0.452303 0.758566
Si Si8 0.931560 0.143278 0.860897
O O1 0.750000 0.023263 0.954064
O O2 0.536770 0.921892 0.914320
O O3 0.519053 0.097431 0.912484
O O4 0.500000 0.000000 0.000000
O O5 0.750000 0.363978 0.467551
O O6 0.526810 0.250000 0.471714
O O7 0.490476 0.429087 0.437759
O O8 0.540917 0.400952 0.529722
O O9 0.750000 0.026751 0.583285
O O10 0.495087 0.074708 0.624139
O O11 0.750000 0.632122 0.332178
O O12 0.536388 0.750000 0.346164
O O13 0.501056 0.614304 0.282048
O O14 0.250000 0.634808 0.756281
O O15 0.527440 0.250000 0.247160
O O16 0.562502 0.358357 0.171870
O O17 0.482826 0.442220 0.251010
O O18 0.750000 0.388974 0.101526
O O19 0.933104 0.250000 0.096636
O O20 0.750000 0.447236 0.755879
O O21 0.523789 0.418245 0.813418
O O22 0.750000 0.142675 0.861314
O O23 0.980662 0.250000 0.855405
#
# Coordination Sequence:
#
# PCOD9451036 Si02
#       8
#     8   8   8   8   8   8   8   8
#     4  11  22  36  54  79 109 142 181 225 272 327
#     4   9  18  34  57  85 119 159 200 242 293 349
#     4  10  20  35  57  86 119 155 198 247 293 341
#     4  11  24  40  58  83 116 154 194 237 288 343
#     4   9  18  34  57  83 111 142 176 218 270 328
#     4   9  18  34  56  79 104 137 173 213 265 322
#     4  11  21  36  60  87 113 144 186 236 283 334
#     4   9  19  36  56  78 106 141 179 220 271 329
#
# _framework density 18.411981999999998
#
# number of rings (size 3 to 8) (size 9 to 14) (size 15 to 20)
#    0.000    2.125    1.250    3.000    0.000    3.750 
#    0.000    3.125    0.000    7.125    0.000    0.000 
#    0.000    0.000    0.000    0.000    0.000    0.000 
#
# Total GULP energy -357155.145821 kJ/mol
# GULP energy per Si atom -5580.549153 kJ/mol
# Density = 1.837008 g / cm^3
# Si number density = 18.411982 Si / 1000 Ang^3
#
#
#
# Elastic Constant Matrix: (Units=GPa)
#
#
# Indices 1 2 3 4 5 6 
#
# 1 37.7206 36.2407 30.5412 0.0000 0.0000 0.0000
# 2 36.2407 124.9892 33.0398 0.0000 0.0000 0.0000
# 3 30.5412 33.0398 68.2351 0.0000 0.0000 0.0000
# 4 0.0000 0.0000 0.0000 17.8318 0.0000 0.0000
# 5 0.0000 0.0000 0.0000 0.0000 29.1618 0.0000
# 6 0.0000 0.0000 0.0000 0.0000 0.0000 28.3569
#
#
#
# Elastic Compliance Matrix: (Units=1/GPa)
#
#
# Indices 1 2 3 4 5 6 
#
# 1 0.050433 -0.009927 -0.017767 0.000000 0.000000 0.000000
# 2 -0.009927 0.011129 -0.000946 0.000000 0.000000 0.000000
# 3 -0.017767 -0.000946 0.023065 0.000000 0.000000 0.000000
# 4 0.000000 0.000000 0.000000 0.056080 0.000000 0.000000
# 5 0.000000 0.000000 0.000000 0.000000 0.034291 0.000000
# 6 0.000000 0.000000 0.000000 0.000000 0.000000 0.035265
#
#
# Mechanical properties :
#
#
# Convention : Reuss Voigt Hill
#
# Bulk Modulus (GPa) = 36.56401 47.84314 42.20357
# Shear Modulus (GPa) = 18.07288 23.81162 20.94225
#
# Velocity S-wave (km/s) = 3.13642 3.60010 3.37623
# Velocity P-wave (km/s) = 5.74614 6.58196 6.17820
#
# Compressibility (1/GPa) = 0.02734930
#
# Stress axis : x y z
#
# Youngs Moduli (GPa) = 19.82827 89.85622 43.35523
#
# Poissons Ratio (x) = 0.89197 0.77028
# Poissons Ratio (y) = 0.19683 0.04100
# Poissons Ratio (z) = 0.35228 0.08497
#
# Static dielectric constant tensor:
#      x y z
#    x 1.649620 0.000000 0.000000 
#    y 0.000000 1.637620 0.000000 
#    z 0.000000 0.000000 1.619530 
# 
# From -- ./inp_files/31617.got.cif
#   From: 2010.05.17/outbox.cif.g08.bks.cpg/sg59_16_cif.got.tgz:31617.got - 2010.06.03 14:40:33.
