data_PCOD9451004
_publ_section_title
;
Structure prediction by ZEFSAII (Michael W. Deem and Ramdas Pophale) SiO2 
 PCOD9451004
Probable space group: P M M N
;
_chemical_formula_sum "Si O2"
_cell_formula_units_Z 64
_cell_length_a 23.543587
_cell_length_b 8.943799
_cell_length_c 15.637230
_cell_angle_alpha 90.000000
_cell_angle_beta 90.000000
_cell_angle_gamma 90.000000
_cell_volume 3292.717602
_symmetry_space_group_name_H-M "P M M N"
_symmetry_group_IT_number 59
_space_group.IT_coordinate_system_code '2'
_symmetry_cell_setting 'orthorhombic'
loop_
_space_group_symop_operation_xyz
x,y,z
1/2-x,1/2-y,z
1/2+x,-y,-z
-x,1/2+y,-z
-x,-y,-z
1/2+x,1/2+y,-z
1/2-x,y,z
x,1/2-y,z
loop_
_atom_site_type_symbol
_atom_site_label
_atom_site_fract_x
_atom_site_fract_y
_atom_site_fract_z
Si Si1 0.860155 0.572126 0.635249
Si Si2 0.510112 0.571451 0.220640
Si Si3 0.377000 0.572761 0.847019
Si Si4 0.388450 0.429180 0.178095
Si Si5 0.316451 0.430628 0.010937
Si Si6 0.681197 0.919537 0.310178
Si Si7 0.018602 0.570292 0.410128
Si Si8 0.683869 0.415820 0.476724
O O1 0.858815 0.750000 0.622074
O O2 0.852435 0.541584 0.735551
O O3 0.921099 0.504258 0.610939
O O4 0.819724 0.490927 0.568839
O O5 0.511244 0.750000 0.210652
O O6 0.560742 0.496411 0.168189
O O7 0.448965 0.509991 0.189643
O O8 0.516755 0.538415 0.322818
O O9 0.380619 0.750000 0.855300
O O10 0.341109 0.526467 0.763543
O O11 0.345673 0.502671 0.928564
O O12 0.398894 0.250000 0.175346
O O13 0.352764 0.472229 0.094849
O O14 0.250000 0.473147 0.017778
O O15 0.318398 0.250000 0.003020
O O16 0.750000 0.916316 0.308581
O O17 0.661019 0.750000 0.295100
O O18 0.660276 0.978362 0.402265
O O19 0.022443 0.750000 0.417842
O O20 0.000000 0.500000 0.500000
O O21 0.750000 0.400249 0.455667
O O22 0.657647 0.250000 0.476485
#
# Coordination Sequence:
#
# PCOD9451004 Si02
#       8
#     8   8   8   8   8   8   8   8
#     4  10  20  35  57  84 116 152 192 241 294 350
#     4  10  22  40  61  87 120 161 205 247 300 362
#     4  12  25  39  60  89 122 158 198 249 303 362
#     4   9  20  40  64  90 121 156 199 250 302 357
#     4  10  22  42  67  93 121 156 199 248 304 365
#     4  10  21  38  59  82 113 154 198 247 302 361
#     4  10  21  36  56  82 115 154 198 245 292 347
#     4  10  21  36  54  80 115 155 199 244 293 351
#
# _framework density 19.436833
#
# number of rings (size 3 to 8) (size 9 to 14) (size 15 to 20)
#    0.000    1.875    0.000    3.375    1.750    6.750 
#    0.000    1.250    0.000    0.000    0.000    0.000 
#    0.000    0.000    0.000    0.000    0.000    0.000 
#
# Total GULP energy -357324.439011 kJ/mol
# GULP energy per Si atom -5583.194360 kJ/mol
# Density = 1.939259 g / cm^3
# Si number density = 19.436833 Si / 1000 Ang^3
#
#
#
# Elastic Constant Matrix: (Units=GPa)
#
#
# Indices 1 2 3 4 5 6 
#
# 1 69.2102 31.5499 60.0300 0.0000 0.0000 0.0000
# 2 31.5499 68.5084 51.3862 0.0000 0.0000 0.0000
# 3 60.0300 51.3862 129.5669 0.0000 0.0000 0.0000
# 4 0.0000 0.0000 0.0000 20.7331 0.0000 0.0000
# 5 0.0000 0.0000 0.0000 0.0000 30.4260 0.0000
# 6 0.0000 0.0000 0.0000 0.0000 0.0000 26.8429
#
#
#
# Elastic Compliance Matrix: (Units=1/GPa)
#
#
# Indices 1 2 3 4 5 6 
#
# 1 0.024905 -0.004006 -0.009950 0.000000 0.000000 0.000000
# 2 -0.004006 0.021422 -0.006640 0.000000 0.000000 0.000000
# 3 -0.009950 -0.006640 0.014961 0.000000 0.000000 0.000000
# 4 0.000000 0.000000 0.000000 0.048232 0.000000 0.000000
# 5 0.000000 0.000000 0.000000 0.000000 0.032867 0.000000
# 6 0.000000 0.000000 0.000000 0.000000 0.000000 0.037254
#
#
# Mechanical properties :
#
#
# Convention : Reuss Voigt Hill
#
# Bulk Modulus (GPa) = 49.76011 61.46863 55.61437
# Shear Modulus (GPa) = 21.97489 23.88834 22.93162
#
# Velocity S-wave (km/s) = 3.36606 3.50955 3.43855
# Velocity P-wave (km/s) = 6.38464 6.93657 6.66632
#
# Compressibility (1/GPa) = 0.02009642
#
# Stress axis : x y z
#
# Youngs Moduli (GPa) = 40.15218 46.68070 66.83882
#
# Poissons Ratio (x) = 0.18702 0.66505
# Poissons Ratio (y) = 0.16086 0.44380
# Poissons Ratio (z) = 0.39952 0.30995
#
# Static dielectric constant tensor:
#      x y z
#    x 1.653020 0.000000 0.000000 
#    y 0.000000 1.664760 0.000000 
#    z 0.000000 0.000000 1.677570 
# 
# From -- ./inp_files/24725.got.cif
#   From: 2010.05.17/outbox.cif.g08.bks.cpg/sg59_13_cif.got.tgz:24725.got - 2010.06.03 14:40:33.
