data_PCOD9451569
_publ_section_title
;
Structure prediction by ZEFSAII (Michael W. Deem and Ramdas Pophale) SiO2 
 PCOD9451569
Probable space group: P M M N
;
_chemical_formula_sum "Si O2"
_cell_formula_units_Z 48
_cell_length_a 10.116637
_cell_length_b 8.015866
_cell_length_c 29.522146
_cell_angle_alpha 90.000000
_cell_angle_beta 90.000000
_cell_angle_gamma 90.000000
_cell_volume 2394.057293
_symmetry_space_group_name_H-M "P M M N"
_symmetry_group_IT_number 59
_space_group.IT_coordinate_system_code '2'
_symmetry_cell_setting 'orthorhombic'
loop_
_space_group_symop_operation_xyz
x,y,z
1/2-x,1/2-y,z
1/2+x,-y,-z
-x,1/2+y,-z
-x,-y,-z
1/2+x,1/2+y,-z
1/2-x,y,z
x,1/2-y,z
loop_
_atom_site_type_symbol
_atom_site_label
_atom_site_fract_x
_atom_site_fract_y
_atom_site_fract_z
Si Si1 0.396566 0.451959 0.705510
Si Si2 0.600241 0.949218 0.039080
Si Si3 0.598875 0.549387 0.782239
Si Si4 0.028627 0.049277 0.605212
Si Si5 0.099816 0.949883 0.859111
Si Si6 0.250000 0.551312 0.535060
Si Si7 0.750000 0.045278 0.568627
O O1 0.250000 0.507421 0.721139
O O2 0.396722 0.250000 0.705638
O O3 0.514612 0.509892 0.737501
O O4 0.418873 0.509873 0.653809
O O5 0.750000 0.009909 0.029525
O O6 0.603267 0.750000 0.041306
O O7 0.563321 0.013801 0.088947
O O8 0.500000 0.000000 0.000000
O O9 0.750000 0.485864 0.781334
O O10 0.606566 0.750000 0.786385
O O11 0.509316 0.485132 0.824049
O O12 0.026213 0.250000 0.607784
O O13 0.881803 0.989731 0.593992
O O14 0.123911 0.003723 0.564008
O O15 0.250000 0.015046 0.851270
O O16 0.105543 0.750000 0.853538
O O17 0.250000 0.750000 0.532666
O O18 0.250000 0.488102 0.483574
O O19 0.750000 0.250000 0.568351
#
# Coordination Sequence:
#
# PCOD9451569 Si02
#       7
#     8   8   8   8   8   4   4
#     4  10  21  37  58  82 105 139 188 229 267 325
#     4  10  21  36  56  84 117 153 193 238 284 329
#     4  10  22  38  57  84 116 147 179 223 282 338
#     4  10  20  38  59  79 107 146 184 222 272 329
#     4   9  18  35  57  79 109 152 195 230 273 331
#     4  11  21  35  55  85 113 139 181 227 270 325
#     4   9  20  35  57  83 109 143 183 225 272 325
#
# _framework density 20.049645999999999
#
# number of rings (size 3 to 8) (size 9 to 14) (size 15 to 20)
#    0.000    2.167    0.833    1.750    1.167    4.333 
#    0.000    4.583    0.000    0.000    0.000    0.000 
#    0.000    0.000    0.000    0.000    0.000    0.000 
#
# Total GULP energy -268015.650343 kJ/mol
# GULP energy per Si atom -5583.659382 kJ/mol
# Density = 2.000401 g / cm^3
# Si number density = 20.049646 Si / 1000 Ang^3
#
#
#
# Elastic Constant Matrix: (Units=GPa)
#
#
# Indices 1 2 3 4 5 6 
#
# 1 161.6017 12.4229 74.4389 0.0000 0.0000 0.0000
# 2 12.4229 11.3184 4.9503 0.0000 0.0000 0.0000
# 3 74.4389 4.9503 110.6344 0.0000 0.0000 0.0000
# 4 0.0000 0.0000 0.0000 25.4625 0.0000 0.0000
# 5 0.0000 0.0000 0.0000 0.0000 30.3198 0.0000
# 6 0.0000 0.0000 0.0000 0.0000 0.0000 22.4555
#
#
#
# Elastic Compliance Matrix: (Units=1/GPa)
#
#
# Indices 1 2 3 4 5 6 
#
# 1 0.009609 -0.007873 -0.006113 0.000000 0.000000 0.000000
# 2 -0.007873 0.096566 0.000977 0.000000 0.000000 0.000000
# 3 -0.006113 0.000977 0.013108 0.000000 0.000000 0.000000
# 4 0.000000 0.000000 0.000000 0.039273 0.000000 0.000000
# 5 0.000000 0.000000 0.000000 0.000000 0.032982 0.000000
# 6 0.000000 0.000000 0.000000 0.000000 0.000000 0.044533
#
#
# Mechanical properties :
#
#
# Convention : Reuss Voigt Hill
#
# Bulk Modulus (GPa) = 10.72230 51.90875 31.31552
# Shear Modulus (GPa) = 17.05448 28.43041 22.74244
#
# Velocity S-wave (km/s) = 2.91969 3.76972 3.37160
# Velocity P-wave (km/s) = 4.08969 6.70030 5.55066
#
# Compressibility (1/GPa) = 0.09326360
#
# Stress axis : x y z
#
# Youngs Moduli (GPa) = 104.06690 10.35564 76.28797
#
# Poissons Ratio (x) = 0.08153 0.46636
# Poissons Ratio (y) = 0.81934 -0.07450
# Poissons Ratio (z) = 0.63618 -0.01011
#
# Static dielectric constant tensor:
#      x y z
#    x 1.718500 0.000000 0.000000 
#    y 0.000000 1.720650 0.000000 
#    z 0.000000 0.000000 1.680600 
# 
# From -- ./inp_files/32966.got.cif
#   From: 2010.05.17/outbox.cif.g08.bks.cpg/sg59_17_cif.got.tgz:32966.got - 2010.06.03 14:40:33.
