data_PCOD9451069
_publ_section_title
;
Structure prediction by ZEFSAII (Michael W. Deem and Ramdas Pophale) SiO2 
 PCOD9451069
Probable space group: P M M N
;
_chemical_formula_sum "Si O2"
_cell_formula_units_Z 56
_cell_length_a 21.506841
_cell_length_b 8.188220
_cell_length_c 14.455999
_cell_angle_alpha 90.000000
_cell_angle_beta 90.000000
_cell_angle_gamma 90.000000
_cell_volume 2545.741114
_symmetry_space_group_name_H-M "P M M N"
_symmetry_group_IT_number 59
_space_group.IT_coordinate_system_code '2'
_symmetry_cell_setting 'orthorhombic'
loop_
_space_group_symop_operation_xyz
x,y,z
1/2-x,1/2-y,z
1/2+x,-y,-z
-x,1/2+y,-z
-x,-y,-z
1/2+x,1/2+y,-z
1/2-x,y,z
x,1/2-y,z
loop_
_atom_site_type_symbol
_atom_site_label
_atom_site_fract_x
_atom_site_fract_y
_atom_site_fract_z
Si Si1 0.178947 0.560833 0.683484
Si Si2 0.179502 0.443420 0.035351
Si Si3 0.502086 0.946757 0.282071
Si Si4 0.393540 0.939085 0.862139
Si Si5 0.317580 0.443799 0.422048
Si Si6 0.636994 0.443538 0.764948
Si Si7 0.920386 0.935361 0.447664
O O1 0.250000 0.527600 0.665016
O O2 0.164071 0.750000 0.657167
O O3 0.164251 0.548096 0.791495
O O4 0.134561 0.439875 0.628977
O O5 0.250000 0.498783 0.010060
O O6 0.181523 0.250000 0.048770
O O7 0.159480 0.522094 0.132026
O O8 0.128716 0.479891 0.956442
O O9 0.503021 0.750000 0.289237
O O10 0.433778 0.000642 0.252526
O O11 0.524156 0.009687 0.384468
O O12 0.549679 0.994243 0.200059
O O13 0.406661 0.750000 0.881182
O O14 0.250000 0.509794 0.453700
O O15 0.318314 0.250000 0.442298
O O16 0.322416 0.470295 0.313119
O O17 0.381024 0.514176 0.468304
O O18 0.639687 0.250000 0.748047
O O19 0.938130 0.750000 0.472388
#
# Coordination Sequence:
#
# PCOD9451069 Si02
#       7
#     8   8   8   8   8   8   8
#     4   9  17  29  47  76 113 146 177 220 273 327
#     4  11  24  41  61  85 113 148 190 235 284 337
#     4   9  20  39  59  84 117 150 189 233 279 336
#     4  10  20  35  58  86 115 148 185 229 282 338
#     4  10  21  37  57  83 114 148 188 234 284 336
#     4  11  24  40  59  82 111 150 193 239 286 332
#     4   9  18  34  56  80 109 146 186 228 274 331
#
# _framework density 21.997525
#
# number of rings (size 3 to 8) (size 9 to 14) (size 15 to 20)
#    0.000    2.143    0.000    2.571    0.000    8.000 
#    0.000    0.000    0.000    0.000    0.000    0.000 
#    0.000    0.000    0.000    0.000    0.000    0.000 
#
# Total GULP energy -312443.673177 kJ/mol
# GULP energy per Si atom -5579.351307 kJ/mol
# Density = 2.194746 g / cm^3
# Si number density = 21.997525 Si / 1000 Ang^3
#
#
#
# Elastic Constant Matrix: (Units=GPa)
#
#
# Indices 1 2 3 4 5 6 
#
# 1 110.1610 9.2361 25.1707 0.0000 0.0000 0.0000
# 2 9.2361 25.6970 4.1211 0.0000 0.0000 0.0000
# 3 25.1707 4.1211 85.4752 0.0000 0.0000 0.0000
# 4 0.0000 0.0000 0.0000 8.1750 0.0000 0.0000
# 5 0.0000 0.0000 0.0000 0.0000 23.2279 0.0000
# 6 0.0000 0.0000 0.0000 0.0000 0.0000 14.5643
#
#
#
# Elastic Compliance Matrix: (Units=1/GPa)
#
#
# Indices 1 2 3 4 5 6 
#
# 1 0.009978 -0.003139 -0.002787 0.000000 0.000000 0.000000
# 2 -0.003139 0.040206 -0.001014 0.000000 0.000000 0.000000
# 3 -0.002787 -0.001014 0.012569 0.000000 0.000000 0.000000
# 4 0.000000 0.000000 0.000000 0.122324 0.000000 0.000000
# 5 0.000000 0.000000 0.000000 0.000000 0.043052 0.000000
# 6 0.000000 0.000000 0.000000 0.000000 0.000000 0.068661
#
#
# Mechanical properties :
#
#
# Convention : Reuss Voigt Hill
#
# Bulk Modulus (GPa) = 20.46154 33.15433 26.80794
# Shear Modulus (GPa) = 15.29236 21.38044 18.33640
#
# Velocity S-wave (km/s) = 2.63950 3.12099 2.89029
# Velocity P-wave (km/s) = 4.31407 5.30019 4.83235
#
# Compressibility (1/GPa) = 0.04887217
#
# Stress axis : x y z
#
# Youngs Moduli (GPa) = 100.22462 24.87192 79.56174
#
# Poissons Ratio (x) = 0.07808 0.22173
# Poissons Ratio (y) = 0.31463 0.08068
# Poissons Ratio (z) = 0.27931 0.02522
#
# Static dielectric constant tensor:
#      x y z
#    x 1.852580 0.000000 0.000000 
#    y 0.000000 1.797990 0.000000 
#    z 0.000000 0.000000 1.804550 
# 
# From -- ./inp_files/24257.got.cif
#   From: 2010.05.17/outbox.cif.g08.bks.cpg/sg59_13_cif.got.tgz:24257.got - 2010.06.03 14:40:33.
