data_PCOD9451655
_publ_section_title
;
Structure prediction by ZEFSAII (Michael W. Deem and Ramdas Pophale) SiO2 
 PCOD9451655
Probable space group: P M M N
;
_chemical_formula_sum "Si O2"
_cell_formula_units_Z 38
_cell_length_a 8.594683
_cell_length_b 12.871175
_cell_length_c 17.506326
_cell_angle_alpha 90.000000
_cell_angle_beta 90.000000
_cell_angle_gamma 90.000000
_cell_volume 1936.614012
_symmetry_space_group_name_H-M "P M M N"
_symmetry_group_IT_number 59
_space_group.IT_coordinate_system_code '2'
_symmetry_cell_setting 'orthorhombic'
loop_
_space_group_symop_operation_xyz
x,y,z
1/2-x,1/2-y,z
1/2+x,-y,-z
-x,1/2+y,-z
-x,-y,-z
1/2+x,1/2+y,-z
1/2-x,y,z
x,1/2-y,z
loop_
_atom_site_type_symbol
_atom_site_label
_atom_site_fract_x
_atom_site_fract_y
_atom_site_fract_z
Si Si1 0.750000 0.132044 0.525980
Si Si2 0.250000 0.750000 0.737993
Si Si3 0.933020 0.046600 0.078222
Si Si4 0.498704 0.133377 0.657348
Si Si5 0.563984 0.750000 0.845524
Si Si6 0.250000 0.959373 0.638705
Si Si7 0.925151 0.366925 0.831304
O O1 0.750000 0.250000 0.496592
O O2 0.606282 0.120725 0.583440
O O3 0.750000 0.061216 0.452046
O O4 0.415541 0.750000 0.785293
O O5 0.250000 0.853394 0.686180
O O6 0.750000 0.072422 0.072459
O O7 0.030261 0.146784 0.105042
O O8 0.960153 0.954936 0.139539
O O9 0.000000 0.000000 0.000000
O O10 0.427733 0.250000 0.651083
O O11 0.580598 0.133566 0.739567
O O12 0.392294 0.033320 0.658834
O O13 0.750000 0.750000 0.820567
O O14 0.750000 0.387684 0.860385
O O15 0.970796 0.250000 0.855662
#
# Coordination Sequence:
#
# PCOD9451655 Si02
#       7
#     4   2   8   8   4   4   8
#     4  10  20  41  63  91 130 176 220 282 355 405
#     4  12  26  48  70 104 142 192 234 278 348 428
#     4  12  26  45  70 102 138 181 229 285 346 413
#     4  10  21  38  65  91 127 169 221 278 343 405
#     4  12  26  50  74  98 143 189 234 289 347 410
#     4  12  23  38  63  96 135 172 224 283 339 414
#     4  10  21  40  65  97 129 172 222 279 339 411
#
# _framework density 19.621877000000001
#
# number of rings (size 3 to 8) (size 9 to 14) (size 15 to 20)
#    0.000    1.053    2.632    4.105    2.947    0.421 
#    1.895    0.000    0.000    0.000    0.000    0.000 
#    0.000    0.000    0.000    0.000    0.000    0.000 
#
# Total GULP energy -211959.777315 kJ/mol
# GULP energy per Si atom -5577.888877 kJ/mol
# Density = 1.957722 g / cm^3
# Si number density = 19.621877 Si / 1000 Ang^3
#
#
#
# Elastic Constant Matrix: (Units=GPa)
#
#
# Indices 1 2 3 4 5 6 
#
# 1 112.4364 52.4183 30.3928 0.0000 0.0000 0.0000
# 2 52.4183 149.2989 44.0093 0.0000 0.0000 0.0000
# 3 30.3928 44.0093 96.0780 0.0000 0.0000 0.0000
# 4 0.0000 0.0000 0.0000 29.1539 0.0000 0.0000
# 5 0.0000 0.0000 0.0000 0.0000 53.1404 0.0000
# 6 0.0000 0.0000 0.0000 0.0000 0.0000 23.6177
#
#
#
# Elastic Compliance Matrix: (Units=1/GPa)
#
#
# Indices 1 2 3 4 5 6 
#
# 1 0.010947 -0.003263 -0.001968 0.000000 0.000000 0.000000
# 2 -0.003263 0.008716 -0.002960 0.000000 0.000000 0.000000
# 3 -0.001968 -0.002960 0.012387 0.000000 0.000000 0.000000
# 4 0.000000 0.000000 0.000000 0.034301 0.000000 0.000000
# 5 0.000000 0.000000 0.000000 0.000000 0.018818 0.000000
# 6 0.000000 0.000000 0.000000 0.000000 0.000000 0.042341
#
#
# Mechanical properties :
#
#
# Convention : Reuss Voigt Hill
#
# Bulk Modulus (GPa) = 63.82941 67.93934 65.88437
# Shear Modulus (GPa) = 33.53087 36.58195 35.05641
#
# Velocity S-wave (km/s) = 4.13831 4.32249 4.23140
# Velocity P-wave (km/s) = 7.44543 7.72084 7.58439
#
# Compressibility (1/GPa) = 0.01566676
#
# Stress axis : x y z
#
# Youngs Moduli (GPa) = 91.34621 114.72698 80.73120
#
# Poissons Ratio (x) = 0.37440 0.15890
# Poissons Ratio (y) = 0.29810 0.23899
# Poissons Ratio (z) = 0.17979 0.33962
#
# Static dielectric constant tensor:
#      x y z
#    x 1.712890 0.000000 0.000000 
#    y 0.000000 1.663670 0.000000 
#    z 0.000000 0.000000 1.675280 
# 
# From -- ./inp_files/25300.got.cif
#   From: 2010.05.17/outbox.cif.g08.bks.cpg/sg59_13_cif.got.tgz:25300.got - 2010.06.03 14:40:33.
