data_PCOD9451419
_publ_section_title
;
Structure prediction by ZEFSAII (Michael W. Deem and Ramdas Pophale) SiO2 
 PCOD9451419
Probable space group: P M M N
;
_chemical_formula_sum "Si O2"
_cell_formula_units_Z 64
_cell_length_a 15.399314
_cell_length_b 18.358562
_cell_length_c 11.869998
_cell_angle_alpha 90.000000
_cell_angle_beta 90.000000
_cell_angle_gamma 90.000000
_cell_volume 3355.758361
_symmetry_space_group_name_H-M "P M M N"
_symmetry_group_IT_number 59
_space_group.IT_coordinate_system_code '2'
_symmetry_cell_setting 'orthorhombic'
loop_
_space_group_symop_operation_xyz
x,y,z
1/2-x,1/2-y,z
1/2+x,-y,-z
-x,1/2+y,-z
-x,-y,-z
1/2+x,1/2+y,-z
1/2-x,y,z
x,1/2-y,z
loop_
_atom_site_type_symbol
_atom_site_label
_atom_site_fract_x
_atom_site_fract_y
_atom_site_fract_z
Si Si1 0.981936 0.167399 0.406698
Si Si2 0.149858 0.554360 0.480541
Si Si3 0.849303 0.620970 0.006817
Si Si4 0.077641 0.167121 0.757987
Si Si5 0.151663 0.946298 0.988782
Si Si6 0.651400 0.886534 0.470653
Si Si7 0.002974 0.392649 0.165792
Si Si8 0.923025 0.449259 0.767541
O O1 0.959827 0.250000 0.436957
O O2 0.916184 0.110897 0.464262
O O3 0.980565 0.155593 0.272975
O O4 0.078410 0.149167 0.451351
O O5 0.250000 0.574504 0.500788
O O6 0.135390 0.473454 0.530018
O O7 0.131104 0.549709 0.347223
O O8 0.750000 0.635972 0.974053
O O9 0.918549 0.638237 0.909834
O O10 0.873860 0.659123 0.123232
O O11 0.857459 0.533629 0.027881
O O12 0.048080 0.250000 0.742427
O O13 0.138578 0.144846 0.654143
O O14 0.997576 0.111254 0.757640
O O15 0.250000 0.925559 0.959578
O O16 0.079256 0.906948 0.914465
O O17 0.132680 0.933488 0.120681
O O18 0.750000 0.874506 0.510201
O O19 0.033987 0.471552 0.212589
#
# Coordination Sequence:
#
# PCOD9451419 Si02
#       8
#     8   8   8   8   8   8   8   8
#     4  12  26  42  62  91 130 169 205 253 313 378
#     4  11  24  42  70  95 120 162 213 265 312 367
#     4  10  21  37  60  91 121 154 201 254 307 363
#     4  12  23  37  61  90 126 167 203 250 314 372
#     4  10  20  36  64  94 118 153 203 259 310 357
#     4  11  24  42  65  94 124 163 213 261 310 370
#     4  11  21  40  64  89 123 164 207 253 302 367
#     4  11  19  40  65  92 122 156 207 265 304 367
#
# _framework density 19.071694999999998
#
# number of rings (size 3 to 8) (size 9 to 14) (size 15 to 20)
#    0.000    1.000    5.000    3.000    0.000    4.000 
#    0.000    0.000    0.000    1.875    0.000    0.000 
#    0.000    0.000    0.000    0.000    0.000    0.000 
#
# Total GULP energy -357858.022200 kJ/mol
# GULP energy per Si atom -5591.531597 kJ/mol
# Density = 1.902829 g / cm^3
# Si number density = 19.071695 Si / 1000 Ang^3
#
#
#
# Elastic Constant Matrix: (Units=GPa)
#
#
# Indices 1 2 3 4 5 6 
#
# 1 59.8209 5.3232 14.6026 0.0000 0.0000 0.0000
# 2 5.3232 42.3102 16.7139 0.0000 0.0000 0.0000
# 3 14.6026 16.7139 93.2681 0.0000 0.0000 0.0000
# 4 0.0000 0.0000 0.0000 -3.4456 0.0000 0.0000
# 5 0.0000 0.0000 0.0000 0.0000 8.5062 0.0000
# 6 0.0000 0.0000 0.0000 0.0000 0.0000 -0.6478
#
#
#
# Elastic Compliance Matrix: (Units=1/GPa)
#
#
# Indices 1 2 3 4 5 6 
#
# 1 0.017437 -0.001200 -0.002515 0.000000 0.000000 0.000000
# 2 -0.001200 0.025518 -0.004385 0.000000 0.000000 0.000000
# 3 -0.002515 -0.004385 0.011901 0.000000 0.000000 0.000000
# 4 0.000000 0.000000 0.000000 -0.290225 0.000000 0.000000
# 5 0.000000 0.000000 0.000000 0.000000 0.117561 0.000000
# 6 0.000000 0.000000 0.000000 0.000000 0.000000 -1.543782
#
#
# Mechanical properties :
#
#
# Convention : Reuss Voigt Hill
#
# Bulk Modulus (GPa) = 25.86908 29.85317 27.86113
# Shear Modulus (GPa) = -3.06278 11.46654 4.20188
#
# Velocity S-wave (km/s) = -1.26863 2.45467 1.48593
# Velocity P-wave (km/s) = 3.38344 4.87042 4.19337
#
# Compressibility (1/GPa) = 0.03865618
#
# Stress axis : x y z
#
# Youngs Moduli (GPa) = 57.34830 39.18773 84.02417
#
# Poissons Ratio (x) = 0.04704 0.21132
# Poissons Ratio (y) = 0.06884 0.36845
# Poissons Ratio (z) = 0.14423 0.17184
#
# Static dielectric constant tensor:
#      x y z
#    x 1.649980 0.000000 0.000000 
#    y 0.000000 1.643430 0.000000 
#    z 0.000000 0.000000 1.655980 
# 
# From -- ./inp_files/17242.got.cif
#   From: 2010.05.17/outbox.cif.g08.bks.cpg/sg59_9_cif.got.tgz:17242.got - 2010.06.03 14:40:33.
