data_PCOD9451086
_publ_section_title
;
Structure prediction by ZEFSAII (Michael W. Deem and Ramdas Pophale) SiO2 
 PCOD9451086
Probable space group: P M M N
;
_chemical_formula_sum "Si O2"
_cell_formula_units_Z 64
_cell_length_a 14.345626
_cell_length_b 23.781079
_cell_length_c 9.502060
_cell_angle_alpha 90.000000
_cell_angle_beta 90.000000
_cell_angle_gamma 90.000000
_cell_volume 3241.670198
_symmetry_space_group_name_H-M "P M M N"
_symmetry_group_IT_number 59
_space_group.IT_coordinate_system_code '2'
_symmetry_cell_setting 'orthorhombic'
loop_
_space_group_symop_operation_xyz
x,y,z
1/2-x,1/2-y,z
1/2+x,-y,-z
-x,1/2+y,-z
-x,-y,-z
1/2+x,1/2+y,-z
1/2-x,y,z
x,1/2-y,z
loop_
_atom_site_type_symbol
_atom_site_label
_atom_site_fract_x
_atom_site_fract_y
_atom_site_fract_z
Si Si1 0.539066 0.316525 0.551067
Si Si2 0.644621 0.494003 0.576944
Si Si3 0.057871 0.918966 0.917127
Si Si4 0.859189 0.524027 0.251935
Si Si5 0.465347 0.592132 0.235193
Si Si6 0.646080 0.587450 0.812532
Si Si7 0.853272 0.683180 0.608355
Si Si8 0.361188 0.816129 0.738342
O O1 0.540723 0.250000 0.571424
O O2 0.555206 0.348180 0.695834
O O3 0.437325 0.333921 0.492381
O O4 0.609031 0.329775 0.422505
O O5 0.750000 0.471354 0.587271
O O6 0.625789 0.505690 0.414435
O O7 0.575727 0.451552 0.652201
O O8 0.641346 0.550466 0.669904
O O9 0.089494 0.861726 0.838467
O O10 0.946112 0.926541 0.898869
O O11 0.107512 0.971864 0.843912
O O12 0.078969 0.916022 0.082318
O O13 0.750000 0.535145 0.232471
O O14 0.925606 0.576930 0.223398
O O15 0.750000 0.577962 0.874571
O O16 0.638830 0.651012 0.755897
O O17 0.750000 0.669931 0.550955
O O18 0.860202 0.750000 0.628408
O O19 0.250000 0.820803 0.753826
O O20 0.387533 0.750000 0.763158
#
# Coordination Sequence:
#
# PCOD9451086 Si02
#       8
#     8   8   8   8   8   8   8   8
#     4  10  21  39  64  90 118 152 196 252 299 351
#     4  10  22  39  62  86 113 154 202 251 297 347
#     4  12  24  39  59  89 125 164 200 243 299 363
#     4  11  24  41  62  88 119 161 207 250 298 356
#     4  12  25  39  59  89 125 158 199 245 305 361
#     4  10  20  35  58  87 119 154 198 246 295 353
#     4   9  17  32  58  90 117 147 193 247 298 347
#     4  10  22  42  67  91 118 158 205 250 297 353
#
# _framework density 19.742909999999998
#
# number of rings (size 3 to 8) (size 9 to 14) (size 15 to 20)
#    0.000    1.500    2.500    2.625    0.000    5.000 
#    0.000    0.000    0.000    1.500    0.000    1.750 
#    0.000    0.000    0.000    0.000    0.000    0.000 
#
# Total GULP energy -357502.358223 kJ/mol
# GULP energy per Si atom -5585.974347 kJ/mol
# Density = 1.969797 g / cm^3
# Si number density = 19.742910 Si / 1000 Ang^3
#
#
#
# Elastic Constant Matrix: (Units=GPa)
#
#
# Indices 1 2 3 4 5 6 
#
# 1 81.6449 14.0880 22.7376 0.0000 0.0000 0.0000
# 2 14.0880 42.6707 10.4265 0.0000 0.0000 0.0000
# 3 22.7376 10.4265 67.3012 0.0000 0.0000 0.0000
# 4 0.0000 0.0000 0.0000 14.2346 0.0000 0.0000
# 5 0.0000 0.0000 0.0000 0.0000 7.6794 0.0000
# 6 0.0000 0.0000 0.0000 0.0000 0.0000 21.1647
#
#
#
# Elastic Compliance Matrix: (Units=1/GPa)
#
#
# Indices 1 2 3 4 5 6 
#
# 1 0.014036 -0.003612 -0.004183 0.000000 0.000000 0.000000
# 2 -0.003612 0.025287 -0.002697 0.000000 0.000000 0.000000
# 3 -0.004183 -0.002697 0.016689 0.000000 0.000000 0.000000
# 4 0.000000 0.000000 0.000000 0.070251 0.000000 0.000000
# 5 0.000000 0.000000 0.000000 0.000000 0.130218 0.000000
# 6 0.000000 0.000000 0.000000 0.000000 0.000000 0.047248
#
#
# Mechanical properties :
#
#
# Convention : Reuss Voigt Hill
#
# Bulk Modulus (GPa) = 28.54781 31.79122 30.16951
# Shear Modulus (GPa) = 14.86369 18.24006 16.55188
#
# Velocity S-wave (km/s) = 2.74681 3.04284 2.89860
# Velocity P-wave (km/s) = 4.95491 5.33692 5.14946
#
# Compressibility (1/GPa) = 0.03502896
#
# Stress axis : x y z
#
# Youngs Moduli (GPa) = 71.24409 39.54616 59.91798
#
# Poissons Ratio (x) = 0.14285 0.25061
# Poissons Ratio (y) = 0.25735 0.16161
# Poissons Ratio (z) = 0.29798 0.10666
#
# Static dielectric constant tensor:
#      x y z
#    x 1.726040 0.000000 0.000000 
#    y 0.000000 1.722740 0.000000 
#    z 0.000000 0.000000 1.666220 
# 
# From -- ./inp_files/9548.got.cif
#   From: 2010.05.17/outbox.cif.g08.bks.cpg/sg59_5_cif.got.tgz:9548.got - 2010.06.03 14:40:33.
