data_PCOD9451081
_publ_section_title
;
Structure prediction by ZEFSAII (Michael W. Deem and Ramdas Pophale) SiO2 
 PCOD9451081
Probable space group: P M M N
;
_chemical_formula_sum "Si O2"
_cell_formula_units_Z 56
_cell_length_a 14.259992
_cell_length_b 8.724570
_cell_length_c 22.380790
_cell_angle_alpha 90.000000
_cell_angle_beta 90.000000
_cell_angle_gamma 90.000000
_cell_volume 2784.445524
_symmetry_space_group_name_H-M "P M M N"
_symmetry_group_IT_number 59
_space_group.IT_coordinate_system_code '2'
_symmetry_cell_setting 'orthorhombic'
loop_
_space_group_symop_operation_xyz
x,y,z
1/2-x,1/2-y,z
1/2+x,-y,-z
-x,1/2+y,-z
-x,-y,-z
1/2+x,1/2+y,-z
1/2-x,y,z
x,1/2-y,z
loop_
_atom_site_type_symbol
_atom_site_label
_atom_site_fract_x
_atom_site_fract_y
_atom_site_fract_z
Si Si1 0.517979 0.926799 0.435593
Si Si2 0.557986 0.568968 0.207830
Si Si3 0.856601 0.923496 0.629936
Si Si4 0.644223 0.565098 0.964576
Si Si5 0.058735 0.566594 0.916147
Si Si6 0.860426 0.067634 0.330648
Si Si7 0.351344 0.570131 0.242154
O O1 0.542805 0.750000 0.442277
O O2 0.500000 0.000000 0.500000
O O3 0.420430 0.952289 0.401316
O O4 0.592320 0.006590 0.391407
O O5 0.576628 0.750000 0.204813
O O6 0.594234 0.486157 0.148672
O O7 0.594814 0.506889 0.271260
O O8 0.445721 0.543138 0.206696
O O9 0.750000 0.929975 0.608103
O O10 0.892509 0.750000 0.620282
O O11 0.855441 0.963224 0.699795
O O12 0.750000 0.513071 0.946959
O O13 0.645343 0.750000 0.963707
O O14 0.620071 0.507110 0.031182
O O15 0.550835 0.517850 0.927343
O O16 0.062526 0.750000 0.920709
O O17 0.750000 0.034281 0.331260
O O18 0.874239 0.250000 0.327254
O O19 0.250000 0.544370 0.212218
O O20 0.353803 0.750000 0.260899
#
# Coordination Sequence:
#
# PCOD9451081 Si02
#       7
#     8   8   8   8   8   8   8
#     4  12  25  42  65  91 121 159 200 249 302 360
#     4  11  22  37  60  89 123 164 203 246 299 360
#     4  10  20  35  58  87 117 150 189 235 289 349
#     4   9  19  38  61  84 115 156 201 250 303 359
#     4  10  21  36  57  87 120 156 200 251 302 358
#     4  11  25  45  67  91 122 160 204 256 309 361
#     4   9  18  33  54  82 115 151 190 234 289 352
#
# _framework density 20.111723000000001
#
# number of rings (size 3 to 8) (size 9 to 14) (size 15 to 20)
#    0.000    1.714    1.429    3.000    0.000    5.143 
#    0.000    0.000    0.000    0.000    0.000    0.000 
#    0.000    0.000    0.000    0.000    0.000    0.000 
#
# Total GULP energy -312540.558208 kJ/mol
# GULP energy per Si atom -5581.081397 kJ/mol
# Density = 2.006595 g / cm^3
# Si number density = 20.111723 Si / 1000 Ang^3
#
#
#
# Elastic Constant Matrix: (Units=GPa)
#
#
# Indices 1 2 3 4 5 6 
#
# 1 72.8717 19.1153 17.8672 0.0000 0.0000 0.0000
# 2 19.1153 26.1657 20.8292 0.0000 0.0000 0.0000
# 3 17.8672 20.8292 99.9832 0.0000 0.0000 0.0000
# 4 0.0000 0.0000 0.0000 28.3794 0.0000 0.0000
# 5 0.0000 0.0000 0.0000 0.0000 0.0129 0.0000
# 6 0.0000 0.0000 0.0000 0.0000 0.0000 25.0239
#
#
#
# Elastic Compliance Matrix: (Units=1/GPa)
#
#
# Indices 1 2 3 4 5 6 
#
# 1 0.017000 -0.011989 -0.000540 0.000000 0.000000 0.000000
# 2 -0.011989 0.054272 -0.009164 0.000000 0.000000 0.000000
# 3 -0.000540 -0.009164 0.012007 0.000000 0.000000 0.000000
# 4 0.000000 0.000000 0.000000 0.035237 0.000000 0.000000
# 5 0.000000 0.000000 0.000000 0.000000 77.509333 0.000000
# 6 0.000000 0.000000 0.000000 0.000000 0.000000 0.039962
#
#
# Mechanical properties :
#
#
# Convention : Reuss Voigt Hill
#
# Bulk Modulus (GPa) = 25.06748 34.96043 30.01396
# Shear Modulus (GPa) = 0.06433 20.09717 10.08075
#
# Velocity S-wave (km/s) = 0.17904 3.16456 2.24126
# Velocity P-wave (km/s) = 3.54033 5.54738 4.65335
#
# Compressibility (1/GPa) = 0.03989232
#
# Stress axis : x y z
#
# Youngs Moduli (GPa) = 58.82277 18.42586 83.28291
#
# Poissons Ratio (x) = 0.22092 0.04499
# Poissons Ratio (y) = 0.70525 0.76318
# Poissons Ratio (z) = 0.03178 0.16885
#
# Static dielectric constant tensor:
#      x y z
#    x 1.754640 0.000000 0.000000 
#    y 0.000000 1.680430 0.000000 
#    z 0.000000 0.000000 1.715770 
# 
# From -- ./inp_files/29060.got.cif
#   From: 2010.05.17/outbox.cif.g08.bks.cpg/sg59_15_cif.got.tgz:29060.got - 2010.06.03 14:40:33.
