data_PCOD9451830
_publ_section_title
;
Structure prediction by ZEFSAII (Michael W. Deem and Ramdas Pophale) SiO2 
 PCOD9451830
Probable space group: P M M N
;
_chemical_formula_sum "Si O2"
_cell_formula_units_Z 40
_cell_length_a 31.515886
_cell_length_b 7.506306
_cell_length_c 7.516106
_cell_angle_alpha 90.000000
_cell_angle_beta 90.000000
_cell_angle_gamma 90.000000
_cell_volume 1778.069294
_symmetry_space_group_name_H-M "P M M N"
_symmetry_group_IT_number 59
_space_group.IT_coordinate_system_code '2'
_symmetry_cell_setting 'orthorhombic'
loop_
_space_group_symop_operation_xyz
x,y,z
1/2-x,1/2-y,z
1/2+x,-y,-z
-x,1/2+y,-z
-x,-y,-z
1/2+x,1/2+y,-z
1/2-x,y,z
x,1/2-y,z
loop_
_atom_site_type_symbol
_atom_site_label
_atom_site_fract_x
_atom_site_fract_y
_atom_site_fract_z
Si Si1 0.388164 0.039519 0.289796
Si Si2 0.295511 0.536501 0.309638
Si Si3 0.950412 0.536546 0.010018
Si Si4 0.204477 0.043068 0.729640
Si Si5 0.386883 0.030876 0.694449
O O1 0.395891 0.250000 0.304750
O O2 0.423216 0.965910 0.156529
O O3 0.390240 0.968167 0.490891
O O4 0.339723 0.018864 0.222779
O O5 0.250000 0.479299 0.230480
O O6 0.295658 0.750000 0.319288
O O7 0.296256 0.465231 0.512863
O O8 0.945783 0.750000 0.009453
O O9 0.926567 0.474285 0.187777
O O10 0.000000 0.500000 0.000000
O O11 0.250000 0.962091 0.784248
O O12 0.205152 0.250000 0.782975
O O13 0.158221 0.969183 0.776840
O O14 0.385043 0.250000 0.691941
#
# Coordination Sequence:
#
# PCOD9451830 Si02
#       5
#     8   8   8   8   8
#     4   9  18  33  52  72  95 126 162 196 234 284
#     4   9  16  26  44  72 103 131 158 191 232 277
#     4  10  21  36  52  71  95 123 159 204 249 290
#     4   8  13  24  45  70  96 128 160 188 225 276
#     4   8  15  30  50  71  97 125 154 193 235 276
#
# _framework density 22.496310999999999
#
# number of rings (size 3 to 8) (size 9 to 14) (size 15 to 20)
#    0.000    3.200    0.000    1.800    0.000    2.800 
#    0.000    5.000    0.000    3.600    0.000   11.200 
#    0.000    0.000    0.000    0.000    0.000    0.000 
#
# Total GULP energy -223043.504435 kJ/mol
# GULP energy per Si atom -5576.087611 kJ/mol
# Density = 2.244511 g / cm^3
# Si number density = 22.496311 Si / 1000 Ang^3
#
#
#
# Elastic Constant Matrix: (Units=GPa)
#
#
# Indices 1 2 3 4 5 6 
#
# 1 239.6978 -9.6102 83.9352 0.0000 0.0000 0.0000
# 2 -9.6102 62.8591 1.5319 0.0000 0.0000 0.0000
# 3 83.9352 1.5319 92.7891 0.0000 0.0000 0.0000
# 4 0.0000 0.0000 0.0000 -10.7461 0.0000 0.0000
# 5 0.0000 0.0000 0.0000 0.0000 -1.8726 0.0000
# 6 0.0000 0.0000 0.0000 0.0000 0.0000 20.5689
#
#
#
# Elastic Compliance Matrix: (Units=1/GPa)
#
#
# Indices 1 2 3 4 5 6 
#
# 1 0.006179 0.001081 -0.005607 0.000000 0.000000 0.000000
# 2 0.001081 0.016104 -0.001244 0.000000 0.000000 0.000000
# 3 -0.005607 -0.001244 0.015870 0.000000 0.000000 0.000000
# 4 0.000000 0.000000 0.000000 -0.093057 0.000000 0.000000
# 5 0.000000 0.000000 0.000000 0.000000 -0.534006 0.000000
# 6 0.000000 0.000000 0.000000 0.000000 0.000000 0.048617
#
#
# Mechanical properties :
#
#
# Convention : Reuss Voigt Hill
#
# Bulk Modulus (GPa) = 37.57536 60.78444 49.17990
# Shear Modulus (GPa) = -9.61756 22.88929 6.63587
#
# Velocity S-wave (km/s) = -2.06989 3.19324 1.71935
# Velocity P-wave (km/s) = 3.32063 6.37762 5.08432
#
# Compressibility (1/GPa) = 0.02661318
#
# Stress axis : x y z
#
# Youngs Moduli (GPa) = 161.84743 62.09555 63.01361
#
# Poissons Ratio (x) = -0.06714 0.35331
# Poissons Ratio (y) = -0.17500 0.07839
# Poissons Ratio (z) = 0.90747 0.07724
#
# Static dielectric constant tensor:
#      x y z
#    x 1.836830 0.000000 0.000000 
#    y 0.000000 1.965660 0.000000 
#    z 0.000000 0.000000 1.850410 
# 
# From -- ./inp_files/6028.got.cif
#   From: 2010.05.17/outbox.cif.g08.bks.cpg/sg59_4_cif.got.tgz:6028.got - 2010.06.03 14:40:33.
