data_PCOD9451368
_publ_section_title
;
Structure prediction by ZEFSAII (Michael W. Deem and Ramdas Pophale) SiO2 
 PCOD9451368
Probable space group: P M M N
;
_chemical_formula_sum "Si O2"
_cell_formula_units_Z 32
_cell_length_a 8.802189
_cell_length_b 16.057050
_cell_length_c 11.513198
_cell_angle_alpha 90.000000
_cell_angle_beta 90.000000
_cell_angle_gamma 90.000000
_cell_volume 1627.243040
_symmetry_space_group_name_H-M "P M M N"
_symmetry_group_IT_number 59
_space_group.IT_coordinate_system_code '2'
_symmetry_cell_setting 'orthorhombic'
loop_
_space_group_symop_operation_xyz
x,y,z
1/2-x,1/2-y,z
1/2+x,-y,-z
-x,1/2+y,-z
-x,-y,-z
1/2+x,1/2+y,-z
1/2-x,y,z
x,1/2-y,z
loop_
_atom_site_type_symbol
_atom_site_label
_atom_site_fract_x
_atom_site_fract_y
_atom_site_fract_z
Si Si1 0.929888 0.750000 0.971066
Si Si2 0.422352 0.118641 0.432610
Si Si3 0.066984 0.578789 0.070135
Si Si4 0.424167 0.750000 0.723918
Si Si5 0.075123 0.570895 0.340967
O O1 0.750000 0.750000 0.991323
O O2 0.967048 0.750000 0.834564
O O3 0.003118 0.665908 0.022370
O O4 0.250000 0.149259 0.419091
O O5 0.537371 0.171366 0.355897
O O6 0.471866 0.119244 0.566941
O O7 0.426333 0.024446 0.384973
O O8 0.250000 0.577034 0.059966
O O9 0.027669 0.573320 0.206988
O O10 0.000000 0.500000 0.000000
O O11 0.250000 0.750000 0.762669
O O12 0.250000 0.600873 0.348574
#
# Coordination Sequence:
#
# PCOD9451368 Si02
#       5
#     4   8   8   4   8
#     4  12  26  43  62  89 124 161 209 261 307 366
#     4  10  20  36  60  88 117 151 193 242 295 352
#     4  11  23  41  65  92 125 166 209 255 310 368
#     4  12  24  39  60  85 116 153 195 243 299 360
#     4   9  20  38  59  85 118 155 195 240 293 355
#
# _framework density 19.665161999999999
#
# number of rings (size 3 to 8) (size 9 to 14) (size 15 to 20)
#    0.000    1.500    0.000    5.250    0.000    6.000 
#    0.000    1.250    0.000    0.000    0.000    0.000 
#    0.000    0.000    0.000    0.000    0.000    0.000 
#
# Total GULP energy -178831.224895 kJ/mol
# GULP energy per Si atom -5588.475778 kJ/mol
# Density = 1.962040 g / cm^3
# Si number density = 19.665162 Si / 1000 Ang^3
#
#
#
# Elastic Constant Matrix: (Units=GPa)
#
#
# Indices 1 2 3 4 5 6 
#
# 1 70.7124 31.9284 36.2734 0.0000 0.0000 0.0000
# 2 31.9284 88.3552 49.9170 0.0000 0.0000 0.0000
# 3 36.2734 49.9170 158.3123 0.0000 0.0000 0.0000
# 4 0.0000 0.0000 0.0000 24.7542 0.0000 0.0000
# 5 0.0000 0.0000 0.0000 0.0000 37.5778 0.0000
# 6 0.0000 0.0000 0.0000 0.0000 0.0000 29.5865
#
#
#
# Elastic Compliance Matrix: (Units=1/GPa)
#
#
# Indices 1 2 3 4 5 6 
#
# 1 0.017662 -0.004984 -0.002475 0.000000 0.000000 0.000000
# 2 -0.004984 0.015177 -0.003644 0.000000 0.000000 0.000000
# 3 -0.002475 -0.003644 0.008033 0.000000 0.000000 0.000000
# 4 0.000000 0.000000 0.000000 0.040397 0.000000 0.000000
# 5 0.000000 0.000000 0.000000 0.000000 0.026611 0.000000
# 6 0.000000 0.000000 0.000000 0.000000 0.000000 0.033799
#
#
# Mechanical properties :
#
#
# Convention : Reuss Voigt Hill
#
# Bulk Modulus (GPa) = 53.57252 61.51303 57.54277
# Shear Modulus (GPa) = 29.39316 31.66779 30.53047
#
# Velocity S-wave (km/s) = 3.87031 4.01727 3.94447
# Velocity P-wave (km/s) = 6.87560 7.27090 7.07601
#
# Compressibility (1/GPa) = 0.01866629
#
# Stress axis : x y z
#
# Youngs Moduli (GPa) = 56.61901 65.88723 124.49196
#
# Poissons Ratio (x) = 0.32838 0.30816
# Poissons Ratio (y) = 0.28218 0.45360
# Poissons Ratio (z) = 0.14015 0.24007
#
# Static dielectric constant tensor:
#      x y z
#    x 1.667680 0.000000 0.000000 
#    y 0.000000 1.682020 0.000000 
#    z 0.000000 0.000000 1.665090 
# 
# From -- ./inp_files/13771.got.cif
#   From: 2010.05.17/outbox.cif.g08.bks.cpg/sg59_7_cif.got.tgz:13771.got - 2010.06.03 14:40:33.
