data_PCOD9451554
_publ_section_title
;
Structure prediction by ZEFSAII (Michael W. Deem and Ramdas Pophale) SiO2 
 PCOD9451554
Probable space group: P M M N
;
_chemical_formula_sum "Si O2"
_cell_formula_units_Z 64
_cell_length_a 21.955147
_cell_length_b 14.820589
_cell_length_c 9.258895
_cell_angle_alpha 90.000000
_cell_angle_beta 90.000000
_cell_angle_gamma 90.000000
_cell_volume 3012.735272
_symmetry_space_group_name_H-M "P M M N"
_symmetry_group_IT_number 59
_space_group.IT_coordinate_system_code '2'
_symmetry_cell_setting 'orthorhombic'
loop_
_space_group_symop_operation_xyz
x,y,z
1/2-x,1/2-y,z
1/2+x,-y,-z
-x,1/2+y,-z
-x,-y,-z
1/2+x,1/2+y,-z
1/2-x,y,z
x,1/2-y,z
loop_
_atom_site_type_symbol
_atom_site_label
_atom_site_fract_x
_atom_site_fract_y
_atom_site_fract_z
Si Si1 0.315799 0.458366 0.113228
Si Si2 0.977593 0.893093 0.661461
Si Si3 0.616870 0.646864 0.117264
Si Si4 0.369602 0.650320 0.151172
Si Si5 0.320272 0.462332 0.633562
Si Si6 0.658663 0.846601 0.620245
Si Si7 0.506286 0.391981 0.005999
Si Si8 0.581801 0.423741 0.554320
O O1 0.250000 0.439069 0.048934
O O2 0.329560 0.563797 0.108407
O O3 0.318682 0.426539 0.277859
O O4 0.363404 0.392800 0.037402
O O5 0.914531 0.846289 0.618990
O O6 0.994722 0.869464 0.825699
O O7 0.033605 0.877077 0.553213
O O8 0.957298 0.998291 0.638548
O O9 0.637494 0.750000 0.141265
O O10 0.644973 0.572551 0.224393
O O11 0.544201 0.645503 0.104566
O O12 0.342697 0.750000 0.133691
O O13 0.389619 0.635382 0.318078
O O14 0.428934 0.640553 0.050319
O O15 0.250000 0.493215 0.655540
O O16 0.318777 0.372071 0.536761
O O17 0.365058 0.530374 0.545018
O O18 0.680326 0.750000 0.672873
O O19 0.500000 0.500000 0.000000
#
# Coordination Sequence:
#
# PCOD9451554 Si02
#       8
#     8   8   8   8   8   8   8   8
#     4  12  25  44  66  91 128 175 220 268 323 382
#     4  10  20  37  65  92 131 166 207 262 326 399
#     4  12  25  41  66 102 138 175 217 265 327 401
#     4  12  26  44  68  98 128 168 227 281 331 387
#     4  11  24  41  62  92 132 175 219 263 318 390
#     4  11  22  38  63  96 131 166 208 260 322 395
#     4  12  20  41  67  95 135 175 212 270 335 394
#     4  10  21  40  64  96 125 171 217 269 329 384
#
# _framework density 21.243151999999998
#
# number of rings (size 3 to 8) (size 9 to 14) (size 15 to 20)
#    0.000    0.750    6.250    2.625    3.500    4.250 
#    0.000    0.000    0.000    0.000    0.000    0.000 
#    0.000    0.000    0.000    0.000    0.000    0.000 
#
# Total GULP energy -357369.353379 kJ/mol
# GULP energy per Si atom -5583.896147 kJ/mol
# Density = 2.119480 g / cm^3
# Si number density = 21.243152 Si / 1000 Ang^3
#
#
#
# Elastic Constant Matrix: (Units=GPa)
#
#
# Indices 1 2 3 4 5 6 
#
# 1 89.6609 9.5570 18.6262 0.0000 0.0000 0.0000
# 2 9.5570 79.7244 -17.6811 0.0000 0.0000 0.0000
# 3 18.6262 -17.6811 72.3679 0.0000 0.0000 0.0000
# 4 0.0000 0.0000 0.0000 12.7457 0.0000 0.0000
# 5 0.0000 0.0000 0.0000 0.0000 -24.6973 0.0000
# 6 0.0000 0.0000 0.0000 0.0000 0.0000 -4.1558
#
#
#
# Elastic Compliance Matrix: (Units=1/GPa)
#
#
# Indices 1 2 3 4 5 6 
#
# 1 0.012161 -0.002275 -0.003686 0.000000 0.000000 0.000000
# 2 -0.002275 0.013688 0.003930 0.000000 0.000000 0.000000
# 3 -0.003686 0.003930 0.015727 0.000000 0.000000 0.000000
# 4 0.000000 0.000000 0.000000 0.078458 0.000000 0.000000
# 5 0.000000 0.000000 0.000000 0.000000 -0.040490 0.000000
# 6 0.000000 0.000000 0.000000 0.000000 0.000000 -0.240630
#
#
# Mechanical properties :
#
#
# Convention : Reuss Voigt Hill
#
# Bulk Modulus (GPa) = 26.65751 29.19527 27.92639
# Shear Modulus (GPa) = -34.59746 12.19528 -11.20109
#
# Velocity S-wave (km/s) = -4.04002 2.39860 -2.29875
# Velocity P-wave (km/s) = 3.03090 4.63079 2.47567
#
# Compressibility (1/GPa) = 0.03751288
#
# Stress axis : x y z
#
# Youngs Moduli (GPa) = 82.22741 73.05933 63.58441
#
# Poissons Ratio (x) = 0.16623 0.23437
# Poissons Ratio (y) = 0.18710 -0.24987
# Poissons Ratio (z) = 0.30309 -0.28711
#
# Static dielectric constant tensor:
#      x y z
#    x 1.807880 0.000000 0.000000 
#    y 0.000000 1.795850 0.000000 
#    z 0.000000 0.000000 1.765300 
# 
# From -- ./inp_files/12187.got.cif
#   From: 2010.05.17/outbox.cif.g08.bks.cpg/sg59_7_cif.got.tgz:12187.got - 2010.06.03 14:40:33.
