data_PCOD9451804
_publ_section_title
;
Structure prediction by ZEFSAII (Michael W. Deem and Ramdas Pophale) SiO2 
 PCOD9451804
Probable space group: P M M N
;
_chemical_formula_sum "Si O2"
_cell_formula_units_Z 64
_cell_length_a 27.608879
_cell_length_b 13.640709
_cell_length_c 9.782994
_cell_angle_alpha 90.000000
_cell_angle_beta 90.000000
_cell_angle_gamma 90.000000
_cell_volume 3684.321366
_symmetry_space_group_name_H-M "P M M N"
_symmetry_group_IT_number 59
_space_group.IT_coordinate_system_code '2'
_symmetry_cell_setting 'orthorhombic'
loop_
_space_group_symop_operation_xyz
x,y,z
1/2-x,1/2-y,z
1/2+x,-y,-z
-x,1/2+y,-z
-x,-y,-z
1/2+x,1/2+y,-z
1/2-x,y,z
x,1/2-y,z
loop_
_atom_site_type_symbol
_atom_site_label
_atom_site_fract_x
_atom_site_fract_y
_atom_site_fract_z
Si Si1 0.198458 0.633346 0.206732
Si Si2 0.883321 0.863976 0.175514
Si Si3 0.057686 0.523372 0.348920
Si Si4 0.459577 0.134464 0.578039
Si Si5 0.443080 0.488751 0.026834
Si Si6 0.133379 0.636113 0.970857
Si Si7 0.648451 0.133482 0.514233
Si Si8 0.808186 0.468507 0.247582
O O1 0.250000 0.589035 0.169196
O O2 0.200108 0.750000 0.178585
O O3 0.187743 0.623985 0.365298
O O4 0.155449 0.596850 0.112931
O O5 0.870038 0.750000 0.163740
O O6 0.917431 0.876633 0.309044
O O7 0.836661 0.933887 0.197306
O O8 0.916173 0.897442 0.045945
O O9 0.052937 0.426111 0.441681
O O10 0.064524 0.496407 0.190006
O O11 0.099875 0.588822 0.418613
O O12 0.008269 0.585644 0.362506
O O13 0.466565 0.250000 0.552389
O O14 0.500000 0.500000 0.000000
O O15 0.415822 0.577916 0.949226
O O16 0.122873 0.750000 0.977523
O O17 0.174899 0.612944 0.861943
O O18 0.642567 0.250000 0.482104
O O19 0.667812 0.070778 0.387533
O O20 0.750000 0.478358 0.256148
#
# Coordination Sequence:
#
# PCOD9451804 Si02
#       8
#     8   8   8   8   8   8   8   8
#     4   9  17  30  49  75 107 145 184 218 269 338
#     4  10  22  41  61  85 115 153 201 249 295 346
#     4  11  21  37  59  86 120 151 195 240 292 355
#     4  10  21  37  60  84 116 157 194 238 289 348
#     4  11  22  37  58  86 118 154 197 242 292 347
#     4  10  21  35  55  83 116 152 188 233 288 350
#     4  11  21  34  54  86 120 153 187 229 289 352
#     4  11  23  39  59  86 116 152 197 246 296 348
#
# _framework density 17.370906000000002
#
# number of rings (size 3 to 8) (size 9 to 14) (size 15 to 20)
#    0.000    1.625    3.750    1.500    0.000    3.750 
#    0.000    1.250    0.000    0.000    0.000    0.000 
#    0.000    0.000    0.000    0.000    0.000    0.000 
#
# Total GULP energy -356662.764007 kJ/mol
# GULP energy per Si atom -5572.855688 kJ/mol
# Density = 1.733137 g / cm^3
# Si number density = 17.370906 Si / 1000 Ang^3
#
#
#
# Elastic Constant Matrix: (Units=GPa)
#
#
# Indices 1 2 3 4 5 6 
#
# 1 98.7683 34.0136 32.0279 0.0000 0.0000 0.0000
# 2 34.0136 79.3626 21.2973 0.0000 0.0000 0.0000
# 3 32.0279 21.2973 81.5430 0.0000 0.0000 0.0000
# 4 0.0000 0.0000 0.0000 20.3913 0.0000 0.0000
# 5 0.0000 0.0000 0.0000 0.0000 -11.5232 0.0000
# 6 0.0000 0.0000 0.0000 0.0000 0.0000 15.4117
#
#
#
# Elastic Compliance Matrix: (Units=1/GPa)
#
#
# Indices 1 2 3 4 5 6 
#
# 1 0.012941 -0.004497 -0.003908 0.000000 0.000000 0.000000
# 2 -0.004497 0.015113 -0.002181 0.000000 0.000000 0.000000
# 3 -0.003908 -0.002181 0.014368 0.000000 0.000000 0.000000
# 4 0.000000 0.000000 0.000000 0.049040 0.000000 0.000000
# 5 0.000000 0.000000 0.000000 0.000000 -0.086782 0.000000
# 6 0.000000 0.000000 0.000000 0.000000 0.000000 0.064886
#
#
# Mechanical properties :
#
#
# Convention : Reuss Voigt Hill
#
# Bulk Modulus (GPa) = 47.06041 48.26126 47.66084
# Shear Modulus (GPa) = 51.11300 16.34499 33.72899
#
# Velocity S-wave (km/s) = 5.43032 3.07080 4.41125
# Velocity P-wave (km/s) = 8.15280 6.35738 7.31042
#
# Compressibility (1/GPa) = 0.02124928
#
# Stress axis : x y z
#
# Youngs Moduli (GPa) = 77.27472 66.16758 69.59887
#
# Poissons Ratio (x) = 0.29759 0.27200
# Poissons Ratio (y) = 0.34754 0.15178
# Poissons Ratio (z) = 0.30200 0.14429
#
# Static dielectric constant tensor:
#      x y z
#    x 1.601900 0.000000 0.000000 
#    y 0.000000 1.587130 0.000000 
#    z 0.000000 0.000000 1.636210 
# 
# From -- ./inp_files/12204.got.cif
#   From: 2010.05.17/outbox.cif.g08.bks.cpg/sg59_7_cif.got.tgz:12204.got - 2010.06.03 14:40:33.
