data_PCOD9451404
_publ_section_title
;
Structure prediction by ZEFSAII (Michael W. Deem and Ramdas Pophale) SiO2 
 PCOD9451404
Probable space group: P M M N
;
_chemical_formula_sum "Si O2"
_cell_formula_units_Z 58
_cell_length_a 29.501121
_cell_length_b 7.736777
_cell_length_c 12.212215
_cell_angle_alpha 90.000000
_cell_angle_beta 90.000000
_cell_angle_gamma 90.000000
_cell_volume 2787.359848
_symmetry_space_group_name_H-M "P M M N"
_symmetry_group_IT_number 59
_space_group.IT_coordinate_system_code '2'
_symmetry_cell_setting 'orthorhombic'
loop_
_space_group_symop_operation_xyz
x,y,z
1/2-x,1/2-y,z
1/2+x,-y,-z
-x,1/2+y,-z
-x,-y,-z
1/2+x,1/2+y,-z
1/2-x,y,z
x,1/2-y,z
loop_
_atom_site_type_symbol
_atom_site_label
_atom_site_fract_x
_atom_site_fract_y
_atom_site_fract_z
Si Si1 0.053272 0.955414 0.620561
Si Si2 0.197684 0.455051 0.561356
Si Si3 0.115185 0.444706 0.185216
Si Si4 0.550799 0.541109 0.624154
Si Si5 0.699132 0.449408 0.685712
Si Si6 0.136513 0.452606 0.757813
Si Si7 0.750000 0.750000 0.985673
Si Si8 0.826903 0.057049 0.009579
O O1 0.052670 0.750000 0.633496
O O2 0.001363 0.019587 0.627543
O O3 0.069710 0.994283 0.496250
O O4 0.085400 0.029778 0.714375
O O5 0.250000 0.473274 0.595192
O O6 0.188690 0.250000 0.545303
O O7 0.192259 0.542078 0.444229
O O8 0.166008 0.522968 0.656539
O O9 0.100696 0.250000 0.156957
O O10 0.079010 0.522374 0.270952
O O11 0.161326 0.441695 0.255593
O O12 0.131424 0.537642 0.075885
O O13 0.551624 0.750000 0.628777
O O14 0.750000 0.513143 0.709275
O O15 0.695661 0.250000 0.721024
O O16 0.147538 0.250000 0.770033
O O17 0.151537 0.538707 0.869840
O O18 0.709794 0.595532 0.990153
O O19 0.807312 0.250000 0.996903
#
# Coordination Sequence:
#
# PCOD9451404 Si02
#       8
#     8   8   8   8   8   8   2   8
#     4  10  20  36  61  95 128 164 216 269 325 397
#     4   9  19  34  54  78 110 153 196 243 306 378
#     4  11  22  40  61  85 121 163 211 267 323 385
#     4   9  20  38  62  91 127 170 212 264 332 396
#     4  10  21  34  50  79 116 152 195 248 308 376
#     4  11  22  39  62  87 125 165 210 266 324 385
#     4  12  26  52  68  94 130 176 218 280 320 376
#     4  12  27  45  69  97 126 170 226 269 323 384
#
# _framework density 20.808222000000001
#
# number of rings (size 3 to 8) (size 9 to 14) (size 15 to 20)
#    0.000    1.655    1.379    2.690    1.931    6.897 
#    0.000    0.690    0.000    0.000    0.000    0.000 
#    0.000    0.000    0.000    0.000    0.000    0.000 
#
# Total GULP energy -323451.463110 kJ/mol
# GULP energy per Si atom -5576.749364 kJ/mol
# Density = 2.076086 g / cm^3
# Si number density = 20.808222 Si / 1000 Ang^3
#
#
#
# Elastic Constant Matrix: (Units=GPa)
#
#
# Indices 1 2 3 4 5 6 
#
# 1 44.2222 9.1496 39.5779 0.0000 0.0000 0.0000
# 2 9.1496 89.8886 7.8554 0.0000 0.0000 0.0000
# 3 39.5779 7.8554 78.0254 0.0000 0.0000 0.0000
# 4 0.0000 0.0000 0.0000 84.2918 0.0000 0.0000
# 5 0.0000 0.0000 0.0000 0.0000 -2.0878 0.0000
# 6 0.0000 0.0000 0.0000 0.0000 0.0000 87.0692
#
#
#
# Elastic Compliance Matrix: (Units=1/GPa)
#
#
# Indices 1 2 3 4 5 6 
#
# 1 0.041934 -0.002431 -0.021026 0.000000 0.000000 0.000000
# 2 -0.002431 0.011365 0.000089 0.000000 0.000000 0.000000
# 3 -0.021026 0.000089 0.023473 0.000000 0.000000 0.000000
# 4 0.000000 0.000000 0.000000 0.011864 0.000000 0.000000
# 5 0.000000 0.000000 0.000000 0.000000 -0.478984 0.000000
# 6 0.000000 0.000000 0.000000 0.000000 0.000000 0.011485
#
#
# Mechanical properties :
#
#
# Convention : Reuss Voigt Hill
#
# Bulk Modulus (GPa) = 33.29430 36.14466 34.71948
# Shear Modulus (GPa) = -15.52230 44.22487 14.35128
#
# Velocity S-wave (km/s) = -2.73421 4.61516 2.62905
# Velocity P-wave (km/s) = 2.46322 6.76814 5.09289
#
# Compressibility (1/GPa) = 0.03003517
#
# Stress axis : x y z
#
# Youngs Moduli (GPa) = 23.84713 87.99294 42.60280
#
# Poissons Ratio (x) = 0.21390 0.89576
# Poissons Ratio (y) = 0.05797 -0.00379
# Poissons Ratio (z) = 0.50141 -0.00782
#
# Static dielectric constant tensor:
#      x y z
#    x 1.754360 0.000000 0.000000 
#    y 0.000000 1.775100 0.000000 
#    z 0.000000 0.000000 1.746670 
# 
# From -- ./inp_files/18934.got.cif
#   From: 2010.05.17/outbox.cif.g08.bks.cpg/sg59_10_cif.got.tgz:18934.got - 2010.06.03 14:40:33.
