data_PCOD9451823
_publ_section_title
;
Structure prediction by ZEFSAII (Michael W. Deem and Ramdas Pophale) SiO2 
 PCOD9451823
Probable space group: P M M N
;
_chemical_formula_sum "Si O2"
_cell_formula_units_Z 64
_cell_length_a 7.811670
_cell_length_b 26.062619
_cell_length_c 15.023793
_cell_angle_alpha 90.000000
_cell_angle_beta 90.000000
_cell_angle_gamma 90.000000
_cell_volume 3058.732763
_symmetry_space_group_name_H-M "P M M N"
_symmetry_group_IT_number 59
_space_group.IT_coordinate_system_code '2'
_symmetry_cell_setting 'orthorhombic'
loop_
_space_group_symop_operation_xyz
x,y,z
1/2-x,1/2-y,z
1/2+x,-y,-z
-x,1/2+y,-z
-x,-y,-z
1/2+x,1/2+y,-z
1/2-x,y,z
x,1/2-y,z
loop_
_atom_site_type_symbol
_atom_site_label
_atom_site_fract_x
_atom_site_fract_y
_atom_site_fract_z
Si Si1 0.959077 0.191341 0.223153
Si Si2 0.457239 0.001327 0.210059
Si Si3 0.543618 0.399108 0.095779
Si Si4 0.456904 0.690707 0.574618
Si Si5 0.956244 0.692268 0.232390
Si Si6 0.442059 0.986341 0.401449
Si Si7 0.455469 0.900513 0.106466
Si Si8 0.950998 0.871415 0.402486
O O1 0.750000 0.191207 0.222684
O O2 0.012345 0.250000 0.204772
O O3 0.019287 0.149975 0.151716
O O4 0.010654 0.177835 0.324419
O O5 0.250000 0.997318 0.215401
O O6 0.527537 0.006899 0.310789
O O7 0.520554 0.948663 0.164459
O O8 0.500397 0.049452 0.149021
O O9 0.750000 0.395071 0.091762
O O10 0.478640 0.401208 0.994605
O O11 0.250000 0.688477 0.571662
O O12 0.507152 0.750000 0.557208
O O13 0.526258 0.653650 0.498991
O O14 0.750000 0.694666 0.234881
O O15 0.021798 0.750000 0.219788
O O16 0.011631 0.668097 0.326749
O O17 0.005706 0.652472 0.155944
O O18 0.250000 0.005985 0.398335
O O19 0.451677 0.924871 0.393796
O O20 0.500000 0.000000 0.500000
O O21 0.250000 0.905853 0.102266
O O22 0.750000 0.882234 0.388009
#
# Coordination Sequence:
#
# PCOD9451823 Si02
#       8
#     8   8   8   8   8   8   8   8
#     4   8  16  33  54  80 114 146 180 228 282 336
#     4  10  22  40  59  82 118 153 187 237 292 346
#     4  10  21  35  60  90 112 146 196 240 287 347
#     4   9  18  33  54  79 109 149 191 229 277 339
#     4  10  22  39  59  85 118 157 198 242 296 354
#     4  11  24  41  60  85 119 155 191 235 290 349
#     4  10  21  39  59  85 116 150 194 244 293 342
#     4  11  22  37  58  84 116 151 191 241 294 348
#
# _framework density 20.923698999999999
#
# number of rings (size 3 to 8) (size 9 to 14) (size 15 to 20)
#    0.000    2.125    1.250    2.250    1.750    4.000 
#    0.000    1.250    0.000    1.125    0.000    0.000 
#    0.000    0.000    0.000    0.000    0.000    0.000 
#
# Total GULP energy -357435.702768 kJ/mol
# GULP energy per Si atom -5584.932856 kJ/mol
# Density = 2.087608 g / cm^3
# Si number density = 20.923699 Si / 1000 Ang^3
#
#
#
# Elastic Constant Matrix: (Units=GPa)
#
#
# Indices 1 2 3 4 5 6 
#
# 1 18.7913 -6.9874 7.7633 0.0000 0.0000 0.0000
# 2 -6.9874 113.0630 88.2490 0.0000 0.0000 0.0000
# 3 7.7633 88.2490 192.4351 0.0000 0.0000 0.0000
# 4 0.0000 0.0000 0.0000 75.8189 0.0000 0.0000
# 5 0.0000 0.0000 0.0000 0.0000 18.8630 0.0000
# 6 0.0000 0.0000 0.0000 0.0000 0.0000 14.3269
#
#
#
# Elastic Compliance Matrix: (Units=1/GPa)
#
#
# Indices 1 2 3 4 5 6 
#
# 1 0.059013 0.008574 -0.006313 0.000000 0.000000 0.000000
# 2 0.008574 0.015021 -0.007235 0.000000 0.000000 0.000000
# 3 -0.006313 -0.007235 0.008769 0.000000 0.000000 0.000000
# 4 0.000000 0.000000 0.000000 0.013189 0.000000 0.000000
# 5 0.000000 0.000000 0.000000 0.000000 0.053014 0.000000
# 6 0.000000 0.000000 0.000000 0.000000 0.000000 0.069799
#
#
# Mechanical properties :
#
#
# Convention : Reuss Voigt Hill
#
# Bulk Modulus (GPa) = 13.72556 55.81548 34.77052
# Shear Modulus (GPa) = 19.76003 37.48607 28.62305
#
# Velocity S-wave (km/s) = 3.07642 4.23727 3.70262
# Velocity P-wave (km/s) = 4.38100 7.11849 5.91042
#
# Compressibility (1/GPa) = 0.07285676
#
# Stress axis : x y z
#
# Youngs Moduli (GPa) = 16.94556 66.57205 114.03892
#
# Poissons Ratio (x) = -0.57082 0.71991
# Poissons Ratio (y) = -0.14530 0.82502
# Poissons Ratio (z) = 0.10698 0.48162
#
# Static dielectric constant tensor:
#      x y z
#    x 1.776690 0.000000 0.000000 
#    y 0.000000 1.713200 0.000000 
#    z 0.000000 0.000000 1.759250 
# 
# From -- ./inp_files/21474.got.cif
#   From: 2010.05.17/outbox.cif.g08.bks.cpg/sg59_11_cif.got.tgz:21474.got - 2010.06.03 14:40:33.
