data_PCOD9451044
_publ_section_title
;
Structure prediction by ZEFSAII (Michael W. Deem and Ramdas Pophale) SiO2 
 PCOD9451044
Probable space group: P M M N
;
_chemical_formula_sum "Si O2"
_cell_formula_units_Z 56
_cell_length_a 15.182211
_cell_length_b 15.290899
_cell_length_c 12.468422
_cell_angle_alpha 90.000000
_cell_angle_beta 90.000000
_cell_angle_gamma 90.000000
_cell_volume 2894.539866
_symmetry_space_group_name_H-M "P M M N"
_symmetry_group_IT_number 59
_space_group.IT_coordinate_system_code '2'
_symmetry_cell_setting 'orthorhombic'
loop_
_space_group_symop_operation_xyz
x,y,z
1/2-x,1/2-y,z
1/2+x,-y,-z
-x,1/2+y,-z
-x,-y,-z
1/2+x,1/2+y,-z
1/2-x,y,z
x,1/2-y,z
loop_
_atom_site_type_symbol
_atom_site_label
_atom_site_fract_x
_atom_site_fract_y
_atom_site_fract_z
Si Si1 0.907122 0.345930 0.555576
Si Si2 0.347299 0.968674 0.622047
Si Si3 0.653280 0.885513 0.722136
Si Si4 0.885861 0.848201 0.475010
Si Si5 0.352091 0.645542 0.992639
Si Si6 0.041884 0.849714 0.777731
Si Si7 0.148797 0.590160 0.225346
O O1 0.871537 0.250000 0.527896
O O2 0.856003 0.421585 0.493541
O O3 0.903141 0.359516 0.682729
O O4 0.008274 0.350417 0.520103
O O5 0.250000 0.951369 0.666659
O O6 0.419883 0.921155 0.695121
O O7 0.358804 0.071658 0.600988
O O8 0.750000 0.855423 0.760884
O O9 0.647596 0.864715 0.595557
O O10 0.563987 0.850100 0.775142
O O11 0.649061 0.989142 0.741828
O O12 0.859723 0.750000 0.440946
O O13 0.250000 0.619209 0.970513
O O14 0.429530 0.750000 0.748450
O O15 0.415479 0.628486 0.892519
O O16 0.382318 0.602393 0.103857
O O17 0.148112 0.750000 0.009586
O O18 0.250000 0.622600 0.227726
#
# Coordination Sequence:
#
# PCOD9451044 Si02
#       7
#     8   8   8   8   8   8   8
#     4  11  21  34  56  86 121 158 192 241 298 351
#     4  12  23  36  57  87 122 157 196 245 298 356
#     4  11  22  38  59  83 115 155 203 256 300 348
#     4  11  23  40  58  80 117 162 202 245 298 359
#     4   9  19  37  59  84 119 160 197 236 292 366
#     4  11  23  39  59  87 123 161 202 246 299 361
#     4  10  20  35  57  87 120 155 199 248 297 353
#
# _framework density 19.346769999999999
#
# number of rings (size 3 to 8) (size 9 to 14) (size 15 to 20)
#    0.000    1.286    2.857    3.857    0.000    5.714 
#    0.000    0.000    0.000    0.000    0.000    2.000 
#    0.000   16.000    0.000    0.000    0.000    0.000 
#
# Total GULP energy -312710.405339 kJ/mol
# GULP energy per Si atom -5584.114381 kJ/mol
# Density = 1.930274 g / cm^3
# Si number density = 19.346770 Si / 1000 Ang^3
#
#
#
# Elastic Constant Matrix: (Units=GPa)
#
#
# Indices 1 2 3 4 5 6 
#
# 1 107.1585 32.5977 41.9462 0.0000 0.0000 0.0000
# 2 32.5977 110.1944 43.5540 0.0000 0.0000 0.0000
# 3 41.9462 43.5540 105.1132 0.0000 0.0000 0.0000
# 4 0.0000 0.0000 0.0000 24.0213 0.0000 0.0000
# 5 0.0000 0.0000 0.0000 0.0000 26.8274 0.0000
# 6 0.0000 0.0000 0.0000 0.0000 0.0000 15.6843
#
#
#
# Elastic Compliance Matrix: (Units=1/GPa)
#
#
# Indices 1 2 3 4 5 6 
#
# 1 0.011376 -0.001879 -0.003761 0.000000 0.000000 0.000000
# 2 -0.001879 0.011162 -0.003876 0.000000 0.000000 0.000000
# 3 -0.003761 -0.003876 0.012620 0.000000 0.000000 0.000000
# 4 0.000000 0.000000 0.000000 0.041630 0.000000 0.000000
# 5 0.000000 0.000000 0.000000 0.000000 0.037275 0.000000
# 6 0.000000 0.000000 0.000000 0.000000 0.000000 0.063758
#
#
# Mechanical properties :
#
#
# Convention : Reuss Voigt Hill
#
# Bulk Modulus (GPa) = 62.00438 62.07353 62.03896
# Shear Modulus (GPa) = 24.72457 26.93115 25.82786
#
# Velocity S-wave (km/s) = 3.57875 3.73503 3.65772
# Velocity P-wave (km/s) = 7.01392 7.12425 7.06930
#
# Compressibility (1/GPa) = 0.01612789
#
# Stress axis : x y z
#
# Youngs Moduli (GPa) = 87.90665 89.58665 79.23745
#
# Poissons Ratio (x) = 0.16829 0.29802
# Poissons Ratio (y) = 0.16514 0.30709
# Poissons Ratio (z) = 0.33063 0.34719
#
# Static dielectric constant tensor:
#      x y z
#    x 1.701090 0.000000 0.000000 
#    y 0.000000 1.695990 0.000000 
#    z 0.000000 0.000000 1.659820 
# 
# From -- ./inp_files/16931.got.cif
#   From: 2010.05.17/outbox.cif.g08.bks.cpg/sg59_9_cif.got.tgz:16931.got - 2010.06.03 14:40:33.
