data_PCOD9451364
_publ_section_title
;
Structure prediction by ZEFSAII (Michael W. Deem and Ramdas Pophale) SiO2 
 PCOD9451364
Probable space group: P M M N
;
_chemical_formula_sum "Si O2"
_cell_formula_units_Z 56
_cell_length_a 8.938157
_cell_length_b 23.593008
_cell_length_c 12.553335
_cell_angle_alpha 90.000000
_cell_angle_beta 90.000000
_cell_angle_gamma 90.000000
_cell_volume 2647.222299
_symmetry_space_group_name_H-M "P M M N"
_symmetry_group_IT_number 59
_space_group.IT_coordinate_system_code '2'
_symmetry_cell_setting 'orthorhombic'
loop_
_space_group_symop_operation_xyz
x,y,z
1/2-x,1/2-y,z
1/2+x,-y,-z
-x,1/2+y,-z
-x,-y,-z
1/2+x,1/2+y,-z
1/2-x,y,z
x,1/2-y,z
loop_
_atom_site_type_symbol
_atom_site_label
_atom_site_fract_x
_atom_site_fract_y
_atom_site_fract_z
Si Si1 0.928572 0.960604 0.818053
Si Si2 0.076257 0.842681 0.843629
Si Si3 0.072150 0.137364 0.596957
Si Si4 0.070375 0.250000 0.308458
Si Si5 0.426695 0.750000 0.455369
Si Si6 0.428432 0.451038 0.430472
Si Si7 0.073494 0.078289 0.815996
Si Si8 0.575694 0.187871 0.913659
O O1 0.750000 0.957677 0.832354
O O2 0.967013 0.956124 0.692357
O O3 0.006716 0.904781 0.863305
O O4 0.988973 0.021788 0.853470
O O5 0.250000 0.847401 0.810642
O O6 0.987787 0.805040 0.757228
O O7 0.071117 0.812820 0.958247
O O8 0.250000 0.149802 0.597804
O O9 0.030271 0.108264 0.485148
O O10 0.043749 0.092470 0.691254
O O11 0.980109 0.194427 0.607415
O O12 0.250000 0.250000 0.312403
O O13 0.006199 0.250000 0.428406
O O14 0.250000 0.750000 0.469777
O O15 0.500000 0.500000 0.500000
O O16 0.250000 0.455864 0.439441
O O17 0.250000 0.069773 0.830023
O O18 0.019393 0.135236 0.873136
O O19 0.750000 0.180226 0.882163
O O20 0.524507 0.250000 0.876035
#
# Coordination Sequence:
#
# PCOD9451364 Si02
#       8
#     8   8   8   4   4   8   8   8
#     4  11  23  39  63  97 131 169 211 258 320 380
#     4  11  23  43  70  97 126 163 209 263 323 383
#     4  10  22  41  61  88 128 168 208 260 315 366
#     4  12  24  42  67  96 131 166 207 262 320 380
#     4  12  26  40  61  92 125 168 215 258 310 370
#     4  10  20  36  60  87 121 162 204 246 299 360
#     4  11  24  41  64  93 127 170 216 262 316 379
#     4  10  23  45  69  93 124 162 208 267 325 378
#
# _framework density 21.154249
#
# number of rings (size 3 to 8) (size 9 to 14) (size 15 to 20)
#    0.000    1.286    2.143    3.429    1.000    5.429 
#    0.000    0.000    0.000    0.000    0.000    0.000 
#    0.000    0.000    0.000    0.000    0.000    0.000 
#
# Total GULP energy -313182.170833 kJ/mol
# GULP energy per Si atom -5592.538765 kJ/mol
# Density = 2.110610 g / cm^3
# Si number density = 21.154249 Si / 1000 Ang^3
#
#
#
# Elastic Constant Matrix: (Units=GPa)
#
#
# Indices 1 2 3 4 5 6 
#
# 1 72.1758 54.2603 22.0526 0.0000 0.0000 0.0000
# 2 54.2603 157.5660 12.0874 0.0000 0.0000 0.0000
# 3 22.0526 12.0874 25.9935 0.0000 0.0000 0.0000
# 4 0.0000 0.0000 0.0000 33.4292 0.0000 0.0000
# 5 0.0000 0.0000 0.0000 0.0000 24.8504 0.0000
# 6 0.0000 0.0000 0.0000 0.0000 0.0000 36.0822
#
#
#
# Elastic Compliance Matrix: (Units=1/GPa)
#
#
# Indices 1 2 3 4 5 6 
#
# 1 0.024557 -0.007112 -0.017527 0.000000 0.000000 0.000000
# 2 -0.007112 0.008641 0.002016 0.000000 0.000000 0.000000
# 3 -0.017527 0.002016 0.052403 0.000000 0.000000 0.000000
# 4 0.000000 0.000000 0.000000 0.029914 0.000000 0.000000
# 5 0.000000 0.000000 0.000000 0.000000 0.040241 0.000000
# 6 0.000000 0.000000 0.000000 0.000000 0.000000 0.027714
#
#
# Mechanical properties :
#
#
# Convention : Reuss Voigt Hill
#
# Bulk Modulus (GPa) = 24.78005 48.05956 36.41980
# Shear Modulus (GPa) = 20.64680 30.02801 25.33740
#
# Velocity S-wave (km/s) = 3.12751 3.77168 3.46460
# Velocity P-wave (km/s) = 4.97807 6.46030 5.76700
#
# Compressibility (1/GPa) = 0.04035505
#
# Stress axis : x y z
#
# Youngs Moduli (GPa) = 40.72190 115.72650 19.08278
#
# Poissons Ratio (x) = 0.82305 0.33446
# Poissons Ratio (y) = 0.28961 -0.03846
# Poissons Ratio (z) = 0.71372 -0.23325
#
# Static dielectric constant tensor:
#      x y z
#    x 1.709300 0.000000 0.000000 
#    y 0.000000 1.759240 0.000000 
#    z 0.000000 0.000000 1.779910 
# 
# From -- ./inp_files/21133.got.cif
#   From: 2010.05.17/outbox.cif.g08.bks.cpg/sg59_11_cif.got.tgz:21133.got - 2010.06.03 14:40:33.
