data_PCOD9451458
_publ_section_title
;
Structure prediction by ZEFSAII (Michael W. Deem and Ramdas Pophale) SiO2 
 PCOD9451458
Probable space group: P M M N
;
_chemical_formula_sum "Si O2"
_cell_formula_units_Z 48
_cell_length_a 8.887216
_cell_length_b 16.195377
_cell_length_c 17.252493
_cell_angle_alpha 90.000000
_cell_angle_beta 90.000000
_cell_angle_gamma 90.000000
_cell_volume 2483.182607
_symmetry_space_group_name_H-M "P M M N"
_symmetry_group_IT_number 59
_space_group.IT_coordinate_system_code '2'
_symmetry_cell_setting 'orthorhombic'
loop_
_space_group_symop_operation_xyz
x,y,z
1/2-x,1/2-y,z
1/2+x,-y,-z
-x,1/2+y,-z
-x,-y,-z
1/2+x,1/2+y,-z
1/2-x,y,z
x,1/2-y,z
loop_
_atom_site_type_symbol
_atom_site_label
_atom_site_fract_x
_atom_site_fract_y
_atom_site_fract_z
Si Si1 0.069230 0.750000 0.089141
Si Si2 0.431219 0.094810 0.821547
Si Si3 0.068272 0.910748 0.813077
Si Si4 0.432996 0.750000 0.909684
Si Si5 0.571569 0.090539 0.498177
Si Si6 0.575866 0.847275 0.347624
Si Si7 0.573405 0.846841 0.658479
O O1 0.250000 0.750000 0.092845
O O2 0.007653 0.832105 0.130766
O O3 0.021309 0.750000 0.999177
O O4 0.250000 0.104238 0.827660
O O5 0.469340 0.105881 0.730526
O O6 0.472990 0.001389 0.844792
O O7 0.250000 0.908568 0.807682
O O8 0.018209 0.833392 0.865615
O O9 0.001930 0.897788 0.727561
O O10 0.250000 0.750000 0.907893
O O11 0.750000 0.085995 0.491638
O O12 0.523672 0.133666 0.578066
O O13 0.504307 0.136178 0.423494
O O14 0.500000 0.000000 0.500000
O O15 0.750000 0.869101 0.365929
O O16 0.570925 0.750000 0.329923
O O17 0.750000 0.866556 0.652481
O O18 0.557407 0.750000 0.677544
#
# Coordination Sequence:
#
# PCOD9451458 Si02
#       7
#     4   8   8   4   8   8   8
#     4  11  23  39  61  88 125 164 199 251 310 369
#     4  10  21  39  63  91 119 158 206 253 306 366
#     4  10  20  38  66  91 121 164 208 252 303 365
#     4   9  20  39  61  92 127 160 201 249 306 367
#     4  12  25  39  57  84 119 159 207 254 300 358
#     4  10  20  37  59  83 117 155 197 253 308 358
#     4  11  23  39  60  89 125 161 202 252 304 359
#
# _framework density 19.330031999999999
#
# number of rings (size 3 to 8) (size 9 to 14) (size 15 to 20)
#    0.000    1.500    1.667    3.750    0.000    6.667 
#    0.000    1.667    0.000    0.000    0.000    0.000 
#    0.000    0.000    0.000    0.000    0.000    0.000 
#
# Total GULP energy -268265.617456 kJ/mol
# GULP energy per Si atom -5588.867030 kJ/mol
# Density = 1.928604 g / cm^3
# Si number density = 19.330032 Si / 1000 Ang^3
#
#
#
# Elastic Constant Matrix: (Units=GPa)
#
#
# Indices 1 2 3 4 5 6 
#
# 1 54.1851 48.7371 37.8131 0.0000 0.0000 0.0000
# 2 48.7371 143.5773 68.2158 0.0000 0.0000 0.0000
# 3 37.8131 68.2158 119.1779 0.0000 0.0000 0.0000
# 4 0.0000 0.0000 0.0000 6.5974 0.0000 0.0000
# 5 0.0000 0.0000 0.0000 0.0000 22.9325 0.0000
# 6 0.0000 0.0000 0.0000 0.0000 0.0000 23.2354
#
#
#
# Elastic Compliance Matrix: (Units=1/GPa)
#
#
# Indices 1 2 3 4 5 6 
#
# 1 0.028437 -0.007371 -0.004804 0.000000 0.000000 0.000000
# 2 -0.007371 0.011477 -0.004231 0.000000 0.000000 0.000000
# 3 -0.004804 -0.004231 0.012337 0.000000 0.000000 0.000000
# 4 0.000000 0.000000 0.000000 0.151576 0.000000 0.000000
# 5 0.000000 0.000000 0.000000 0.000000 0.043606 0.000000
# 6 0.000000 0.000000 0.000000 0.000000 0.000000 0.043038
#
#
# Mechanical properties :
#
#
# Convention : Reuss Voigt Hill
#
# Bulk Modulus (GPa) = 51.43907 69.60804 60.52355
# Shear Modulus (GPa) = 15.16254 21.36467 18.26360
#
# Velocity S-wave (km/s) = 2.80376 3.32815 3.07714
# Velocity P-wave (km/s) = 6.09509 7.13143 6.63353
#
# Compressibility (1/GPa) = 0.01944048
#
# Stress axis : x y z
#
# Youngs Moduli (GPa) = 35.16539 87.13176 81.06001
#
# Poissons Ratio (x) = 0.64221 0.38939
# Poissons Ratio (y) = 0.25919 0.34294
# Poissons Ratio (z) = 0.16893 0.36862
#
# Static dielectric constant tensor:
#      x y z
#    x 1.642880 0.000000 0.000000 
#    y 0.000000 1.689420 0.000000 
#    z 0.000000 0.000000 1.659860 
# 
# From -- ./inp_files/25540.got.cif
#   From: 2010.05.17/outbox.cif.g08.bks.cpg/sg59_13_cif.got.tgz:25540.got - 2010.06.03 14:40:33.
