data_PCOD9451709
_publ_section_title
;
Structure prediction by ZEFSAII (Michael W. Deem and Ramdas Pophale) SiO2 
 PCOD9451709
Probable space group: P M M N
;
_chemical_formula_sum "Si O2"
_cell_formula_units_Z 64
_cell_length_a 8.855114
_cell_length_b 23.505028
_cell_length_c 19.309476
_cell_angle_alpha 90.000000
_cell_angle_beta 90.000000
_cell_angle_gamma 90.000000
_cell_volume 4019.068590
_symmetry_space_group_name_H-M "P M M N"
_symmetry_group_IT_number 59
_space_group.IT_coordinate_system_code '2'
_symmetry_cell_setting 'orthorhombic'
loop_
_space_group_symop_operation_xyz
x,y,z
1/2-x,1/2-y,z
1/2+x,-y,-z
-x,1/2+y,-z
-x,-y,-z
1/2+x,1/2+y,-z
1/2-x,y,z
x,1/2-y,z
loop_
_atom_site_type_symbol
_atom_site_label
_atom_site_fract_x
_atom_site_fract_y
_atom_site_fract_z
Si Si1 0.069294 0.007074 0.423813
Si Si2 0.569713 0.317245 0.559949
Si Si3 0.429817 0.095316 0.664412
Si Si4 0.931053 0.076763 0.191590
Si Si5 0.571492 0.513215 0.926470
Si Si6 0.570225 0.861030 0.583672
Si Si7 0.568172 0.186434 0.278114
Si Si8 0.571943 0.461012 0.786330
O O1 0.250000 0.998113 0.425138
O O2 0.040080 0.072229 0.402542
O O3 0.000000 0.000000 0.500000
O O4 0.992969 0.960063 0.375751
O O5 0.750000 0.325519 0.560817
O O6 0.537757 0.250000 0.562613
O O7 0.496877 0.350866 0.623953
O O8 0.504149 0.342711 0.488663
O O9 0.250000 0.096276 0.661688
O O10 0.488383 0.086753 0.742607
O O11 0.750000 0.071709 0.192596
O O12 0.976461 0.136217 0.225607
O O13 0.992617 0.065617 0.114027
O O14 0.004017 0.023314 0.232475
O O15 0.750000 0.523176 0.932498
O O16 0.550613 0.462345 0.869678
O O17 0.500000 0.500000 0.000000
O O18 0.750000 0.853270 0.578401
O O19 0.504018 0.825742 0.647379
O O20 0.750000 0.183669 0.285307
O O21 0.527961 0.250000 0.254475
O O22 0.750000 0.459940 0.771325
#
# Coordination Sequence:
#
# PCOD9451709 Si02
#       8
#     8   8   8   8   8   8   8   8
#     4  11  22  35  52  74 100 130 167 212 264 319
#     4  11  24  40  56  71  93 130 174 220 267 315
#     4  12  23  35  53  76 101 131 167 210 259 309
#     4   9  17  31  51  75 105 138 173 213 256 303
#     4   9  18  31  52  79 111 140 166 199 244 300
#     4  11  23  36  52  74  99 130 171 221 270 314
#     4  10  21  35  50  70  99 140 184 220 257 306
#     4   9  19  33  51  76 106 136 164 203 251 304
#
# _framework density 15.924087
#
# number of rings (size 3 to 8) (size 9 to 14) (size 15 to 20)
#    0.750    1.000    1.250    4.125    0.000    7.250 
#    0.000    0.000    0.000    0.000    0.000    0.875 
#    0.000    3.000    0.000    0.000    0.000    0.000 
#
# Total GULP energy -356854.043864 kJ/mol
# GULP energy per Si atom -5575.844435 kJ/mol
# Density = 1.588784 g / cm^3
# Si number density = 15.924087 Si / 1000 Ang^3
#
#
#
# Elastic Constant Matrix: (Units=GPa)
#
#
# Indices 1 2 3 4 5 6 
#
# 1 67.4211 40.1918 34.1054 0.0000 0.0000 0.0000
# 2 40.1918 73.0590 35.1039 0.0000 0.0000 0.0000
# 3 34.1054 35.1039 87.5037 0.0000 0.0000 0.0000
# 4 0.0000 0.0000 0.0000 12.2045 0.0000 0.0000
# 5 0.0000 0.0000 0.0000 0.0000 26.3269 0.0000
# 6 0.0000 0.0000 0.0000 0.0000 0.0000 23.1170
#
#
#
# Elastic Compliance Matrix: (Units=1/GPa)
#
#
# Indices 1 2 3 4 5 6 
#
# 1 0.023690 -0.010649 -0.004961 0.000000 0.000000 0.000000
# 2 -0.010649 0.021742 -0.004572 0.000000 0.000000 0.000000
# 3 -0.004961 -0.004572 0.015196 0.000000 0.000000 0.000000
# 4 0.000000 0.000000 0.000000 0.081937 0.000000 0.000000
# 5 0.000000 0.000000 0.000000 0.000000 0.037984 0.000000
# 6 0.000000 0.000000 0.000000 0.000000 0.000000 0.043258
#
#
# Mechanical properties :
#
#
# Convention : Reuss Voigt Hill
#
# Bulk Modulus (GPa) = 49.34804 49.64287 49.49545
# Shear Modulus (GPa) = 18.45522 20.23520 19.34521
#
# Velocity S-wave (km/s) = 3.40803 3.56860 3.48924
# Velocity P-wave (km/s) = 6.82225 6.94422 6.88350
#
# Compressibility (1/GPa) = 0.02026423
#
# Stress axis : x y z
#
# Youngs Moduli (GPa) = 42.21219 45.99300 65.80659
#
# Poissons Ratio (x) = 0.48976 0.32650
# Poissons Ratio (y) = 0.44950 0.30087
# Poissons Ratio (z) = 0.20943 0.21028
#
# Static dielectric constant tensor:
#      x y z
#    x 1.529940 0.000000 0.000000 
#    y 0.000000 1.530280 0.000000 
#    z 0.000000 0.000000 1.541870 
# 
# From -- ./inp_files/29788.got.cif
#   From: 2010.05.17/outbox.cif.g08.bks.cpg/sg59_15_cif.got.tgz:29788.got - 2010.06.03 14:40:33.
