data_PCOD9451459
_publ_section_title
;
Structure prediction by ZEFSAII (Michael W. Deem and Ramdas Pophale) SiO2 
 PCOD9451459
Probable space group: P M M N
;
_chemical_formula_sum "Si O2"
_cell_formula_units_Z 48
_cell_length_a 34.936722
_cell_length_b 8.377204
_cell_length_c 7.953021
_cell_angle_alpha 90.000000
_cell_angle_beta 90.000000
_cell_angle_gamma 90.000000
_cell_volume 2327.626938
_symmetry_space_group_name_H-M "P M M N"
_symmetry_group_IT_number 59
_space_group.IT_coordinate_system_code '2'
_symmetry_cell_setting 'orthorhombic'
loop_
_space_group_symop_operation_xyz
x,y,z
1/2-x,1/2-y,z
1/2+x,-y,-z
-x,1/2+y,-z
-x,-y,-z
1/2+x,1/2+y,-z
1/2-x,y,z
x,1/2-y,z
loop_
_atom_site_type_symbol
_atom_site_label
_atom_site_fract_x
_atom_site_fract_y
_atom_site_fract_z
Si Si1 0.149837 0.556478 0.261616
Si Si2 0.934216 0.068053 0.796150
Si Si3 0.668361 0.563357 0.114885
Si Si4 0.292995 0.558054 0.556774
Si Si5 0.511784 0.436309 0.320353
Si Si6 0.582566 0.567424 0.138340
O O1 0.148929 0.750000 0.259508
O O2 0.105233 0.505448 0.287267
O O3 0.176979 0.501185 0.414131
O O4 0.164761 0.502625 0.076435
O O5 0.941546 0.250000 0.740405
O O6 0.973201 0.969461 0.783926
O O7 0.923701 0.059588 0.991431
O O8 0.677431 0.750000 0.101094
O O9 0.695996 0.485594 0.251970
O O10 0.625929 0.546271 0.196426
O O11 0.250000 0.500498 0.519455
O O12 0.293196 0.750000 0.545385
O O13 0.500000 0.500000 0.500000
O O14 0.521063 0.250000 0.318166
O O15 0.548560 0.536066 0.265224
O O16 0.580069 0.750000 0.072732
#
# Coordination Sequence:
#
# PCOD9451459 Si02
#       6
#     8   8   8   8   8   8
#     4   9  20  39  63  90 120 160 205 247 297 358
#     4  10  20  37  59  84 113 152 198 244 293 348
#     4  10  22  39  62  92 124 159 199 247 303 360
#     4  10  22  40  63  91 122 158 200 247 300 361
#     4  12  25  38  54  81 116 154 196 245 293 348
#     4  10  21  39  59  83 114 154 197 240 293 351
#
# _framework density 20.621863000000001
#
# number of rings (size 3 to 8) (size 9 to 14) (size 15 to 20)
#    0.000    1.833    0.000    3.500    2.333    4.333 
#    0.000    1.667    0.000    0.000    0.000    0.000 
#    0.000    0.000    0.000    0.000    0.000    0.000 
#
# Total GULP energy -267731.195273 kJ/mol
# GULP energy per Si atom -5577.733235 kJ/mol
# Density = 2.057493 g / cm^3
# Si number density = 20.621863 Si / 1000 Ang^3
#
#
#
# Elastic Constant Matrix: (Units=GPa)
#
#
# Indices 1 2 3 4 5 6 
#
# 1 32.6268 15.5004 2.8458 0.0000 0.0000 0.0000
# 2 15.5004 41.7517 -3.0795 0.0000 0.0000 0.0000
# 3 2.8458 -3.0795 36.9432 0.0000 0.0000 0.0000
# 4 0.0000 0.0000 0.0000 21.5444 0.0000 0.0000
# 5 0.0000 0.0000 0.0000 0.0000 36.5864 0.0000
# 6 0.0000 0.0000 0.0000 0.0000 0.0000 13.4560
#
#
#
# Elastic Compliance Matrix: (Units=1/GPa)
#
#
# Indices 1 2 3 4 5 6 
#
# 1 0.037823 -0.014345 -0.004109 0.000000 0.000000 0.000000
# 2 -0.014345 0.029540 0.003567 0.000000 0.000000 0.000000
# 3 -0.004109 0.003567 0.027682 0.000000 0.000000 0.000000
# 4 0.000000 0.000000 0.000000 0.046416 0.000000 0.000000
# 5 0.000000 0.000000 0.000000 0.000000 0.027333 0.000000
# 6 0.000000 0.000000 0.000000 0.000000 0.000000 0.074316
#
#
# Mechanical properties :
#
#
# Convention : Reuss Voigt Hill
#
# Bulk Modulus (GPa) = 15.32061 15.76168 15.54115
# Shear Modulus (GPa) = 16.96980 20.72103 18.84541
#
# Velocity S-wave (km/s) = 2.87174 3.17331 3.02628
# Velocity P-wave (km/s) = 4.29433 4.59198 4.44565
#
# Compressibility (1/GPa) = 0.06527155
#
# Stress axis : x y z
#
# Youngs Moduli (GPa) = 26.43888 33.85256 36.12392
#
# Poissons Ratio (x) = 0.48562 0.14844
# Poissons Ratio (y) = 0.37927 -0.12887
# Poissons Ratio (z) = 0.10865 -0.12076
#
# Static dielectric constant tensor:
#      x y z
#    x 1.904830 0.000000 0.000000 
#    y 0.000000 1.694450 0.000000 
#    z 0.000000 0.000000 1.680140 
# 
# From -- ./inp_files/6289.got.cif
#   From: 2010.05.17/outbox.cif.g08.bks.cpg/sg59_4_cif.got.tgz:6289.got - 2010.06.03 14:40:33.
