data_PCOD9451075
_publ_section_title
;
Structure prediction by ZEFSAII (Michael W. Deem and Ramdas Pophale) SiO2 
 PCOD9451075
Probable space group: P M M N
;
_chemical_formula_sum "Si O2"
_cell_formula_units_Z 56
_cell_length_a 9.207287
_cell_length_b 19.286974
_cell_length_c 15.729232
_cell_angle_alpha 90.000000
_cell_angle_beta 90.000000
_cell_angle_gamma 90.000000
_cell_volume 2793.208107
_symmetry_space_group_name_H-M "P M M N"
_symmetry_group_IT_number 59
_space_group.IT_coordinate_system_code '2'
_symmetry_cell_setting 'orthorhombic'
loop_
_space_group_symop_operation_xyz
x,y,z
1/2-x,1/2-y,z
1/2+x,-y,-z
-x,1/2+y,-z
-x,-y,-z
1/2+x,1/2+y,-z
1/2-x,y,z
x,1/2-y,z
loop_
_atom_site_type_symbol
_atom_site_label
_atom_site_fract_x
_atom_site_fract_y
_atom_site_fract_z
Si Si1 0.574795 0.433051 0.542628
Si Si2 0.410960 0.829456 0.750040
Si Si3 0.926635 0.571021 0.273924
Si Si4 0.475503 0.543050 0.859711
Si Si5 0.600916 0.916026 0.024577
Si Si6 0.581186 0.167891 0.855733
Si Si7 0.082898 0.167050 0.417551
O O1 0.500000 0.500000 0.500000
O O2 0.750000 0.438793 0.547218
O O3 0.500676 0.424666 0.634620
O O4 0.523814 0.369742 0.483274
O O5 0.250000 0.831601 0.709716
O O6 0.435574 0.750000 0.778914
O O7 0.411374 0.885727 0.824299
O O8 0.528061 0.847506 0.678106
O O9 0.750000 0.565022 0.277721
O O10 0.992197 0.504510 0.223614
O O11 0.978048 0.635923 0.216945
O O12 0.398369 0.488109 0.923034
O O13 0.596896 0.568099 0.925221
O O14 0.750000 0.877808 0.046805
O O15 0.466165 0.872041 0.058570
O O16 0.750000 0.152767 0.836264
O O17 0.564000 0.250000 0.863858
O O18 0.250000 0.144007 0.429565
O O19 0.077584 0.250000 0.428174
#
# Coordination Sequence:
#
# PCOD9451075 Si02
#       7
#     8   8   8   8   8   8   8
#     4  12  25  41  63  91 124 159 200 249 299 355
#     4  10  20  35  58  86 116 153 194 239 295 354
#     4  11  23  39  62  89 118 158 202 244 295 351
#     4  10  21  36  57  84 117 150 191 241 289 345
#     4  10  22  38  59  84 113 156 201 243 294 350
#     4  10  22  40  61  87 120 155 195 247 302 356
#     4  10  22  41  63  88 121 159 199 244 296 355
#
# _framework density 20.048632000000001
#
# number of rings (size 3 to 8) (size 9 to 14) (size 15 to 20)
#    0.000    1.571    0.000    5.571    0.000   10.571 
#    0.000    1.429    0.000    0.000    0.000    0.000 
#    0.000    0.000    0.000    0.000    0.000    0.000 
#
# Total GULP energy -312114.696535 kJ/mol
# GULP energy per Si atom -5573.476724 kJ/mol
# Density = 2.000300 g / cm^3
# Si number density = 20.048632 Si / 1000 Ang^3
#
#
#
# Elastic Constant Matrix: (Units=GPa)
#
#
# Indices 1 2 3 4 5 6 
#
# 1 118.2278 45.6064 61.4008 0.0000 0.0000 0.0000
# 2 45.6064 92.9452 55.0382 0.0000 0.0000 0.0000
# 3 61.4008 55.0382 91.3377 0.0000 0.0000 0.0000
# 4 0.0000 0.0000 0.0000 22.9630 0.0000 0.0000
# 5 0.0000 0.0000 0.0000 0.0000 -99.3586 0.0000
# 6 0.0000 0.0000 0.0000 0.0000 0.0000 -77.5809
#
#
#
# Elastic Compliance Matrix: (Units=1/GPa)
#
#
# Indices 1 2 3 4 5 6 
#
# 1 0.013208 -0.001902 -0.007733 0.000000 0.000000 0.000000
# 2 -0.001902 0.017002 -0.008966 0.000000 0.000000 0.000000
# 3 -0.007733 -0.008966 0.021550 0.000000 0.000000 0.000000
# 4 0.000000 0.000000 0.000000 0.043548 0.000000 0.000000
# 5 0.000000 0.000000 0.000000 0.000000 -0.010065 0.000000
# 6 0.000000 0.000000 0.000000 0.000000 0.000000 -0.012890
#
#
# Mechanical properties :
#
#
# Convention : Reuss Voigt Hill
#
# Bulk Modulus (GPa) = 68.69481 69.62236 69.15858
# Shear Modulus (GPa) = 43.70324 -21.43095 11.13614
#
# Velocity S-wave (km/s) = 4.67396 -3.27302 2.35937
# Velocity P-wave (km/s) = 7.96658 4.52974 6.48016
#
# Compressibility (1/GPa) = 0.01455714
#
# Stress axis : x y z
#
# Youngs Moduli (GPa) = 75.71239 58.81757 46.40427
#
# Poissons Ratio (x) = 0.11186 0.35884
# Poissons Ratio (y) = 0.14399 0.41608
# Poissons Ratio (z) = 0.58548 0.52738
#
# Static dielectric constant tensor:
#      x y z
#    x 1.599280 0.000000 0.000000 
#    y 0.000000 1.701050 0.000000 
#    z 0.000000 0.000000 1.702890 
# 
# From -- ./inp_files/21022.got.cif
#   From: 2010.05.17/outbox.cif.g08.bks.cpg/sg59_11_cif.got.tgz:21022.got - 2010.06.03 14:40:33.
