data_PCOD9451472
_publ_section_title
;
Structure prediction by ZEFSAII (Michael W. Deem and Ramdas Pophale) SiO2 
 PCOD9451472
Probable space group: P M M N
;
_chemical_formula_sum "Si O2"
_cell_formula_units_Z 48
_cell_length_a 7.955779
_cell_length_b 16.946992
_cell_length_c 16.815408
_cell_angle_alpha 90.000000
_cell_angle_beta 90.000000
_cell_angle_gamma 90.000000
_cell_volume 2267.162995
_symmetry_space_group_name_H-M "P M M N"
_symmetry_group_IT_number 59
_space_group.IT_coordinate_system_code '2'
_symmetry_cell_setting 'orthorhombic'
loop_
_space_group_symop_operation_xyz
x,y,z
1/2-x,1/2-y,z
1/2+x,-y,-z
-x,1/2+y,-z
-x,-y,-z
1/2+x,1/2+y,-z
1/2-x,y,z
x,1/2-y,z
loop_
_atom_site_type_symbol
_atom_site_label
_atom_site_fract_x
_atom_site_fract_y
_atom_site_fract_z
Si Si1 0.944735 0.556528 0.212192
Si Si2 0.544525 0.157714 0.470059
Si Si3 0.943417 0.416437 0.963378
Si Si4 0.450016 0.250000 0.205901
Si Si5 0.952221 0.096003 0.304210
Si Si6 0.053465 0.844587 0.355571
Si Si7 0.448109 0.750000 0.975052
O O1 0.750000 0.542728 0.190444
O O2 0.016102 0.478511 0.254884
O O3 0.036792 0.578846 0.131463
O O4 0.957226 0.621981 0.280430
O O5 0.750000 0.157574 0.471409
O O6 0.495551 0.250000 0.459102
O O7 0.486259 0.107466 0.394590
O O8 0.489819 0.129074 0.557305
O O9 0.750000 0.411548 0.986876
O O10 0.022465 0.333344 0.993162
O O11 0.000000 0.500000 0.000000
O O12 0.250000 0.250000 0.195762
O O13 0.505155 0.325950 0.255604
O O14 0.534023 0.250000 0.119680
O O15 0.750000 0.087734 0.308933
O O16 0.250000 0.867025 0.347562
O O17 0.046132 0.750000 0.356946
O O18 0.250000 0.750000 0.997837
#
# Coordination Sequence:
#
# PCOD9451472 Si02
#       7
#     8   8   8   4   8   8   4
#     4  11  24  38  57  89 122 157 197 244 299 353
#     4   8  14  30  58  84 107 152 207 243 278 340
#     4  11  24  44  67  91 121 157 201 253 305 365
#     4  12  24  36  58  93 122 145 186 243 302 351
#     4  10  20  37  60  83 117 162 201 235 287 357
#     4   9  19  36  59  84 113 155 205 249 293 346
#     4  10  24  44  66  87 112 157 204 239 294 371
#
# _framework density 21.171835999999999
#
# number of rings (size 3 to 8) (size 9 to 14) (size 15 to 20)
#    0.000    2.000    0.833    3.750    1.167    7.667 
#    0.000    0.833    0.000    0.000    0.000    0.000 
#    0.000    0.000    0.000    0.000    0.000    0.000 
#
# Total GULP energy -267991.925924 kJ/mol
# GULP energy per Si atom -5583.165123 kJ/mol
# Density = 2.112365 g / cm^3
# Si number density = 21.171836 Si / 1000 Ang^3
#
#
#
# Elastic Constant Matrix: (Units=GPa)
#
#
# Indices 1 2 3 4 5 6 
#
# 1 7.1488 6.3383 -4.3761 0.0000 0.0000 0.0000
# 2 6.3383 90.5959 68.8372 0.0000 0.0000 0.0000
# 3 -4.3761 68.8372 113.5553 0.0000 0.0000 0.0000
# 4 0.0000 0.0000 0.0000 48.2296 0.0000 0.0000
# 5 0.0000 0.0000 0.0000 0.0000 17.8732 0.0000
# 6 0.0000 0.0000 0.0000 0.0000 0.0000 19.1803
#
#
#
# Elastic Compliance Matrix: (Units=1/GPa)
#
#
# Indices 1 2 3 4 5 6 
#
# 1 0.187761 -0.034546 0.028178 0.000000 0.000000 0.000000
# 2 -0.034546 0.026820 -0.017590 0.000000 0.000000 0.000000
# 3 0.028178 -0.017590 0.020555 0.000000 0.000000 0.000000
# 4 0.000000 0.000000 0.000000 0.020734 0.000000 0.000000
# 5 0.000000 0.000000 0.000000 0.000000 0.055950 0.000000
# 6 0.000000 0.000000 0.000000 0.000000 0.000000 0.052137
#
#
# Mechanical properties :
#
#
# Convention : Reuss Voigt Hill
#
# Bulk Modulus (GPa) = 5.34131 39.21099 22.27615
# Shear Modulus (GPa) = 10.54229 26.42333 18.48281
#
# Velocity S-wave (km/s) = 2.23388 3.53660 2.95785
# Velocity P-wave (km/s) = 3.03017 5.93610 4.71270
#
# Compressibility (1/GPa) = 0.18721997
#
# Stress axis : x y z
#
# Youngs Moduli (GPa) = 5.32591 37.28553 48.64993
#
# Poissons Ratio (x) = 1.28808 -1.37085
# Poissons Ratio (y) = 0.18399 0.85573
# Poissons Ratio (z) = -0.15007 0.65584
#
# Static dielectric constant tensor:
#      x y z
#    x 1.668910 0.000000 0.000000 
#    y 0.000000 1.813680 0.000000 
#    z 0.000000 0.000000 1.732880 
# 
# From -- ./inp_files/20532.got.cif
#   From: 2010.05.17/outbox.cif.g08.bks.cpg/sg59_11_cif.got.tgz:20532.got - 2010.06.03 14:40:33.
