data_PCOD9451372
_publ_section_title
;
Structure prediction by ZEFSAII (Michael W. Deem and Ramdas Pophale) SiO2 
 PCOD9451372
Probable space group: P M M N
;
_chemical_formula_sum "Si O2"
_cell_formula_units_Z 64
_cell_length_a 26.165101
_cell_length_b 7.968388
_cell_length_c 14.865080
_cell_angle_alpha 90.000000
_cell_angle_beta 90.000000
_cell_angle_gamma 90.000000
_cell_volume 3099.275186
_symmetry_space_group_name_H-M "P M M N"
_symmetry_group_IT_number 59
_space_group.IT_coordinate_system_code '2'
_symmetry_cell_setting 'orthorhombic'
loop_
_space_group_symop_operation_xyz
x,y,z
1/2-x,1/2-y,z
1/2+x,-y,-z
-x,1/2+y,-z
-x,-y,-z
1/2+x,1/2+y,-z
1/2-x,y,z
x,1/2-y,z
loop_
_atom_site_type_symbol
_atom_site_label
_atom_site_fract_x
_atom_site_fract_y
_atom_site_fract_z
Si Si1 0.691004 0.047427 0.907791
Si Si2 0.904794 0.547790 0.384162
Si Si3 0.637168 0.455330 0.088924
Si Si4 0.808116 0.548350 0.708165
Si Si5 0.692644 0.047467 0.269402
Si Si6 0.399161 0.450077 0.412832
Si Si7 0.492537 0.550890 0.288178
Si Si8 0.979080 0.049873 0.097176
O O1 0.750000 0.992248 0.918937
O O2 0.690640 0.250000 0.908631
O O3 0.673646 0.990806 0.809343
O O4 0.657743 0.988683 0.992026
O O5 0.908382 0.750000 0.385210
O O6 0.850887 0.503160 0.339568
O O7 0.908062 0.483879 0.486579
O O8 0.952808 0.485153 0.325255
O O9 0.637007 0.250000 0.088227
O O10 0.673577 0.508332 0.170622
O O11 0.579360 0.512667 0.105641
O O12 0.750000 0.483326 0.698469
O O13 0.805987 0.750000 0.699863
O O14 0.848226 0.482004 0.635491
O O15 0.750000 0.986421 0.289097
O O16 0.694160 0.250000 0.267807
O O17 0.392346 0.250000 0.421812
O O18 0.446945 0.479026 0.347707
O O19 0.491353 0.750000 0.300286
O O20 0.489097 0.513941 0.182339
O O21 0.978275 0.250000 0.102363
O O22 0.000000 0.000000 0.000000
#
# Coordination Sequence:
#
# PCOD9451372 Si02
#       8
#     8   8   8   8   8   8   8   8
#     4   9  17  31  53  79 107 141 181 224 271 327
#     4  10  22  40  60  85 117 151 194 245 300 356
#     4   9  18  34  56  81 111 148 187 230 283 340
#     4   9  19  36  55  79 112 146 182 227 282 342
#     4  10  20  36  60  88 118 155 199 244 293 353
#     4  10  22  39  61  86 111 151 197 240 294 353
#     4  11  23  40  61  87 117 152 194 245 295 350
#     4  11  23  39  59  86 120 157 191 237 294 349
#
# _framework density 20.649991
#
# number of rings (size 3 to 8) (size 9 to 14) (size 15 to 20)
#    0.000    2.125    1.250    1.500    1.750    3.750 
#    0.000    2.500    0.000    3.000    0.000    0.000 
#    0.000    0.000    0.000    0.000    0.000    0.000 
#
# Total GULP energy -357461.764930 kJ/mol
# GULP energy per Si atom -5585.340077 kJ/mol
# Density = 2.060299 g / cm^3
# Si number density = 20.649991 Si / 1000 Ang^3
#
#
#
# Elastic Constant Matrix: (Units=GPa)
#
#
# Indices 1 2 3 4 5 6 
#
# 1 91.7781 -4.9319 52.1227 0.0000 0.0000 0.0000
# 2 -4.9319 12.4727 -3.8471 0.0000 0.0000 0.0000
# 3 52.1227 -3.8471 143.8874 0.0000 0.0000 0.0000
# 4 0.0000 0.0000 0.0000 22.2660 0.0000 0.0000
# 5 0.0000 0.0000 0.0000 0.0000 14.0823 0.0000
# 6 0.0000 0.0000 0.0000 0.0000 0.0000 18.4800
#
#
#
# Elastic Compliance Matrix: (Units=1/GPa)
#
#
# Indices 1 2 3 4 5 6 
#
# 1 0.013911 0.003979 -0.004933 0.000000 0.000000 0.000000
# 2 0.003979 0.081980 0.000750 0.000000 0.000000 0.000000
# 3 -0.004933 0.000750 0.008757 0.000000 0.000000 0.000000
# 4 0.000000 0.000000 0.000000 0.044912 0.000000 0.000000
# 5 0.000000 0.000000 0.000000 0.000000 0.071011 0.000000
# 6 0.000000 0.000000 0.000000 0.000000 0.000000 0.054113
#
#
# Mechanical properties :
#
#
# Convention : Reuss Voigt Hill
#
# Bulk Modulus (GPa) = 9.59314 37.20284 23.39799
# Shear Modulus (GPa) = 16.13755 24.61863 20.37809
#
# Velocity S-wave (km/s) = 2.79853 3.45655 3.14480
# Velocity P-wave (km/s) = 3.88562 5.82969 4.95396
#
# Compressibility (1/GPa) = 0.10424116
#
# Stress axis : x y z
#
# Youngs Moduli (GPa) = 71.88472 12.19815 114.19615
#
# Poissons Ratio (x) = -0.04854 0.56332
# Poissons Ratio (y) = -0.28604 -0.08570
# Poissons Ratio (z) = 0.35460 -0.00915
#
# Static dielectric constant tensor:
#      x y z
#    x 1.733610 0.000000 0.000000 
#    y 0.000000 1.745360 0.000000 
#    z 0.000000 0.000000 1.708300 
# 
# From -- ./inp_files/24728.got.cif
#   From: 2010.05.17/outbox.cif.g08.bks.cpg/sg59_13_cif.got.tgz:24728.got - 2010.06.03 14:40:33.
