data_PCOD9451849
_publ_section_title
;
Structure prediction by ZEFSAII (Michael W. Deem and Ramdas Pophale) SiO2 
 PCOD9451849
Probable space group: P M M N
;
_chemical_formula_sum "Si O2"
_cell_formula_units_Z 48
_cell_length_a 7.880982
_cell_length_b 9.556748
_cell_length_c 32.078654
_cell_angle_alpha 90.000000
_cell_angle_beta 90.000000
_cell_angle_gamma 90.000000
_cell_volume 2416.053836
_symmetry_space_group_name_H-M "P M M N"
_symmetry_group_IT_number 59
_space_group.IT_coordinate_system_code '2'
_symmetry_cell_setting 'orthorhombic'
loop_
_space_group_symop_operation_xyz
x,y,z
1/2-x,1/2-y,z
1/2+x,-y,-z
-x,1/2+y,-z
-x,-y,-z
1/2+x,1/2+y,-z
1/2-x,y,z
x,1/2-y,z
loop_
_atom_site_type_symbol
_atom_site_label
_atom_site_fract_x
_atom_site_fract_y
_atom_site_fract_z
Si Si1 0.545093 0.588878 0.698559
Si Si2 0.546355 0.409162 0.869683
Si Si3 0.045200 0.910494 0.540623
Si Si4 0.453236 0.409164 0.618994
Si Si5 0.548276 0.908846 0.039674
Si Si6 0.457192 0.411448 0.208042
O O1 0.750000 0.590682 0.698594
O O2 0.488728 0.750000 0.690944
O O3 0.487969 0.485027 0.662624
O O4 0.489351 0.546240 0.745249
O O5 0.750000 0.403596 0.865886
O O6 0.480188 0.250000 0.868764
O O7 0.508420 0.468256 0.915557
O O8 0.481114 0.495971 0.830347
O O9 0.250000 0.904048 0.543140
O O10 0.982710 0.750000 0.538569
O O11 0.981424 0.993488 0.581381
O O12 0.000000 0.000000 0.500000
O O13 0.250000 0.401091 0.613991
O O14 0.519822 0.250000 0.617497
O O15 0.750000 0.900320 0.040774
O O16 0.478145 0.750000 0.036109
O O17 0.500000 0.000000 0.000000
O O18 0.250000 0.415969 0.207836
O O19 0.505821 0.250000 0.202155
#
# Coordination Sequence:
#
# PCOD9451849 Si02
#       6
#     8   8   8   8   8   8
#     4   9  18  33  53  77 104 135 172 212 252 296
#     4   9  17  30  49  72  98 129 164 202 247 298
#     4  10  21  37  57  79 103 134 171 210 255 306
#     4  10  21  36  53  75 104 137 172 210 254 303
#     4  10  21  36  53  74 101 133 168 207 252 301
#     4   8  15  29  49  73 100 129 164 206 249 294
#
# _framework density 19.867107000000001
#
# number of rings (size 3 to 8) (size 9 to 14) (size 15 to 20)
#    0.000    2.667    0.000    2.500    0.000    5.333 
#    0.000    4.167    0.000    3.000    0.000    0.000 
#    0.000    0.000    0.000    0.000    0.000    0.000 
#
# Total GULP energy -267794.870790 kJ/mol
# GULP energy per Si atom -5579.059808 kJ/mol
# Density = 1.982189 g / cm^3
# Si number density = 19.867107 Si / 1000 Ang^3
#
#
#
# Elastic Constant Matrix: (Units=GPa)
#
#
# Indices 1 2 3 4 5 6 
#
# 1 19.9398 8.3075 2.8328 0.0000 0.0000 0.0000
# 2 8.3075 137.4485 123.1791 0.0000 0.0000 0.0000
# 3 2.8328 123.1791 214.4830 0.0000 0.0000 0.0000
# 4 0.0000 0.0000 0.0000 41.4401 0.0000 0.0000
# 5 0.0000 0.0000 0.0000 0.0000 26.8002 0.0000
# 6 0.0000 0.0000 0.0000 0.0000 0.0000 17.8906
#
#
#
# Elastic Compliance Matrix: (Units=1/GPa)
#
#
# Indices 1 2 3 4 5 6 
#
# 1 0.051993 -0.005207 0.002304 0.000000 0.000000 0.000000
# 2 -0.005207 0.015513 -0.008840 0.000000 0.000000 0.000000
# 3 0.002304 -0.008840 0.009709 0.000000 0.000000 0.000000
# 4 0.000000 0.000000 0.000000 0.024131 0.000000 0.000000
# 5 0.000000 0.000000 0.000000 0.000000 0.037313 0.000000
# 6 0.000000 0.000000 0.000000 0.000000 0.000000 0.055895
#
#
# Mechanical properties :
#
#
# Convention : Reuss Voigt Hill
#
# Bulk Modulus (GPa) = 18.61244 71.16779 44.89012
# Shear Modulus (GPa) = 21.19088 33.06299 27.12693
#
# Velocity S-wave (km/s) = 3.26948 4.08390 3.69917
# Velocity P-wave (km/s) = 4.86225 7.62478 6.39448
#
# Compressibility (1/GPa) = 0.05372749
#
# Stress axis : x y z
#
# Youngs Moduli (GPa) = 19.23335 64.46341 102.99746
#
# Poissons Ratio (x) = 0.33567 -0.23728
# Poissons Ratio (y) = 0.10015 0.91053
# Poissons Ratio (z) = -0.04431 0.56987
#
# Static dielectric constant tensor:
#      x y z
#    x 1.730100 0.000000 0.000000 
#    y 0.000000 1.689640 0.000000 
#    z 0.000000 0.000000 1.685880 
# 
# From -- ./inp_files/32878.got.cif
#   From: 2010.05.17/outbox.cif.g08.bks.cpg/sg59_17_cif.got.tgz:32878.got - 2010.06.03 14:40:33.
