data_PCOD9451992
_publ_section_title
;
Structure prediction by ZEFSAII (Michael W. Deem and Ramdas Pophale) SiO2 
 PCOD9451992
Probable space group: P M M N
;
_chemical_formula_sum "Si O2"
_cell_formula_units_Z 32
_cell_length_a 11.248726
_cell_length_b 17.329905
_cell_length_c 8.448240
_cell_angle_alpha 90.000000
_cell_angle_beta 90.000000
_cell_angle_gamma 90.000000
_cell_volume 1646.894439
_symmetry_space_group_name_H-M "P M M N"
_symmetry_group_IT_number 59
_space_group.IT_coordinate_system_code '2'
_symmetry_cell_setting 'orthorhombic'
loop_
_space_group_symop_operation_xyz
x,y,z
1/2-x,1/2-y,z
1/2+x,-y,-z
-x,1/2+y,-z
-x,-y,-z
1/2+x,1/2+y,-z
1/2-x,y,z
x,1/2-y,z
loop_
_atom_site_type_symbol
_atom_site_label
_atom_site_fract_x
_atom_site_fract_y
_atom_site_fract_z
Si Si1 0.050406 0.049542 0.352402
Si Si2 0.883434 0.393745 0.788213
Si Si3 0.888297 0.338627 0.150836
Si Si4 0.377283 0.159347 0.609256
O O1 0.124797 0.113341 0.445079
O O2 0.954253 0.098664 0.256867
O O3 0.109456 0.986183 0.238428
O O4 0.000000 0.000000 0.500000
O O5 0.750000 0.369090 0.731880
O O6 0.000269 0.361427 0.699353
O O7 0.894401 0.366106 0.968670
O O8 0.750000 0.337652 0.196348
O O9 0.933262 0.250000 0.165288
O O10 0.250000 0.140988 0.693261
O O11 0.380531 0.250000 0.581173
#
# Coordination Sequence:
#
# PCOD9451992 Si02
#       4
#     8   8   8   8
#     4  10  21  36  55  82 115 154 193 235 286 344
#     4  10  21  38  62  90 119 154 197 244 293 348
#     4  10  21  38  61  89 119 152 194 244 296 350
#     4  10  21  37  57  84 120 160 201 245 293 346
#
# _framework density 19.430510999999999
#
# number of rings (size 3 to 8) (size 9 to 14) (size 15 to 20)
#    0.000    2.000    0.000    3.000    0.000    9.500 
#    0.000    2.500    0.000    6.000    0.000    0.000 
#    0.000    0.000    0.000    0.000    0.000    0.000 
#
# Total GULP energy -178154.490473 kJ/mol
# GULP energy per Si atom -5567.327827 kJ/mol
# Density = 1.938629 g / cm^3
# Si number density = 19.430511 Si / 1000 Ang^3
#
#
#
# Elastic Constant Matrix: (Units=GPa)
#
#
# Indices 1 2 3 4 5 6 
#
# 1 141.4095 70.1177 32.7396 0.0000 0.0000 0.0000
# 2 70.1177 123.9881 47.6332 0.0000 0.0000 0.0000
# 3 32.7396 47.6332 34.8123 0.0000 0.0000 0.0000
# 4 0.0000 0.0000 0.0000 30.0321 0.0000 0.0000
# 5 0.0000 0.0000 0.0000 0.0000 23.7757 0.0000
# 6 0.0000 0.0000 0.0000 0.0000 0.0000 33.3821
#
#
#
# Elastic Compliance Matrix: (Units=1/GPa)
#
#
# Indices 1 2 3 4 5 6 
#
# 1 0.010028 -0.004317 -0.003524 0.000000 0.000000 0.000000
# 2 -0.004317 0.018862 -0.021748 0.000000 0.000000 0.000000
# 3 -0.003524 -0.021748 0.061797 0.000000 0.000000 0.000000
# 4 0.000000 0.000000 0.000000 0.033298 0.000000 0.000000
# 5 0.000000 0.000000 0.000000 0.000000 0.042060 0.000000
# 6 0.000000 0.000000 0.000000 0.000000 0.000000 0.029956
#
#
# Mechanical properties :
#
#
# Convention : Reuss Voigt Hill
#
# Bulk Modulus (GPa) = 31.73732 66.79898 49.26815
# Shear Modulus (GPa) = 18.81947 27.41929 23.11938
#
# Velocity S-wave (km/s) = 3.11553 3.76060 3.45316
# Velocity P-wave (km/s) = 5.41399 7.30131 6.42730
#
# Compressibility (1/GPa) = 0.03150865
#
# Stress axis : x y z
#
# Youngs Moduli (GPa) = 99.71786 53.01657 16.18203
#
# Poissons Ratio (x) = 0.22890 0.05702
# Poissons Ratio (y) = 0.43053 0.35193
# Poissons Ratio (z) = 0.35137 1.15301
#
# Static dielectric constant tensor:
#      x y z
#    x 1.746130 0.000000 0.000000 
#    y 0.000000 1.658830 0.000000 
#    z 0.000000 0.000000 1.663540 
# 
# From -- ./inp_files/6727.got.cif
#   From: 2010.05.17/outbox.cif.g08.bks.cpg/sg59_4_cif.got.tgz:6727.got - 2010.06.03 14:40:33.
