data_PCOD9451488
_publ_section_title
;
Structure prediction by ZEFSAII (Michael W. Deem and Ramdas Pophale) SiO2 
 PCOD9451488
Probable space group: P M M N
;
_chemical_formula_sum "Si O2"
_cell_formula_units_Z 48
_cell_length_a 28.713684
_cell_length_b 8.753618
_cell_length_c 10.319971
_cell_angle_alpha 90.000000
_cell_angle_beta 90.000000
_cell_angle_gamma 90.000000
_cell_volume 2593.910481
_symmetry_space_group_name_H-M "P M M N"
_symmetry_group_IT_number 59
_space_group.IT_coordinate_system_code '2'
_symmetry_cell_setting 'orthorhombic'
loop_
_space_group_symop_operation_xyz
x,y,z
1/2-x,1/2-y,z
1/2+x,-y,-z
-x,1/2+y,-z
-x,-y,-z
1/2+x,1/2+y,-z
1/2-x,y,z
x,1/2-y,z
loop_
_atom_site_type_symbol
_atom_site_label
_atom_site_fract_x
_atom_site_fract_y
_atom_site_fract_z
Si Si1 0.004822 0.568061 0.144891
Si Si2 0.101098 0.068001 0.245425
Si Si3 0.646992 0.565112 0.482129
Si Si4 0.250000 0.433897 0.587633
Si Si5 0.347065 0.932235 0.007393
Si Si6 0.750000 0.066194 0.123907
Si Si7 0.911016 0.067958 0.242733
O O1 0.004722 0.750000 0.135011
O O2 0.052657 0.511951 0.209025
O O3 0.960999 0.510523 0.228258
O O4 0.000000 0.500000 0.000000
O O5 0.094001 0.250000 0.245648
O O6 0.121812 0.021601 0.384343
O O7 0.137216 0.022126 0.133462
O O8 0.645909 0.750000 0.472288
O O9 0.701252 0.515913 0.476576
O O10 0.619308 0.495868 0.360938
O O11 0.250000 0.250000 0.586124
O O12 0.250000 0.490013 0.735663
O O13 0.347902 0.750000 0.033804
O O14 0.296243 0.974509 0.954961
O O15 0.383157 0.961617 0.890701
O O16 0.750000 0.250000 0.142576
O O17 0.916496 0.250000 0.256028
#
# Coordination Sequence:
#
# PCOD9451488 Si02
#       7
#     8   8   8   4   8   4   8
#     4  12  24  40  64  91 122 159 203 253 307 366
#     4  11  24  41  62  89 125 164 204 251 306 364
#     4  10  23  41  61  90 126 163 204 251 302 361
#     4  10  20  37  62  88 120 160 202 247 298 356
#     4  10  21  37  60  89 122 156 199 252 301 357
#     4  10  20  37  60  90 122 154 200 253 302 360
#     4  11  22  38  64  93 121 158 203 250 301 360
#
# _framework density 18.504878000000001
#
# number of rings (size 3 to 8) (size 9 to 14) (size 15 to 20)
#    0.000    1.333    3.333    2.500    0.000    4.000 
#    0.000    0.833    0.000    0.000    0.000    0.000 
#    0.000    0.000    0.000    0.000    0.000    0.000 
#
# Total GULP energy -268298.071459 kJ/mol
# GULP energy per Si atom -5589.543155 kJ/mol
# Density = 1.846276 g / cm^3
# Si number density = 18.504878 Si / 1000 Ang^3
#
#
#
# Elastic Constant Matrix: (Units=GPa)
#
#
# Indices 1 2 3 4 5 6 
#
# 1 139.6227 34.3756 46.3925 0.0000 0.0000 0.0000
# 2 34.3756 45.0420 41.1773 0.0000 0.0000 0.0000
# 3 46.3925 41.1773 107.3977 0.0000 0.0000 0.0000
# 4 0.0000 0.0000 0.0000 27.9415 0.0000 0.0000
# 5 0.0000 0.0000 0.0000 0.0000 29.1064 0.0000
# 6 0.0000 0.0000 0.0000 0.0000 0.0000 29.0694
#
#
#
# Elastic Compliance Matrix: (Units=1/GPa)
#
#
# Indices 1 2 3 4 5 6 
#
# 1 0.009076 -0.005147 -0.001947 0.000000 0.000000 0.000000
# 2 -0.005147 0.037101 -0.012002 0.000000 0.000000 0.000000
# 3 -0.001947 -0.012002 0.014754 0.000000 0.000000 0.000000
# 4 0.000000 0.000000 0.000000 0.035789 0.000000 0.000000
# 5 0.000000 0.000000 0.000000 0.000000 0.034357 0.000000
# 6 0.000000 0.000000 0.000000 0.000000 0.000000 0.034400
#
#
# Mechanical properties :
#
#
# Convention : Reuss Voigt Hill
#
# Bulk Modulus (GPa) = 43.97540 59.55033 51.76287
# Shear Modulus (GPa) = 23.66865 28.56458 26.11662
#
# Velocity S-wave (km/s) = 3.58026 3.93316 3.76085
# Velocity P-wave (km/s) = 6.39584 7.27166 6.84777
#
# Compressibility (1/GPa) = 0.02273999
#
# Stress axis : x y z
#
# Youngs Moduli (GPa) = 110.17636 26.95316 67.77805
#
# Poissons Ratio (x) = 0.13872 0.13199
# Poissons Ratio (y) = 0.56704 0.81346
# Poissons Ratio (z) = 0.21456 0.32349
#
# Static dielectric constant tensor:
#      x y z
#    x 1.636270 0.000000 0.000000 
#    y 0.000000 1.624930 0.000000 
#    z 0.000000 0.000000 1.597440 
# 
# From -- ./inp_files/13065.got.cif
#   From: 2010.05.17/outbox.cif.g08.bks.cpg/sg59_7_cif.got.tgz:13065.got - 2010.06.03 14:40:33.
