data_PCOD9451340
_publ_section_title
;
Structure prediction by ZEFSAII (Michael W. Deem and Ramdas Pophale) SiO2 
 PCOD9451340
Probable space group: P M M N
;
_chemical_formula_sum "Si O2"
_cell_formula_units_Z 64
_cell_length_a 21.240348
_cell_length_b 8.256222
_cell_length_c 18.247561
_cell_angle_alpha 90.000000
_cell_angle_beta 90.000000
_cell_angle_gamma 90.000000
_cell_volume 3199.984054
_symmetry_space_group_name_H-M "P M M N"
_symmetry_group_IT_number 59
_space_group.IT_coordinate_system_code '2'
_symmetry_cell_setting 'orthorhombic'
loop_
_space_group_symop_operation_xyz
x,y,z
1/2-x,1/2-y,z
1/2+x,-y,-z
-x,1/2+y,-z
-x,-y,-z
1/2+x,1/2+y,-z
1/2-x,y,z
x,1/2-y,z
loop_
_atom_site_type_symbol
_atom_site_label
_atom_site_fract_x
_atom_site_fract_y
_atom_site_fract_z
Si Si1 0.322240 0.437575 0.974724
Si Si2 0.104253 0.433194 0.838078
Si Si3 0.354480 0.066045 0.133307
Si Si4 0.523917 0.068180 0.923601
Si Si5 0.388832 0.557153 0.288312
Si Si6 0.436263 0.942607 0.540304
Si Si7 0.035640 0.055021 0.702122
Si Si8 0.322815 0.443353 0.436971
O O1 0.250000 0.431231 0.954510
O O2 0.346840 0.250000 0.981655
O O3 0.326186 0.505460 0.057513
O O4 0.358083 0.513461 0.905516
O O5 0.131465 0.250000 0.827482
O O6 0.087522 0.510409 0.760077
O O7 0.034868 0.417038 0.871107
O O8 0.331494 0.250000 0.141518
O O9 0.427529 0.054705 0.111577
O O10 0.353097 0.981786 0.212105
O O11 0.551424 0.250000 0.931612
O O12 0.500000 0.000000 0.000000
O O13 0.391501 0.750000 0.297168
O O14 0.462490 0.499134 0.287571
O O15 0.351332 0.485889 0.357154
O O16 0.438180 0.750000 0.545220
O O17 0.500000 0.000000 0.500000
O O18 0.441053 0.016533 0.621078
O O19 0.373525 0.991181 0.495714
O O20 0.034295 0.250000 0.712753
O O21 0.250000 0.502213 0.444277
O O22 0.321574 0.250000 0.444275
#
# Coordination Sequence:
#
# PCOD9451340 Si02
#       8
#     8   8   8   8   8   8   8   8
#     4   9  18  33  53  77 107 151 203 248 294 349
#     4   9  17  32  53  78 111 147 189 244 297 345
#     4  11  21  33  53  83 118 154 196 247 298 359
#     4  11  19  31  50  78 109 142 187 242 301 354
#     4  11  22  37  60  90 126 164 199 247 306 372
#     4  12  24  40  66  97 130 166 207 255 309 374
#     4  10  20  36  59  90 125 157 195 251 312 366
#     4  11  25  45  68  94 126 164 208 256 309 377
#
# _framework density 20.000098999999999
#
# number of rings (size 3 to 8) (size 9 to 14) (size 15 to 20)
#    0.000    1.500    3.750    2.625    0.000    2.000 
#    0.000    1.875    0.000    3.375    0.000    0.000 
#    0.000    0.000    0.000    0.000    0.000    0.000 
#
# Total GULP energy -356679.809530 kJ/mol
# GULP energy per Si atom -5573.122024 kJ/mol
# Density = 1.995458 g / cm^3
# Si number density = 20.000099 Si / 1000 Ang^3
#
#
#
# Elastic Constant Matrix: (Units=GPa)
#
#
# Indices 1 2 3 4 5 6 
#
# 1 99.8446 8.2014 52.1233 0.0000 0.0000 0.0000
# 2 8.2014 32.0369 2.5351 0.0000 0.0000 0.0000
# 3 52.1233 2.5351 158.4978 0.0000 0.0000 0.0000
# 4 0.0000 0.0000 0.0000 16.3745 0.0000 0.0000
# 5 0.0000 0.0000 0.0000 0.0000 3.7134 0.0000
# 6 0.0000 0.0000 0.0000 0.0000 0.0000 18.7134
#
#
#
# Elastic Compliance Matrix: (Units=1/GPa)
#
#
# Indices 1 2 3 4 5 6 
#
# 1 0.012345 -0.002843 -0.004014 0.000000 0.000000 0.000000
# 2 -0.002843 0.031908 0.000424 0.000000 0.000000 0.000000
# 3 -0.004014 0.000424 0.007623 0.000000 0.000000 0.000000
# 4 0.000000 0.000000 0.000000 0.061070 0.000000 0.000000
# 5 0.000000 0.000000 0.000000 0.000000 0.269292 0.000000
# 6 0.000000 0.000000 0.000000 0.000000 0.000000 0.053438
#
#
# Mechanical properties :
#
#
# Convention : Reuss Voigt Hill
#
# Bulk Modulus (GPa) = 25.63397 46.23322 35.93359
# Shear Modulus (GPa) = 10.83322 22.92824 16.88073
#
# Velocity S-wave (km/s) = 2.32988 3.38954 2.90837
# Velocity P-wave (km/s) = 4.48135 6.20365 5.41146
#
# Compressibility (1/GPa) = 0.03901074
#
# Stress axis : x y z
#
# Youngs Moduli (GPa) = 81.00689 31.33995 131.18982
#
# Poissons Ratio (x) = 0.08909 0.52662
# Poissons Ratio (y) = 0.23027 -0.05568
# Poissons Ratio (z) = 0.32518 -0.01330
#
# Static dielectric constant tensor:
#      x y z
#    x 1.702500 0.000000 0.000000 
#    y 0.000000 1.718270 0.000000 
#    z 0.000000 0.000000 1.728720 
# 
# From -- ./inp_files/28313.got.cif
#   From: 2010.05.17/outbox.cif.g08.bks.cpg/sg59_15_cif.got.tgz:28313.got - 2010.06.03 14:40:33.
