data_PCOD9451918
_publ_section_title
;
Structure prediction by ZEFSAII (Michael W. Deem and Ramdas Pophale) SiO2 
 PCOD9451918
Probable space group: P M M N
;
_chemical_formula_sum "Si O2"
_cell_formula_units_Z 64
_cell_length_a 19.673670
_cell_length_b 8.967223
_cell_length_c 20.823816
_cell_angle_alpha 90.000000
_cell_angle_beta 90.000000
_cell_angle_gamma 90.000000
_cell_volume 3673.699847
_symmetry_space_group_name_H-M "P M M N"
_symmetry_group_IT_number 59
_space_group.IT_coordinate_system_code '2'
_symmetry_cell_setting 'orthorhombic'
loop_
_space_group_symop_operation_xyz
x,y,z
1/2-x,1/2-y,z
1/2+x,-y,-z
-x,1/2+y,-z
-x,-y,-z
1/2+x,1/2+y,-z
1/2-x,y,z
x,1/2-y,z
loop_
_atom_site_type_symbol
_atom_site_label
_atom_site_fract_x
_atom_site_fract_y
_atom_site_fract_z
Si Si1 0.580993 0.427758 0.319507
Si Si2 0.329170 0.071523 0.062820
Si Si3 0.079606 0.426871 0.323901
Si Si4 0.578086 0.572054 0.182234
Si Si5 0.331020 0.573819 0.927032
Si Si6 0.931034 0.570736 0.822474
Si Si7 0.170282 0.927155 0.432371
Si Si8 0.330557 0.427385 0.568702
O O1 0.590222 0.250000 0.313993
O O2 0.500900 0.455333 0.332730
O O3 0.597527 0.504285 0.251551
O O4 0.626294 0.493804 0.376133
O O5 0.250000 0.037246 0.076680
O O6 0.334117 0.250000 0.052221
O O7 0.377163 0.033256 0.122523
O O8 0.349036 0.987845 0.997589
O O9 0.091271 0.250000 0.332914
O O10 0.094828 0.464102 0.249441
O O11 0.124494 0.516136 0.374139
O O12 0.578811 0.750000 0.184888
O O13 0.628028 0.511962 0.127552
O O14 0.502208 0.512256 0.167878
O O15 0.250000 0.550922 0.918973
O O16 0.345025 0.750000 0.923085
O O17 0.943521 0.750000 0.823787
O O18 0.250000 0.960171 0.419843
O O19 0.163196 0.750000 0.440730
O O20 0.151152 0.008459 0.498716
O O21 0.250000 0.456055 0.578252
O O22 0.341470 0.250000 0.570227
#
# Coordination Sequence:
#
# PCOD9451918 Si02
#       8
#     8   8   8   8   8   8   8   8
#     4  10  21  38  58  80 108 140 175 217 265 317
#     4   9  18  34  56  81 108 139 177 221 267 315
#     4   9  19  35  55  79 106 139 178 218 262 313
#     4  11  22  36  56  80 107 140 178 220 263 311
#     4  10  21  37  56  78 106 140 177 219 267 317
#     4   9  19  36  56  79 109 142 177 218 264 316
#     4  10  21  36  54  78 108 142 179 219 264 312
#     4  10  21  37  57  81 108 139 177 219 262 312
#
# _framework density 17.421129000000001
#
# number of rings (size 3 to 8) (size 9 to 14) (size 15 to 20)
#    0.000    2.250    0.000    3.375    0.000    7.250 
#    0.000    1.250    0.000    1.500    0.000    0.000 
#    0.000    0.000    0.000    0.000    0.000    0.000 
#
# Total GULP energy -357312.947924 kJ/mol
# GULP energy per Si atom -5583.014811 kJ/mol
# Density = 1.738148 g / cm^3
# Si number density = 17.421129 Si / 1000 Ang^3
#
#
#
# Elastic Constant Matrix: (Units=GPa)
#
#
# Indices 1 2 3 4 5 6 
#
# 1 67.8272 67.1584 98.6580 0.0000 0.0000 0.0000
# 2 67.1584 90.4258 95.7330 0.0000 0.0000 0.0000
# 3 98.6580 95.7330 176.0769 0.0000 0.0000 0.0000
# 4 0.0000 0.0000 0.0000 35.2904 0.0000 0.0000
# 5 0.0000 0.0000 0.0000 0.0000 41.5592 0.0000
# 6 0.0000 0.0000 0.0000 0.0000 0.0000 21.7944
#
#
#
# Elastic Compliance Matrix: (Units=1/GPa)
#
#
# Indices 1 2 3 4 5 6 
#
# 1 0.128433 -0.045241 -0.047365 0.000000 0.000000 0.000000
# 2 -0.045241 0.041994 0.002517 0.000000 0.000000 0.000000
# 3 -0.047365 0.002517 0.030850 0.000000 0.000000 0.000000
# 4 0.000000 0.000000 0.000000 0.028336 0.000000 0.000000
# 5 0.000000 0.000000 0.000000 0.000000 0.024062 0.000000
# 6 0.000000 0.000000 0.000000 0.000000 0.000000 0.045883
#
#
# Mechanical properties :
#
#
# Convention : Reuss Voigt Hill
#
# Bulk Modulus (GPa) = 47.39565 95.26984 71.33274
# Shear Modulus (GPa) = 10.27177 24.58084 17.42631
#
# Velocity S-wave (km/s) = 2.43083 3.76037 3.16618
# Velocity P-wave (km/s) = 5.92820 8.58248 7.37572
#
# Compressibility (1/GPa) = 0.02109898
#
# Stress axis : x y z
#
# Youngs Moduli (GPa) = 7.78615 23.81268 32.41475
#
# Poissons Ratio (x) = 1.07731 1.53533
# Poissons Ratio (y) = 0.35225 -0.08158
# Poissons Ratio (z) = 0.36879 -0.05993
#
# Static dielectric constant tensor:
#      x y z
#    x 1.572720 0.000000 0.000000 
#    y 0.000000 1.579460 0.000000 
#    z 0.000000 0.000000 1.562940 
# 
# From -- ./inp_files/28227.got.cif
#   From: 2010.05.17/outbox.cif.g08.bks.cpg/sg59_15_cif.got.tgz:28227.got - 2010.06.03 14:40:33.
