data_PCOD9451307
_publ_section_title
;
Structure prediction by ZEFSAII (Michael W. Deem and Ramdas Pophale) SiO2 
 PCOD9451307
Probable space group: P M M N
;
_chemical_formula_sum "Si O2"
_cell_formula_units_Z 40
_cell_length_a 9.251879
_cell_length_b 29.927631
_cell_length_c 7.119578
_cell_angle_alpha 90.000000
_cell_angle_beta 90.000000
_cell_angle_gamma 90.000000
_cell_volume 1971.317318
_symmetry_space_group_name_H-M "P M M N"
_symmetry_group_IT_number 59
_space_group.IT_coordinate_system_code '2'
_symmetry_cell_setting 'orthorhombic'
loop_
_space_group_symop_operation_xyz
x,y,z
1/2-x,1/2-y,z
1/2+x,-y,-z
-x,1/2+y,-z
-x,-y,-z
1/2+x,1/2+y,-z
1/2-x,y,z
x,1/2-y,z
loop_
_atom_site_type_symbol
_atom_site_label
_atom_site_fract_x
_atom_site_fract_y
_atom_site_fract_z
Si Si1 0.580254 0.301565 0.411358
Si Si2 0.076979 0.370588 0.677941
Si Si3 0.581283 0.361505 0.069709
Si Si4 0.415133 0.469782 0.730736
Si Si5 0.414396 0.446115 0.179066
O O1 0.750000 0.306538 0.463368
O O2 0.539382 0.250000 0.435824
O O3 0.485863 0.335357 0.532683
O O4 0.567904 0.317554 0.196273
O O5 0.250000 0.368692 0.687701
O O6 0.039731 0.422737 0.638788
O O7 0.008376 0.358992 0.879272
O O8 0.750000 0.369730 0.029086
O O9 0.516849 0.403195 0.186314
O O10 0.250000 0.481066 0.677866
O O11 0.521928 0.511391 0.712058
O O12 0.411961 0.459023 0.956258
O O13 0.250000 0.435627 0.234859
#
# Coordination Sequence:
#
# PCOD9451307 Si02
#       5
#     8   8   8   8   8
#     4  10  23  42  61  82 109 144 188 235 282 335
#     4  10  21  37  59  87 116 147 185 231 282 333
#     4  10  20  36  59  84 114 152 189 228 278 335
#     4   8  15  28  47  75 111 147 182 221 269 328
#     4   9  16  27  48  79 112 146 186 229 271 320
#
# _framework density 20.291
#
# number of rings (size 3 to 8) (size 9 to 14) (size 15 to 20)
#    0.000    2.600    0.000    3.000    0.000    8.400 
#    0.000    3.000    0.000    0.000    0.000    0.000 
#    0.000    0.000    0.000    0.000    0.000    0.000 
#
# Total GULP energy -223504.536652 kJ/mol
# GULP energy per Si atom -5587.613416 kJ/mol
# Density = 2.024482 g / cm^3
# Si number density = 20.291000 Si / 1000 Ang^3
#
#
#
# Elastic Constant Matrix: (Units=GPa)
#
#
# Indices 1 2 3 4 5 6 
#
# 1 77.3979 55.8150 30.3969 0.0000 0.0000 0.0000
# 2 55.8150 110.3155 30.3157 0.0000 0.0000 0.0000
# 3 30.3969 30.3157 62.9528 0.0000 0.0000 0.0000
# 4 0.0000 0.0000 0.0000 27.6408 0.0000 0.0000
# 5 0.0000 0.0000 0.0000 0.0000 18.7778 0.0000
# 6 0.0000 0.0000 0.0000 0.0000 0.0000 28.3252
#
#
#
# Elastic Compliance Matrix: (Units=1/GPa)
#
#
# Indices 1 2 3 4 5 6 
#
# 1 0.022219 -0.009559 -0.006125 0.000000 0.000000 0.000000
# 2 -0.009559 0.014560 -0.002396 0.000000 0.000000 0.000000
# 3 -0.006125 -0.002396 0.019996 0.000000 0.000000 0.000000
# 4 0.000000 0.000000 0.000000 0.036178 0.000000 0.000000
# 5 0.000000 0.000000 0.000000 0.000000 0.053254 0.000000
# 6 0.000000 0.000000 0.000000 0.000000 0.000000 0.035304
#
#
# Mechanical properties :
#
#
# Convention : Reuss Voigt Hill
#
# Bulk Modulus (GPa) = 48.50831 53.74683 51.12757
# Shear Modulus (GPa) = 22.26736 23.89132 23.07934
#
# Velocity S-wave (km/s) = 3.31630 3.43510 3.37622
# Velocity P-wave (km/s) = 6.21466 6.50221 6.36006
#
# Compressibility (1/GPa) = 0.02061502
#
# Stress axis : x y z
#
# Youngs Moduli (GPa) = 45.00642 68.68335 50.00898
#
# Poissons Ratio (x) = 0.65651 0.30633
# Poissons Ratio (y) = 0.43020 0.11982
# Poissons Ratio (z) = 0.27569 0.16456
#
# Static dielectric constant tensor:
#      x y z
#    x 1.677150 0.000000 0.000000 
#    y 0.000000 1.692990 0.000000 
#    z 0.000000 0.000000 1.787110 
# 
# From -- ./inp_files/6039.got.cif
#   From: 2010.05.17/outbox.cif.g08.bks.cpg/sg59_4_cif.got.tgz:6039.got - 2010.06.03 14:40:33.
