data_PCOD9451027
_publ_section_title
;
Structure prediction by ZEFSAII (Michael W. Deem and Ramdas Pophale) SiO2 
 PCOD9451027
Probable space group: P M M N
;
_chemical_formula_sum "Si O2"
_cell_formula_units_Z 64
_cell_length_a 8.991183
_cell_length_b 18.811161
_cell_length_c 21.601744
_cell_angle_alpha 90.000000
_cell_angle_beta 90.000000
_cell_angle_gamma 90.000000
_cell_volume 3653.602136
_symmetry_space_group_name_H-M "P M M N"
_symmetry_group_IT_number 59
_space_group.IT_coordinate_system_code '2'
_symmetry_cell_setting 'orthorhombic'
loop_
_space_group_symop_operation_xyz
x,y,z
1/2-x,1/2-y,z
1/2+x,-y,-z
-x,1/2+y,-z
-x,-y,-z
1/2+x,1/2+y,-z
1/2-x,y,z
x,1/2-y,z
loop_
_atom_site_type_symbol
_atom_site_label
_atom_site_fract_x
_atom_site_fract_y
_atom_site_fract_z
Si Si1 0.425992 0.333632 0.615884
Si Si2 0.573872 0.960286 0.189308
Si Si3 0.071275 0.609069 0.752289
Si Si4 0.070447 0.422596 0.495518
Si Si5 0.927437 0.832204 0.876784
Si Si6 0.427323 0.831288 0.253466
Si Si7 0.070817 0.166485 0.373532
Si Si8 0.572340 0.036738 0.059220
O O1 0.250000 0.345503 0.626640
O O2 0.446505 0.250000 0.602707
O O3 0.472773 0.378511 0.556571
O O4 0.512754 0.350905 0.678418
O O5 0.750000 0.947558 0.195120
O O6 0.488638 0.889155 0.206274
O O7 0.535516 0.025962 0.235002
O O8 0.544205 0.988945 0.120365
O O9 0.250000 0.616629 0.754749
O O10 0.998937 0.651179 0.809751
O O11 0.007574 0.637004 0.687848
O O12 0.250000 0.427963 0.495135
O O13 0.027555 0.379586 0.433611
O O14 0.000000 0.500000 0.500000
O O15 0.750000 0.844029 0.873607
O O16 0.954112 0.750000 0.892815
O O17 0.000543 0.887115 0.924708
O O18 0.250000 0.832167 0.253596
O O19 0.477383 0.750000 0.240653
O O20 0.250000 0.161054 0.366128
O O21 0.035828 0.250000 0.382333
O O22 0.750000 0.043668 0.052133
O O23 0.500000 0.000000 0.000000
#
# Coordination Sequence:
#
# PCOD9451027 Si02
#       8
#     8   8   8   8   8   8   8   8
#     4   9  18  35  57  75  97 136 179 219 268 326
#     4   9  20  37  56  80 110 145 181 218 263 320
#     4  10  21  35  54  82 113 143 180 226 275 327
#     4  10  22  37  53  75 102 136 178 224 271 324
#     4  10  20  35  57  85 116 150 189 230 273 325
#     4  10  21  35  54  82 110 136 175 228 278 322
#     4  10  21  37  55  76 105 141 180 221 270 330
#     4  10  21  38  60  86 116 151 190 230 273 322
#
# _framework density 17.516960000000001
#
# number of rings (size 3 to 8) (size 9 to 14) (size 15 to 20)
#    0.000    2.250    0.000    3.000    1.750    9.000 
#    0.000    0.625    0.000    3.000    0.000    0.000 
#    0.000    0.000    0.000    0.000    0.000    0.000 
#
# Total GULP energy -357266.925685 kJ/mol
# GULP energy per Si atom -5582.295714 kJ/mol
# Density = 1.747709 g / cm^3
# Si number density = 17.516960 Si / 1000 Ang^3
#
#
#
# Elastic Constant Matrix: (Units=GPa)
#
#
# Indices 1 2 3 4 5 6 
#
# 1 55.9212 69.0758 57.5252 0.0000 0.0000 0.0000
# 2 69.0758 130.5701 88.5023 0.0000 0.0000 0.0000
# 3 57.5252 88.5023 92.6494 0.0000 0.0000 0.0000
# 4 0.0000 0.0000 0.0000 26.0526 0.0000 0.0000
# 5 0.0000 0.0000 0.0000 0.0000 27.1678 0.0000
# 6 0.0000 0.0000 0.0000 0.0000 0.0000 34.5915
#
#
#
# Elastic Compliance Matrix: (Units=1/GPa)
#
#
# Indices 1 2 3 4 5 6 
#
# 1 0.063014 -0.019338 -0.020653 0.000000 0.000000 0.000000
# 2 -0.019338 0.027660 -0.014415 0.000000 0.000000 0.000000
# 3 -0.020653 -0.014415 0.037386 0.000000 0.000000 0.000000
# 4 0.000000 0.000000 0.000000 0.038384 0.000000 0.000000
# 5 0.000000 0.000000 0.000000 0.000000 0.036808 0.000000
# 6 0.000000 0.000000 0.000000 0.000000 0.000000 0.028909
#
#
# Mechanical properties :
#
#
# Convention : Reuss Voigt Hill
#
# Bulk Modulus (GPa) = 51.95046 78.81637 65.38341
# Shear Modulus (GPa) = 14.39312 21.83154 18.11233
#
# Velocity S-wave (km/s) = 2.86958 3.53414 3.21906
# Velocity P-wave (km/s) = 6.37973 7.85783 7.15704
#
# Compressibility (1/GPa) = 0.01924911
#
# Stress axis : x y z
#
# Youngs Moduli (GPa) = 15.86947 36.15362 26.74789
#
# Poissons Ratio (x) = 0.69913 0.55241
# Poissons Ratio (y) = 0.30688 0.38557
# Poissons Ratio (z) = 0.32775 0.52115
#
# Static dielectric constant tensor:
#      x y z
#    x 1.586340 0.000000 0.000000 
#    y 0.000000 1.595040 0.000000 
#    z 0.000000 0.000000 1.568280 
# 
# From -- ./inp_files/29444.got.cif
#   From: 2010.05.17/outbox.cif.g08.bks.cpg/sg59_15_cif.got.tgz:29444.got - 2010.06.03 14:40:33.
