data_PCOD9451701
_publ_section_title
;
Structure prediction by ZEFSAII (Michael W. Deem and Ramdas Pophale) SiO2 
 PCOD9451701
Probable space group: P M M N
;
_chemical_formula_sum "Si O2"
_cell_formula_units_Z 64
_cell_length_a 18.815537
_cell_length_b 19.310670
_cell_length_c 9.203759
_cell_angle_alpha 90.000000
_cell_angle_beta 90.000000
_cell_angle_gamma 90.000000
_cell_volume 3344.099556
_symmetry_space_group_name_H-M "P M M N"
_symmetry_group_IT_number 59
_space_group.IT_coordinate_system_code '2'
_symmetry_cell_setting 'orthorhombic'
loop_
_space_group_symop_operation_xyz
x,y,z
1/2-x,1/2-y,z
1/2+x,-y,-z
-x,1/2+y,-z
-x,-y,-z
1/2+x,1/2+y,-z
1/2-x,y,z
x,1/2-y,z
loop_
_atom_site_type_symbol
_atom_site_label
_atom_site_fract_x
_atom_site_fract_y
_atom_site_fract_z
Si Si1 0.941669 0.559621 0.139838
Si Si2 0.118473 0.558701 0.652342
Si Si3 0.904821 0.002566 0.832721
Si Si4 0.102506 0.329414 0.651244
Si Si5 0.060915 0.827181 0.448152
Si Si6 0.165899 0.675911 0.869533
Si Si7 0.832493 0.361932 0.813144
Si Si8 0.331591 0.056469 0.439450
O O1 0.918470 0.497002 0.244790
O O2 0.903324 0.628293 0.197952
O O3 0.026776 0.554376 0.162587
O O4 0.918227 0.542797 0.976002
O O5 0.069329 0.608148 0.555527
O O6 0.153595 0.612794 0.762130
O O7 0.164212 0.512174 0.541648
O O8 0.888570 0.957058 0.689862
O O9 0.838858 0.055301 0.834115
O O10 0.128176 0.250000 0.660804
O O11 0.145157 0.377714 0.537536
O O12 0.020037 0.327614 0.604018
O O13 0.074422 0.750000 0.508735
O O14 0.118553 0.838554 0.320143
O O15 0.250000 0.679229 0.887320
O O16 0.140020 0.750000 0.812743
O O17 0.138746 0.666600 0.033496
O O18 0.750000 0.342442 0.789318
O O19 0.250000 0.064964 0.389080
#
# Coordination Sequence:
#
# PCOD9451701 Si02
#       8
#     8   8   8   8   8   8   8   8
#     4  10  21  37  63  88 115 153 195 250 305 356
#     4  11  20  35  56  85 115 151 197 243 292 348
#     4  11  20  37  60  89 117 150 198 246 299 358
#     4  10  22  42  63  88 120 156 196 248 310 369
#     4  11  22  36  58  88 124 163 200 241 291 355
#     4  10  21  35  49  73 115 161 197 234 282 340
#     4  11  21  36  55  80 119 162 200 241 287 347
#     4  11  23  39  62  88 115 154 200 253 309 361
#
# _framework density 19.138185
#
# number of rings (size 3 to 8) (size 9 to 14) (size 15 to 20)
#    0.000    1.375    3.750    2.250    0.000    3.500 
#    0.000    1.250    0.000    0.000    0.000    0.000 
#    0.000    0.000    0.000    0.000    0.000    0.000 
#
# Total GULP energy -356681.567666 kJ/mol
# GULP energy per Si atom -5573.149495 kJ/mol
# Density = 1.909463 g / cm^3
# Si number density = 19.138185 Si / 1000 Ang^3
#
#
#
# Elastic Constant Matrix: (Units=GPa)
#
#
# Indices 1 2 3 4 5 6 
#
# 1 54.8044 9.0118 17.7632 0.0000 0.0000 0.0000
# 2 9.0118 129.8996 29.3679 0.0000 0.0000 0.0000
# 3 17.7632 29.3679 84.2951 0.0000 0.0000 0.0000
# 4 0.0000 0.0000 0.0000 14.9385 0.0000 0.0000
# 5 0.0000 0.0000 0.0000 0.0000 13.6292 0.0000
# 6 0.0000 0.0000 0.0000 0.0000 0.0000 20.1079
#
#
#
# Elastic Compliance Matrix: (Units=1/GPa)
#
#
# Indices 1 2 3 4 5 6 
#
# 1 0.019610 -0.000463 -0.003971 0.000000 0.000000 0.000000
# 2 -0.000463 0.008367 -0.002818 0.000000 0.000000 0.000000
# 3 -0.003971 -0.002818 0.013682 0.000000 0.000000 0.000000
# 4 0.000000 0.000000 0.000000 0.066941 0.000000 0.000000
# 5 0.000000 0.000000 0.000000 0.000000 0.073372 0.000000
# 6 0.000000 0.000000 0.000000 0.000000 0.000000 0.049732
#
#
# Mechanical properties :
#
#
# Convention : Reuss Voigt Hill
#
# Bulk Modulus (GPa) = 36.82429 42.36498 39.59463
# Shear Modulus (GPa) = 19.58797 23.92552 21.75675
#
# Velocity S-wave (km/s) = 3.20269 3.53958 3.37534
# Velocity P-wave (km/s) = 5.74102 6.23612 5.99369
#
# Compressibility (1/GPa) = 0.02715599
#
# Stress axis : x y z
#
# Youngs Moduli (GPa) = 50.99463 119.51196 73.09109
#
# Poissons Ratio (x) = 0.05529 0.29026
# Poissons Ratio (y) = 0.02359 0.20594
# Poissons Ratio (z) = 0.20251 0.33674
#
# Static dielectric constant tensor:
#      x y z
#    x 1.694260 0.000000 0.000000 
#    y 0.000000 1.702150 0.000000 
#    z 0.000000 0.000000 1.699240 
# 
# From -- ./inp_files/11632.got.cif
#   From: 2010.05.17/outbox.cif.g08.bks.cpg/sg59_6_cif.got.tgz:11632.got - 2010.06.03 14:40:33.
