data_PCOD9451298
_publ_section_title
;
Structure prediction by ZEFSAII (Michael W. Deem and Ramdas Pophale) SiO2 
 PCOD9451298
Probable space group: P M M N
;
_chemical_formula_sum "Si O2"
_cell_formula_units_Z 64
_cell_length_a 8.840540
_cell_length_b 15.119983
_cell_length_c 24.283105
_cell_angle_alpha 90.000000
_cell_angle_beta 90.000000
_cell_angle_gamma 90.000000
_cell_volume 3245.893858
_symmetry_space_group_name_H-M "P M M N"
_symmetry_group_IT_number 59
_space_group.IT_coordinate_system_code '2'
_symmetry_cell_setting 'orthorhombic'
loop_
_space_group_symop_operation_xyz
x,y,z
1/2-x,1/2-y,z
1/2+x,-y,-z
-x,1/2+y,-z
-x,-y,-z
1/2+x,1/2+y,-z
1/2-x,y,z
x,1/2-y,z
loop_
_atom_site_type_symbol
_atom_site_label
_atom_site_fract_x
_atom_site_fract_y
_atom_site_fract_z
Si Si1 0.920031 0.650561 0.518241
Si Si2 0.570066 0.513656 0.789588
Si Si3 0.431025 0.649569 0.706933
Si Si4 0.067270 0.008606 0.083542
Si Si5 0.067268 0.853255 0.000945
Si Si6 0.430221 0.969207 0.600087
Si Si7 0.422817 0.347277 0.733000
Si Si8 0.003906 0.653493 0.392998
O O1 0.750000 0.628790 0.536395
O O2 0.958121 0.750000 0.537193
O O3 0.037125 0.582271 0.543731
O O4 0.920890 0.653949 0.451986
O O5 0.750000 0.519964 0.789233
O O6 0.501618 0.596286 0.757260
O O7 0.518977 0.508497 0.852971
O O8 0.520278 0.425942 0.756963
O O9 0.250000 0.650410 0.713915
O O10 0.485900 0.750000 0.703484
O O11 0.459733 0.596775 0.650523
O O12 0.250000 0.015102 0.081178
O O13 0.025139 0.916610 0.052742
O O14 0.998610 0.091861 0.050655
O O15 0.250000 0.852978 0.997476
O O16 0.018627 0.750000 0.004303
O O17 0.250000 0.994894 0.602717
O O18 0.548689 0.050377 0.605626
O O19 0.250000 0.359360 0.750946
O O20 0.477192 0.250000 0.750647
O O21 0.423329 0.346387 0.666385
O O22 0.085452 0.750000 0.393205
#
# Coordination Sequence:
#
# PCOD9451298 Si02
#       8
#     8   8   8   8   8   8   8   8
#     4  10  21  36  55  81 111 142 178 224 283 349
#     4  11  23  38  58  85 119 155 191 234 284 336
#     4  10  22  40  60  81 108 146 193 241 287 339
#     4   9  20  37  56  83 119 156 189 228 279 331
#     4   9  18  35  60  87 115 151 192 231 273 322
#     4  11  21  36  59  82 106 140 183 232 284 339
#     4  10  20  37  61  84 110 149 194 236 281 338
#     4  10  20  36  59  83 108 142 183 228 283 345
#
# _framework density 19.717219
#
# number of rings (size 3 to 8) (size 9 to 14) (size 15 to 20)
#    0.000    2.000    1.250    2.250    0.000    6.750 
#    0.000    4.375    0.000    3.375    0.000    0.000 
#    0.000    0.000    0.000    0.000    0.000    0.000 
#
# Total GULP energy -356438.709449 kJ/mol
# GULP energy per Si atom -5569.354835 kJ/mol
# Density = 1.967234 g / cm^3
# Si number density = 19.717219 Si / 1000 Ang^3
#
#
#
# Elastic Constant Matrix: (Units=GPa)
#
#
# Indices 1 2 3 4 5 6 
#
# 1 21.0832 37.9439 25.5403 0.0000 0.0000 0.0000
# 2 37.9439 183.5664 71.9474 0.0000 0.0000 0.0000
# 3 25.5403 71.9474 126.9077 0.0000 0.0000 0.0000
# 4 0.0000 0.0000 0.0000 13.3536 0.0000 0.0000
# 5 0.0000 0.0000 0.0000 0.0000 -49.8421 0.0000
# 6 0.0000 0.0000 0.0000 0.0000 0.0000 12.2602
#
#
#
# Elastic Compliance Matrix: (Units=1/GPa)
#
#
# Indices 1 2 3 4 5 6 
#
# 1 0.082734 -0.013597 -0.008942 0.000000 0.000000 0.000000
# 2 -0.013597 0.009238 -0.002501 0.000000 0.000000 0.000000
# 3 -0.008942 -0.002501 0.011097 0.000000 0.000000 0.000000
# 4 0.000000 0.000000 0.000000 0.074886 0.000000 0.000000
# 5 0.000000 0.000000 0.000000 0.000000 -0.020063 0.000000
# 6 0.000000 0.000000 0.000000 0.000000 0.000000 0.081565
#
#
# Mechanical properties :
#
#
# Convention : Reuss Voigt Hill
#
# Bulk Modulus (GPa) = 18.87155 66.93559 42.90357
# Shear Modulus (GPa) = 16.27605 8.22937 12.25271
#
# Velocity S-wave (km/s) = 2.87622 2.04518 2.49554
# Velocity P-wave (km/s) = 4.54116 6.29273 5.48728
#
# Compressibility (1/GPa) = 0.05298981
#
# Stress axis : x y z
#
# Youngs Moduli (GPa) = 12.08699 108.24384 90.11202
#
# Poissons Ratio (x) = 1.47175 0.80578
# Poissons Ratio (y) = 0.16434 0.22538
# Poissons Ratio (z) = 0.10808 0.27074
#
# Static dielectric constant tensor:
#      x y z
#    x 1.664780 0.000000 0.000000 
#    y 0.000000 1.730480 0.000000 
#    z 0.000000 0.000000 1.680400 
# 
# From -- ./inp_files/31475.got.cif
#   From: 2010.05.17/outbox.cif.g08.bks.cpg/sg59_16_cif.got.tgz:31475.got - 2010.06.03 14:40:33.
