data_PCOD9451535
_publ_section_title
;
Structure prediction by ZEFSAII (Michael W. Deem and Ramdas Pophale) SiO2 
 PCOD9451535
Probable space group: P M M N
;
_chemical_formula_sum "Si O2"
_cell_formula_units_Z 56
_cell_length_a 14.808363
_cell_length_b 8.785437
_cell_length_c 22.898808
_cell_angle_alpha 90.000000
_cell_angle_beta 90.000000
_cell_angle_gamma 90.000000
_cell_volume 2979.087754
_symmetry_space_group_name_H-M "P M M N"
_symmetry_group_IT_number 59
_space_group.IT_coordinate_system_code '2'
_symmetry_cell_setting 'orthorhombic'
loop_
_space_group_symop_operation_xyz
x,y,z
1/2-x,1/2-y,z
1/2+x,-y,-z
-x,1/2+y,-z
-x,-y,-z
1/2+x,1/2+y,-z
1/2-x,y,z
x,1/2-y,z
loop_
_atom_site_type_symbol
_atom_site_label
_atom_site_fract_x
_atom_site_fract_y
_atom_site_fract_z
Si Si1 0.985925 0.930131 0.709543
Si Si2 0.643627 0.434004 0.611291
Si Si3 0.750000 0.566903 0.881955
Si Si4 0.435356 0.567233 0.166021
Si Si5 0.359949 0.925090 0.518341
Si Si6 0.142816 0.428721 0.639835
Si Si7 0.945877 0.933910 0.054887
Si Si8 0.750000 0.565195 0.018530
O O1 0.977933 0.750000 0.714845
O O2 0.915079 0.991693 0.661622
O O3 0.966319 0.007321 0.771423
O O4 0.083772 0.976957 0.685063
O O5 0.750000 0.471302 0.617860
O O6 0.635987 0.250000 0.613841
O O7 0.612300 0.480319 0.545952
O O8 0.750000 0.750000 0.879413
O O9 0.839028 0.502319 0.851453
O O10 0.750000 0.520185 0.950348
O O11 0.428879 0.750000 0.167197
O O12 0.505684 0.522520 0.115018
O O13 0.250000 0.922471 0.516242
O O14 0.389558 0.750000 0.526818
O O15 0.384999 0.024643 0.574028
O O16 0.250000 0.457534 0.645561
O O17 0.126258 0.250000 0.648502
O O18 0.947922 0.750000 0.051014
O O19 0.842177 0.985146 0.049146
O O20 0.000000 0.000000 0.000000
O O21 0.750000 0.750000 0.019282
#
# Coordination Sequence:
#
# PCOD9451535 Si02
#       8
#     8   8   4   8   8   8   8   4
#     4  12  26  41  59  83 117 159 204 248 296 355
#     4   9  19  37  60  86 119 155 194 243 298 356
#     4  11  21  37  65  93 123 159 196 235 288 353
#     4  11  24  41  61  88 123 160 200 245 293 352
#     4   8  15  31  57  87 116 148 187 238 300 358
#     4  10  21  39  63  87 113 149 196 249 302 359
#     4  10  20  37  62  90 122 156 195 241 292 344
#     4   9  18  35  61  93 123 153 188 237 294 347
#
# _framework density 18.797701
#
# number of rings (size 3 to 8) (size 9 to 14) (size 15 to 20)
#    0.000    2.000    1.429    3.214    1.000    2.857 
#    1.286    1.786    0.000    0.000    0.000    0.000 
#    0.000    0.000    0.000    0.000    0.000    0.000 
#
# Total GULP energy -312845.121164 kJ/mol
# GULP energy per Si atom -5586.520021 kJ/mol
# Density = 1.875492 g / cm^3
# Si number density = 18.797701 Si / 1000 Ang^3
#
#
#
# Elastic Constant Matrix: (Units=GPa)
#
#
# Indices 1 2 3 4 5 6 
#
# 1 106.4397 34.5488 66.9478 0.0000 0.0000 0.0000
# 2 34.5488 51.8670 47.5223 0.0000 0.0000 0.0000
# 3 66.9478 47.5223 152.2253 0.0000 0.0000 0.0000
# 4 0.0000 0.0000 0.0000 29.0477 0.0000 0.0000
# 5 0.0000 0.0000 0.0000 0.0000 30.4813 0.0000
# 6 0.0000 0.0000 0.0000 0.0000 0.0000 22.0832
#
#
#
# Elastic Compliance Matrix: (Units=1/GPa)
#
#
# Indices 1 2 3 4 5 6 
#
# 1 0.013895 -0.005122 -0.004512 0.000000 0.000000 0.000000
# 2 -0.005122 0.028892 -0.006767 0.000000 0.000000 0.000000
# 3 -0.004512 -0.006767 0.010666 0.000000 0.000000 0.000000
# 4 0.000000 0.000000 0.000000 0.034426 0.000000 0.000000
# 5 0.000000 0.000000 0.000000 0.000000 0.032807 0.000000
# 6 0.000000 0.000000 0.000000 0.000000 0.000000 0.045283
#
#
# Mechanical properties :
#
#
# Convention : Reuss Voigt Hill
#
# Bulk Modulus (GPa) = 48.42222 67.61887 58.02055
# Shear Modulus (GPa) = 24.31245 27.08997 25.70121
#
# Velocity S-wave (km/s) = 3.60025 3.80034 3.70165
# Velocity P-wave (km/s) = 6.56491 7.43685 7.01444
#
# Compressibility (1/GPa) = 0.02065167
#
# Stress axis : x y z
#
# Youngs Moduli (GPa) = 71.96584 34.61182 93.75332
#
# Poissons Ratio (x) = 0.17727 0.42304
# Poissons Ratio (y) = 0.36857 0.63444
# Poissons Ratio (z) = 0.32473 0.23422
#
# Static dielectric constant tensor:
#      x y z
#    x 1.663410 0.000000 0.000000 
#    y 0.000000 1.626680 0.000000 
#    z 0.000000 0.000000 1.622620 
# 
# From -- ./inp_files/30441.got.cif
#   From: 2010.05.17/outbox.cif.g08.bks.cpg/sg59_16_cif.got.tgz:30441.got - 2010.06.03 14:40:33.
