data_PCOD9451073
_publ_section_title
;
Structure prediction by ZEFSAII (Michael W. Deem and Ramdas Pophale) SiO2 
 PCOD9451073
Probable space group: P M M N
;
_chemical_formula_sum "Si O2"
_cell_formula_units_Z 48
_cell_length_a 15.231698
_cell_length_b 26.139312
_cell_length_c 5.144206
_cell_angle_alpha 90.000000
_cell_angle_beta 90.000000
_cell_angle_gamma 90.000000
_cell_volume 2048.145589
_symmetry_space_group_name_H-M "P M M N"
_symmetry_group_IT_number 59
_space_group.IT_coordinate_system_code '2'
_symmetry_cell_setting 'orthorhombic'
loop_
_space_group_symop_operation_xyz
x,y,z
1/2-x,1/2-y,z
1/2+x,-y,-z
-x,1/2+y,-z
-x,-y,-z
1/2+x,1/2+y,-z
1/2-x,y,z
x,1/2-y,z
loop_
_atom_site_type_symbol
_atom_site_label
_atom_site_fract_x
_atom_site_fract_y
_atom_site_fract_z
Si Si1 0.475749 0.553735 0.710807
Si Si2 0.551315 0.653035 0.926137
Si Si3 0.147470 0.026541 0.596301
Si Si4 0.654269 0.376243 0.605976
Si Si5 0.346720 0.146039 0.592623
Si Si6 0.625465 0.192493 0.116286
O O1 0.503817 0.597365 0.913203
O O2 0.401002 0.512899 0.792259
O O3 0.568400 0.528997 0.619248
O O4 0.424186 0.585445 0.480925
O O5 0.625701 0.649614 0.706380
O O6 0.478597 0.692510 0.838598
O O7 0.584857 0.668765 0.206976
O O8 0.250000 0.013065 0.537792
O O9 0.153097 0.085954 0.674165
O O10 0.750000 0.402345 0.629345
O O11 0.659751 0.336597 0.367859
O O12 0.640905 0.342810 0.864033
O O13 0.250000 0.167078 0.630476
O O14 0.656568 0.250000 0.081117
#
# Coordination Sequence:
#
# PCOD9451073 Si02
#       6
#     8   8   8   8   8   8
#     4   9  19  34  55  83 118 155 195 240 293 346
#     4  10  20  37  58  81 114 152 191 239 296 351
#     4   9  17  32  55  83 115 153 198 241 283 340
#     4  11  23  39  59  85 118 154 192 239 296 350
#     4  10  20  35  58  86 115 152 196 242 291 344
#     4  11  23  39  61  86 113 150 194 238 289 353
#
# _framework density 23.435832000000001
#
# number of rings (size 3 to 8) (size 9 to 14) (size 15 to 20)
#    0.000    2.000    0.000    5.000    0.000    3.333 
#    0.000    5.000    0.000   17.000    0.000    0.000 
#    0.000    0.000    0.000    0.000    0.000    0.000 
#
# Total GULP energy -267644.593752 kJ/mol
# GULP energy per Si atom -5575.929036 kJ/mol
# Density = 2.338249 g / cm^3
# Si number density = 23.435832 Si / 1000 Ang^3
#
#
#
# Elastic Constant Matrix: (Units=GPa)
#
#
# Indices 1 2 3 4 5 6 
#
# 1 156.6421 22.5687 7.7180 0.0000 0.0000 0.0000
# 2 22.5687 51.5244 4.2108 0.0000 0.0000 0.0000
# 3 7.7180 4.2108 92.6163 0.0000 0.0000 0.0000
# 4 0.0000 0.0000 0.0000 10.3835 0.0000 0.0000
# 5 0.0000 0.0000 0.0000 0.0000 32.8798 0.0000
# 6 0.0000 0.0000 0.0000 0.0000 0.0000 -8.5930
#
#
#
# Elastic Compliance Matrix: (Units=1/GPa)
#
#
# Indices 1 2 3 4 5 6 
#
# 1 0.006831 -0.002957 -0.000435 0.000000 0.000000 0.000000
# 2 -0.002957 0.020760 -0.000697 0.000000 0.000000 0.000000
# 3 -0.000435 -0.000697 0.010865 0.000000 0.000000 0.000000
# 4 0.000000 0.000000 0.000000 0.096307 0.000000 0.000000
# 5 0.000000 0.000000 0.000000 0.000000 0.030414 0.000000
# 6 0.000000 0.000000 0.000000 0.000000 0.000000 -0.116374
#
#
# Mechanical properties :
#
#
# Convention : Reuss Voigt Hill
#
# Bulk Modulus (GPa) = 33.02640 41.08644 37.05642
# Shear Modulus (GPa) = 74.54358 24.68640 49.61499
#
# Velocity S-wave (km/s) = 5.64593 3.24907 4.60614
# Velocity P-wave (km/s) = 7.52496 5.62537 6.64341
#
# Compressibility (1/GPa) = 0.03027881
#
# Stress axis : x y z
#
# Youngs Moduli (GPa) = 146.38264 48.16864 92.03707
#
# Poissons Ratio (x) = 0.14242 0.04002
# Poissons Ratio (y) = 0.43282 0.06419
# Poissons Ratio (z) = 0.06366 0.03360
#
# Static dielectric constant tensor:
#      x y z
#    x 1.916220 0.000000 0.000000 
#    y 0.000000 1.938430 0.000000 
#    z 0.000000 0.000000 1.857740 
# 
# From -- ./inp_files/2155.got.cif
#   From: 2010.05.17/outbox.cif.g08.bks.cpg/sg59_2_cif.got.tgz:2155.got - 2010.06.03 14:40:33.
