data_PCOD9451584
_publ_section_title
;
Structure prediction by ZEFSAII (Michael W. Deem and Ramdas Pophale) SiO2 
 PCOD9451584
Probable space group: P M M N
;
_chemical_formula_sum "Si O2"
_cell_formula_units_Z 64
_cell_length_a 8.141163
_cell_length_b 29.598152
_cell_length_c 12.977308
_cell_angle_alpha 90.000000
_cell_angle_beta 90.000000
_cell_angle_gamma 90.000000
_cell_volume 3127.055998
_symmetry_space_group_name_H-M "P M M N"
_symmetry_group_IT_number 59
_space_group.IT_coordinate_system_code '2'
_symmetry_cell_setting 'orthorhombic'
loop_
_space_group_symop_operation_xyz
x,y,z
1/2-x,1/2-y,z
1/2+x,-y,-z
-x,1/2+y,-z
-x,-y,-z
1/2+x,1/2+y,-z
1/2-x,y,z
x,1/2-y,z
loop_
_atom_site_type_symbol
_atom_site_label
_atom_site_fract_x
_atom_site_fract_y
_atom_site_fract_z
Si Si1 0.447914 0.449387 0.477975
Si Si2 0.048477 0.122456 0.846235
Si Si3 0.948291 0.197923 0.430244
Si Si4 0.446251 0.299944 0.000594
Si Si5 0.553367 0.980128 0.109781
Si Si6 0.948021 0.866779 0.387065
Si Si7 0.444492 0.840487 0.789110
Si Si8 0.053821 0.062808 0.246506
O O1 0.500000 0.500000 0.500000
O O2 0.250000 0.447579 0.477026
O O3 0.507274 0.413834 0.562604
O O4 0.506681 0.436047 0.364253
O O5 0.250000 0.121893 0.848497
O O6 0.994873 0.071253 0.871971
O O7 0.996378 0.136348 0.730870
O O8 0.990603 0.159467 0.928747
O O9 0.750000 0.197164 0.428320
O O10 0.002437 0.250000 0.430280
O O11 0.006801 0.173668 0.324754
O O12 0.002891 0.171996 0.532831
O O13 0.250000 0.298756 0.985666
O O14 0.511988 0.250000 0.975288
O O15 0.479425 0.311492 0.119377
O O16 0.750000 0.979203 0.113691
O O17 0.492594 0.015572 0.194936
O O18 0.500000 0.000000 0.000000
O O19 0.750000 0.867925 0.384309
O O20 0.250000 0.833141 0.790547
O O21 0.481669 0.893183 0.808511
O O22 0.250000 0.067142 0.244713
#
# Coordination Sequence:
#
# PCOD9451584 Si02
#       8
#     8   8   8   8   8   8   8   8
#     4  10  21  35  55  83 116 153 196 244 292 349
#     4   9  20  38  60  85 119 157 196 245 295 352
#     4  10  22  39  58  84 119 155 193 244 306 364
#     4  10  21  38  61  88 117 152 195 247 309 368
#     4  11  22  38  60  87 121 162 205 250 302 357
#     4  10  20  38  60  85 115 152 199 243 287 348
#     4  11  22  38  61  87 118 156 199 250 306 365
#     4  11  22  37  57  85 121 156 198 250 300 358
#
# _framework density 20.466535
#
# number of rings (size 3 to 8) (size 9 to 14) (size 15 to 20)
#    0.000    1.750    1.250    3.000    0.000    5.500 
#    0.000    3.750    0.000    0.000    0.000    0.000 
#    0.000    0.000    0.000    0.000    0.000    0.000 
#
# Total GULP energy -357599.184769 kJ/mol
# GULP energy per Si atom -5587.487262 kJ/mol
# Density = 2.041995 g / cm^3
# Si number density = 20.466535 Si / 1000 Ang^3
#
#
#
# Elastic Constant Matrix: (Units=GPa)
#
#
# Indices 1 2 3 4 5 6 
#
# 1 4.2314 -2.2989 2.5973 0.0000 0.0000 0.0000
# 2 -2.2989 160.3451 64.0181 0.0000 0.0000 0.0000
# 3 2.5973 64.0181 132.3772 0.0000 0.0000 0.0000
# 4 0.0000 0.0000 0.0000 34.4503 0.0000 0.0000
# 5 0.0000 0.0000 0.0000 0.0000 24.3865 0.0000
# 6 0.0000 0.0000 0.0000 0.0000 0.0000 22.3851
#
#
#
# Elastic Compliance Matrix: (Units=1/GPa)
#
#
# Indices 1 2 3 4 5 6 
#
# 1 0.244930 0.006730 -0.008060 0.000000 0.000000 0.000000
# 2 0.006730 0.007914 -0.003959 0.000000 0.000000 0.000000
# 3 -0.008060 -0.003959 0.009627 0.000000 0.000000 0.000000
# 4 0.000000 0.000000 0.000000 0.029027 0.000000 0.000000
# 5 0.000000 0.000000 0.000000 0.000000 0.041006 0.000000
# 6 0.000000 0.000000 0.000000 0.000000 0.000000 0.044672
#
#
# Mechanical properties :
#
#
# Convention : Reuss Voigt Hill
#
# Bulk Modulus (GPa) = 3.96996 47.28742 25.62869
# Shear Modulus (GPa) = 10.59950 31.75353 21.17651
#
# Velocity S-wave (km/s) = 2.27820 3.94316 3.22015
# Velocity P-wave (km/s) = 2.97728 6.62467 5.13568
#
# Compressibility (1/GPa) = 0.25189195
#
# Stress axis : x y z
#
# Youngs Moduli (GPa) = 4.08279 126.36264 103.87487
#
# Poissons Ratio (x) = -0.85037 0.83724
# Poissons Ratio (y) = -0.02748 0.41126
# Poissons Ratio (z) = 0.03291 0.50029
#
# Static dielectric constant tensor:
#      x y z
#    x 1.733190 0.000000 0.000000 
#    y 0.000000 1.717940 0.000000 
#    z 0.000000 0.000000 1.723800 
# 
# From -- ./inp_files/15003.got.cif
#   From: 2010.05.17/outbox.cif.g08.bks.cpg/sg59_8_cif.got.tgz:15003.got - 2010.06.03 14:40:33.
