data_PCOD9452268
_publ_section_title
;
Structure prediction by ZEFSAII (Michael W. Deem and Ramdas Pophale) SiO2 
 PCOD9452268
Probable space group: P M M N
;
_chemical_formula_sum "Si O2"
_cell_formula_units_Z 64
_cell_length_a 8.965982
_cell_length_b 15.068470
_cell_length_c 23.670867
_cell_angle_alpha 90.000000
_cell_angle_beta 90.000000
_cell_angle_gamma 90.000000
_cell_volume 3198.020076
_symmetry_space_group_name_H-M "P M M N"
_symmetry_group_IT_number 59
_space_group.IT_coordinate_system_code '2'
_symmetry_cell_setting 'orthorhombic'
loop_
_space_group_symop_operation_xyz
x,y,z
1/2-x,1/2-y,z
1/2+x,-y,-z
-x,1/2+y,-z
-x,-y,-z
1/2+x,1/2+y,-z
1/2-x,y,z
x,1/2-y,z
loop_
_atom_site_type_symbol
_atom_site_label
_atom_site_fract_x
_atom_site_fract_y
_atom_site_fract_z
Si Si1 0.572618 0.477768 0.251093
Si Si2 0.422018 0.856296 0.298942
Si Si3 0.428151 0.353133 0.915429
Si Si4 0.574076 0.145297 0.038299
Si Si5 0.929206 0.147510 0.356386
Si Si6 0.072059 0.476661 0.134129
Si Si7 0.074890 0.086028 0.472911
Si Si8 0.911822 0.648590 0.406685
O O1 0.750000 0.470578 0.242837
O O2 0.527909 0.579769 0.263354
O O3 0.529464 0.417615 0.305051
O O4 0.486899 0.447466 0.195242
O O5 0.250000 0.876704 0.286909
O O6 0.441692 0.750000 0.289963
O O7 0.461332 0.882817 0.364157
O O8 0.250000 0.367446 0.913905
O O9 0.457608 0.250000 0.900543
O O10 0.511519 0.423832 0.876640
O O11 0.490261 0.367686 0.978812
O O12 0.750000 0.124129 0.032085
O O13 0.561732 0.250000 0.052612
O O14 0.500124 0.084919 0.085926
O O15 0.750000 0.144080 0.361672
O O16 0.971908 0.250000 0.345180
O O17 0.998527 0.116976 0.415720
O O18 0.250000 0.474365 0.130866
O O19 0.250000 0.072741 0.462527
O O20 0.058265 0.149745 0.526982
O O21 0.000000 0.000000 0.500000
O O22 0.750000 0.602197 0.397606
O O23 0.894691 0.750000 0.389472
#
# Coordination Sequence:
#
# PCOD9452268 Si02
#       8
#     8   8   8   8   8   8   8   8
#     4  11  24  42  62  84 113 154 204 251 299 358
#     4  10  21  37  58  85 116 150 190 241 302 363
#     4  10  21  39  64  94 128 164 202 245 296 357
#     4  10  21  39  64  93 126 163 202 246 297 353
#     4  10  23  43  64  86 116 156 201 251 307 363
#     4  12  25  40  61  89 123 161 203 253 304 356
#     4  11  22  35  55  84 116 149 187 235 292 353
#     4   9  18  33  52  75 104 138 176 219 272 338
#
# _framework density 20.012381000000001
#
# number of rings (size 3 to 8) (size 9 to 14) (size 15 to 20)
#    0.000    1.625    0.000    4.500    0.000    9.000 
#    0.000    2.500    0.000    0.000    0.000    0.000 
#    0.000    0.000    0.000    0.000    0.000    0.000 
#
# Total GULP energy -357349.553918 kJ/mol
# GULP energy per Si atom -5583.586780 kJ/mol
# Density = 1.996683 g / cm^3
# Si number density = 20.012381 Si / 1000 Ang^3
#
#
#
# Elastic Constant Matrix: (Units=GPa)
#
#
# Indices 1 2 3 4 5 6 
#
# 1 69.6917 32.4722 17.0497 0.0000 0.0000 0.0000
# 2 32.4722 70.2275 23.1323 0.0000 0.0000 0.0000
# 3 17.0497 23.1323 57.0183 0.0000 0.0000 0.0000
# 4 0.0000 0.0000 0.0000 13.7821 0.0000 0.0000
# 5 0.0000 0.0000 0.0000 0.0000 36.6501 0.0000
# 6 0.0000 0.0000 0.0000 0.0000 0.0000 24.7252
#
#
#
# Elastic Compliance Matrix: (Units=1/GPa)
#
#
# Indices 1 2 3 4 5 6 
#
# 1 0.018567 -0.007798 -0.002388 0.000000 0.000000 0.000000
# 2 -0.007798 0.019711 -0.005665 0.000000 0.000000 0.000000
# 3 -0.002388 -0.005665 0.020551 0.000000 0.000000 0.000000
# 4 0.000000 0.000000 0.000000 0.072558 0.000000 0.000000
# 5 0.000000 0.000000 0.000000 0.000000 0.027285 0.000000
# 6 0.000000 0.000000 0.000000 0.000000 0.000000 0.040445
#
#
# Mechanical properties :
#
#
# Convention : Reuss Voigt Hill
#
# Bulk Modulus (GPa) = 36.86531 38.02733 37.44632
# Shear Modulus (GPa) = 20.84542 23.31705 22.08124
#
# Velocity S-wave (km/s) = 3.23093 3.41710 3.32532
# Velocity P-wave (km/s) = 5.69032 5.88319 5.78756
#
# Compressibility (1/GPa) = 0.02712577
#
# Stress axis : x y z
#
# Youngs Moduli (GPa) = 53.85978 50.73227 48.66042
#
# Poissons Ratio (x) = 0.39563 0.11620
# Poissons Ratio (y) = 0.42002 0.27566
# Poissons Ratio (z) = 0.12862 0.28740
#
# Static dielectric constant tensor:
#      x y z
#    x 1.694550 0.000000 0.000000 
#    y 0.000000 1.678630 0.000000 
#    z 0.000000 0.000000 1.762900 
# 
# From -- ./inp_files/31510.got.cif
#   From: 2010.05.17/outbox.cif.g08.bks.cpg/sg59_16_cif.got.tgz:31510.got - 2010.06.03 14:40:33.
