data_PCOD9452605
_publ_section_title
;
Structure prediction by ZEFSAII (Michael W. Deem and Ramdas Pophale) SiO2 
 PCOD9452605
Probable space group: P M M N
;
_chemical_formula_sum "Si O2"
_cell_formula_units_Z 64
_cell_length_a 31.349359
_cell_length_b 8.964892
_cell_length_c 12.179956
_cell_angle_alpha 90.000000
_cell_angle_beta 90.000000
_cell_angle_gamma 90.000000
_cell_volume 3423.098898
_symmetry_space_group_name_H-M "P M M N"
_symmetry_group_IT_number 59
_space_group.IT_coordinate_system_code '2'
_symmetry_cell_setting 'orthorhombic'
loop_
_space_group_symop_operation_xyz
x,y,z
1/2-x,1/2-y,z
1/2+x,-y,-z
-x,1/2+y,-z
-x,-y,-z
1/2+x,1/2+y,-z
1/2-x,y,z
x,1/2-y,z
loop_
_atom_site_type_symbol
_atom_site_label
_atom_site_fract_x
_atom_site_fract_y
_atom_site_fract_z
Si Si1 0.298090 0.427518 0.025074
Si Si2 0.080037 0.924183 0.268286
Si Si3 0.544835 0.070385 0.968679
Si Si4 0.182170 0.923804 0.254511
Si Si5 0.123740 0.069756 0.644379
Si Si6 0.797778 0.571599 0.513541
Si Si7 0.453800 0.072263 0.486469
Si Si8 0.373750 0.929281 0.884750
O O1 0.250000 0.456957 0.984369
O O2 0.305255 0.250000 0.023431
O O3 0.301305 0.486762 0.149545
O O4 0.333670 0.508102 0.952489
O O5 0.069252 0.750000 0.289339
O O6 0.058097 0.971561 0.154955
O O7 0.130789 0.933136 0.253217
O O8 0.065431 0.021122 0.370553
O O9 0.541760 0.250000 0.971955
O O10 0.582951 0.026598 0.050970
O O11 0.500000 0.000000 0.000000
O O12 0.194255 0.750000 0.245802
O O13 0.197254 0.991298 0.369693
O O14 0.124459 0.250000 0.656288
O O15 0.164400 0.027091 0.568981
O O16 0.080406 0.027850 0.580000
O O17 0.125910 0.994510 0.762613
O O18 0.750000 0.542415 0.469891
O O19 0.801788 0.750000 0.531118
O O20 0.457759 0.250000 0.490050
O O21 0.500000 0.000000 0.500000
O O22 0.371757 0.750000 0.882692
#
# Coordination Sequence:
#
# PCOD9452605 Si02
#       8
#     8   8   8   8   8   8   8   8
#     4  11  24  41  63  91 123 162 206 249 300 365
#     4  10  21  40  63  89 124 160 198 249 305 358
#     4  10  23  42  62  90 123 158 200 247 301 359
#     4  11  21  37  62  92 127 160 197 250 305 357
#     4  10  23  42  61  87 121 162 206 248 300 363
#     4  10  21  39  62  88 121 159 201 248 298 359
#     4  11  24  41  63  91 123 160 205 251 301 360
#     4  11  24  43  64  90 123 159 202 254 308 361
#
# _framework density 18.696508999999999
#
# number of rings (size 3 to 8) (size 9 to 14) (size 15 to 20)
#    0.000    1.500    2.500    1.875    1.750    6.750 
#    0.000    1.250    0.000    0.000    0.000    0.000 
#    0.000    0.000    0.000    0.000    0.000    0.000 
#
# Total GULP energy -357722.419633 kJ/mol
# GULP energy per Si atom -5589.412807 kJ/mol
# Density = 1.865395 g / cm^3
# Si number density = 18.696509 Si / 1000 Ang^3
#
#
#
# Elastic Constant Matrix: (Units=GPa)
#
#
# Indices 1 2 3 4 5 6 
#
# 1 145.2023 54.3354 71.6107 0.0000 0.0000 0.0000
# 2 54.3354 45.7585 47.9598 0.0000 0.0000 0.0000
# 3 71.6107 47.9598 140.2571 0.0000 0.0000 0.0000
# 4 0.0000 0.0000 0.0000 38.3803 0.0000 0.0000
# 5 0.0000 0.0000 0.0000 0.0000 49.2188 0.0000
# 6 0.0000 0.0000 0.0000 0.0000 0.0000 31.3868
#
#
#
# Elastic Compliance Matrix: (Units=1/GPa)
#
#
# Indices 1 2 3 4 5 6 
#
# 1 0.012772 -0.012985 -0.002081 0.000000 0.000000 0.000000
# 2 -0.012985 0.047263 -0.009531 0.000000 0.000000 0.000000
# 3 -0.002081 -0.009531 0.011451 0.000000 0.000000 0.000000
# 4 0.000000 0.000000 0.000000 0.026055 0.000000 0.000000
# 5 0.000000 0.000000 0.000000 0.000000 0.020317 0.000000
# 6 0.000000 0.000000 0.000000 0.000000 0.000000 0.031860
#
#
# Mechanical properties :
#
#
# Convention : Reuss Voigt Hill
#
# Bulk Modulus (GPa) = 44.85999 75.44775 60.15387
# Shear Modulus (GPa) = 24.23118 34.28464 29.25791
#
# Velocity S-wave (km/s) = 3.60394 4.28687 3.96016
# Velocity P-wave (km/s) = 6.43146 8.05882 7.29069
#
# Compressibility (1/GPa) = 0.02229158
#
# Stress axis : x y z
#
# Youngs Moduli (GPa) = 78.29379 21.15815 87.32585
#
# Poissons Ratio (x) = 0.27475 0.18172
# Poissons Ratio (y) = 1.01668 0.83233
# Poissons Ratio (z) = 0.16292 0.20167
#
# Static dielectric constant tensor:
#      x y z
#    x 1.645580 0.000000 0.000000 
#    y 0.000000 1.622930 0.000000 
#    z 0.000000 0.000000 1.606200 
# 
# From -- ./inp_files/19369.got.cif
#   From: 2010.05.17/outbox.cif.g08.bks.cpg/sg59_10_cif.got.tgz:19369.got - 2010.06.03 14:40:33.
