data_PCOD9452442
_publ_section_title
;
Structure prediction by ZEFSAII (Michael W. Deem and Ramdas Pophale) SiO2 
 PCOD9452442
Probable space group: P M M N
;
_chemical_formula_sum "Si O2"
_cell_formula_units_Z 40
_cell_length_a 7.526876
_cell_length_b 16.300126
_cell_length_c 15.118211
_cell_angle_alpha 90.000000
_cell_angle_beta 90.000000
_cell_angle_gamma 90.000000
_cell_volume 1854.838600
_symmetry_space_group_name_H-M "P M M N"
_symmetry_group_IT_number 59
_space_group.IT_coordinate_system_code '2'
_symmetry_cell_setting 'orthorhombic'
loop_
_space_group_symop_operation_xyz
x,y,z
1/2-x,1/2-y,z
1/2+x,-y,-z
-x,1/2+y,-z
-x,-y,-z
1/2+x,1/2+y,-z
1/2-x,y,z
x,1/2-y,z
loop_
_atom_site_type_symbol
_atom_site_label
_atom_site_fract_x
_atom_site_fract_y
_atom_site_fract_z
Si Si1 0.037059 0.591158 0.533013
Si Si2 0.958696 0.601645 0.096676
Si Si3 0.466505 0.656666 0.716182
Si Si4 0.465398 0.585402 0.901668
Si Si5 0.963766 0.750000 0.215000
Si Si6 0.463424 0.750000 0.423652
O O1 0.250000 0.599833 0.535098
O O2 0.972523 0.602826 0.633552
O O3 0.970953 0.666570 0.471719
O O4 0.000000 0.500000 0.500000
O O5 0.750000 0.594073 0.116885
O O6 0.031279 0.508979 0.101622
O O7 0.032265 0.669007 0.164012
O O8 0.977925 0.625925 0.993907
O O9 0.250000 0.653240 0.718451
O O10 0.516754 0.750000 0.697946
O O11 0.526546 0.629171 0.812691
O O12 0.250000 0.585028 0.902909
O O13 0.750000 0.750000 0.203744
O O14 0.998623 0.750000 0.319247
O O15 0.250000 0.750000 0.432989
#
# Coordination Sequence:
#
# PCOD9452442 Si02
#       6
#     8   8   8   8   4   4
#     4  10  21  38  60  83 111 146 183 228 279 328
#     4   9  19  35  50  74 108 138 171 215 264 315
#     4   9  17  32  55  80 105 137 177 219 264 320
#     4   9  18  32  54  78 101 134 177 217 257 312
#     4  10  22  36  55  78 106 144 181 218 271 328
#     4  10  22  40  57  82 114 144 185 234 277 322
#
# _framework density 21.565218000000002
#
# number of rings (size 3 to 8) (size 9 to 14) (size 15 to 20)
#    0.000    2.600    1.000    0.000    4.200    1.600 
#    0.000    1.000    0.000    1.200    0.000    0.000 
#    0.000    0.000    0.000    0.000    0.000    0.000 
#
# Total GULP energy -223273.974353 kJ/mol
# GULP energy per Si atom -5581.849359 kJ/mol
# Density = 2.151613 g / cm^3
# Si number density = 21.565218 Si / 1000 Ang^3
#
#
#
# Elastic Constant Matrix: (Units=GPa)
#
#
# Indices 1 2 3 4 5 6 
#
# 1 49.2657 -8.7028 -20.6842 0.0000 0.0000 0.0000
# 2 -8.7028 84.6760 42.0174 0.0000 0.0000 0.0000
# 3 -20.6842 42.0174 117.9709 0.0000 0.0000 0.0000
# 4 0.0000 0.0000 0.0000 40.9384 0.0000 0.0000
# 5 0.0000 0.0000 0.0000 0.0000 15.4606 0.0000
# 6 0.0000 0.0000 0.0000 0.0000 0.0000 12.4336
#
#
#
# Elastic Compliance Matrix: (Units=1/GPa)
#
#
# Indices 1 2 3 4 5 6 
#
# 1 0.021923 0.000420 0.003694 0.000000 0.000000 0.000000
# 2 0.000420 0.014353 -0.005038 0.000000 0.000000 0.000000
# 3 0.003694 -0.005038 0.010919 0.000000 0.000000 0.000000
# 4 0.000000 0.000000 0.000000 0.024427 0.000000 0.000000
# 5 0.000000 0.000000 0.000000 0.000000 0.064681 0.000000
# 6 0.000000 0.000000 0.000000 0.000000 0.000000 0.080428
#
#
# Mechanical properties :
#
#
# Convention : Reuss Voigt Hill
#
# Bulk Modulus (GPa) = 22.05209 30.79703 26.42456
# Shear Modulus (GPa) = 21.39548 29.71866 25.55707
#
# Velocity S-wave (km/s) = 3.15323 3.71628 3.44627
# Velocity P-wave (km/s) = 4.84820 5.72068 5.30242
#
# Compressibility (1/GPa) = 0.04534718
#
# Stress axis : x y z
#
# Youngs Moduli (GPa) = 45.61343 69.67167 91.58415
#
# Poissons Ratio (x) = -0.02927 -0.33834
# Poissons Ratio (y) = -0.01916 0.46144
# Poissons Ratio (z) = -0.16851 0.35104
#
# Static dielectric constant tensor:
#      x y z
#    x 1.842780 0.000000 0.000000 
#    y 0.000000 1.776110 0.000000 
#    z 0.000000 0.000000 1.758260 
# 
# From -- ./inp_files/19912.got.cif
#   From: 2010.05.17/outbox.cif.g08.bks.cpg/sg59_10_cif.got.tgz:19912.got - 2010.06.03 14:40:33.
