data_PCOD9452475
_publ_section_title
;
Structure prediction by ZEFSAII (Michael W. Deem and Ramdas Pophale) SiO2 
 PCOD9452475
Probable space group: P M M N
;
_chemical_formula_sum "Si O2"
_cell_formula_units_Z 58
_cell_length_a 16.988276
_cell_length_b 15.033719
_cell_length_c 12.490674
_cell_angle_alpha 90.000000
_cell_angle_beta 90.000000
_cell_angle_gamma 90.000000
_cell_volume 3190.080264
_symmetry_space_group_name_H-M "P M M N"
_symmetry_group_IT_number 59
_space_group.IT_coordinate_system_code '2'
_symmetry_cell_setting 'orthorhombic'
loop_
_space_group_symop_operation_xyz
x,y,z
1/2-x,1/2-y,z
1/2+x,-y,-z
-x,1/2+y,-z
-x,-y,-z
1/2+x,1/2+y,-z
1/2-x,y,z
x,1/2-y,z
loop_
_atom_site_type_symbol
_atom_site_label
_atom_site_fract_x
_atom_site_fract_y
_atom_site_fract_z
Si Si1 0.340754 0.960801 0.223602
Si Si2 0.342754 0.854190 0.005981
Si Si3 0.618523 0.890744 0.471752
Si Si4 0.947351 0.351256 0.613007
Si Si5 0.839632 0.091026 0.429604
Si Si6 0.750000 0.750000 0.409060
Si Si7 0.916272 0.145380 0.217032
Si Si8 0.099257 0.351114 0.276877
O O1 0.250000 0.940766 0.253976
O O2 0.355374 0.916714 0.108064
O O3 0.400570 0.914732 0.306120
O O4 0.353263 0.066900 0.226386
O O5 0.250000 0.859050 0.977434
O O6 0.359402 0.750000 0.032270
O O7 0.393640 0.881280 0.903154
O O8 0.534470 0.885786 0.413127
O O9 0.681143 0.826849 0.416947
O O10 0.607013 0.860386 0.594765
O O11 0.650293 0.990558 0.470228
O O12 0.950892 0.250000 0.653428
O O13 0.899118 0.352743 0.501934
O O14 0.750000 0.120816 0.441657
O O15 0.866592 0.095394 0.306905
O O16 0.895891 0.250000 0.226113
O O17 0.008423 0.136629 0.242960
O O18 0.123742 0.250000 0.247917
#
# Coordination Sequence:
#
# PCOD9452475 Si02
#       8
#     8   8   8   8   8   2   8   8
#     4  11  24  38  59  90 121 160 204 244 304 363
#     4   9  19  39  62  84 117 156 199 244 292 368
#     4  12  23  41  58  85 120 160 208 245 294 357
#     4  12  23  37  57  84 127 159 187 248 302 355
#     4  12  23  34  56  89 121 157 196 239 298 357
#     4  12  24  40  68  80 112 174 212 240 284 372
#     4  10  21  38  60  87 118 157 201 246 302 353
#     4  11  22  38  59  84 117 157 202 256 299 351
#
# _framework density 18.181360000000002
#
# number of rings (size 3 to 8) (size 9 to 14) (size 15 to 20)
#    0.000    0.966    4.828    2.897    0.966    3.862 
#    0.000    0.000    0.000    0.000    1.793    0.000 
#    0.000    1.103    0.000    0.000    0.000    0.000 
#
# Total GULP energy -323530.191255 kJ/mol
# GULP energy per Si atom -5578.106746 kJ/mol
# Density = 1.813998 g / cm^3
# Si number density = 18.181360 Si / 1000 Ang^3
#
#
#
# Elastic Constant Matrix: (Units=GPa)
#
#
# Indices 1 2 3 4 5 6 
#
# 1 97.2055 4.7968 29.2043 0.0000 0.0000 0.0000
# 2 4.7968 56.0153 16.4587 0.0000 0.0000 0.0000
# 3 29.2043 16.4587 67.8210 0.0000 0.0000 0.0000
# 4 0.0000 0.0000 0.0000 24.7395 0.0000 0.0000
# 5 0.0000 0.0000 0.0000 0.0000 8.0693 0.0000
# 6 0.0000 0.0000 0.0000 0.0000 0.0000 67.7787
#
#
#
# Elastic Compliance Matrix: (Units=1/GPa)
#
#
# Indices 1 2 3 4 5 6 
#
# 1 0.011830 0.000521 -0.005221 0.000000 0.000000 0.000000
# 2 0.000521 0.019246 -0.004895 0.000000 0.000000 0.000000
# 3 -0.005221 -0.004895 0.018181 0.000000 0.000000 0.000000
# 4 0.000000 0.000000 0.000000 0.040421 0.000000 0.000000
# 5 0.000000 0.000000 0.000000 0.000000 0.123927 0.000000
# 6 0.000000 0.000000 0.000000 0.000000 0.000000 0.014754
#
#
# Mechanical properties :
#
#
# Convention : Reuss Voigt Hill
#
# Bulk Modulus (GPa) = 33.25844 35.77350 34.51597
# Shear Modulus (GPa) = 19.41216 31.48964 25.45090
#
# Velocity S-wave (km/s) = 3.27111 4.16621 3.74550
# Velocity P-wave (km/s) = 5.70957 6.54689 6.14251
#
# Compressibility (1/GPa) = 0.03006756
#
# Stress axis : x y z
#
# Youngs Moduli (GPa) = 84.52905 51.95916 55.00364
#
# Poissons Ratio (x) = -0.02706 0.28715
# Poissons Ratio (y) = -0.04403 0.26924
# Poissons Ratio (z) = 0.44129 0.25433
#
# Static dielectric constant tensor:
#      x y z
#    x 1.613110 0.000000 0.000000 
#    y 0.000000 1.644210 0.000000 
#    z 0.000000 0.000000 1.609570 
# 
# From -- ./inp_files/17175.got.cif
#   From: 2010.05.17/outbox.cif.g08.bks.cpg/sg59_9_cif.got.tgz:17175.got - 2010.06.03 14:40:33.
