data_PCOD9452493
_publ_section_title
;
Structure prediction by ZEFSAII (Michael W. Deem and Ramdas Pophale) SiO2 
 PCOD9452493
Probable space group: P M M N
;
_chemical_formula_sum "Si O2"
_cell_formula_units_Z 48
_cell_length_a 19.122849
_cell_length_b 8.951850
_cell_length_c 15.478101
_cell_angle_alpha 90.000000
_cell_angle_beta 90.000000
_cell_angle_gamma 90.000000
_cell_volume 2649.616798
_symmetry_space_group_name_H-M "P M M N"
_symmetry_group_IT_number 59
_space_group.IT_coordinate_system_code '2'
_symmetry_cell_setting 'orthorhombic'
loop_
_space_group_symop_operation_xyz
x,y,z
1/2-x,1/2-y,z
1/2+x,-y,-z
-x,1/2+y,-z
-x,-y,-z
1/2+x,1/2+y,-z
1/2-x,y,z
x,1/2-y,z
loop_
_atom_site_type_symbol
_atom_site_label
_atom_site_fract_x
_atom_site_fract_y
_atom_site_fract_z
Si Si1 0.667441 0.572276 0.097197
Si Si2 0.421812 0.927836 0.750239
Si Si3 0.667986 0.571808 0.399209
Si Si4 0.331458 0.071181 0.398864
Si Si5 0.574702 0.428859 0.747789
Si Si6 0.331342 0.571423 0.087025
O O1 0.750000 0.541822 0.112603
O O2 0.656875 0.750000 0.102592
O O3 0.621037 0.490736 0.168165
O O4 0.650939 0.513593 0.001193
O O5 0.424850 0.750000 0.753367
O O6 0.381016 0.982230 0.664949
O O7 0.499174 0.996049 0.750223
O O8 0.750000 0.540461 0.381966
O O9 0.657849 0.750000 0.386187
O O10 0.654537 0.538976 0.500133
O O11 0.250000 0.033914 0.381689
O O12 0.339240 0.250000 0.387189
O O13 0.382005 0.985218 0.334742
O O14 0.567562 0.250000 0.745138
O O15 0.619018 0.468782 0.833480
O O16 0.250000 0.538787 0.108419
O O17 0.336761 0.750000 0.072300
#
# Coordination Sequence:
#
# PCOD9452493 Si02
#       6
#     8   8   8   8   8   8
#     4  10  21  38  61  86 111 143 183 227 277 333
#     4  12  25  38  55  81 114 151 188 230 280 332
#     4   9  19  38  62  85 111 145 185 230 279 331
#     4   9  19  37  61  87 114 145 183 229 279 331
#     4  11  23  38  57  82 115 153 189 229 277 329
#     4   9  19  37  60  85 111 141 182 230 276 324
#
# _framework density 18.115826999999999
#
# number of rings (size 3 to 8) (size 9 to 14) (size 15 to 20)
#    0.000    2.000    0.000    4.500    0.000    7.667 
#    0.000    3.333    0.000    0.000    0.000    0.000 
#    0.000    0.000    0.000    0.000    0.000    0.000 
#
# Total GULP energy -268206.126187 kJ/mol
# GULP energy per Si atom -5587.627629 kJ/mol
# Density = 1.807459 g / cm^3
# Si number density = 18.115827 Si / 1000 Ang^3
#
#
#
# Elastic Constant Matrix: (Units=GPa)
#
#
# Indices 1 2 3 4 5 6 
#
# 1 140.3865 94.8216 121.7715 0.0000 0.0000 0.0000
# 2 94.8216 92.3466 92.3621 0.0000 0.0000 0.0000
# 3 121.7715 92.3621 142.1226 0.0000 0.0000 0.0000
# 4 0.0000 0.0000 0.0000 36.3931 0.0000 0.0000
# 5 0.0000 0.0000 0.0000 0.0000 -20.0171 0.0000
# 6 0.0000 0.0000 0.0000 0.0000 0.0000 23.6411
#
#
#
# Elastic Compliance Matrix: (Units=1/GPa)
#
#
# Indices 1 2 3 4 5 6 
#
# 1 0.035161 -0.017063 -0.019038 0.000000 0.000000 0.000000
# 2 -0.017063 0.039218 -0.010868 0.000000 0.000000 0.000000
# 3 -0.019038 -0.010868 0.030410 0.000000 0.000000 0.000000
# 4 0.000000 0.000000 0.000000 0.027478 0.000000 0.000000
# 5 0.000000 0.000000 0.000000 0.000000 -0.049957 0.000000
# 6 0.000000 0.000000 0.000000 0.000000 0.000000 0.042299
#
#
# Mechanical properties :
#
#
# Convention : Reuss Voigt Hill
#
# Bulk Modulus (GPa) = 92.13312 110.30735 101.22023
# Shear Modulus (GPa) = 22.50600 12.39678 17.45139
#
# Velocity S-wave (km/s) = 3.52851 2.61876 3.10711
# Velocity P-wave (km/s) = 8.22002 8.37652 8.29864
#
# Compressibility (1/GPa) = 0.01085386
#
# Stress axis : x y z
#
# Youngs Moduli (GPa) = 28.44047 25.49843 32.88358
#
# Poissons Ratio (x) = 0.43507 0.62603
# Poissons Ratio (y) = 0.48527 0.35736
# Poissons Ratio (z) = 0.54144 0.27711
#
# Static dielectric constant tensor:
#      x y z
#    x 1.595000 0.000000 0.000000 
#    y 0.000000 1.594910 0.000000 
#    z 0.000000 0.000000 1.596700 
# 
# From -- ./inp_files/20307.got.cif
#   From: 2010.05.17/outbox.cif.g08.bks.cpg/sg59_11_cif.got.tgz:20307.got - 2010.06.03 14:40:33.
