data_PCOD9452095
_publ_section_title
;
Structure prediction by ZEFSAII (Michael W. Deem and Ramdas Pophale) SiO2 
 PCOD9452095
Probable space group: P M M N
;
_chemical_formula_sum "Si O2"
_cell_formula_units_Z 56
_cell_length_a 14.094963
_cell_length_b 8.876433
_cell_length_c 24.377175
_cell_angle_alpha 90.000000
_cell_angle_beta 90.000000
_cell_angle_gamma 90.000000
_cell_volume 3049.901367
_symmetry_space_group_name_H-M "P M M N"
_symmetry_group_IT_number 59
_space_group.IT_coordinate_system_code '2'
_symmetry_cell_setting 'orthorhombic'
loop_
_space_group_symop_operation_xyz
x,y,z
1/2-x,1/2-y,z
1/2+x,-y,-z
-x,1/2+y,-z
-x,-y,-z
1/2+x,1/2+y,-z
1/2-x,y,z
x,1/2-y,z
loop_
_atom_site_type_symbol
_atom_site_label
_atom_site_fract_x
_atom_site_fract_y
_atom_site_fract_z
Si Si1 0.141518 0.931582 0.029556
Si Si2 0.534532 0.070039 0.305356
Si Si3 0.860049 0.429020 0.645238
Si Si4 0.134326 0.075945 0.469162
Si Si5 0.537808 0.068437 0.083421
Si Si6 0.140570 0.566124 0.805180
Si Si7 0.636521 0.570384 0.409759
O O1 0.250000 0.980597 0.037787
O O2 0.138665 0.750000 0.033395
O O3 0.065288 0.000510 0.071169
O O4 0.104641 0.972271 0.968411
O O5 0.532491 0.250000 0.305563
O O6 0.587748 0.018410 0.250323
O O7 0.428810 0.006505 0.311445
O O8 0.589320 0.012188 0.359069
O O9 0.750000 0.472871 0.652171
O O10 0.867494 0.250000 0.649086
O O11 0.890907 0.480121 0.584056
O O12 0.250000 0.077440 0.471202
O O13 0.104116 0.250000 0.461911
O O14 0.104113 0.019613 0.529341
O O15 0.530736 0.250000 0.084288
O O16 0.584949 0.018207 0.140232
O O17 0.250000 0.516635 0.805859
O O18 0.141484 0.750000 0.805452
O O19 0.750000 0.549234 0.406556
O O20 0.618125 0.750000 0.406493
#
# Coordination Sequence:
#
# PCOD9452095 Si02
#       7
#     8   8   8   8   8   8   8
#     4   9  17  30  50  78 111 143 172 207 255 304
#     4  11  22  34  52  76 100 130 169 212 254 298
#     4  10  21  37  55  73  95 126 165 210 259 310
#     4   8  15  30  52  75  98 126 161 202 250 304
#     4   9  17  31  53  78 104 138 178 215 251 294
#     4   9  18  34  55  78 103 132 170 212 249 291
#     4   9  18  33  52  75 105 136 163 199 251 307
#
# _framework density 18.361250999999999
#
# number of rings (size 3 to 8) (size 9 to 14) (size 15 to 20)
#    0.000    2.714    0.000    2.571    0.000    4.857 
#    0.000    3.571    0.000    7.286    0.000    0.000 
#    0.000    0.000    0.000    0.000    0.000    0.000 
#
# Total GULP energy -312482.419143 kJ/mol
# GULP energy per Si atom -5580.043199 kJ/mol
# Density = 1.831946 g / cm^3
# Si number density = 18.361251 Si / 1000 Ang^3
#
#
#
# Elastic Constant Matrix: (Units=GPa)
#
#
# Indices 1 2 3 4 5 6 
#
# 1 146.2124 35.6322 94.8847 0.0000 0.0000 0.0000
# 2 35.6322 20.1761 31.2781 0.0000 0.0000 0.0000
# 3 94.8847 31.2781 139.1958 0.0000 0.0000 0.0000
# 4 0.0000 0.0000 0.0000 23.1169 0.0000 0.0000
# 5 0.0000 0.0000 0.0000 0.0000 29.7619 0.0000
# 6 0.0000 0.0000 0.0000 0.0000 0.0000 28.3667
#
#
#
# Elastic Compliance Matrix: (Units=1/GPa)
#
#
# Indices 1 2 3 4 5 6 
#
# 1 0.015162 -0.016503 -0.006627 0.000000 0.000000 0.000000
# 2 -0.016503 0.094022 -0.009878 0.000000 0.000000 0.000000
# 3 -0.006627 -0.009878 0.013921 0.000000 0.000000 0.000000
# 4 0.000000 0.000000 0.000000 0.043258 0.000000 0.000000
# 5 0.000000 0.000000 0.000000 0.000000 0.033600 0.000000
# 6 0.000000 0.000000 0.000000 0.000000 0.000000 0.035253
#
#
# Mechanical properties :
#
#
# Convention : Reuss Voigt Hill
#
# Bulk Modulus (GPa) = 17.51637 69.90826 43.71232
# Shear Modulus (GPa) = 15.61226 25.83506 20.72366
#
# Velocity S-wave (km/s) = 2.91912 3.75513 3.36320
# Velocity P-wave (km/s) = 4.57409 7.54704 6.24019
#
# Compressibility (1/GPa) = 0.05708945
#
# Stress axis : x y z
#
# Youngs Moduli (GPa) = 65.95571 10.63578 71.83417
#
# Poissons Ratio (x) = 0.17552 0.47603
# Poissons Ratio (y) = 1.08848 0.70956
# Poissons Ratio (z) = 0.43708 0.10506
#
# Static dielectric constant tensor:
#      x y z
#    x 1.658180 0.000000 0.000000 
#    y 0.000000 1.627020 0.000000 
#    z 0.000000 0.000000 1.615770 
# 
# From -- ./inp_files/30387.got.cif
#   From: 2010.05.17/outbox.cif.g08.bks.cpg/sg59_16_cif.got.tgz:30387.got - 2010.06.03 14:40:33.
