data_PCOD9452436
_publ_section_title
;
Structure prediction by ZEFSAII (Michael W. Deem and Ramdas Pophale) SiO2 
 PCOD9452436
Probable space group: P M M N
;
_chemical_formula_sum "Si O2"
_cell_formula_units_Z 44
_cell_length_a 7.219722
_cell_length_b 29.642532
_cell_length_c 8.164162
_cell_angle_alpha 90.000000
_cell_angle_beta 90.000000
_cell_angle_gamma 90.000000
_cell_volume 1747.219171
_symmetry_space_group_name_H-M "P M M N"
_symmetry_group_IT_number 59
_space_group.IT_coordinate_system_code '2'
_symmetry_cell_setting 'orthorhombic'
loop_
_space_group_symop_operation_xyz
x,y,z
1/2-x,1/2-y,z
1/2+x,-y,-z
-x,1/2+y,-z
-x,-y,-z
1/2+x,1/2+y,-z
1/2-x,y,z
x,1/2-y,z
loop_
_atom_site_type_symbol
_atom_site_label
_atom_site_fract_x
_atom_site_fract_y
_atom_site_fract_z
Si Si1 0.974037 0.600647 0.377783
Si Si2 0.973987 0.700186 0.491702
Si Si3 0.474215 0.392414 0.989002
Si Si4 0.750000 0.036714 0.422822
Si Si5 0.475026 0.200899 0.125466
Si Si6 0.534668 0.977210 0.824339
O O1 0.750000 0.597257 0.401199
O O2 0.024903 0.653653 0.404842
O O3 0.026176 0.590273 0.189492
O O4 0.088404 0.569253 0.497422
O O5 0.750000 0.701320 0.485575
O O6 0.035696 0.750000 0.431973
O O7 0.026264 0.696542 0.683571
O O8 0.250000 0.392804 0.990256
O O9 0.537989 0.342079 0.024598
O O10 0.528024 0.425816 0.134878
O O11 0.591263 0.007403 0.321879
O O12 0.250000 0.200358 0.120982
O O13 0.534206 0.250000 0.065073
O O14 0.750000 0.980328 0.781213
O O15 0.500000 0.000000 0.000000
#
# Coordination Sequence:
#
# PCOD9452436 Si02
#       6
#     8   8   8   4   8   8
#     4  10  21  38  59  90 129 166 205 246 314 380
#     4   8  14  27  51  83 122 166 211 255 300 361
#     4   9  19  35  60  88 125 165 201 258 310 368
#     4  12  24  40  67  92 120 160 199 254 310 376
#     4   8  13  24  47  84 120 157 206 251 294 353
#     4  11  23  44  70  94 121 156 214 265 317 381
#
# _framework density 25.182873000000001
#
# number of rings (size 3 to 8) (size 9 to 14) (size 15 to 20)
#    0.000    2.545    0.909    2.727    0.000    4.364 
#    0.000    5.000    0.000    1.091    0.000    1.273 
#    0.000    0.000    0.000    0.000    0.000    0.000 
#
# Total GULP energy -245285.004425 kJ/mol
# GULP energy per Si atom -5574.659191 kJ/mol
# Density = 2.512556 g / cm^3
# Si number density = 25.182873 Si / 1000 Ang^3
#
#
#
# Elastic Constant Matrix: (Units=GPa)
#
#
# Indices 1 2 3 4 5 6 
#
# 1 170.6180 26.8398 27.4064 0.0000 0.0000 0.0000
# 2 26.8398 121.4364 42.2616 0.0000 0.0000 0.0000
# 3 27.4064 42.2616 79.3820 0.0000 0.0000 0.0000
# 4 0.0000 0.0000 0.0000 48.5302 0.0000 0.0000
# 5 0.0000 0.0000 0.0000 0.0000 -28.2112 0.0000
# 6 0.0000 0.0000 0.0000 0.0000 0.0000 1812.7046
#
#
#
# Elastic Compliance Matrix: (Units=1/GPa)
#
#
# Indices 1 2 3 4 5 6 
#
# 1 0.006264 -0.000776 -0.001750 0.000000 0.000000 0.000000
# 2 -0.000776 0.010203 -0.005164 0.000000 0.000000 0.000000
# 3 -0.001750 -0.005164 0.015951 0.000000 0.000000 0.000000
# 4 0.000000 0.000000 0.000000 0.020606 0.000000 0.000000
# 5 0.000000 0.000000 0.000000 0.000000 -0.035447 0.000000
# 6 0.000000 0.000000 0.000000 0.000000 0.000000 0.000552
#
#
# Mechanical properties :
#
#
# Convention : Reuss Voigt Hill
#
# Bulk Modulus (GPa) = 58.68892 62.71690 60.70291
# Shear Modulus (GPa) = 127.59013 384.93329 256.26171
#
# Velocity S-wave (km/s) = 7.12569 12.37687 10.09858
# Velocity P-wave (km/s) = 9.54234 15.13962 12.65433
#
# Compressibility (1/GPa) = 0.01703899
#
# Stress axis : x y z
#
# Youngs Moduli (GPa) = 159.63942 98.00602 62.69261
#
# Poissons Ratio (x) = 0.07601 0.10970
# Poissons Ratio (y) = 0.12381 0.32377
# Poissons Ratio (z) = 0.27933 0.50614
#
# Static dielectric constant tensor:
#      x y z
#    x 2.034900 0.000000 0.000000 
#    y 0.000000 2.016030 0.000000 
#    z 0.000000 0.000000 2.008900 
# 
# From -- ./inp_files/6105.got.cif
#   From: 2010.05.17/outbox.cif.g08.bks.cpg/sg59_4_cif.got.tgz:6105.got - 2010.06.03 14:40:33.
