data_PCOD9452623
_publ_section_title
;
Structure prediction by ZEFSAII (Michael W. Deem and Ramdas Pophale) SiO2 
 PCOD9452623
Probable space group: P M M N
;
_chemical_formula_sum "Si O2"
_cell_formula_units_Z 40
_cell_length_a 14.270445
_cell_length_b 15.048899
_cell_length_c 9.186370
_cell_angle_alpha 90.000000
_cell_angle_beta 90.000000
_cell_angle_gamma 90.000000
_cell_volume 1972.814163
_symmetry_space_group_name_H-M "P M M N"
_symmetry_group_IT_number 59
_space_group.IT_coordinate_system_code '2'
_symmetry_cell_setting 'orthorhombic'
loop_
_space_group_symop_operation_xyz
x,y,z
1/2-x,1/2-y,z
1/2+x,-y,-z
-x,1/2+y,-z
-x,-y,-z
1/2+x,1/2+y,-z
1/2-x,y,z
x,1/2-y,z
loop_
_atom_site_type_symbol
_atom_site_label
_atom_site_fract_x
_atom_site_fract_y
_atom_site_fract_z
Si Si1 0.364118 0.351667 0.872932
Si Si2 0.017620 0.050661 0.349584
Si Si3 0.139817 0.644637 0.836055
Si Si4 0.145966 0.144785 0.552588
Si Si5 0.638716 0.009966 0.908516
O O1 0.250000 0.349675 0.867714
O O2 0.395677 0.250000 0.901505
O O3 0.393469 0.383557 0.711106
O O4 0.388771 0.423726 0.994097
O O5 0.087471 0.126501 0.409323
O O6 0.075344 0.993490 0.233269
O O7 0.927120 0.095413 0.278076
O O8 0.000000 0.000000 0.500000
O O9 0.250000 0.631172 0.799685
O O10 0.121655 0.750000 0.841870
O O11 0.124614 0.596256 0.991003
O O12 0.250000 0.105378 0.536316
O O13 0.153905 0.250000 0.570768
O O14 0.750000 0.003575 0.875404
#
# Coordination Sequence:
#
# PCOD9452623 Si02
#       5
#     8   8   8   8   8
#     4   8  15  30  55  87 121 154 186 227 287 355
#     4  12  24  37  57  89 123 153 191 244 308 364
#     4  10  23  44  65  84 115 165 218 258 292 345
#     4   9  18  34  56  84 119 153 183 225 288 356
#     4  10  21  39  63  89 115 149 198 253 306 359
#
# _framework density 20.275604999999999
#
# number of rings (size 3 to 8) (size 9 to 14) (size 15 to 20)
#    0.000    2.200    0.000    4.200    0.000    4.800 
#    0.000    6.000    0.000    2.400    0.000    0.000 
#    0.000    0.000    0.000    0.000    0.000    0.000 
#
# Total GULP energy -223349.512190 kJ/mol
# GULP energy per Si atom -5583.737805 kJ/mol
# Density = 2.022946 g / cm^3
# Si number density = 20.275605 Si / 1000 Ang^3
#
#
#
# Elastic Constant Matrix: (Units=GPa)
#
#
# Indices 1 2 3 4 5 6 
#
# 1 107.5167 57.8044 84.9869 0.0000 0.0000 0.0000
# 2 57.8044 102.7915 63.8616 0.0000 0.0000 0.0000
# 3 84.9869 63.8616 151.4611 0.0000 0.0000 0.0000
# 4 0.0000 0.0000 0.0000 24.2022 0.0000 0.0000
# 5 0.0000 0.0000 0.0000 0.0000 45.7563 0.0000
# 6 0.0000 0.0000 0.0000 0.0000 0.0000 19.0948
#
#
#
# Elastic Compliance Matrix: (Units=1/GPa)
#
#
# Indices 1 2 3 4 5 6 
#
# 1 0.018703 -0.005417 -0.008211 0.000000 0.000000 0.000000
# 2 -0.005417 0.014750 -0.003180 0.000000 0.000000 0.000000
# 3 -0.008211 -0.003180 0.012550 0.000000 0.000000 0.000000
# 4 0.000000 0.000000 0.000000 0.041318 0.000000 0.000000
# 5 0.000000 0.000000 0.000000 0.000000 0.021855 0.000000
# 6 0.000000 0.000000 0.000000 0.000000 0.000000 0.052370
#
#
# Mechanical properties :
#
#
# Convention : Reuss Voigt Hill
#
# Bulk Modulus (GPa) = 80.71614 86.11945 83.41779
# Shear Modulus (GPa) = 25.08890 28.15177 26.62033
#
# Velocity S-wave (km/s) = 3.52148 3.73024 3.62736
# Velocity P-wave (km/s) = 7.51201 7.81790 7.66648
#
# Compressibility (1/GPa) = 0.01238910
#
# Stress axis : x y z
#
# Youngs Moduli (GPa) = 53.46658 67.79691 79.67928
#
# Poissons Ratio (x) = 0.36722 0.65424
# Poissons Ratio (y) = 0.28960 0.25337
# Poissons Ratio (z) = 0.43901 0.21558
#
# Static dielectric constant tensor:
#      x y z
#    x 1.788860 0.000000 0.000000 
#    y 0.000000 1.756550 0.000000 
#    z 0.000000 0.000000 1.711130 
# 
# From -- ./inp_files/8616.got.cif
#   From: 2010.05.17/outbox.cif.g08.bks.cpg/sg59_5_cif.got.tgz:8616.got - 2010.06.03 14:40:33.
