data_PCOD9452425
_publ_section_title
;
Structure prediction by ZEFSAII (Michael W. Deem and Ramdas Pophale) SiO2 
 PCOD9452425
Probable space group: P M M N
;
_chemical_formula_sum "Si O2"
_cell_formula_units_Z 48
_cell_length_a 9.022993
_cell_length_b 17.965039
_cell_length_c 15.881828
_cell_angle_alpha 90.000000
_cell_angle_beta 90.000000
_cell_angle_gamma 90.000000
_cell_volume 2574.419244
_symmetry_space_group_name_H-M "P M M N"
_symmetry_group_IT_number 59
_space_group.IT_coordinate_system_code '2'
_symmetry_cell_setting 'orthorhombic'
loop_
_space_group_symop_operation_xyz
x,y,z
1/2-x,1/2-y,z
1/2+x,-y,-z
-x,1/2+y,-z
-x,-y,-z
1/2+x,1/2+y,-z
1/2-x,y,z
x,1/2-y,z
loop_
_atom_site_type_symbol
_atom_site_label
_atom_site_fract_x
_atom_site_fract_y
_atom_site_fract_z
Si Si1 0.573643 0.901238 0.324084
Si Si2 0.927042 0.581341 0.509928
Si Si3 0.573279 0.078803 0.320554
Si Si4 0.577075 0.162071 0.837569
Si Si5 0.573615 0.919353 0.008090
Si Si6 0.573720 0.338190 0.148125
O O1 0.750000 0.890840 0.310188
O O2 0.539887 0.879260 0.420874
O O3 0.481141 0.857766 0.255045
O O4 0.542921 0.990060 0.314522
O O5 0.750000 0.573894 0.515477
O O6 0.000000 0.500000 0.500000
O O7 0.991622 0.611162 0.597331
O O8 0.750000 0.086604 0.332836
O O9 0.532370 0.119483 0.234165
O O10 0.750000 0.141804 0.846165
O O11 0.562625 0.250000 0.852863
O O12 0.481748 0.117748 0.905675
O O13 0.750000 0.925510 0.007430
O O14 0.516256 0.870015 0.930277
O O15 0.500000 0.000000 0.000000
O O16 0.750000 0.351316 0.133561
O O17 0.551759 0.250000 0.157101
#
# Coordination Sequence:
#
# PCOD9452425 Si02
#       6
#     8   8   8   8   8   8
#     4   9  18  33  54  80 110 147 191 234 277 327
#     4   9  17  30  51  79 109 142 182 231 281 326
#     4   9  18  33  54  81 112 146 185 229 276 326
#     4  11  24  40  58  83 115 149 185 227 276 331
#     4  12  25  41  63  87 111 143 184 230 278 330
#     4  10  21  38  59  84 117 153 186 225 275 330
#
# _framework density 18.644981000000001
#
# number of rings (size 3 to 8) (size 9 to 14) (size 15 to 20)
#    0.000    2.000    0.000    5.000    0.000    9.000 
#    0.000    0.833    0.000    3.000    0.000    0.000 
#    0.000    0.000    0.000    0.000    0.000    0.000 
#
# Total GULP energy -268032.267587 kJ/mol
# GULP energy per Si atom -5584.005575 kJ/mol
# Density = 1.860254 g / cm^3
# Si number density = 18.644981 Si / 1000 Ang^3
#
#
#
# Elastic Constant Matrix: (Units=GPa)
#
#
# Indices 1 2 3 4 5 6 
#
# 1 66.1575 18.8465 30.9144 0.0000 0.0000 0.0000
# 2 18.8465 20.2382 -6.0591 0.0000 0.0000 0.0000
# 3 30.9144 -6.0591 69.1325 0.0000 0.0000 0.0000
# 4 0.0000 0.0000 0.0000 -16.8473 0.0000 0.0000
# 5 0.0000 0.0000 0.0000 0.0000 37.9665 0.0000
# 6 0.0000 0.0000 0.0000 0.0000 0.0000 22.7569
#
#
#
# Elastic Compliance Matrix: (Units=1/GPa)
#
#
# Indices 1 2 3 4 5 6 
#
# 1 0.034776 -0.038039 -0.018885 0.000000 0.000000 0.000000
# 2 -0.038039 0.092350 0.025104 0.000000 0.000000 0.000000
# 3 -0.018885 0.025104 0.025110 0.000000 0.000000 0.000000
# 4 0.000000 0.000000 0.000000 -0.059357 0.000000 0.000000
# 5 0.000000 0.000000 0.000000 0.000000 0.026339 0.000000
# 6 0.000000 0.000000 0.000000 0.000000 0.000000 0.043943
#
#
# Mechanical properties :
#
#
# Convention : Reuss Voigt Hill
#
# Bulk Modulus (GPa) = 11.28706 26.99245 19.13975
# Shear Modulus (GPa) = 19.50579 16.23031 17.86805
#
# Velocity S-wave (km/s) = 3.23796 2.95361 3.09905
# Velocity P-wave (km/s) = 4.47728 5.11275 4.80553
#
# Compressibility (1/GPa) = 0.08859705
#
# Stress axis : x y z
#
# Youngs Moduli (GPa) = 28.75514 10.82833 39.82457
#
# Poissons Ratio (x) = 0.41190 0.75209
# Poissons Ratio (y) = 1.09381 -0.99976
# Poissons Ratio (z) = 0.54304 -0.27183
#
# Static dielectric constant tensor:
#      x y z
#    x 1.621910 0.000000 0.000000 
#    y 0.000000 1.620910 0.000000 
#    z 0.000000 0.000000 1.650350 
# 
# From -- ./inp_files/20427.got.cif
#   From: 2010.05.17/outbox.cif.g08.bks.cpg/sg59_11_cif.got.tgz:20427.got - 2010.06.03 14:40:33.
