data_PCOD9452866
_publ_section_title
;
Structure prediction by ZEFSAII (Michael W. Deem and Ramdas Pophale) SiO2 
 PCOD9452866
Probable space group: P M M N
;
_chemical_formula_sum "Si O2"
_cell_formula_units_Z 48
_cell_length_a 16.222939
_cell_length_b 8.468493
_cell_length_c 17.238395
_cell_angle_alpha 90.000000
_cell_angle_beta 90.000000
_cell_angle_gamma 90.000000
_cell_volume 2368.276993
_symmetry_space_group_name_H-M "P M M N"
_symmetry_group_IT_number 59
_space_group.IT_coordinate_system_code '2'
_symmetry_cell_setting 'orthorhombic'
loop_
_space_group_symop_operation_xyz
x,y,z
1/2-x,1/2-y,z
1/2+x,-y,-z
-x,1/2+y,-z
-x,-y,-z
1/2+x,1/2+y,-z
1/2-x,y,z
x,1/2-y,z
loop_
_atom_site_type_symbol
_atom_site_label
_atom_site_fract_x
_atom_site_fract_y
_atom_site_fract_z
Si Si1 0.002041 0.939100 0.412513
Si Si2 0.935588 0.434224 0.844928
Si Si3 0.657368 0.058244 0.689978
Si Si4 0.114147 0.934355 0.846243
Si Si5 0.846254 0.931559 0.987467
Si Si6 0.159672 0.559038 0.675147
O O1 0.004935 0.750000 0.412553
O O2 0.083971 0.996555 0.366707
O O3 0.918887 0.991986 0.369216
O O4 0.000000 0.000000 0.500000
O O5 0.957767 0.250000 0.833952
O O6 0.870396 0.477838 0.778039
O O7 0.016819 0.538228 0.836319
O O8 0.898379 0.460522 0.929837
O O9 0.750000 0.000245 0.673371
O O10 0.659706 0.250000 0.684313
O O11 0.133251 0.750000 0.857499
O O12 0.154097 0.987697 0.765601
O O13 0.141037 0.025691 0.922930
O O14 0.750000 0.948969 0.968827
O O15 0.871073 0.750000 0.974614
O O16 0.250000 0.512399 0.644050
O O17 0.154544 0.750000 0.672434
#
# Coordination Sequence:
#
# PCOD9452866 Si02
#       6
#     8   8   8   8   8   8
#     4  11  23  41  65  94 127 161 203 253 307 371
#     4  11  21  37  61  87 118 157 206 255 306 365
#     4   9  19  37  62  90 120 158 202 248 301 363
#     4  11  22  38  61  87 120 160 207 256 306 364
#     4  11  24  39  55  82 120 160 206 257 308 361
#     4  10  22  41  65  92 124 164 208 255 310 369
#
# _framework density 20.267900999999998
#
# number of rings (size 3 to 8) (size 9 to 14) (size 15 to 20)
#    0.000    1.500    1.667    3.500    0.000    4.333 
#    0.000    1.667    0.000    4.500    0.000    0.000 
#    0.000    0.000    0.000    0.000    0.000    0.000 
#
# Total GULP energy -268265.569520 kJ/mol
# GULP energy per Si atom -5588.866032 kJ/mol
# Density = 2.022177 g / cm^3
# Si number density = 20.267901 Si / 1000 Ang^3
#
#
#
# Elastic Constant Matrix: (Units=GPa)
#
#
# Indices 1 2 3 4 5 6 
#
# 1 125.5888 11.1069 43.6176 0.0000 0.0000 0.0000
# 2 11.1069 17.0243 4.6527 0.0000 0.0000 0.0000
# 3 43.6176 4.6527 99.0248 0.0000 0.0000 0.0000
# 4 0.0000 0.0000 0.0000 19.9374 0.0000 0.0000
# 5 0.0000 0.0000 0.0000 0.0000 3.9905 0.0000
# 6 0.0000 0.0000 0.0000 0.0000 0.0000 17.2877
#
#
#
# Elastic Compliance Matrix: (Units=1/GPa)
#
#
# Indices 1 2 3 4 5 6 
#
# 1 0.009853 -0.005310 -0.004090 0.000000 0.000000 0.000000
# 2 -0.005310 0.062366 -0.000591 0.000000 0.000000 0.000000
# 3 -0.004090 -0.000591 0.011928 0.000000 0.000000 0.000000
# 4 0.000000 0.000000 0.000000 0.050157 0.000000 0.000000
# 5 0.000000 0.000000 0.000000 0.000000 0.250594 0.000000
# 6 0.000000 0.000000 0.000000 0.000000 0.000000 0.057845
#
#
# Mechanical properties :
#
#
# Convention : Reuss Voigt Hill
#
# Bulk Modulus (GPa) = 15.58534 40.04357 27.81446
# Shear Modulus (GPa) = 10.32816 20.39384 15.36100
#
# Velocity S-wave (km/s) = 2.25984 3.17553 2.75598
# Velocity P-wave (km/s) = 3.80993 5.76588 4.88676
#
# Compressibility (1/GPa) = 0.06416284
#
# Stress axis : x y z
#
# Youngs Moduli (GPa) = 101.49491 16.03444 83.83675
#
# Poissons Ratio (x) = 0.08515 0.34292
# Poissons Ratio (y) = 0.53896 0.04957
# Poissons Ratio (z) = 0.41515 0.00948
#
# Static dielectric constant tensor:
#      x y z
#    x 1.734240 0.000000 0.000000 
#    y 0.000000 1.696430 0.000000 
#    z 0.000000 0.000000 1.693400 
# 
# From -- ./inp_files/23633.got.cif
#   From: 2010.05.17/outbox.cif.g08.bks.cpg/sg59_12_cif.got.tgz:23633.got - 2010.06.03 14:40:33.
