data_PCOD9452592
_publ_section_title
;
Structure prediction by ZEFSAII (Michael W. Deem and Ramdas Pophale) SiO2 
 PCOD9452592
Probable space group: P M M N
;
_chemical_formula_sum "Si O2"
_cell_formula_units_Z 40
_cell_length_a 13.200605
_cell_length_b 12.521202
_cell_length_c 10.766781
_cell_angle_alpha 90.000000
_cell_angle_beta 90.000000
_cell_angle_gamma 90.000000
_cell_volume 1779.613687
_symmetry_space_group_name_H-M "P M M N"
_symmetry_group_IT_number 59
_space_group.IT_coordinate_system_code '2'
_symmetry_cell_setting 'orthorhombic'
loop_
_space_group_symop_operation_xyz
x,y,z
1/2-x,1/2-y,z
1/2+x,-y,-z
-x,1/2+y,-z
-x,-y,-z
1/2+x,1/2+y,-z
1/2-x,y,z
x,1/2-y,z
loop_
_atom_site_type_symbol
_atom_site_label
_atom_site_fract_x
_atom_site_fract_y
_atom_site_fract_z
Si Si1 0.639184 0.072756 0.264792
Si Si2 0.931603 0.920715 0.629836
Si Si3 0.577185 0.364867 0.991509
Si Si4 0.862818 0.912928 0.898478
Si Si5 0.548414 0.872976 0.358968
O O1 0.750000 0.095167 0.313424
O O2 0.547164 0.118317 0.345297
O O3 0.627104 0.115408 0.126066
O O4 0.616155 0.944991 0.266286
O O5 0.899671 0.881256 0.495393
O O6 0.873017 0.885522 0.752692
O O7 0.949081 0.049992 0.628055
O O8 0.604880 0.250000 0.941663
O O9 0.456833 0.368677 0.021926
O O10 0.614460 0.460648 0.907118
O O11 0.750000 0.888019 0.942898
O O12 0.533162 0.750000 0.325509
#
# Coordination Sequence:
#
# PCOD9452592 Si02
#       5
#     8   8   8   8   8
#     4   9  18  34  55  84 112 144 192 235 278 347
#     4   8  19  36  51  84 112 151 185 241 287 344
#     4  10  22  40  60  84 119 157 189 236 297 347
#     4  10  21  39  61  87 117 150 196 245 286 346
#     4   9  18  36  56  78 115 154 187 235 295 339
#
# _framework density 22.476787999999999
#
# number of rings (size 3 to 8) (size 9 to 14) (size 15 to 20)
#    1.200    1.600    0.000    0.600    0.000    7.200 
#    0.000    0.000    0.000    3.600    0.000    0.000 
#    0.000    0.000    0.000    0.000    0.000    0.000 
#
# Total GULP energy -222887.061834 kJ/mol
# GULP energy per Si atom -5572.176546 kJ/mol
# Density = 2.242563 g / cm^3
# Si number density = 22.476788 Si / 1000 Ang^3
#
#
#
# Elastic Constant Matrix: (Units=GPa)
#
#
# Indices 1 2 3 4 5 6 
#
# 1 106.2841 2.7140 -5.6592 0.0000 0.0000 0.0000
# 2 2.7140 123.6029 -10.0537 0.0000 0.0000 0.0000
# 3 -5.6592 -10.0537 57.6099 0.0000 0.0000 0.0000
# 4 0.0000 0.0000 0.0000 -2.1361 0.0000 0.0000
# 5 0.0000 0.0000 0.0000 0.0000 2.2457 0.0000
# 6 0.0000 0.0000 0.0000 0.0000 0.0000 -12.0527
#
#
#
# Elastic Compliance Matrix: (Units=1/GPa)
#
#
# Indices 1 2 3 4 5 6 
#
# 1 0.009460 -0.000134 0.000906 0.000000 0.000000 0.000000
# 2 -0.000134 0.008209 0.001419 0.000000 0.000000 0.000000
# 3 0.000906 0.001419 0.017695 0.000000 0.000000 0.000000
# 4 0.000000 0.000000 0.000000 -0.468135 0.000000 0.000000
# 5 0.000000 0.000000 0.000000 0.000000 0.445301 0.000000
# 6 0.000000 0.000000 0.000000 0.000000 0.000000 -0.082969
#
#
# Mechanical properties :
#
#
# Convention : Reuss Voigt Hill
#
# Bulk Modulus (GPa) = 25.15938 29.05545 27.10742
# Shear Modulus (GPa) = -81.20524 17.64441 -31.78041
#
# Velocity S-wave (km/s) = -6.01722 2.80484 -3.76429
# Velocity P-wave (km/s) = 6.08754 4.84194 2.60899
#
# Compressibility (1/GPa) = 0.03974660
#
# Stress axis : x y z
#
# Youngs Moduli (GPa) = 105.70374 121.82018 56.51371
#
# Poissons Ratio (x) = 0.01633 -0.05120
# Poissons Ratio (y) = 0.01417 -0.08021
# Poissons Ratio (z) = -0.09576 -0.17291
#
# Static dielectric constant tensor:
#      x y z
#    x 1.864330 0.000000 0.000000 
#    y 0.000000 1.863330 0.000000 
#    z 0.000000 0.000000 1.856330 
# 
# From -- ./inp_files/22185.got.cif
#   From: 2010.05.17/outbox.cif.g08.bks.cpg/sg59_12_cif.got.tgz:22185.got - 2010.06.03 14:40:33.
