data_PCOD9452972
_publ_section_title
;
Structure prediction by ZEFSAII (Michael W. Deem and Ramdas Pophale) SiO2 
 PCOD9452972
Probable space group: P M M N
;
_chemical_formula_sum "Si O2"
_cell_formula_units_Z 64
_cell_length_a 20.621165
_cell_length_b 8.061928
_cell_length_c 18.227131
_cell_angle_alpha 90.000000
_cell_angle_beta 90.000000
_cell_angle_gamma 90.000000
_cell_volume 3030.193954
_symmetry_space_group_name_H-M "P M M N"
_symmetry_group_IT_number 59
_space_group.IT_coordinate_system_code '2'
_symmetry_cell_setting 'orthorhombic'
loop_
_space_group_symop_operation_xyz
x,y,z
1/2-x,1/2-y,z
1/2+x,-y,-z
-x,1/2+y,-z
-x,-y,-z
1/2+x,1/2+y,-z
1/2-x,y,z
x,1/2-y,z
loop_
_atom_site_type_symbol
_atom_site_label
_atom_site_fract_x
_atom_site_fract_y
_atom_site_fract_z
Si Si1 0.535261 0.049885 0.714945
Si Si2 0.324326 0.953386 0.622748
Si Si3 0.852909 0.447329 0.912979
Si Si4 0.458518 0.553139 0.569724
Si Si5 0.996878 0.453028 0.878166
Si Si6 0.827265 0.062870 0.215033
Si Si7 0.871870 0.558591 0.062247
Si Si8 0.319949 0.952954 0.248326
O O1 0.536309 0.250000 0.715578
O O2 0.502315 0.997790 0.792214
O O3 0.611174 0.994305 0.717100
O O4 0.496244 0.994389 0.643994
O O5 0.250000 0.007283 0.607062
O O6 0.322264 0.750000 0.624086
O O7 0.383718 0.009065 0.571673
O O8 0.345408 0.005691 0.705224
O O9 0.851687 0.250000 0.906165
O O10 0.821525 0.507495 0.837409
O O11 0.927514 0.505173 0.908778
O O12 0.831065 0.485887 0.995140
O O13 0.500000 0.500000 0.500000
O O14 0.453836 0.750000 0.567937
O O15 0.999316 0.250000 0.879272
O O16 0.056651 0.518395 0.925359
O O17 0.750000 0.076191 0.219754
O O18 0.853833 0.250000 0.206161
O O19 0.842713 0.960340 0.143075
O O20 0.878774 0.750000 0.044213
O O21 0.250000 0.005084 0.280115
O O22 0.320777 0.750000 0.250036
#
# Coordination Sequence:
#
# PCOD9452972 Si02
#       8
#     8   8   8   8   8   8   8   8
#     4   9  17  33  56  78 102 132 169 215 262 309
#     4   8  16  34  59  82 102 131 176 220 248 281
#     4   9  17  30  46  64  91 129 173 217 258 301
#     4  11  22  36  57  85 115 141 166 202 249 301
#     4   8  16  30  47  67  92 126 166 208 256 307
#     4   9  18  33  51  69  90 120 161 205 246 291
#     4  11  20  28  41  65  98 130 162 206 260 314
#     4   8  15  30  53  76  95 126 178 229 266 305
#
# _framework density 21.120760000000001
#
# number of rings (size 3 to 8) (size 9 to 14) (size 15 to 20)
#    0.000    2.875    0.000    4.125    0.000    0.750 
#    0.000    6.250    0.000    7.875    0.000    0.000 
#    0.000    0.000    0.000    0.000    0.000    0.000 
#
# Total GULP energy -356632.568333 kJ/mol
# GULP energy per Si atom -5572.383880 kJ/mol
# Density = 2.107269 g / cm^3
# Si number density = 21.120760 Si / 1000 Ang^3
#
#
#
# Elastic Constant Matrix: (Units=GPa)
#
#
# Indices 1 2 3 4 5 6 
#
# 1 119.6355 7.1947 52.6965 0.0000 0.0000 0.0000
# 2 7.1947 13.9352 4.3727 0.0000 0.0000 0.0000
# 3 52.6965 4.3727 94.8410 0.0000 0.0000 0.0000
# 4 0.0000 0.0000 0.0000 16.9556 0.0000 0.0000
# 5 0.0000 0.0000 0.0000 0.0000 -2.1700 0.0000
# 6 0.0000 0.0000 0.0000 0.0000 0.0000 13.5299
#
#
#
# Elastic Compliance Matrix: (Units=1/GPa)
#
#
# Indices 1 2 3 4 5 6 
#
# 1 0.011274 -0.003912 -0.006084 0.000000 0.000000 0.000000
# 2 -0.003912 0.074171 -0.001246 0.000000 0.000000 0.000000
# 3 -0.006084 -0.001246 0.013982 0.000000 0.000000 0.000000
# 4 0.000000 0.000000 0.000000 0.058978 0.000000 0.000000
# 5 0.000000 0.000000 0.000000 0.000000 -0.460822 0.000000
# 6 0.000000 0.000000 0.000000 0.000000 0.000000 0.073910
#
#
# Mechanical properties :
#
#
# Convention : Reuss Voigt Hill
#
# Bulk Modulus (GPa) = 12.99656 39.65995 26.32825
# Shear Modulus (GPa) = -27.71985 16.60628 -5.55678
#
# Velocity S-wave (km/s) = -3.62670 2.80706 -1.62378
# Velocity P-wave (km/s) = 3.37201 5.41522 2.99618
#
# Compressibility (1/GPa) = 0.07694347
#
# Stress axis : x y z
#
# Youngs Moduli (GPa) = 88.70248 13.48232 71.52223
#
# Poissons Ratio (x) = 0.05274 0.43511
# Poissons Ratio (y) = 0.34697 0.08914
# Poissons Ratio (z) = 0.53963 0.01680
#
# Static dielectric constant tensor:
#      x y z
#    x 1.822930 0.000000 0.000000 
#    y 0.000000 1.732540 0.000000 
#    z 0.000000 0.000000 1.837190 
# 
# From -- ./inp_files/28285.got.cif
#   From: 2010.05.17/outbox.cif.g08.bks.cpg/sg59_15_cif.got.tgz:28285.got - 2010.06.03 14:40:33.
