data_PCOD9452927
_publ_section_title
;
Structure prediction by ZEFSAII (Michael W. Deem and Ramdas Pophale) SiO2 
 PCOD9452927
Probable space group: P M M N
;
_chemical_formula_sum "Si O2"
_cell_formula_units_Z 48
_cell_length_a 27.426247
_cell_length_b 13.968514
_cell_length_c 5.245528
_cell_angle_alpha 90.000000
_cell_angle_beta 90.000000
_cell_angle_gamma 90.000000
_cell_volume 2009.582314
_symmetry_space_group_name_H-M "P M M N"
_symmetry_group_IT_number 59
_space_group.IT_coordinate_system_code '2'
_symmetry_cell_setting 'orthorhombic'
loop_
_space_group_symop_operation_xyz
x,y,z
1/2-x,1/2-y,z
1/2+x,-y,-z
-x,1/2+y,-z
-x,-y,-z
1/2+x,1/2+y,-z
1/2-x,y,z
x,1/2-y,z
loop_
_atom_site_type_symbol
_atom_site_label
_atom_site_fract_x
_atom_site_fract_y
_atom_site_fract_z
Si Si1 0.695253 0.641284 0.433325
Si Si2 0.058408 0.354919 0.140536
Si Si3 0.999485 0.395905 0.627745
Si Si4 0.195856 0.558053 0.270351
Si Si5 0.130417 0.019343 0.903679
Si Si6 0.396280 0.856624 0.552387
O O1 0.750000 0.640874 0.312253
O O2 0.688090 0.750000 0.531973
O O3 0.696389 0.551834 0.626865
O O4 0.651578 0.609516 0.249162
O O5 0.078780 0.250000 0.079630
O O6 0.022312 0.383370 0.907342
O O7 0.099320 0.436988 0.134027
O O8 0.032428 0.347017 0.411124
O O9 0.943996 0.359803 0.624722
O O10 0.000000 0.500000 0.500000
O O11 0.250000 0.597401 0.293873
O O12 0.177183 0.542949 0.984104
O O13 0.153901 0.618772 0.407089
O O14 0.098040 0.944694 0.747832
O O15 0.393796 0.750000 0.667221
#
# Coordination Sequence:
#
# PCOD9452927 Si02
#       6
#     8   8   8   8   8   8
#     4   9  19  37  61  90 127 169 215 269 334 410
#     4  12  26  43  70 106 146 186 231 285 348 422
#     4  12  25  48  70 102 142 190 234 287 347 411
#     4  10  23  43  65  94 130 171 222 284 346 404
#     4  11  23  40  64  96 131 176 219 279 343 413
#     4  11  25  44  68  94 128 174 227 282 341 411
#
# _framework density 23.885559000000001
#
# number of rings (size 3 to 8) (size 9 to 14) (size 15 to 20)
#    0.000    1.167    1.667    4.000    4.667    3.000 
#    0.000    1.667    0.000    0.000    0.000    0.000 
#    0.000    0.000    0.000    0.000    0.000    0.000 
#
# Total GULP energy -268112.172755 kJ/mol
# GULP energy per Si atom -5585.670266 kJ/mol
# Density = 2.383119 g / cm^3
# Si number density = 23.885559 Si / 1000 Ang^3
#
#
#
# Elastic Constant Matrix: (Units=GPa)
#
#
# Indices 1 2 3 4 5 6 
#
# 1 147.2469 17.9719 20.8370 0.0000 0.0000 0.0000
# 2 17.9719 105.4851 -26.2824 0.0000 0.0000 0.0000
# 3 20.8370 -26.2824 34.6726 0.0000 0.0000 0.0000
# 4 0.0000 0.0000 0.0000 26.4577 0.0000 0.0000
# 5 0.0000 0.0000 0.0000 0.0000 37.9926 0.0000
# 6 0.0000 0.0000 0.0000 0.0000 0.0000 42.2548
#
#
#
# Elastic Compliance Matrix: (Units=1/GPa)
#
#
# Indices 1 2 3 4 5 6 
#
# 1 0.008237 -0.003251 -0.007414 0.000000 0.000000 0.000000
# 2 -0.003251 0.012970 0.011785 0.000000 0.000000 0.000000
# 3 -0.007414 0.011785 0.042231 0.000000 0.000000 0.000000
# 4 0.000000 0.000000 0.000000 0.037796 0.000000 0.000000
# 5 0.000000 0.000000 0.000000 0.000000 0.026321 0.000000
# 6 0.000000 0.000000 0.000000 0.000000 0.000000 0.023666
#
#
# Mechanical properties :
#
#
# Convention : Reuss Voigt Hill
#
# Bulk Modulus (GPa) = 15.22578 34.71749 24.97164
# Shear Modulus (GPa) = 29.26135 39.66622 34.46379
#
# Velocity S-wave (km/s) = 3.50389 4.07956 3.80264
# Velocity P-wave (km/s) = 4.77053 6.06275 5.45504
#
# Compressibility (1/GPa) = 0.06567806
#
# Stress axis : x y z
#
# Youngs Moduli (GPa) = 121.39887 77.09956 23.67957
#
# Poissons Ratio (x) = 0.25063 0.17557
# Poissons Ratio (y) = 0.39464 -0.27907
# Poissons Ratio (z) = 0.90011 -0.90864
#
# Static dielectric constant tensor:
#      x y z
#    x 1.924920 0.000000 0.000000 
#    y 0.000000 1.850350 0.000000 
#    z 0.000000 0.000000 1.950350 
# 
# From -- ./inp_files/2150.got.cif
#   From: 2010.05.17/outbox.cif.g08.bks.cpg/sg59_2_cif.got.tgz:2150.got - 2010.06.03 14:40:33.
