data_PCOD9452360
_publ_section_title
;
Structure prediction by ZEFSAII (Michael W. Deem and Ramdas Pophale) SiO2 
 PCOD9452360
Probable space group: P M M N
;
_chemical_formula_sum "Si O2"
_cell_formula_units_Z 56
_cell_length_a 30.976394
_cell_length_b 13.771857
_cell_length_c 5.613864
_cell_angle_alpha 90.000000
_cell_angle_beta 90.000000
_cell_angle_gamma 90.000000
_cell_volume 2394.888240
_symmetry_space_group_name_H-M "P M M N"
_symmetry_group_IT_number 59
_space_group.IT_coordinate_system_code '2'
_symmetry_cell_setting 'orthorhombic'
loop_
_space_group_symop_operation_xyz
x,y,z
1/2-x,1/2-y,z
1/2+x,-y,-z
-x,1/2+y,-z
-x,-y,-z
1/2+x,1/2+y,-z
1/2-x,y,z
x,1/2-y,z
loop_
_atom_site_type_symbol
_atom_site_label
_atom_site_fract_x
_atom_site_fract_y
_atom_site_fract_z
Si Si1 0.501036 0.367558 0.118384
Si Si2 0.414946 0.357581 0.373171
Si Si3 0.040647 0.865703 0.380165
Si Si4 0.324937 0.142929 0.093095
Si Si5 0.868028 0.979909 0.281384
Si Si6 0.874684 0.358655 0.896291
Si Si7 0.201286 0.950805 0.342917
O O1 0.507450 0.250000 0.106082
O O2 0.450813 0.383249 0.179547
O O3 0.525360 0.400780 0.360845
O O4 0.516546 0.404022 0.859434
O O5 0.425919 0.250000 0.467972
O O6 0.368176 0.353853 0.252461
O O7 0.408159 0.435536 0.577303
O O8 0.031938 0.750000 0.387383
O O9 0.091444 0.874531 0.318556
O O10 0.305012 0.250000 0.093237
O O11 0.298446 0.052518 0.196179
O O12 0.343195 0.111246 0.837988
O O13 0.830599 0.029855 0.437282
O O14 0.882492 0.057089 0.085434
O O15 0.882155 0.250000 0.990004
O O16 0.825616 0.373445 0.811499
O O17 0.250000 0.923357 0.403295
#
# Coordination Sequence:
#
# PCOD9452360 Si02
#       7
#     8   8   8   8   8   8   8
#     4   9  18  32  56  90 128 170 219 266 311 367
#     4   9  18  33  58  91 130 174 210 249 297 360
#     4   9  19  35  57  88 123 167 218 269 320 374
#     4   9  19  37  62  90 126 166 201 239 297 370
#     4  10  21  37  61  90 124 158 206 253 315 371
#     4  10  23  42  65  85 115 159 207 263 327 385
#     4  10  23  42  62  88 121 152 195 256 318 385
#
# _framework density 23.383137999999999
#
# number of rings (size 3 to 8) (size 9 to 14) (size 15 to 20)
#    0.000    2.571    0.000    0.429    4.000    4.000 
#    0.000    1.429    0.000    0.000    0.000    0.000 
#    0.000    0.000    0.000    0.000    0.000    0.000 
#
# Total GULP energy -312971.569339 kJ/mol
# GULP energy per Si atom -5588.778024 kJ/mol
# Density = 2.332992 g / cm^3
# Si number density = 23.383138 Si / 1000 Ang^3
#
#
#
# Elastic Constant Matrix: (Units=GPa)
#
#
# Indices 1 2 3 4 5 6 
#
# 1 106.8123 25.0380 16.5962 0.0000 0.0000 0.0000
# 2 25.0380 93.3899 28.6690 0.0000 0.0000 0.0000
# 3 16.5962 28.6690 78.7976 0.0000 0.0000 0.0000
# 4 0.0000 0.0000 0.0000 24.7767 0.0000 0.0000
# 5 0.0000 0.0000 0.0000 0.0000 13.5017 0.0000
# 6 0.0000 0.0000 0.0000 0.0000 0.0000 16.1109
#
#
#
# Elastic Compliance Matrix: (Units=1/GPa)
#
#
# Indices 1 2 3 4 5 6 
#
# 1 0.010105 -0.002314 -0.001286 0.000000 0.000000 0.000000
# 2 -0.002314 0.012584 -0.004091 0.000000 0.000000 0.000000
# 3 -0.001286 -0.004091 0.014450 0.000000 0.000000 0.000000
# 4 0.000000 0.000000 0.000000 0.040361 0.000000 0.000000
# 5 0.000000 0.000000 0.000000 0.000000 0.074065 0.000000
# 6 0.000000 0.000000 0.000000 0.000000 0.000000 0.062070
#
#
# Mechanical properties :
#
#
# Convention : Reuss Voigt Hill
#
# Bulk Modulus (GPa) = 45.96483 46.62291 46.29387
# Shear Modulus (GPa) = 21.16230 24.79094 22.97662
#
# Velocity S-wave (km/s) = 3.01163 3.25961 3.13807
# Velocity P-wave (km/s) = 5.63854 5.84369 5.74203
#
# Compressibility (1/GPa) = 0.02175577
#
# Stress axis : x y z
#
# Youngs Moduli (GPa) = 98.96538 79.46515 69.20361
#
# Poissons Ratio (x) = 0.18390 0.08901
# Poissons Ratio (y) = 0.22903 0.28312
# Poissons Ratio (z) = 0.12729 0.32510
#
# Static dielectric constant tensor:
#      x y z
#    x 1.852660 0.000000 0.000000 
#    y 0.000000 1.925450 0.000000 
#    z 0.000000 0.000000 1.913740 
# 
# From -- ./inp_files/2292.got.cif
#   From: 2010.05.17/outbox.cif.g08.bks.cpg/sg59_2_cif.got.tgz:2292.got - 2010.06.03 14:40:33.
