data_PCOD9452018
_publ_section_title
;
Structure prediction by ZEFSAII (Michael W. Deem and Ramdas Pophale) SiO2 
 PCOD9452018
Probable space group: P M M N
;
_chemical_formula_sum "Si O2"
_cell_formula_units_Z 48
_cell_length_a 15.810918
_cell_length_b 9.003948
_cell_length_c 17.839134
_cell_angle_alpha 90.000000
_cell_angle_beta 90.000000
_cell_angle_gamma 90.000000
_cell_volume 2539.591309
_symmetry_space_group_name_H-M "P M M N"
_symmetry_group_IT_number 59
_space_group.IT_coordinate_system_code '2'
_symmetry_cell_setting 'orthorhombic'
loop_
_space_group_symop_operation_xyz
x,y,z
1/2-x,1/2-y,z
1/2+x,-y,-z
-x,1/2+y,-z
-x,-y,-z
1/2+x,1/2+y,-z
1/2-x,y,z
x,1/2-y,z
loop_
_atom_site_type_symbol
_atom_site_label
_atom_site_fract_x
_atom_site_fract_y
_atom_site_fract_z
Si Si1 0.150879 0.571560 0.806813
Si Si2 0.350852 0.082977 0.652720
Si Si3 0.999801 0.070566 0.081738
Si Si4 0.591141 0.073834 0.497263
Si Si5 0.350549 0.082510 0.354857
Si Si6 0.152208 0.068999 0.190005
O O1 0.250000 0.532297 0.821778
O O2 0.147781 0.750000 0.797807
O O3 0.121593 0.497143 0.729010
O O4 0.085082 0.530163 0.871965
O O5 0.250000 0.094393 0.659315
O O6 0.386380 0.250000 0.645705
O O7 0.367812 0.990096 0.578133
O O8 0.001420 0.250000 0.076030
O O9 0.083472 0.024069 0.128465
O O10 0.000000 0.000000 0.000000
O O11 0.588358 0.250000 0.494245
O O12 0.500000 0.000000 0.500000
O O13 0.633792 0.019034 0.573918
O O14 0.250000 0.096409 0.346165
O O15 0.385269 0.250000 0.368186
O O16 0.378976 0.024639 0.273503
O O17 0.250000 0.020645 0.176914
O O18 0.153790 0.250000 0.191661
#
# Coordination Sequence:
#
# PCOD9452018 Si02
#       6
#     8   8   8   8   8   8
#     4   9  19  36  57  82 113 150 190 232 282 339
#     4  10  21  38  59  83 112 147 188 234 284 336
#     4  10  21  36  56  83 112 146 184 228 283 341
#     4  12  25  37  52  79 114 151 191 234 280 330
#     4   9  18  35  58  81 107 142 185 234 285 334
#     4   8  16  33  57  82 108 142 185 229 276 334
#
# _framework density 18.900679
#
# number of rings (size 3 to 8) (size 9 to 14) (size 15 to 20)
#    0.000    2.333    0.000    3.500    2.333    4.667 
#    0.000    0.833    0.000    1.000    0.000    0.000 
#    0.000    0.000    0.000    0.000    0.000    0.000 
#
# Total GULP energy -267713.176614 kJ/mol
# GULP energy per Si atom -5577.357846 kJ/mol
# Density = 1.885766 g / cm^3
# Si number density = 18.900679 Si / 1000 Ang^3
#
#
#
# Elastic Constant Matrix: (Units=GPa)
#
#
# Indices 1 2 3 4 5 6 
#
# 1 74.6028 30.9467 73.9311 0.0000 0.0000 0.0000
# 2 30.9467 71.1138 68.3936 0.0000 0.0000 0.0000
# 3 73.9311 68.3936 204.0204 0.0000 0.0000 0.0000
# 4 0.0000 0.0000 0.0000 32.2747 0.0000 0.0000
# 5 0.0000 0.0000 0.0000 0.0000 36.9946 0.0000
# 6 0.0000 0.0000 0.0000 0.0000 0.0000 15.1293
#
#
#
# Elastic Compliance Matrix: (Units=1/GPa)
#
#
# Indices 1 2 3 4 5 6 
#
# 1 0.021266 -0.002720 -0.006794 0.000000 0.000000 0.000000
# 2 -0.002720 0.021101 -0.006088 0.000000 0.000000 0.000000
# 3 -0.006794 -0.006088 0.009404 0.000000 0.000000 0.000000
# 4 0.000000 0.000000 0.000000 0.030984 0.000000 0.000000
# 5 0.000000 0.000000 0.000000 0.000000 0.027031 0.000000
# 6 0.000000 0.000000 0.000000 0.000000 0.000000 0.066097
#
#
# Mechanical properties :
#
#
# Convention : Reuss Voigt Hill
#
# Bulk Modulus (GPa) = 48.62262 77.36443 62.99353
# Shear Modulus (GPa) = 23.37078 28.64408 26.00743
#
# Velocity S-wave (km/s) = 3.52021 3.89717 3.71348
# Velocity P-wave (km/s) = 6.50413 7.82762 7.19636
#
# Compressibility (1/GPa) = 0.02056656
#
# Stress axis : x y z
#
# Youngs Moduli (GPa) = 47.02405 47.39185 106.33316
#
# Poissons Ratio (x) = 0.12890 0.72246
# Poissons Ratio (y) = 0.12790 0.64735
# Poissons Ratio (z) = 0.31950 0.28852
#
# Static dielectric constant tensor:
#      x y z
#    x 1.392820 0.000000 0.000000 
#    y 0.000000 1.649320 0.000000 
#    z 0.000000 0.000000 1.738570 
# 
# From -- ./inp_files/20463.got.cif
#   From: 2010.05.17/outbox.cif.g08.bks.cpg/sg59_11_cif.got.tgz:20463.got - 2010.06.03 14:40:33.
