data_PCOD9452748
_publ_section_title
;
Structure prediction by ZEFSAII (Michael W. Deem and Ramdas Pophale) SiO2 
 PCOD9452748
Probable space group: P M M N
;
_chemical_formula_sum "Si O2"
_cell_formula_units_Z 40
_cell_length_a 11.319321
_cell_length_b 23.637721
_cell_length_c 7.698049
_cell_angle_alpha 90.000000
_cell_angle_beta 90.000000
_cell_angle_gamma 90.000000
_cell_volume 2059.712713
_symmetry_space_group_name_H-M "P M M N"
_symmetry_group_IT_number 59
_space_group.IT_coordinate_system_code '2'
_symmetry_cell_setting 'orthorhombic'
loop_
_space_group_symop_operation_xyz
x,y,z
1/2-x,1/2-y,z
1/2+x,-y,-z
-x,1/2+y,-z
-x,-y,-z
1/2+x,1/2+y,-z
1/2-x,y,z
x,1/2-y,z
loop_
_atom_site_type_symbol
_atom_site_label
_atom_site_fract_x
_atom_site_fract_y
_atom_site_fract_z
Si Si1 0.044004 0.582645 0.367999
Si Si2 0.882282 0.683881 0.911078
Si Si3 0.118231 0.976483 0.715071
Si Si4 0.118897 0.617165 0.005285
Si Si5 0.613242 0.813644 0.490930
O O1 0.970782 0.527949 0.305534
O O2 0.961138 0.635907 0.411266
O O3 0.105780 0.563462 0.545881
O O4 0.122513 0.599883 0.205747
O O5 0.750000 0.661587 0.960871
O O6 0.884658 0.750000 0.959786
O O7 0.888693 0.680892 0.700761
O O8 0.000649 0.654396 0.980330
O O9 0.250000 0.000217 0.721041
O O10 0.100002 0.937511 0.882919
O O11 0.250000 0.641048 0.956992
O O12 0.750000 0.817701 0.436720
O O13 0.570703 0.750000 0.447328
#
# Coordination Sequence:
#
# PCOD9452748 Si02
#       5
#     8   8   8   8   8
#     4  11  21  37  61  86 115 157 201 243 294 356
#     4   9  19  38  62  88 119 157 201 249 300 356
#     4  10  22  39  57  83 120 158 198 245 298 351
#     4  11  23  39  59  88 124 159 199 246 297 358
#     4   9  18  35  60  88 117 150 195 249 301 353
#
# _framework density 19.420183000000002
#
# number of rings (size 3 to 8) (size 9 to 14) (size 15 to 20)
#    0.000    2.000    2.000    3.000    0.000    2.800 
#    0.000    3.000    0.000    1.800    0.000    0.000 
#    0.000    0.000    0.000    0.000    0.000    0.000 
#
# Total GULP energy -223115.332760 kJ/mol
# GULP energy per Si atom -5577.883319 kJ/mol
# Density = 1.937598 g / cm^3
# Si number density = 19.420183 Si / 1000 Ang^3
#
#
#
# Elastic Constant Matrix: (Units=GPa)
#
#
# Indices 1 2 3 4 5 6 
#
# 1 132.7900 58.4484 27.6530 0.0000 0.0000 0.0000
# 2 58.4484 69.3352 25.8094 0.0000 0.0000 0.0000
# 3 27.6530 25.8094 70.4140 0.0000 0.0000 0.0000
# 4 0.0000 0.0000 0.0000 -13.0680 0.0000 0.0000
# 5 0.0000 0.0000 0.0000 0.0000 33.5391 0.0000
# 6 0.0000 0.0000 0.0000 0.0000 0.0000 205.8542
#
#
#
# Elastic Compliance Matrix: (Units=1/GPa)
#
#
# Indices 1 2 3 4 5 6 
#
# 1 0.012056 -0.009728 -0.001169 0.000000 0.000000 0.000000
# 2 -0.009728 0.024551 -0.005178 0.000000 0.000000 0.000000
# 3 -0.001169 -0.005178 0.016559 0.000000 0.000000 0.000000
# 4 0.000000 0.000000 0.000000 -0.076523 0.000000 0.000000
# 5 0.000000 0.000000 0.000000 0.000000 0.029816 0.000000
# 6 0.000000 0.000000 0.000000 0.000000 0.000000 0.004858
#
#
# Mechanical properties :
#
#
# Convention : Reuss Voigt Hill
#
# Bulk Modulus (GPa) = 47.58499 55.15119 51.36809
# Shear Modulus (GPa) = 99.06592 55.97363 77.51977
#
# Velocity S-wave (km/s) = 7.15001 5.37447 6.32485
# Velocity P-wave (km/s) = 9.62910 8.18376 8.93570
#
# Compressibility (1/GPa) = 0.02101503
#
# Stress axis : x y z
#
# Youngs Moduli (GPa) = 82.94729 40.73215 60.39044
#
# Poissons Ratio (x) = 0.39623 0.07060
# Poissons Ratio (y) = 0.80689 0.31273
# Poissons Ratio (z) = 0.09697 0.21093
#
# Static dielectric constant tensor:
#      x y z
#    x 1.700660 0.000000 0.000000 
#    y 0.000000 1.644170 0.000000 
#    z 0.000000 0.000000 1.694690 
# 
# From -- ./inp_files/7385.got.cif
#   From: 2010.05.17/outbox.cif.g08.bks.cpg/sg59_4_cif.got.tgz:7385.got - 2010.06.03 14:40:33.
