data_PCOD9452030
_publ_section_title
;
Structure prediction by ZEFSAII (Michael W. Deem and Ramdas Pophale) SiO2 
 PCOD9452030
Probable space group: P M M N
;
_chemical_formula_sum "Si O2"
_cell_formula_units_Z 56
_cell_length_a 21.719963
_cell_length_b 7.966539
_cell_length_c 15.720185
_cell_angle_alpha 90.000000
_cell_angle_beta 90.000000
_cell_angle_gamma 90.000000
_cell_volume 2720.109707
_symmetry_space_group_name_H-M "P M M N"
_symmetry_group_IT_number 59
_space_group.IT_coordinate_system_code '2'
_symmetry_cell_setting 'orthorhombic'
loop_
_space_group_symop_operation_xyz
x,y,z
1/2-x,1/2-y,z
1/2+x,-y,-z
-x,1/2+y,-z
-x,-y,-z
1/2+x,1/2+y,-z
1/2-x,y,z
x,1/2-y,z
loop_
_atom_site_type_symbol
_atom_site_label
_atom_site_fract_x
_atom_site_fract_y
_atom_site_fract_z
Si Si1 0.318864 0.954438 0.441440
Si Si2 0.612636 0.049541 0.205908
Si Si3 0.181865 0.046749 0.956181
Si Si4 0.018099 0.942964 0.225333
Si Si5 0.183327 0.953824 0.637314
Si Si6 0.540180 0.452730 0.584951
Si Si7 0.938326 0.553308 0.949419
O O1 0.250000 0.007962 0.408561
O O2 0.318164 0.750000 0.436485
O O3 0.320752 0.006041 0.540408
O O4 0.387297 0.006887 0.411779
O O5 0.602380 0.250000 0.205985
O O6 0.631690 0.988151 0.299232
O O7 0.665561 0.006873 0.139559
O O8 0.549549 0.959332 0.184975
O O9 0.250000 0.987853 0.981092
O O10 0.182312 0.250000 0.960033
O O11 0.124369 0.979567 0.011031
O O12 0.036579 0.750000 0.232708
O O13 0.015459 0.011719 0.322203
O O14 0.059341 0.022812 0.151846
O O15 0.250000 0.004004 0.671136
O O16 0.181106 0.750000 0.636896
O O17 0.500000 0.500000 0.500000
O O18 0.539532 0.250000 0.582852
O O19 0.935502 0.750000 0.962865
O O20 0.000000 0.500000 0.000000
#
# Coordination Sequence:
#
# PCOD9452030 Si02
#       7
#     8   8   8   8   8   8   8
#     4   8  14  28  50  73 101 141 187 234 284 333
#     4  11  20  31  52  80 110 146 190 238 288 346
#     4  10  22  39  58  82 115 151 185 232 296 355
#     4  11  23  37  54  81 116 152 193 240 294 352
#     4   8  14  24  41  70 104 134 171 224 281 337
#     4  10  21  36  56  84 117 152 192 244 296 345
#     4  11  22  39  63  86 112 150 193 236 283 342
#
# _framework density 20.587403999999999
#
# number of rings (size 3 to 8) (size 9 to 14) (size 15 to 20)
#    0.000    2.143    1.429    3.429    0.000    3.714 
#    0.000    0.714    0.000    1.286    0.000    4.000 
#    0.000    0.000    0.000    0.000    0.000    0.000 
#
# Total GULP energy -311856.481149 kJ/mol
# GULP energy per Si atom -5568.865735 kJ/mol
# Density = 2.054055 g / cm^3
# Si number density = 20.587404 Si / 1000 Ang^3
#
#
#
# Elastic Constant Matrix: (Units=GPa)
#
#
# Indices 1 2 3 4 5 6 
#
# 1 139.8781 12.7267 48.4980 0.0000 0.0000 0.0000
# 2 12.7267 21.8246 6.7871 0.0000 0.0000 0.0000
# 3 48.4980 6.7871 91.3832 0.0000 0.0000 0.0000
# 4 0.0000 0.0000 0.0000 20.2402 0.0000 0.0000
# 5 0.0000 0.0000 0.0000 0.0000 37.0232 0.0000
# 6 0.0000 0.0000 0.0000 0.0000 0.0000 12.9703
#
#
#
# Elastic Compliance Matrix: (Units=1/GPa)
#
#
# Indices 1 2 3 4 5 6 
#
# 1 0.009072 -0.003882 -0.004526 0.000000 0.000000 0.000000
# 2 -0.003882 0.048565 -0.001546 0.000000 0.000000 0.000000
# 3 -0.004526 -0.001546 0.013460 0.000000 0.000000 0.000000
# 4 0.000000 0.000000 0.000000 0.049407 0.000000 0.000000
# 5 0.000000 0.000000 0.000000 0.000000 0.027010 0.000000
# 6 0.000000 0.000000 0.000000 0.000000 0.000000 0.077099
#
#
# Mechanical properties :
#
#
# Convention : Reuss Voigt Hill
#
# Bulk Modulus (GPa) = 19.53648 43.23439 31.38544
# Shear Modulus (GPa) = 19.11429 26.38501 22.74965
#
# Velocity S-wave (km/s) = 3.05035 3.58384 3.32780
# Velocity P-wave (km/s) = 4.68148 6.17829 5.48122
#
# Compressibility (1/GPa) = 0.05118629
#
# Stress axis : x y z
#
# Youngs Moduli (GPa) = 110.23451 20.59102 74.29530
#
# Poissons Ratio (x) = 0.07994 0.33626
# Poissons Ratio (y) = 0.42798 0.11490
# Poissons Ratio (z) = 0.49892 0.03184
#
# Static dielectric constant tensor:
#      x y z
#    x 1.831850 0.000000 0.000000 
#    y 0.000000 1.753910 0.000000 
#    z 0.000000 0.000000 1.758560 
# 
# From -- ./inp_files/24298.got.cif
#   From: 2010.05.17/outbox.cif.g08.bks.cpg/sg59_13_cif.got.tgz:24298.got - 2010.06.03 14:40:33.
