data_PCOD9452233
_publ_section_title
;
Structure prediction by ZEFSAII (Michael W. Deem and Ramdas Pophale) SiO2 
 PCOD9452233
Probable space group: P M M N
;
_chemical_formula_sum "Si O2"
_cell_formula_units_Z 40
_cell_length_a 8.503823
_cell_length_b 14.732403
_cell_length_c 17.709789
_cell_angle_alpha 90.000000
_cell_angle_beta 90.000000
_cell_angle_gamma 90.000000
_cell_volume 2218.713313
_symmetry_space_group_name_H-M "P M M N"
_symmetry_group_IT_number 59
_space_group.IT_coordinate_system_code '2'
_symmetry_cell_setting 'orthorhombic'
loop_
_space_group_symop_operation_xyz
x,y,z
1/2-x,1/2-y,z
1/2+x,-y,-z
-x,1/2+y,-z
-x,-y,-z
1/2+x,1/2+y,-z
1/2-x,y,z
x,1/2-y,z
loop_
_atom_site_type_symbol
_atom_site_label
_atom_site_fract_x
_atom_site_fract_y
_atom_site_fract_z
Si Si1 0.938558 0.444755 0.215870
Si Si2 0.940136 0.354185 0.508898
Si Si3 0.560914 0.054147 0.927100
Si Si4 0.058633 0.750000 0.020183
Si Si5 0.441703 0.750000 0.845048
Si Si6 0.561613 0.985248 0.618744
O O1 0.750000 0.444657 0.216648
O O2 0.992417 0.342140 0.195993
O O3 0.996580 0.508927 0.148514
O O4 0.000052 0.476045 0.296779
O O5 0.750000 0.353747 0.506982
O O6 0.993467 0.250000 0.516239
O O7 0.989214 0.421354 0.577006
O O8 0.999954 0.402651 0.432955
O O9 0.750000 0.050921 0.926345
O O10 0.509502 0.158262 0.938403
O O11 0.500000 0.000000 0.000000
O O12 0.250000 0.750000 0.018299
O O13 0.006798 0.750000 0.932620
O O14 0.250000 0.750000 0.845765
O O15 0.750000 0.983347 0.618981
#
# Coordination Sequence:
#
# PCOD9452233 Si02
#       6
#     8   8   8   4   4   8
#     4  11  22  38  58  82 114 150 187 230 279 334
#     4   9  19  38  62  83 109 150 189 221 274 344
#     4  11  21  37  59  82 110 148 190 234 281 335
#     4   9  18  36  58  78 105 148 191 224 278 343
#     4   9  18  34  56  80 107 146 187 220 272 343
#     4  10  21  37  57  86 117 144 184 233 278 329
#
# _framework density 18.028466000000002
#
# number of rings (size 3 to 8) (size 9 to 14) (size 15 to 20)
#    0.000    2.000    2.000    1.800    1.400    1.200 
#    1.800    4.500    0.000    0.000    0.000    0.000 
#    0.000    0.000    0.000    0.000    0.000    0.000 
#
# Total GULP energy -223313.750741 kJ/mol
# GULP energy per Si atom -5582.843769 kJ/mol
# Density = 1.798743 g / cm^3
# Si number density = 18.028466 Si / 1000 Ang^3
#
#
#
# Elastic Constant Matrix: (Units=GPa)
#
#
# Indices 1 2 3 4 5 6 
#
# 1 21.6081 30.1470 26.2264 0.0000 0.0000 0.0000
# 2 30.1470 190.7153 105.8004 0.0000 0.0000 0.0000
# 3 26.2264 105.8004 187.2265 0.0000 0.0000 0.0000
# 4 0.0000 0.0000 0.0000 12.8475 0.0000 0.0000
# 5 0.0000 0.0000 0.0000 0.0000 35.9291 0.0000
# 6 0.0000 0.0000 0.0000 0.0000 0.0000 25.8637
#
#
#
# Elastic Compliance Matrix: (Units=1/GPa)
#
#
# Indices 1 2 3 4 5 6 
#
# 1 0.061957 -0.007253 -0.004580 0.000000 0.000000 0.000000
# 2 -0.007253 0.008487 -0.003780 0.000000 0.000000 0.000000
# 3 -0.004580 -0.003780 0.008119 0.000000 0.000000 0.000000
# 4 0.000000 0.000000 0.000000 0.077836 0.000000 0.000000
# 5 0.000000 0.000000 0.000000 0.000000 0.027833 0.000000
# 6 0.000000 0.000000 0.000000 0.000000 0.000000 0.038664
#
#
# Mechanical properties :
#
#
# Convention : Reuss Voigt Hill
#
# Bulk Modulus (GPa) = 21.12531 80.43306 50.77918
# Shear Modulus (GPa) = 18.52534 30.75312 24.63923
#
# Velocity S-wave (km/s) = 3.20904 4.13462 3.70088
# Velocity P-wave (km/s) = 5.04715 8.21613 6.81830
#
# Compressibility (1/GPa) = 0.04733659
#
# Stress axis : x y z
#
# Youngs Moduli (GPa) = 16.14020 117.83001 123.17229
#
# Poissons Ratio (x) = 0.85460 0.56417
# Poissons Ratio (y) = 0.11706 0.46558
# Poissons Ratio (z) = 0.07393 0.44538
#
# Static dielectric constant tensor:
#      x y z
#    x 1.621190 0.000000 0.000000 
#    y 0.000000 1.623740 0.000000 
#    z 0.000000 0.000000 1.576490 
# 
# From -- ./inp_files/19946.got.cif
#   From: 2010.05.17/outbox.cif.g08.bks.cpg/sg59_10_cif.got.tgz:19946.got - 2010.06.03 14:40:33.
