data_PCOD9452138
_publ_section_title
;
Structure prediction by ZEFSAII (Michael W. Deem and Ramdas Pophale) SiO2 
 PCOD9452138
Probable space group: P M M N
;
_chemical_formula_sum "Si O2"
_cell_formula_units_Z 56
_cell_length_a 14.861388
_cell_length_b 8.715523
_cell_length_c 23.052823
_cell_angle_alpha 90.000000
_cell_angle_beta 90.000000
_cell_angle_gamma 90.000000
_cell_volume 2985.911572
_symmetry_space_group_name_H-M "P M M N"
_symmetry_group_IT_number 59
_space_group.IT_coordinate_system_code '2'
_symmetry_cell_setting 'orthorhombic'
loop_
_space_group_symop_operation_xyz
x,y,z
1/2-x,1/2-y,z
1/2+x,-y,-z
-x,1/2+y,-z
-x,-y,-z
1/2+x,1/2+y,-z
1/2-x,y,z
x,1/2-y,z
loop_
_atom_site_type_symbol
_atom_site_label
_atom_site_fract_x
_atom_site_fract_y
_atom_site_fract_z
Si Si1 0.982487 0.935987 0.714712
Si Si2 0.646465 0.565823 0.609711
Si Si3 0.750000 0.567288 0.886653
Si Si4 0.436411 0.567086 0.160042
Si Si5 0.359880 0.926936 0.511064
Si Si6 0.147369 0.562775 0.638203
Si Si7 0.948071 0.066041 0.055995
Si Si8 0.750000 0.433718 0.015420
O O1 0.978591 0.750000 0.720465
O O2 0.912018 0.983172 0.664628
O O3 0.079772 0.979291 0.689014
O O4 0.961438 0.010738 0.775907
O O5 0.750000 0.512650 0.615668
O O6 0.646338 0.750000 0.609446
O O7 0.611319 0.512530 0.546991
O O8 0.750000 0.750000 0.881209
O O9 0.839298 0.499396 0.857620
O O10 0.750000 0.519422 0.954077
O O11 0.433777 0.750000 0.157063
O O12 0.507552 0.503994 0.113181
O O13 0.250000 0.929808 0.512132
O O14 0.388266 0.750000 0.506795
O O15 0.385799 0.989473 0.574442
O O16 0.250000 0.512731 0.647510
O O17 0.147989 0.750000 0.634868
O O18 0.958694 0.250000 0.056873
O O19 0.842200 0.030478 0.048949
O O20 0.000000 0.000000 0.000000
O O21 0.750000 0.250000 0.003690
#
# Coordination Sequence:
#
# PCOD9452138 Si02
#       8
#     8   8   4   8   8   8   8   4
#     4  10  21  37  56  78 107 149 199 241 287 348
#     4   9  18  31  47  73 108 142 178 229 288 348
#     4  12  24  40  68  96 122 158 199 238 291 352
#     4  12  26  43  61  88 126 162 199 245 294 355
#     4   8  14  27  49  75 102 136 179 229 288 350
#     4   8  15  31  55  79 103 137 187 245 296 347
#     4  11  22  40  66  96 128 163 201 248 296 345
#     4  10  22  40  66  98 130 158 197 246 295 346
#
# _framework density 18.754742
#
# number of rings (size 3 to 8) (size 9 to 14) (size 15 to 20)
#    0.000    2.143    1.429    3.214    1.000    1.714 
#    1.286    0.714    0.000    0.857    0.000    0.000 
#    0.000    0.000    0.000    0.000    0.000    0.000 
#
# Total GULP energy -312672.329195 kJ/mol
# GULP energy per Si atom -5583.434450 kJ/mol
# Density = 1.871206 g / cm^3
# Si number density = 18.754742 Si / 1000 Ang^3
#
#
#
# Elastic Constant Matrix: (Units=GPa)
#
#
# Indices 1 2 3 4 5 6 
#
# 1 146.0457 57.1035 98.0240 0.0000 0.0000 0.0000
# 2 57.1035 60.1514 63.4007 0.0000 0.0000 0.0000
# 3 98.0240 63.4007 180.4288 0.0000 0.0000 0.0000
# 4 0.0000 0.0000 0.0000 29.0828 0.0000 0.0000
# 5 0.0000 0.0000 0.0000 0.0000 26.1612 0.0000
# 6 0.0000 0.0000 0.0000 0.0000 0.0000 17.4999
#
#
#
# Elastic Compliance Matrix: (Units=1/GPa)
#
#
# Indices 1 2 3 4 5 6 
#
# 1 0.012621 -0.007551 -0.004203 0.000000 0.000000 0.000000
# 2 -0.007551 0.030921 -0.006763 0.000000 0.000000 0.000000
# 3 -0.004203 -0.006763 0.010202 0.000000 0.000000 0.000000
# 4 0.000000 0.000000 0.000000 0.034385 0.000000 0.000000
# 5 0.000000 0.000000 0.000000 0.000000 0.038224 0.000000
# 6 0.000000 0.000000 0.000000 0.000000 0.000000 0.057143
#
#
# Mechanical properties :
#
#
# Convention : Reuss Voigt Hill
#
# Bulk Modulus (GPa) = 59.84480 91.52023 75.68252
# Shear Modulus (GPa) = 22.11393 25.75531 23.93462
#
# Velocity S-wave (km/s) = 3.43754 3.70979 3.57626
# Velocity P-wave (km/s) = 6.90898 8.20088 7.58249
#
# Compressibility (1/GPa) = 0.01670989
#
# Stress axis : x y z
#
# Youngs Moduli (GPa) = 79.23441 32.34000 98.01519
#
# Poissons Ratio (x) = 0.24419 0.41200
# Poissons Ratio (y) = 0.59828 0.66290
# Poissons Ratio (z) = 0.33305 0.21872
#
# Static dielectric constant tensor:
#      x y z
#    x 1.673190 0.000000 0.000000 
#    y 0.000000 1.636440 0.000000 
#    z 0.000000 0.000000 1.618210 
# 
# From -- ./inp_files/30439.got.cif
#   From: 2010.05.17/outbox.cif.g08.bks.cpg/sg59_16_cif.got.tgz:30439.got - 2010.06.03 14:40:33.
