data_PCOD9452334
_publ_section_title
;
Structure prediction by ZEFSAII (Michael W. Deem and Ramdas Pophale) SiO2 
 PCOD9452334
Probable space group: P M M N
;
_chemical_formula_sum "Si O2"
_cell_formula_units_Z 64
_cell_length_a 9.184764
_cell_length_b 30.283751
_cell_length_c 11.919934
_cell_angle_alpha 90.000000
_cell_angle_beta 90.000000
_cell_angle_gamma 90.000000
_cell_volume 3315.518985
_symmetry_space_group_name_H-M "P M M N"
_symmetry_group_IT_number 59
_space_group.IT_coordinate_system_code '2'
_symmetry_cell_setting 'orthorhombic'
loop_
_space_group_symop_operation_xyz
x,y,z
1/2-x,1/2-y,z
1/2+x,-y,-z
-x,1/2+y,-z
-x,-y,-z
1/2+x,1/2+y,-z
1/2-x,y,z
x,1/2-y,z
loop_
_atom_site_type_symbol
_atom_site_label
_atom_site_fract_x
_atom_site_fract_y
_atom_site_fract_z
Si Si1 0.418992 0.861860 0.017927
Si Si2 0.080666 0.199899 0.814283
Si Si3 0.575249 0.024927 0.667439
Si Si4 0.924064 0.038285 0.928093
Si Si5 0.923543 0.062090 0.429406
Si Si6 0.084118 0.800705 0.801200
Si Si7 0.578976 0.651170 0.611931
Si Si8 0.916293 0.301536 0.581890
O O1 0.250000 0.857951 0.057660
O O2 0.527580 0.836114 0.098644
O O3 0.454720 0.913665 0.018553
O O4 0.426311 0.836200 0.900492
O O5 0.250000 0.194272 0.783130
O O6 0.064775 0.250000 0.859859
O O7 0.976634 0.196392 0.707221
O O8 0.750000 0.017381 0.665787
O O9 0.535329 0.038262 0.794922
O O10 0.545105 0.058690 0.564121
O O11 0.491875 0.980743 0.630063
O O12 0.750000 0.031432 0.932766
O O13 0.000000 0.000000 0.000000
O O14 0.750000 0.062473 0.415465
O O15 0.994896 0.105108 0.375981
O O16 0.250000 0.803160 0.755271
O O17 0.062261 0.750000 0.839345
O O18 0.971553 0.814799 0.706908
O O19 0.750000 0.644089 0.613563
O O20 0.523295 0.671496 0.496085
O O21 0.750000 0.317824 0.573900
O O22 0.917426 0.250000 0.547780
#
# Coordination Sequence:
#
# PCOD9452334 Si02
#       8
#     8   8   8   8   8   8   8   8
#     4  10  22  40  64  91 120 160 209 255 302 362
#     4  10  21  37  59  91 128 161 198 249 306 363
#     4   9  20  40  62  88 123 157 197 251 307 361
#     4  10  23  41  62  91 125 161 203 252 306 365
#     4  10  21  38  63  90 119 159 202 247 300 368
#     4  10  22  41  63  88 121 162 211 261 308 368
#     4  12  25  38  58  89 124 157 199 253 309 368
#     4  10  21  38  60  85 117 158 200 242 294 356
#
# _framework density 19.303163999999999
#
# number of rings (size 3 to 8) (size 9 to 14) (size 15 to 20)
#    0.000    1.875    0.000    3.000    3.500    5.750 
#    0.000    0.000    0.000    0.000    0.000    0.000 
#    0.000    0.000    0.000    0.000    0.000    0.000 
#
# Total GULP energy -357352.973959 kJ/mol
# GULP energy per Si atom -5583.640218 kJ/mol
# Density = 1.925923 g / cm^3
# Si number density = 19.303164 Si / 1000 Ang^3
#
#
#
# Elastic Constant Matrix: (Units=GPa)
#
#
# Indices 1 2 3 4 5 6 
#
# 1 54.8578 36.7357 30.1831 0.0000 0.0000 0.0000
# 2 36.7357 92.9594 38.2177 0.0000 0.0000 0.0000
# 3 30.1831 38.2177 48.2248 0.0000 0.0000 0.0000
# 4 0.0000 0.0000 0.0000 94.2603 0.0000 0.0000
# 5 0.0000 0.0000 0.0000 0.0000 14.1921 0.0000
# 6 0.0000 0.0000 0.0000 0.0000 0.0000 28.7459
#
#
#
# Elastic Compliance Matrix: (Units=1/GPa)
#
#
# Indices 1 2 3 4 5 6 
#
# 1 0.029989 -0.006132 -0.013910 0.000000 0.000000 0.000000
# 2 -0.006132 0.017210 -0.009801 0.000000 0.000000 0.000000
# 3 -0.013910 -0.009801 0.037209 0.000000 0.000000 0.000000
# 4 0.000000 0.000000 0.000000 0.010609 0.000000 0.000000
# 5 0.000000 0.000000 0.000000 0.000000 0.070462 0.000000
# 6 0.000000 0.000000 0.000000 0.000000 0.000000 0.034788
#
#
# Mechanical properties :
#
#
# Convention : Reuss Voigt Hill
#
# Bulk Modulus (GPa) = 40.44910 45.14612 42.79761
# Shear Modulus (GPa) = 18.64338 33.50001 26.07170
#
# Velocity S-wave (km/s) = 3.11114 4.17041 3.67910
# Velocity P-wave (km/s) = 5.82286 6.82851 6.34564
#
# Compressibility (1/GPa) = 0.02472243
#
# Stress axis : x y z
#
# Youngs Moduli (GPa) = 33.34596 58.10563 26.87534
#
# Poissons Ratio (x) = 0.35633 0.37382
# Poissons Ratio (y) = 0.20449 0.26339
# Poissons Ratio (z) = 0.46383 0.56947
#
# Static dielectric constant tensor:
#      x y z
#    x 1.642590 0.000000 0.000000 
#    y 0.000000 1.671350 0.000000 
#    z 0.000000 0.000000 1.678490 
# 
# From -- ./inp_files/14876.got.cif
#   From: 2010.05.17/outbox.cif.g08.bks.cpg/sg59_8_cif.got.tgz:14876.got - 2010.06.03 14:40:33.
