data_PCOD9452567
_publ_section_title
;
Structure prediction by ZEFSAII (Michael W. Deem and Ramdas Pophale) SiO2 
 PCOD9452567
Probable space group: P M M N
;
_chemical_formula_sum "Si O2"
_cell_formula_units_Z 56
_cell_length_a 15.949992
_cell_length_b 9.089306
_cell_length_c 20.176695
_cell_angle_alpha 90.000000
_cell_angle_beta 90.000000
_cell_angle_gamma 90.000000
_cell_volume 2925.103404
_symmetry_space_group_name_H-M "P M M N"
_symmetry_group_IT_number 59
_space_group.IT_coordinate_system_code '2'
_symmetry_cell_setting 'orthorhombic'
loop_
_space_group_symop_operation_xyz
x,y,z
1/2-x,1/2-y,z
1/2+x,-y,-z
-x,1/2+y,-z
-x,-y,-z
1/2+x,1/2+y,-z
1/2-x,y,z
x,1/2-y,z
loop_
_atom_site_type_symbol
_atom_site_label
_atom_site_fract_x
_atom_site_fract_y
_atom_site_fract_z
Si Si1 0.392380 0.424017 0.791657
Si Si2 0.650048 0.424475 0.927343
Si Si3 0.750000 0.428274 0.447845
Si Si4 0.587828 0.423583 0.783994
Si Si5 0.916536 0.427015 0.528830
Si Si6 0.651605 0.578138 0.655975
Si Si7 0.851470 0.579254 0.061339
Si Si8 0.750000 0.426756 0.294510
O O1 0.369148 0.250000 0.791328
O O2 0.488831 0.436633 0.771480
O O3 0.383108 0.476867 0.867778
O O4 0.330618 0.510697 0.743797
O O5 0.750000 0.451859 0.921445
O O6 0.637248 0.250000 0.933220
O O7 0.607736 0.473006 0.858933
O O8 0.619670 0.498389 0.995034
O O9 0.750000 0.250000 0.448418
O O10 0.834726 0.473211 0.485845
O O11 0.750000 0.475124 0.371278
O O12 0.611075 0.250000 0.779388
O O13 0.635952 0.516048 0.729168
O O14 0.922895 0.250000 0.527491
O O15 0.900135 0.484065 0.602995
O O16 0.000000 0.500000 0.500000
O O17 0.750000 0.563754 0.640067
O O18 0.628600 0.750000 0.652036
O O19 0.750000 0.570332 0.063527
O O20 0.875849 0.750000 0.056413
O O21 0.750000 0.250000 0.292385
#
# Coordination Sequence:
#
# PCOD9452567 Si02
#       8
#     8   8   4   8   8   8   8   4
#     4  10  21  39  58  83 116 154 198 242 293 357
#     4   9  18  33  53  80 113 149 194 243 290 349
#     4   9  22  43  65  91 126 163 198 245 303 360
#     4  10  22  38  59  86 118 157 198 245 302 358
#     4  11  23  43  68  96 129 166 206 252 307 369
#     4  11  24  42  64  91 124 162 205 252 298 357
#     4   9  17  32  54  76 108 153 195 238 292 349
#     4  11  23  39  61  87 116 153 192 237 295 350
#
# _framework density 19.144622999999999
#
# number of rings (size 3 to 8) (size 9 to 14) (size 15 to 20)
#    0.000    2.000    1.429    1.500    2.000    3.714 
#    0.000    3.571    0.000    0.000    0.000    0.000 
#    0.000    0.000    0.000    0.000    0.000    0.000 
#
# Total GULP energy -312761.574602 kJ/mol
# GULP energy per Si atom -5585.028118 kJ/mol
# Density = 1.910105 g / cm^3
# Si number density = 19.144623 Si / 1000 Ang^3
#
#
#
# Elastic Constant Matrix: (Units=GPa)
#
#
# Indices 1 2 3 4 5 6 
#
# 1 56.3046 34.8443 35.9084 0.0000 0.0000 0.0000
# 2 34.8443 50.5157 28.9691 0.0000 0.0000 0.0000
# 3 35.9084 28.9691 104.0763 0.0000 0.0000 0.0000
# 4 0.0000 0.0000 0.0000 31.7628 0.0000 0.0000
# 5 0.0000 0.0000 0.0000 0.0000 17.9550 0.0000
# 6 0.0000 0.0000 0.0000 0.0000 0.0000 23.3777
#
#
#
# Elastic Compliance Matrix: (Units=1/GPa)
#
#
# Indices 1 2 3 4 5 6 
#
# 1 0.034048 -0.019930 -0.006200 0.000000 0.000000 0.000000
# 2 -0.019930 0.035222 -0.002928 0.000000 0.000000 0.000000
# 3 -0.006200 -0.002928 0.012562 0.000000 0.000000 0.000000
# 4 0.000000 0.000000 0.000000 0.031483 0.000000 0.000000
# 5 0.000000 0.000000 0.000000 0.000000 0.055695 0.000000
# 6 0.000000 0.000000 0.000000 0.000000 0.000000 0.042776
#
#
# Mechanical properties :
#
#
# Convention : Reuss Voigt Hill
#
# Bulk Modulus (GPa) = 42.16315 45.59334 43.87825
# Shear Modulus (GPa) = 17.99807 22.03075 20.01441
#
# Velocity S-wave (km/s) = 3.06945 3.39596 3.23682
# Velocity P-wave (km/s) = 5.88501 6.26447 6.07770
#
# Compressibility (1/GPa) = 0.02371739
#
# Stress axis : x y z
#
# Youngs Moduli (GPa) = 29.36999 28.39142 79.60333
#
# Poissons Ratio (x) = 0.56584 0.49353
# Poissons Ratio (y) = 0.58535 0.23304
# Poissons Ratio (z) = 0.18209 0.08312
#
# Static dielectric constant tensor:
#      x y z
#    x 1.662230 0.000000 0.000000 
#    y 0.000000 1.648060 0.000000 
#    z 0.000000 0.000000 1.652360 
# 
# From -- ./inp_files/30450.got.cif
#   From: 2010.05.17/outbox.cif.g08.bks.cpg/sg59_16_cif.got.tgz:30450.got - 2010.06.03 14:40:33.
