data_PCOD9452705
_publ_section_title
;
Structure prediction by ZEFSAII (Michael W. Deem and Ramdas Pophale) SiO2 
 PCOD9452705
Probable space group: P M M N
;
_chemical_formula_sum "Si O2"
_cell_formula_units_Z 48
_cell_length_a 8.700567
_cell_length_b 17.261708
_cell_length_c 17.327478
_cell_angle_alpha 90.000000
_cell_angle_beta 90.000000
_cell_angle_gamma 90.000000
_cell_volume 2602.355822
_symmetry_space_group_name_H-M "P M M N"
_symmetry_group_IT_number 59
_space_group.IT_coordinate_system_code '2'
_symmetry_cell_setting 'orthorhombic'
loop_
_space_group_symop_operation_xyz
x,y,z
1/2-x,1/2-y,z
1/2+x,-y,-z
-x,1/2+y,-z
-x,-y,-z
1/2+x,1/2+y,-z
1/2-x,y,z
x,1/2-y,z
loop_
_atom_site_type_symbol
_atom_site_label
_atom_site_fract_x
_atom_site_fract_y
_atom_site_fract_z
Si Si1 0.433957 0.929076 0.400793
Si Si2 0.436014 0.160057 0.746242
Si Si3 0.066093 0.393809 0.434033
Si Si4 0.064500 0.401731 0.072814
Si Si5 0.933009 0.250000 0.339553
Si Si6 0.436371 0.250000 0.167349
Si Si7 0.564641 0.931683 0.101417
O O1 0.250000 0.922665 0.405254
O O2 0.495658 0.886818 0.325288
O O3 0.506721 0.892918 0.478061
O O4 0.473685 0.020665 0.401517
O O5 0.250000 0.156662 0.742249
O O6 0.481518 0.250000 0.743324
O O7 0.484301 0.120829 0.826885
O O8 0.250000 0.385774 0.433178
O O9 0.992590 0.325787 0.384370
O O10 0.250000 0.405050 0.074880
O O11 0.015674 0.326656 0.120528
O O12 0.999524 0.481455 0.106911
O O13 0.017500 0.399099 0.982613
O O14 0.750000 0.250000 0.338163
O O15 0.997873 0.250000 0.253010
O O16 0.250000 0.250000 0.171475
O O17 0.750000 0.935003 0.101897
#
# Coordination Sequence:
#
# PCOD9452705 Si02
#       7
#     8   8   8   8   4   4   8
#     4  10  22  40  63  89 117 152 194 240 289 344
#     4  10  22  37  57  85 118 155 194 237 287 344
#     4  10  22  42  65  87 116 154 193 237 292 349
#     4   9  19  36  59  83 112 150 192 239 293 346
#     4  12  26  40  60  89 120 153 194 243 290 343
#     4  10  22  38  58  85 116 153 194 239 290 349
#     4   9  19  36  58  84 113 150 195 240 288 344
#
# _framework density 18.444825000000002
#
# number of rings (size 3 to 8) (size 9 to 14) (size 15 to 20)
#    0.000    2.167    0.000    1.750    4.667    3.667 
#    0.000    0.000    0.000    0.000    0.000    0.000 
#    0.000    0.000    0.000    0.000    0.000    0.000 
#
# Total GULP energy -268091.790631 kJ/mol
# GULP energy per Si atom -5585.245638 kJ/mol
# Density = 1.840284 g / cm^3
# Si number density = 18.444825 Si / 1000 Ang^3
#
#
#
# Elastic Constant Matrix: (Units=GPa)
#
#
# Indices 1 2 3 4 5 6 
#
# 1 31.6894 46.6068 44.5588 0.0000 0.0000 0.0000
# 2 46.6068 150.1394 127.6922 0.0000 0.0000 0.0000
# 3 44.5588 127.6922 159.6041 0.0000 0.0000 0.0000
# 4 0.0000 0.0000 0.0000 29.4490 0.0000 0.0000
# 5 0.0000 0.0000 0.0000 0.0000 25.9333 0.0000
# 6 0.0000 0.0000 0.0000 0.0000 0.0000 30.5521
#
#
#
# Elastic Compliance Matrix: (Units=1/GPa)
#
#
# Indices 1 2 3 4 5 6 
#
# 1 0.059713 -0.013637 -0.005760 0.000000 0.000000 0.000000
# 2 -0.013637 0.023957 -0.015360 0.000000 0.000000 0.000000
# 3 -0.005760 -0.015360 0.020162 0.000000 0.000000 0.000000
# 4 0.000000 0.000000 0.000000 0.033957 0.000000 0.000000
# 5 0.000000 0.000000 0.000000 0.000000 0.038560 0.000000
# 6 0.000000 0.000000 0.000000 0.000000 0.000000 0.032731
#
#
# Mechanical properties :
#
#
# Convention : Reuss Voigt Hill
#
# Bulk Modulus (GPa) = 29.13951 86.57207 57.85579
# Shear Modulus (GPa) = 17.23935 25.35856 21.29896
#
# Velocity S-wave (km/s) = 3.06051 3.71190 3.40183
# Velocity P-wave (km/s) = 5.32179 8.08755 6.84580
#
# Compressibility (1/GPa) = 0.03431767
#
# Stress axis : x y z
#
# Youngs Moduli (GPa) = 16.74689 41.74126 49.59731
#
# Poissons Ratio (x) = 0.56923 0.28570
# Poissons Ratio (y) = 0.22838 0.76180
# Poissons Ratio (z) = 0.09647 0.64114
#
# Static dielectric constant tensor:
#      x y z
#    x 1.622410 0.000000 0.000000 
#    y 0.000000 1.611200 0.000000 
#    z 0.000000 0.000000 1.608650 
# 
# From -- ./inp_files/20620.got.cif
#   From: 2010.05.17/outbox.cif.g08.bks.cpg/sg59_11_cif.got.tgz:20620.got - 2010.06.03 14:40:33.
