data_PCOD9452405
_publ_section_title
;
Structure prediction by ZEFSAII (Michael W. Deem and Ramdas Pophale) SiO2 
 PCOD9452405
Probable space group: P M M N
;
_chemical_formula_sum "Si O2"
_cell_formula_units_Z 56
_cell_length_a 8.978069
_cell_length_b 14.437315
_cell_length_c 21.825989
_cell_angle_alpha 90.000000
_cell_angle_beta 90.000000
_cell_angle_gamma 90.000000
_cell_volume 2829.067457
_symmetry_space_group_name_H-M "P M M N"
_symmetry_group_IT_number 59
_space_group.IT_coordinate_system_code '2'
_symmetry_cell_setting 'orthorhombic'
loop_
_space_group_symop_operation_xyz
x,y,z
1/2-x,1/2-y,z
1/2+x,-y,-z
-x,1/2+y,-z
-x,-y,-z
1/2+x,1/2+y,-z
1/2-x,y,z
x,1/2-y,z
loop_
_atom_site_type_symbol
_atom_site_label
_atom_site_fract_x
_atom_site_fract_y
_atom_site_fract_z
Si Si1 0.072261 0.037683 0.842563
Si Si2 0.077444 0.861555 0.045347
Si Si3 0.068740 0.854776 0.907732
Si Si4 0.419709 0.362780 0.470471
Si Si5 0.072014 0.971929 0.283007
Si Si6 0.427303 0.859975 0.404476
Si Si7 0.072739 0.858652 0.657427
O O1 0.250000 0.041305 0.836178
O O2 0.019860 0.097136 0.900538
O O3 0.995141 0.066780 0.779675
O O4 0.025908 0.932192 0.859192
O O5 0.250000 0.892274 0.051863
O O6 0.076949 0.750000 0.048411
O O7 0.023022 0.884370 0.976532
O O8 0.250000 0.852276 0.909403
O O9 0.017584 0.750000 0.895212
O O10 0.250000 0.395185 0.462906
O O11 0.417861 0.250000 0.473235
O O12 0.489649 0.394154 0.534565
O O13 0.514998 0.385094 0.410446
O O14 0.250000 0.973538 0.279654
O O15 0.028209 0.911821 0.342529
O O16 0.007560 0.074048 0.295250
O O17 0.250000 0.871862 0.413336
O O18 0.455372 0.750000 0.397779
O O19 0.250000 0.870003 0.661130
O O20 0.037964 0.750000 0.667156
#
# Coordination Sequence:
#
# PCOD9452405 Si02
#       7
#     8   8   8   8   8   8   8
#     4  11  22  35  54  81 113 146 181 225 274 324
#     4   9  18  35  59  83 108 142 182 222 268 323
#     4   8  16  33  57  83 109 140 179 221 269 326
#     4   9  17  31  55  85 111 136 171 220 277 330
#     4  11  24  39  55  78 109 148 191 228 268 323
#     4   9  19  37  58  78 103 138 181 227 273 323
#     4  10  21  38  59  81 108 143 182 226 275 326
#
# _framework density 19.794509000000001
#
# number of rings (size 3 to 8) (size 9 to 14) (size 15 to 20)
#    0.000    2.429    0.000    3.000    0.000    5.714 
#    0.000    3.571    0.000    3.000    0.000    0.000 
#    0.000    0.000    0.000    0.000    0.000    0.000 
#
# Total GULP energy -312760.766083 kJ/mol
# GULP energy per Si atom -5585.013680 kJ/mol
# Density = 1.974946 g / cm^3
# Si number density = 19.794509 Si / 1000 Ang^3
#
#
#
# Elastic Constant Matrix: (Units=GPa)
#
#
# Indices 1 2 3 4 5 6 
#
# 1 39.1326 9.4651 15.5046 0.0000 0.0000 0.0000
# 2 9.4651 33.9551 8.4168 0.0000 0.0000 0.0000
# 3 15.5046 8.4168 65.9832 0.0000 0.0000 0.0000
# 4 0.0000 0.0000 0.0000 17.2141 0.0000 0.0000
# 5 0.0000 0.0000 0.0000 0.0000 26.0819 0.0000
# 6 0.0000 0.0000 0.0000 0.0000 0.0000 22.3446
#
#
#
# Elastic Compliance Matrix: (Units=1/GPa)
#
#
# Indices 1 2 3 4 5 6 
#
# 1 0.029599 -0.006740 -0.006095 0.000000 0.000000 0.000000
# 2 -0.006740 0.031947 -0.002491 0.000000 0.000000 0.000000
# 3 -0.006095 -0.002491 0.016905 0.000000 0.000000 0.000000
# 4 0.000000 0.000000 0.000000 0.058092 0.000000 0.000000
# 5 0.000000 0.000000 0.000000 0.000000 0.038341 0.000000
# 6 0.000000 0.000000 0.000000 0.000000 0.000000 0.044754
#
#
# Mechanical properties :
#
#
# Convention : Reuss Voigt Hill
#
# Bulk Modulus (GPa) = 20.92130 22.87155 21.89642
# Shear Modulus (GPa) = 18.78112 20.17372 19.47742
#
# Velocity S-wave (km/s) = 3.08361 3.19589 3.14025
# Velocity P-wave (km/s) = 4.82394 5.01975 4.92282
#
# Compressibility (1/GPa) = 0.04779818
#
# Stress axis : x y z
#
# Youngs Moduli (GPa) = 33.78443 31.30187 59.15236
#
# Poissons Ratio (x) = 0.21097 0.36056
# Poissons Ratio (y) = 0.22771 0.14737
# Poissons Ratio (z) = 0.20593 0.07799
#
# Static dielectric constant tensor:
#      x y z
#    x 1.668260 0.000000 0.000000 
#    y 0.000000 1.729930 0.000000 
#    z 0.000000 0.000000 1.672900 
# 
# From -- ./inp_files/29053.got.cif
#   From: 2010.05.17/outbox.cif.g08.bks.cpg/sg59_15_cif.got.tgz:29053.got - 2010.06.03 14:40:33.
