data_PCOD9452234
_publ_section_title
;
Structure prediction by ZEFSAII (Michael W. Deem and Ramdas Pophale) SiO2 
 PCOD9452234
Probable space group: P M M N
;
_chemical_formula_sum "Si O2"
_cell_formula_units_Z 64
_cell_length_a 8.261557
_cell_length_b 24.557124
_cell_length_c 16.038937
_cell_angle_alpha 90.000000
_cell_angle_beta 90.000000
_cell_angle_gamma 90.000000
_cell_volume 3253.980817
_symmetry_space_group_name_H-M "P M M N"
_symmetry_group_IT_number 59
_space_group.IT_coordinate_system_code '2'
_symmetry_cell_setting 'orthorhombic'
loop_
_space_group_symop_operation_xyz
x,y,z
1/2-x,1/2-y,z
1/2+x,-y,-z
-x,1/2+y,-z
-x,-y,-z
1/2+x,1/2+y,-z
1/2-x,y,z
x,1/2-y,z
loop_
_atom_site_type_symbol
_atom_site_label
_atom_site_fract_x
_atom_site_fract_y
_atom_site_fract_z
Si Si1 0.442976 0.688166 0.500674
Si Si2 0.054677 0.382762 0.343107
Si Si3 0.948172 0.687273 0.001110
Si Si4 0.444528 0.998716 0.404170
Si Si5 0.943110 0.881964 0.343847
Si Si6 0.444168 0.500907 0.095825
Si Si7 0.055089 0.116997 0.840908
Si Si8 0.947634 0.882426 0.841983
O O1 0.250000 0.690230 0.503846
O O2 0.507133 0.750000 0.498700
O O3 0.500907 0.656017 0.582347
O O4 0.490713 0.655055 0.418110
O O5 0.250000 0.383128 0.343055
O O6 0.002031 0.444817 0.361879
O O7 0.999361 0.366023 0.250673
O O8 0.750000 0.686296 0.001334
O O9 0.998532 0.750000 0.002225
O O10 0.001304 0.656172 0.917391
O O11 0.003390 0.654623 0.083102
O O12 0.250000 0.996224 0.401015
O O13 0.512563 0.944666 0.361720
O O14 0.500000 0.000000 0.500000
O O15 0.750000 0.876854 0.345072
O O16 0.003764 0.867103 0.251241
O O17 0.250000 0.502650 0.098287
O O18 0.510319 0.554741 0.139671
O O19 0.496744 0.444541 0.138711
O O20 0.500000 0.500000 0.000000
O O21 0.250000 0.120863 0.840252
O O22 0.750000 0.881607 0.842697
#
# Coordination Sequence:
#
# PCOD9452234 Si02
#       8
#     8   8   8   8   8   8   8   8
#     4  11  25  43  61  82 113 155 198 244 297 350
#     4  10  21  37  60  88 114 148 192 239 291 347
#     4   9  17  32  55  81 111 147 188 236 283 329
#     4  11  21  35  58  87 120 152 188 235 290 353
#     4  11  23  38  60  88 118 154 195 244 295 348
#     4  11  20  34  58  86 119 155 190 235 290 346
#     4  10  21  37  57  86 118 149 193 239 286 347
#     4   9  18  33  55  85 116 145 185 234 282 338
#
# _framework density 19.668216999999999
#
# number of rings (size 3 to 8) (size 9 to 14) (size 15 to 20)
#    0.000    1.750    2.500    2.250    0.000    4.500 
#    0.000    3.750    0.000    0.375    0.000    0.000 
#    0.000    0.000    0.000    0.000    0.000    0.000 
#
# Total GULP energy -357541.520818 kJ/mol
# GULP energy per Si atom -5586.586263 kJ/mol
# Density = 1.962345 g / cm^3
# Si number density = 19.668217 Si / 1000 Ang^3
#
#
#
# Elastic Constant Matrix: (Units=GPa)
#
#
# Indices 1 2 3 4 5 6 
#
# 1 9.2091 10.2670 17.0523 0.0000 0.0000 0.0000
# 2 10.2670 165.6367 103.0843 0.0000 0.0000 0.0000
# 3 17.0523 103.0843 218.3914 0.0000 0.0000 0.0000
# 4 0.0000 0.0000 0.0000 -0.7999 0.0000 0.0000
# 5 0.0000 0.0000 0.0000 0.0000 8.0231 0.0000
# 6 0.0000 0.0000 0.0000 0.0000 0.0000 23.3786
#
#
#
# Elastic Compliance Matrix: (Units=1/GPa)
#
#
# Indices 1 2 3 4 5 6 
#
# 1 0.127623 -0.002420 -0.008823 0.000000 0.000000 0.000000
# 2 -0.002420 0.008594 -0.003868 0.000000 0.000000 0.000000
# 3 -0.008823 -0.003868 0.007093 0.000000 0.000000 0.000000
# 4 0.000000 0.000000 0.000000 -1.250202 0.000000 0.000000
# 5 0.000000 0.000000 0.000000 0.000000 0.124640 0.000000
# 6 0.000000 0.000000 0.000000 0.000000 0.000000 0.042774
#
#
# Mechanical properties :
#
#
# Convention : Reuss Voigt Hill
#
# Bulk Modulus (GPa) = 8.84249 72.67161 40.75705
# Shear Modulus (GPa) = -5.73685 23.64260 8.95288
#
# Velocity S-wave (km/s) = -1.70972 3.47085 2.13585
# Velocity P-wave (km/s) = 0.77979 7.28638 5.18167
#
# Compressibility (1/GPa) = 0.11309028
#
# Stress axis : x y z
#
# Youngs Moduli (GPa) = 7.83557 116.35470 140.97465
#
# Poissons Ratio (x) = 0.28156 1.24379
# Poissons Ratio (y) = 0.01896 0.54526
# Poissons Ratio (z) = 0.06913 0.45003
#
# Static dielectric constant tensor:
#      x y z
#    x 1.690130 0.000000 0.000000 
#    y 0.000000 1.666810 0.000000 
#    z 0.000000 0.000000 1.685960 
# 
# From -- ./inp_files/21424.got.cif
#   From: 2010.05.17/outbox.cif.g08.bks.cpg/sg59_11_cif.got.tgz:21424.got - 2010.06.03 14:40:33.
