data_PCOD9452599
_publ_section_title
;
Structure prediction by ZEFSAII (Michael W. Deem and Ramdas Pophale) SiO2 
 PCOD9452599
Probable space group: P M M N
;
_chemical_formula_sum "Si O2"
_cell_formula_units_Z 64
_cell_length_a 8.077408
_cell_length_b 31.951905
_cell_length_c 12.289193
_cell_angle_alpha 90.000000
_cell_angle_beta 90.000000
_cell_angle_gamma 90.000000
_cell_volume 3171.700285
_symmetry_space_group_name_H-M "P M M N"
_symmetry_group_IT_number 59
_space_group.IT_coordinate_system_code '2'
_symmetry_cell_setting 'orthorhombic'
loop_
_space_group_symop_operation_xyz
x,y,z
1/2-x,1/2-y,z
1/2+x,-y,-z
-x,1/2+y,-z
-x,-y,-z
1/2+x,1/2+y,-z
1/2-x,y,z
x,1/2-y,z
loop_
_atom_site_type_symbol
_atom_site_label
_atom_site_fract_x
_atom_site_fract_y
_atom_site_fract_z
Si Si1 0.944583 0.182131 0.754687
Si Si2 0.552333 0.547589 0.480531
Si Si3 0.452270 0.796171 0.487019
Si Si4 0.949111 0.876437 0.878076
Si Si5 0.451339 0.086411 0.748242
Si Si6 0.946953 0.704612 0.006886
Si Si7 0.447192 0.624538 0.628423
Si Si8 0.050777 0.452937 0.976073
O O1 0.750000 0.191816 0.762384
O O2 0.006297 0.199194 0.638670
O O3 0.973301 0.132470 0.751026
O O4 0.027148 0.198726 0.864273
O O5 0.500000 0.500000 0.500000
O O6 0.750000 0.549241 0.482646
O O7 0.496663 0.563062 0.361476
O O8 0.489544 0.581230 0.568098
O O9 0.250000 0.797824 0.485871
O O10 0.500325 0.750000 0.528167
O O11 0.510730 0.835628 0.558203
O O12 0.750000 0.876489 0.890321
O O13 0.988233 0.875030 0.751116
O O14 0.014267 0.835448 0.941793
O O15 0.010959 0.918744 0.936575
O O16 0.250000 0.090333 0.748698
O O17 0.502213 0.061688 0.856195
O O18 0.750000 0.705354 0.987187
O O19 0.016000 0.750000 0.973927
O O20 0.250000 0.628178 0.632640
O O21 0.250000 0.451568 0.977507
O O22 0.000000 0.500000 0.000000
#
# Coordination Sequence:
#
# PCOD9452599 Si02
#       8
#     8   8   8   8   8   8   8   8
#     4  11  20  34  60  91 123 154 192 244 294 351
#     4  11  24  41  64  91 122 157 198 247 297 354
#     4   9  19  36  57  84 119 156 192 238 296 348
#     4  10  22  41  60  83 117 156 196 244 297 348
#     4  10  21  40  63  87 119 156 193 241 294 349
#     4  10  21  39  62  86 118 159 199 243 299 358
#     4  11  23  40  61  86 119 159 202 247 296 355
#     4  10  22  40  61  86 117 152 190 240 293 347
#
# _framework density 20.178450000000002
#
# number of rings (size 3 to 8) (size 9 to 14) (size 15 to 20)
#    0.000    1.750    2.500    1.500    1.750    3.250 
#    0.000    0.000    0.000    3.375    0.000    0.000 
#    0.000    0.000    0.000    0.000    0.000    0.000 
#
# Total GULP energy -357538.435123 kJ/mol
# GULP energy per Si atom -5586.538049 kJ/mol
# Density = 2.013252 g / cm^3
# Si number density = 20.178450 Si / 1000 Ang^3
#
#
#
# Elastic Constant Matrix: (Units=GPa)
#
#
# Indices 1 2 3 4 5 6 
#
# 1 9.9371 6.1388 1.8109 0.0000 0.0000 0.0000
# 2 6.1388 195.7632 85.3274 0.0000 0.0000 0.0000
# 3 1.8109 85.3274 143.9498 0.0000 0.0000 0.0000
# 4 0.0000 0.0000 0.0000 41.0121 0.0000 0.0000
# 5 0.0000 0.0000 0.0000 0.0000 21.0148 0.0000
# 6 0.0000 0.0000 0.0000 0.0000 0.0000 11.3217
#
#
#
# Elastic Compliance Matrix: (Units=1/GPa)
#
#
# Indices 1 2 3 4 5 6 
#
# 1 0.102694 -0.003583 0.000832 0.000000 0.000000 0.000000
# 2 -0.003583 0.007013 -0.004112 0.000000 0.000000 0.000000
# 3 0.000832 -0.004112 0.009374 0.000000 0.000000 0.000000
# 4 0.000000 0.000000 0.000000 0.024383 0.000000 0.000000
# 5 0.000000 0.000000 0.000000 0.000000 0.047586 0.000000
# 6 0.000000 0.000000 0.000000 0.000000 0.000000 0.088326
#
#
# Mechanical properties :
#
#
# Convention : Reuss Voigt Hill
#
# Bulk Modulus (GPa) = 9.49170 59.57824 34.53497
# Shear Modulus (GPa) = 15.23370 31.76125 23.49747
#
# Velocity S-wave (km/s) = 2.75061 3.97169 3.41616
# Velocity P-wave (km/s) = 3.84733 7.11493 5.71945
#
# Compressibility (1/GPa) = 0.10535523
#
# Stress axis : x y z
#
# Youngs Moduli (GPa) = 9.73764 142.59678 106.68137
#
# Poissons Ratio (x) = 0.51091 -0.08875
# Poissons Ratio (y) = 0.03489 0.43865
# Poissons Ratio (z) = -0.00810 0.58633
#
# Static dielectric constant tensor:
#      x y z
#    x 1.729290 0.000000 0.000000 
#    y 0.000000 1.677710 0.000000 
#    z 0.000000 0.000000 1.685470 
# 
# From -- ./inp_files/14933.got.cif
#   From: 2010.05.17/outbox.cif.g08.bks.cpg/sg59_8_cif.got.tgz:14933.got - 2010.06.03 14:40:33.
