data_PCOD9452003
_publ_section_title
;
Structure prediction by ZEFSAII (Michael W. Deem and Ramdas Pophale) SiO2 
 PCOD9452003
Probable space group: P M M N
;
_chemical_formula_sum "Si O2"
_cell_formula_units_Z 48
_cell_length_a 20.895953
_cell_length_b 7.342233
_cell_length_c 12.840878
_cell_angle_alpha 90.000000
_cell_angle_beta 90.000000
_cell_angle_gamma 90.000000
_cell_volume 1970.085456
_symmetry_space_group_name_H-M "P M M N"
_symmetry_group_IT_number 59
_space_group.IT_coordinate_system_code '2'
_symmetry_cell_setting 'orthorhombic'
loop_
_space_group_symop_operation_xyz
x,y,z
1/2-x,1/2-y,z
1/2+x,-y,-z
-x,1/2+y,-z
-x,-y,-z
1/2+x,1/2+y,-z
1/2-x,y,z
x,1/2-y,z
loop_
_atom_site_type_symbol
_atom_site_label
_atom_site_fract_x
_atom_site_fract_y
_atom_site_fract_z
Si Si1 0.319391 0.528006 0.839809
Si Si2 0.867769 0.027694 0.376661
Si Si3 0.648337 0.045477 0.610926
Si Si4 0.992462 0.535645 0.622645
Si Si5 0.576369 0.467578 0.996226
Si Si6 0.819801 0.472758 0.831467
O O1 0.250000 0.471878 0.881502
O O2 0.320808 0.750000 0.841987
O O3 0.323422 0.476131 0.718497
O O4 0.381009 0.467378 0.905562
O O5 0.870094 0.250000 0.384761
O O6 0.851457 0.963831 0.494053
O O7 0.938890 0.971870 0.338584
O O8 0.673958 0.250000 0.598763
O O9 0.679636 0.960636 0.712170
O O10 0.574217 0.054727 0.647761
O O11 0.985764 0.750000 0.643983
O O12 0.000000 0.500000 0.500000
O O13 0.581583 0.250000 0.995440
O O14 0.500000 0.500000 0.000000
O O15 0.618084 0.533061 0.896729
O O16 0.750000 0.518705 0.877315
O O17 0.822579 0.250000 0.827831
#
# Coordination Sequence:
#
# PCOD9452003 Si02
#       6
#     8   8   8   8   8   8
#     4   9  17  30  50  75 102 131 166 210 255 300
#     4   8  15  26  42  69 100 128 161 203 250 296
#     4   9  17  29  47  73 104 134 168 207 254 308
#     4   9  16  27  44  67 100 138 173 211 253 299
#     4  10  21  36  56  79 101 130 171 217 262 308
#     4   9  18  33  53  77 105 137 174 215 258 309
#
# _framework density 24.364426999999999
#
# number of rings (size 3 to 8) (size 9 to 14) (size 15 to 20)
#    0.000    3.000    0.000    2.000    2.333    2.667 
#    0.000    3.333    0.000    3.500    0.000    0.000 
#    0.000    0.000    0.000    0.000    0.000    0.000 
#
# Total GULP energy -267548.360085 kJ/mol
# GULP energy per Si atom -5573.924168 kJ/mol
# Density = 2.430897 g / cm^3
# Si number density = 24.364427 Si / 1000 Ang^3
#
#
#
# Elastic Constant Matrix: (Units=GPa)
#
#
# Indices 1 2 3 4 5 6 
#
# 1 213.0491 3.5669 92.5703 0.0000 0.0000 0.0000
# 2 3.5669 95.9570 5.1783 0.0000 0.0000 0.0000
# 3 92.5703 5.1783 173.7995 0.0000 0.0000 0.0000
# 4 0.0000 0.0000 0.0000 -8.2476 0.0000 0.0000
# 5 0.0000 0.0000 0.0000 0.0000 876.7025 0.0000
# 6 0.0000 0.0000 0.0000 0.0000 0.0000 8.0774
#
#
#
# Elastic Compliance Matrix: (Units=1/GPa)
#
#
# Indices 1 2 3 4 5 6 
#
# 1 0.006107 -0.000052 -0.003251 0.000000 0.000000 0.000000
# 2 -0.000052 0.010439 -0.000284 0.000000 0.000000 0.000000
# 3 -0.003251 -0.000284 0.007494 0.000000 0.000000 0.000000
# 4 0.000000 0.000000 0.000000 -0.121247 0.000000 0.000000
# 5 0.000000 0.000000 0.000000 0.000000 0.001141 0.000000
# 6 0.000000 0.000000 0.000000 0.000000 0.000000 0.123802
#
#
# Mechanical properties :
#
#
# Convention : Reuss Voigt Hill
#
# Bulk Modulus (GPa) = 59.28785 76.15963 67.72374
# Shear Modulus (GPa) = 123.36341 200.73914 162.05128
#
# Velocity S-wave (km/s) = 7.12338 9.08676 8.16430
# Velocity P-wave (km/s) = 9.59392 11.89195 10.80421
#
# Compressibility (1/GPa) = 0.01686686
#
# Stress axis : x y z
#
# Youngs Moduli (GPa) = 163.73685 95.79875 133.44016
#
# Poissons Ratio (x) = 0.00494 0.43387
# Poissons Ratio (y) = 0.00844 0.03784
# Poissons Ratio (z) = 0.53238 0.02716
#
# Static dielectric constant tensor:
#      x y z
#    x 1.980000 0.000000 0.000000 
#    y 0.000000 1.951700 0.000000 
#    z 0.000000 0.000000 1.924900 
# 
# From -- ./inp_files/18587.got.cif
#   From: 2010.05.17/outbox.cif.g08.bks.cpg/sg59_10_cif.got.tgz:18587.got - 2010.06.03 14:40:33.
