data_PCOD9452178
_publ_section_title
;
Structure prediction by ZEFSAII (Michael W. Deem and Ramdas Pophale) SiO2 
 PCOD9452178
Probable space group: P M M N
;
_chemical_formula_sum "Si O2"
_cell_formula_units_Z 64
_cell_length_a 7.866641
_cell_length_b 15.540165
_cell_length_c 24.638005
_cell_angle_alpha 90.000000
_cell_angle_beta 90.000000
_cell_angle_gamma 90.000000
_cell_volume 3011.968988
_symmetry_space_group_name_H-M "P M M N"
_symmetry_group_IT_number 59
_space_group.IT_coordinate_system_code '2'
_symmetry_cell_setting 'orthorhombic'
loop_
_space_group_symop_operation_xyz
x,y,z
1/2-x,1/2-y,z
1/2+x,-y,-z
-x,1/2+y,-z
-x,-y,-z
1/2+x,1/2+y,-z
1/2-x,y,z
x,1/2-y,z
loop_
_atom_site_type_symbol
_atom_site_label
_atom_site_fract_x
_atom_site_fract_y
_atom_site_fract_z
Si Si1 0.449598 0.153164 0.365484
Si Si2 0.554818 0.904280 0.983150
Si Si3 0.040633 0.514893 0.306145
Si Si4 0.953799 0.155097 0.902300
Si Si5 0.552976 0.154292 0.132428
Si Si6 0.054074 0.645427 0.515459
Si Si7 0.458081 0.849663 0.397323
Si Si8 0.050977 0.980084 0.184526
O O1 0.250000 0.160005 0.353257
O O2 0.523693 0.250000 0.360463
O O3 0.519364 0.078177 0.327463
O O4 0.464861 0.123746 0.428257
O O5 0.750000 0.906349 0.965956
O O6 0.531700 0.851188 0.038052
O O7 0.456415 0.867793 0.931590
O O8 0.500000 0.000000 0.000000
O O9 0.250000 0.513688 0.305954
O O10 0.989394 0.588204 0.348802
O O11 0.981257 0.531204 0.244929
O O12 0.750000 0.143406 0.909707
O O13 0.982541 0.250000 0.879047
O O14 0.021743 0.081609 0.862276
O O15 0.750000 0.153977 0.148545
O O16 0.482064 0.250000 0.141208
O O17 0.464762 0.078003 0.165009
O O18 0.250000 0.617959 0.520088
O O19 0.051861 0.750000 0.512236
O O20 0.984269 0.617568 0.456891
O O21 0.250000 0.849568 0.399472
O O22 0.510070 0.750000 0.389494
O O23 0.250000 0.957243 0.187612
#
# Coordination Sequence:
#
# PCOD9452178 Si02
#       8
#     8   8   8   8   8   8   8   8
#     4   9  17  29  45  67  98 133 166 209 263 313
#     4  12  23  37  61  90 119 150 182 221 272 326
#     4   9  18  31  48  72  99 132 177 218 257 310
#     4  10  21  37  57  84 117 149 182 224 273 324
#     4  11  24  41  61  85 114 148 184 227 276 324
#     4   8  14  26  45  69  96 127 165 209 257 312
#     4   8  14  26  46  72 101 130 163 210 263 311
#     4  10  21  37  57  80 108 145 186 229 273 321
#
# _framework density 21.248559
#
# number of rings (size 3 to 8) (size 9 to 14) (size 15 to 20)
#    0.000    2.375    1.250    2.625    0.000    4.250 
#    0.000    4.375    0.000    2.250    0.000    0.000 
#    0.000    0.000    0.000    0.000    0.000    0.000 
#
# Total GULP energy -357229.367085 kJ/mol
# GULP energy per Si atom -5581.708861 kJ/mol
# Density = 2.120020 g / cm^3
# Si number density = 21.248559 Si / 1000 Ang^3
#
#
#
# Elastic Constant Matrix: (Units=GPa)
#
#
# Indices 1 2 3 4 5 6 
#
# 1 26.5986 -3.4443 -8.4478 0.0000 0.0000 0.0000
# 2 -3.4443 53.5753 -10.9384 0.0000 0.0000 0.0000
# 3 -8.4478 -10.9384 53.9193 0.0000 0.0000 0.0000
# 4 0.0000 0.0000 0.0000 -59.1079 0.0000 0.0000
# 5 0.0000 0.0000 0.0000 0.0000 101.9558 0.0000
# 6 0.0000 0.0000 0.0000 0.0000 0.0000 10.6565
#
#
#
# Elastic Compliance Matrix: (Units=1/GPa)
#
#
# Indices 1 2 3 4 5 6 
#
# 1 0.040393 0.004057 0.007152 0.000000 0.000000 0.000000
# 2 0.004057 0.019879 0.004668 0.000000 0.000000 0.000000
# 3 0.007152 0.004668 0.020614 0.000000 0.000000 0.000000
# 4 0.000000 0.000000 0.000000 -0.016918 0.000000 0.000000
# 5 0.000000 0.000000 0.000000 0.000000 0.009808 0.000000
# 6 0.000000 0.000000 0.000000 0.000000 0.000000 0.093839
#
#
# Mechanical properties :
#
#
# Convention : Reuss Voigt Hill
#
# Bulk Modulus (GPa) = 8.87786 9.82578 9.35182
# Shear Modulus (GPa) = 28.83377 21.16246 24.99812
#
# Velocity S-wave (km/s) = 3.68771 3.15929 3.43368
# Velocity P-wave (km/s) = 4.72435 4.23585 4.48675
#
# Compressibility (1/GPa) = 0.11263973
#
# Stress axis : x y z
#
# Youngs Moduli (GPa) = 24.75695 50.30364 48.51119
#
# Poissons Ratio (x) = -0.20408 -0.34693
# Poissons Ratio (y) = -0.10044 -0.22647
# Poissons Ratio (z) = -0.17705 -0.23484
#
# Static dielectric constant tensor:
#      x y z
#    x 1.783160 0.000000 0.000000 
#    y 0.000000 1.784000 0.000000 
#    z 0.000000 0.000000 1.728980 
# 
# From -- ./inp_files/31683.got.cif
#   From: 2010.05.17/outbox.cif.g08.bks.cpg/sg59_16_cif.got.tgz:31683.got - 2010.06.03 14:40:33.
