data_PCOD9452659
_publ_section_title
;
Structure prediction by ZEFSAII (Michael W. Deem and Ramdas Pophale) SiO2 
 PCOD9452659
Probable space group: P M M N
;
_chemical_formula_sum "Si O2"
_cell_formula_units_Z 40
_cell_length_a 24.831077
_cell_length_b 8.474946
_cell_length_c 9.924938
_cell_angle_alpha 90.000000
_cell_angle_beta 90.000000
_cell_angle_gamma 90.000000
_cell_volume 2088.624167
_symmetry_space_group_name_H-M "P M M N"
_symmetry_group_IT_number 59
_space_group.IT_coordinate_system_code '2'
_symmetry_cell_setting 'orthorhombic'
loop_
_space_group_symop_operation_xyz
x,y,z
1/2-x,1/2-y,z
1/2+x,-y,-z
-x,1/2+y,-z
-x,-y,-z
1/2+x,1/2+y,-z
1/2-x,y,z
x,1/2-y,z
loop_
_atom_site_type_symbol
_atom_site_label
_atom_site_fract_x
_atom_site_fract_y
_atom_site_fract_z
Si Si1 0.250000 0.058451 0.778490
Si Si2 0.345078 0.442008 0.978452
Si Si3 0.037399 0.439251 0.881970
Si Si4 0.150431 0.058307 0.290633
Si Si5 0.250000 0.938252 0.470409
Si Si6 0.028759 0.062014 0.367244
O O1 0.250000 0.250000 0.769441
O O2 0.250000 0.995535 0.626041
O O3 0.199538 0.008423 0.870768
O O4 0.343471 0.250000 0.983173
O O5 0.339232 0.492679 0.134775
O O6 0.402495 0.490090 0.919013
O O7 0.036879 0.250000 0.873948
O O8 0.011353 0.510193 0.749894
O O9 0.000000 0.500000 0.000000
O O10 0.151438 0.250000 0.292200
O O11 0.090240 0.006603 0.336946
O O12 0.197147 0.999123 0.390087
O O13 0.250000 0.750000 0.468750
O O14 0.032102 0.250000 0.372955
O O15 0.000000 0.000000 0.500000
#
# Coordination Sequence:
#
# PCOD9452659 Si02
#       6
#     4   8   8   8   4   8
#     4  10  21  40  66  90 114 154 203 254 306 366
#     4   9  19  38  66  92 115 152 208 254 294 362
#     4  11  21  38  62  94 128 163 206 252 307 369
#     4  10  21  43  68  88 117 164 211 248 298 373
#     4  12  27  42  58  90 128 158 199 258 314 360
#     4  11  24  41  63  93 128 167 209 256 310 370
#
# _framework density 19.151364000000001
#
# number of rings (size 3 to 8) (size 9 to 14) (size 15 to 20)
#    0.000    1.600    2.000    2.700    2.800    3.200 
#    0.000    3.000    0.000    0.000    0.000    0.000 
#    0.000    0.000    0.000    0.000    0.000    0.000 
#
# Total GULP energy -223315.576865 kJ/mol
# GULP energy per Si atom -5582.889422 kJ/mol
# Density = 1.910777 g / cm^3
# Si number density = 19.151364 Si / 1000 Ang^3
#
#
#
# Elastic Constant Matrix: (Units=GPa)
#
#
# Indices 1 2 3 4 5 6 
#
# 1 200.4229 33.9096 130.9952 0.0000 0.0000 0.0000
# 2 33.9096 34.6577 33.7759 0.0000 0.0000 0.0000
# 3 130.9952 33.7759 236.9696 0.0000 0.0000 0.0000
# 4 0.0000 0.0000 0.0000 30.7713 0.0000 0.0000
# 5 0.0000 0.0000 0.0000 0.0000 29.4968 0.0000
# 6 0.0000 0.0000 0.0000 0.0000 0.0000 28.6413
#
#
#
# Elastic Compliance Matrix: (Units=1/GPa)
#
#
# Indices 1 2 3 4 5 6 
#
# 1 0.008317 -0.004247 -0.003993 0.000000 0.000000 0.000000
# 2 -0.004247 0.035677 -0.002737 0.000000 0.000000 0.000000
# 3 -0.003993 -0.002737 0.006817 0.000000 0.000000 0.000000
# 4 0.000000 0.000000 0.000000 0.032498 0.000000 0.000000
# 5 0.000000 0.000000 0.000000 0.000000 0.033902 0.000000
# 6 0.000000 0.000000 0.000000 0.000000 0.000000 0.034915
#
#
# Mechanical properties :
#
#
# Convention : Reuss Voigt Hill
#
# Bulk Modulus (GPa) = 34.65302 96.60130 65.62716
# Shear Modulus (GPa) = 27.21847 36.00650 31.61249
#
# Velocity S-wave (km/s) = 3.77401 4.34072 4.06725
# Velocity P-wave (km/s) = 6.09298 8.69902 7.50990
#
# Compressibility (1/GPa) = 0.02885752
#
# Stress axis : x y z
#
# Youngs Moduli (GPa) = 120.22867 28.02951 146.68894
#
# Poissons Ratio (x) = 0.11904 0.58566
# Poissons Ratio (y) = 0.51061 0.40154
# Poissons Ratio (z) = 0.48001 0.07673
#
# Static dielectric constant tensor:
#      x y z
#    x 1.946660 0.000000 0.000000 
#    y 0.000000 1.663620 0.000000 
#    z 0.000000 0.000000 1.611160 
# 
# From -- ./inp_files/12398.got.cif
#   From: 2010.05.17/outbox.cif.g08.bks.cpg/sg59_7_cif.got.tgz:12398.got - 2010.06.03 14:40:33.
