data_PCOD9452206
_publ_section_title
;
Structure prediction by ZEFSAII (Michael W. Deem and Ramdas Pophale) SiO2 
 PCOD9452206
Probable space group: P M M N
;
_chemical_formula_sum "Si O2"
_cell_formula_units_Z 56
_cell_length_a 8.149618
_cell_length_b 14.596277
_cell_length_c 20.995742
_cell_angle_alpha 90.000000
_cell_angle_beta 90.000000
_cell_angle_gamma 90.000000
_cell_volume 2497.529211
_symmetry_space_group_name_H-M "P M M N"
_symmetry_group_IT_number 59
_space_group.IT_coordinate_system_code '2'
_symmetry_cell_setting 'orthorhombic'
loop_
_space_group_symop_operation_xyz
x,y,z
1/2-x,1/2-y,z
1/2+x,-y,-z
-x,1/2+y,-z
-x,-y,-z
1/2+x,1/2+y,-z
1/2-x,y,z
x,1/2-y,z
loop_
_atom_site_type_symbol
_atom_site_label
_atom_site_fract_x
_atom_site_fract_y
_atom_site_fract_z
Si Si1 0.440702 0.954503 0.145972
Si Si2 0.563130 0.643755 0.022649
Si Si3 0.551811 0.601100 0.551284
Si Si4 0.938314 0.898387 0.416439
Si Si5 0.947051 0.653459 0.692054
Si Si6 0.552819 0.051816 0.717338
Si Si7 0.439875 0.854264 0.885003
O O1 0.250000 0.931279 0.138575
O O2 0.529996 0.917457 0.083773
O O3 0.503104 0.914661 0.213300
O O4 0.461059 0.064582 0.147976
O O5 0.750000 0.629985 0.000501
O O6 0.542492 0.750000 0.041332
O O7 0.451996 0.627429 0.961051
O O8 0.750000 0.583191 0.546752
O O9 0.498199 0.642772 0.483442
O O10 0.459948 0.505887 0.565732
O O11 0.529845 0.656201 0.615816
O O12 0.750000 0.871719 0.409836
O O13 0.014386 0.891107 0.346318
O O14 0.750000 0.651910 0.703800
O O15 0.012267 0.750000 0.719462
O O16 0.012017 0.553050 0.710548
O O17 0.750000 0.045825 0.720226
O O18 0.250000 0.859218 0.865589
O O19 0.500909 0.750000 0.875428
#
# Coordination Sequence:
#
# PCOD9452206 Si02
#       7
#     8   8   8   8   8   8   8
#     4  11  22  35  54  79 109 145 182 222 267 318
#     4  10  21  38  60  83 106 134 173 224 276 323
#     4   8  14  24  39  61  85 110 146 191 241 293
#     4   9  15  24  41  62  84 113 150 196 244 288
#     4   8  13  24  43  64  88 120 159 201 241 288
#     4   9  19  32  45  66  95 129 167 203 245 300
#     4  10  21  37  57  82 113 146 178 215 261 314
#
# _framework density 22.422160999999999
#
# number of rings (size 3 to 8) (size 9 to 14) (size 15 to 20)
#    0.000    2.714    0.000    3.000    0.000    4.000 
#    0.000    1.429    0.000    7.714    0.000    2.000 
#    0.000    0.000    0.000    0.000    0.000    0.000 
#
# Total GULP energy -312108.717742 kJ/mol
# GULP energy per Si atom -5573.369960 kJ/mol
# Density = 2.237113 g / cm^3
# Si number density = 22.422161 Si / 1000 Ang^3
#
#
#
# Elastic Constant Matrix: (Units=GPa)
#
#
# Indices 1 2 3 4 5 6 
#
# 1 16.6585 5.5988 -0.0382 0.0000 0.0000 0.0000
# 2 5.5988 27.6774 6.8435 0.0000 0.0000 0.0000
# 3 -0.0382 6.8435 117.5449 0.0000 0.0000 0.0000
# 4 0.0000 0.0000 0.0000 -241.5761 0.0000 0.0000
# 5 0.0000 0.0000 0.0000 0.0000 20.6697 0.0000
# 6 0.0000 0.0000 0.0000 0.0000 0.0000 6.3411
#
#
#
# Elastic Compliance Matrix: (Units=1/GPa)
#
#
# Indices 1 2 3 4 5 6 
#
# 1 0.064481 -0.013239 0.000792 0.000000 0.000000 0.000000
# 2 -0.013239 0.039377 -0.002297 0.000000 0.000000 0.000000
# 3 0.000792 -0.002297 0.008641 0.000000 0.000000 0.000000
# 4 0.000000 0.000000 0.000000 -0.004139 0.000000 0.000000
# 5 0.000000 0.000000 0.000000 0.000000 0.048380 0.000000
# 6 0.000000 0.000000 0.000000 0.000000 0.000000 0.157702
#
#
# Mechanical properties :
#
#
# Convention : Reuss Voigt Hill
#
# Bulk Modulus (GPa) = 12.04676 20.74323 16.39500
# Shear Modulus (GPa) = 13.45531 -32.94795 -9.74632
#
# Velocity S-wave (km/s) = 2.45233 -3.83748 -2.08714
# Velocity P-wave (km/s) = 3.66100 3.21927 1.23272
#
# Compressibility (1/GPa) = 0.08300986
#
# Stress axis : x y z
#
# Youngs Moduli (GPa) = 15.50848 25.39581 115.72246
#
# Poissons Ratio (x) = 0.33623 -0.09162
# Poissons Ratio (y) = 0.20532 0.26579
# Poissons Ratio (z) = -0.01228 0.05833
#
# Static dielectric constant tensor:
#      x y z
#    x 1.775470 0.000000 0.000000 
#    y 0.000000 1.871260 0.000000 
#    z 0.000000 0.000000 1.888520 
# 
# From -- ./inp_files/29121.got.cif
#   From: 2010.05.17/outbox.cif.g08.bks.cpg/sg59_15_cif.got.tgz:29121.got - 2010.06.03 14:40:33.
