data_PCOD9452156
_publ_section_title
;
Structure prediction by ZEFSAII (Michael W. Deem and Ramdas Pophale) SiO2 
 PCOD9452156
Probable space group: P M M N
;
_chemical_formula_sum "Si O2"
_cell_formula_units_Z 64
_cell_length_a 15.531535
_cell_length_b 7.694615
_cell_length_c 24.296047
_cell_angle_alpha 90.000000
_cell_angle_beta 90.000000
_cell_angle_gamma 90.000000
_cell_volume 2903.600707
_symmetry_space_group_name_H-M "P M M N"
_symmetry_group_IT_number 59
_space_group.IT_coordinate_system_code '2'
_symmetry_cell_setting 'orthorhombic'
loop_
_space_group_symop_operation_xyz
x,y,z
1/2-x,1/2-y,z
1/2+x,-y,-z
-x,1/2+y,-z
-x,-y,-z
1/2+x,1/2+y,-z
1/2-x,y,z
x,1/2-y,z
loop_
_atom_site_type_symbol
_atom_site_label
_atom_site_fract_x
_atom_site_fract_y
_atom_site_fract_z
Si Si1 0.156951 0.049305 0.750758
Si Si2 0.486113 0.039302 0.417677
Si Si3 0.654398 0.038325 0.005673
Si Si4 0.023221 0.450699 0.294634
Si Si5 0.850444 0.042050 0.488073
Si Si6 0.154300 0.040234 0.203910
Si Si7 0.121169 0.551809 0.871766
Si Si8 0.561182 0.452077 0.900395
O O1 0.250000 0.977547 0.733913
O O2 0.151941 0.250000 0.733893
O O3 0.074562 0.955859 0.726350
O O4 0.151472 0.041642 0.817091
O O5 0.491034 0.250000 0.416885
O O6 0.473114 0.973358 0.355716
O O7 0.578277 0.977961 0.443077
O O8 0.404272 0.992507 0.455767
O O9 0.750000 0.994695 0.986146
O O10 0.647421 0.250000 0.007423
O O11 0.645069 0.977663 0.068381
O O12 0.586928 0.977190 0.960217
O O13 0.050812 0.250000 0.299821
O O14 0.083937 0.527526 0.247274
O O15 0.750000 0.977578 0.486640
O O16 0.844565 0.250000 0.481460
O O17 0.250000 0.998199 0.223142
O O18 0.146935 0.250000 0.199323
O O19 0.137590 0.966961 0.143206
O O20 0.152201 0.750000 0.868634
O O21 0.018138 0.550101 0.873329
O O22 0.537062 0.250000 0.906017
#
# Coordination Sequence:
#
# PCOD9452156 Si02
#       8
#     8   8   8   8   8   8   8   8
#     4  11  24  40  58  83 115 149 187 236 290 342
#     4   9  19  35  57  86 117 152 196 240 280 327
#     4   9  19  34  52  77 106 137 179 229 280 342
#     4  10  21  38  60  85 115 153 194 237 283 333
#     4   9  18  34  56  84 120 158 193 234 282 330
#     4  10  21  37  56  80 111 147 189 237 287 341
#     4  11  21  36  58  80 106 143 186 231 284 343
#     4  11  21  35  56  80 108 142 182 231 287 345
#
# _framework density 22.041596999999999
#
# number of rings (size 3 to 8) (size 9 to 14) (size 15 to 20)
#    0.000    2.000    1.250    2.250    0.000    4.000 
#    0.000    4.375    0.000    4.500    0.000    0.000 
#    0.000    0.000    0.000    0.000    0.000    0.000 
#
# Total GULP energy -357289.787794 kJ/mol
# GULP energy per Si atom -5582.652934 kJ/mol
# Density = 2.199143 g / cm^3
# Si number density = 22.041597 Si / 1000 Ang^3
#
#
#
# Elastic Constant Matrix: (Units=GPa)
#
#
# Indices 1 2 3 4 5 6 
#
# 1 113.8317 -0.5323 12.9416 0.0000 0.0000 0.0000
# 2 -0.5323 45.1917 -4.5800 0.0000 0.0000 0.0000
# 3 12.9416 -4.5800 91.1384 0.0000 0.0000 0.0000
# 4 0.0000 0.0000 0.0000 10.7650 0.0000 0.0000
# 5 0.0000 0.0000 0.0000 0.0000 28.2607 0.0000
# 6 0.0000 0.0000 0.0000 0.0000 0.0000 16.9366
#
#
#
# Elastic Compliance Matrix: (Units=1/GPa)
#
#
# Indices 1 2 3 4 5 6 
#
# 1 0.008929 -0.000023 -0.001269 0.000000 0.000000 0.000000
# 2 -0.000023 0.022241 0.001121 0.000000 0.000000 0.000000
# 3 -0.001269 0.001121 0.011209 0.000000 0.000000 0.000000
# 4 0.000000 0.000000 0.000000 0.092894 0.000000 0.000000
# 5 0.000000 0.000000 0.000000 0.000000 0.035385 0.000000
# 6 0.000000 0.000000 0.000000 0.000000 0.000000 0.059044
#
#
# Mechanical properties :
#
#
# Convention : Reuss Voigt Hill
#
# Bulk Modulus (GPa) = 23.78902 29.53561 26.66232
# Shear Modulus (GPa) = 20.48706 27.34796 23.91751
#
# Velocity S-wave (km/s) = 3.05203 3.52624 3.29767
# Velocity P-wave (km/s) = 4.82038 5.47797 5.15966
#
# Compressibility (1/GPa) = 0.04203620
#
# Stress axis : x y z
#
# Youngs Moduli (GPa) = 111.99369 44.96138 89.21505
#
# Poissons Ratio (x) = 0.00105 0.11322
# Poissons Ratio (y) = 0.00263 -0.10001
# Poissons Ratio (z) = 0.14213 -0.05040
#
# Static dielectric constant tensor:
#      x y z
#    x 1.834610 0.000000 0.000000 
#    y 0.000000 1.809630 0.000000 
#    z 0.000000 0.000000 1.797130 
# 
# From -- ./inp_files/32251.got.cif
#   From: 2010.05.17/outbox.cif.g08.bks.cpg/sg59_17_cif.got.tgz:32251.got - 2010.06.03 14:40:33.
