data_PCOD9452684
_publ_section_title
;
Structure prediction by ZEFSAII (Michael W. Deem and Ramdas Pophale) SiO2 
 PCOD9452684
Probable space group: P M M N
;
_chemical_formula_sum "Si O2"
_cell_formula_units_Z 32
_cell_length_a 10.841193
_cell_length_b 15.104240
_cell_length_c 8.819392
_cell_angle_alpha 90.000000
_cell_angle_beta 90.000000
_cell_angle_gamma 90.000000
_cell_volume 1444.157633
_symmetry_space_group_name_H-M "P M M N"
_symmetry_group_IT_number 59
_space_group.IT_coordinate_system_code '2'
_symmetry_cell_setting 'orthorhombic'
loop_
_space_group_symop_operation_xyz
x,y,z
1/2-x,1/2-y,z
1/2+x,-y,-z
-x,1/2+y,-z
-x,-y,-z
1/2+x,1/2+y,-z
1/2-x,y,z
x,1/2-y,z
loop_
_atom_site_type_symbol
_atom_site_label
_atom_site_fract_x
_atom_site_fract_y
_atom_site_fract_z
Si Si1 0.250000 0.895725 0.244831
Si Si2 0.488106 0.428699 0.868549
Si Si3 0.979315 0.750000 0.938979
Si Si4 0.465341 0.250000 0.404533
Si Si5 0.388037 0.437167 0.550703
Si Si6 0.250000 0.750000 0.985006
Si Si7 0.750000 0.250000 0.497825
O O1 0.381980 0.938891 0.221166
O O2 0.250000 0.835218 0.392530
O O3 0.250000 0.832338 0.096721
O O4 0.390868 0.439380 0.733990
O O5 0.500000 0.500000 0.000000
O O6 0.462417 0.335822 0.954621
O O7 0.920495 0.750000 0.771769
O O8 0.124283 0.750000 0.897558
O O9 0.417145 0.338458 0.488630
O O10 0.615473 0.250000 0.419654
O O11 0.500000 0.500000 0.500000
O O12 0.250000 0.463748 0.498549
#
# Coordination Sequence:
#
# PCOD9452684 Si02
#       7
#     4   8   4   4   8   2   2
#     4   9  18  36  66 101 132 175 237 295 356 409
#     4  11  23  43  70 100 140 185 238 298 357 426
#     4  10  21  42  65 104 135 187 232 291 348 427
#     4  12  24  45  74 106 149 193 240 297 366 433
#     4  12  29  50  74 108 147 192 244 301 364 436
#     4   7  15  32  60  94 134 162 226 286 332 406
#     4  11  19  38  74 106 140 188 238 302 366 434
#
# _framework density 22.158246999999999
#
# number of rings (size 3 to 8) (size 9 to 14) (size 15 to 20)
#    0.000    1.250    2.500    3.750    5.250    0.000 
#    4.500    2.500    0.000    0.000    0.000    0.000 
#    0.000    0.000    0.000    0.000    0.000    0.000 
#
# Total GULP energy -178566.603953 kJ/mol
# GULP energy per Si atom -5580.206374 kJ/mol
# Density = 2.210781 g / cm^3
# Si number density = 22.158247 Si / 1000 Ang^3
#
#
#
# Elastic Constant Matrix: (Units=GPa)
#
#
# Indices 1 2 3 4 5 6 
#
# 1 141.5708 36.8158 38.1930 0.0000 0.0000 0.0000
# 2 36.8158 142.9227 56.4747 0.0000 0.0000 0.0000
# 3 38.1930 56.4747 156.2626 0.0000 0.0000 0.0000
# 4 0.0000 0.0000 0.0000 22.9942 0.0000 0.0000
# 5 0.0000 0.0000 0.0000 0.0000 13.4031 0.0000
# 6 0.0000 0.0000 0.0000 0.0000 0.0000 24.3595
#
#
#
# Elastic Compliance Matrix: (Units=1/GPa)
#
#
# Indices 1 2 3 4 5 6 
#
# 1 0.007818 -0.001468 -0.001380 0.000000 0.000000 0.000000
# 2 -0.001468 0.008438 -0.002691 0.000000 0.000000 0.000000
# 3 -0.001380 -0.002691 0.007709 0.000000 0.000000 0.000000
# 4 0.000000 0.000000 0.000000 0.043489 0.000000 0.000000
# 5 0.000000 0.000000 0.000000 0.000000 0.074610 0.000000
# 6 0.000000 0.000000 0.000000 0.000000 0.000000 0.041052
#
#
# Mechanical properties :
#
#
# Convention : Reuss Voigt Hill
#
# Bulk Modulus (GPa) = 77.59915 78.19143 77.89529
# Shear Modulus (GPa) = 25.19016 32.76954 28.97985
#
# Velocity S-wave (km/s) = 3.37535 3.84980 3.62036
# Velocity P-wave (km/s) = 7.09134 7.42466 7.25992
#
# Compressibility (1/GPa) = 0.01288674
#
# Stress axis : x y z
#
# Youngs Moduli (GPa) = 127.91322 118.50745 129.71422
#
# Poissons Ratio (x) = 0.17403 0.17901
# Poissons Ratio (y) = 0.18784 0.34903
# Poissons Ratio (z) = 0.17653 0.31887
#
# Static dielectric constant tensor:
#      x y z
#    x 1.886460 0.000000 0.000000 
#    y 0.000000 1.819400 0.000000 
#    z 0.000000 0.000000 1.836630 
# 
# From -- ./inp_files/6898.got.cif
#   From: 2010.05.17/outbox.cif.g08.bks.cpg/sg59_4_cif.got.tgz:6898.got - 2010.06.03 14:40:33.
