data_PCOD9452246
_publ_section_title
;
Structure prediction by ZEFSAII (Michael W. Deem and Ramdas Pophale) SiO2 
 PCOD9452246
Probable space group: P M M N
;
_chemical_formula_sum "Si O2"
_cell_formula_units_Z 40
_cell_length_a 9.063666
_cell_length_b 9.444657
_cell_length_c 26.281109
_cell_angle_alpha 90.000000
_cell_angle_beta 90.000000
_cell_angle_gamma 90.000000
_cell_volume 2249.747464
_symmetry_space_group_name_H-M "P M M N"
_symmetry_group_IT_number 59
_space_group.IT_coordinate_system_code '2'
_symmetry_cell_setting 'orthorhombic'
loop_
_space_group_symop_operation_xyz
x,y,z
1/2-x,1/2-y,z
1/2+x,-y,-z
-x,1/2+y,-z
-x,-y,-z
1/2+x,1/2+y,-z
1/2-x,y,z
x,1/2-y,z
loop_
_atom_site_type_symbol
_atom_site_label
_atom_site_fract_x
_atom_site_fract_y
_atom_site_fract_z
Si Si1 0.074241 0.917959 0.153949
Si Si2 0.573884 0.417458 0.246864
Si Si3 0.927002 0.418641 0.660644
Si Si4 0.923716 0.580764 0.046290
Si Si5 0.573220 0.084163 0.545540
O O1 0.250000 0.939941 0.152178
O O2 0.048049 0.750000 0.163266
O O3 0.001828 0.954288 0.099716
O O4 0.002133 0.008418 0.198639
O O5 0.750000 0.436481 0.244022
O O6 0.541918 0.250000 0.247579
O O7 0.510916 0.492206 0.297213
O O8 0.750000 0.437755 0.666003
O O9 0.955139 0.250000 0.666660
O O10 0.969656 0.460180 0.602914
O O11 0.750000 0.547148 0.048799
O O12 0.938810 0.750000 0.038863
O O13 0.000000 0.500000 0.000000
O O14 0.750000 0.070425 0.542493
O O15 0.536885 0.250000 0.540781
O O16 0.500000 0.000000 0.500000
#
# Coordination Sequence:
#
# PCOD9452246 Si02
#       5
#     8   8   8   8   8
#     4  10  21  38  60  83 107 140 182 224 267 318
#     4  11  24  38  53  79 112 142 175 219 270 320
#     4   9  19  37  58  78 103 139 181 221 264 317
#     4  10  21  37  58  84 113 146 183 222 267 318
#     4   9  19  35  54  78 108 140 176 219 265 315
#
# _framework density 17.779772999999999
#
# number of rings (size 3 to 8) (size 9 to 14) (size 15 to 20)
#    0.000    2.200    0.000    3.600    0.000    9.600 
#    0.000    6.000    0.000    0.000    0.000    0.000 
#    0.000    0.000    0.000    0.000    0.000    0.000 
#
# Total GULP energy -223370.345597 kJ/mol
# GULP energy per Si atom -5584.258640 kJ/mol
# Density = 1.773931 g / cm^3
# Si number density = 17.779773 Si / 1000 Ang^3
#
#
#
# Elastic Constant Matrix: (Units=GPa)
#
#
# Indices 1 2 3 4 5 6 
#
# 1 92.9892 76.0098 103.5412 0.0000 0.0000 0.0000
# 2 76.0098 81.0126 112.4215 0.0000 0.0000 0.0000
# 3 103.5412 112.4215 216.9741 0.0000 0.0000 0.0000
# 4 0.0000 0.0000 0.0000 39.9537 0.0000 0.0000
# 5 0.0000 0.0000 0.0000 0.0000 41.3008 0.0000
# 6 0.0000 0.0000 0.0000 0.0000 0.0000 33.3237
#
#
#
# Elastic Compliance Matrix: (Units=1/GPa)
#
#
# Indices 1 2 3 4 5 6 
#
# 1 0.046271 -0.045455 0.001471 0.000000 0.000000 0.000000
# 2 -0.045455 0.088583 -0.024207 0.000000 0.000000 0.000000
# 3 0.001471 -0.024207 0.016449 0.000000 0.000000 0.000000
# 4 0.000000 0.000000 0.000000 0.025029 0.000000 0.000000
# 5 0.000000 0.000000 0.000000 0.000000 0.024213 0.000000
# 6 0.000000 0.000000 0.000000 0.000000 0.000000 0.030009
#
#
# Mechanical properties :
#
#
# Convention : Reuss Voigt Hill
#
# Bulk Modulus (GPa) = 67.01370 108.32453 87.66912
# Shear Modulus (GPa) = 13.44414 29.51589 21.48001
#
# Velocity S-wave (km/s) = 2.75280 4.07883 3.47957
# Velocity P-wave (km/s) = 6.91930 9.12362 8.09682
#
# Compressibility (1/GPa) = 0.01492232
#
# Stress axis : x y z
#
# Youngs Moduli (GPa) = 21.61168 11.28883 60.79322
#
# Poissons Ratio (x) = 0.51313 -0.08941
# Poissons Ratio (y) = 0.98236 1.47159
# Poissons Ratio (z) = -0.03179 0.27326
#
# Static dielectric constant tensor:
#      x y z
#    x 1.589290 0.000000 0.000000 
#    y 0.000000 1.588010 0.000000 
#    z 0.000000 0.000000 1.583370 
# 
# From -- ./inp_files/31114.got.cif
#   From: 2010.05.17/outbox.cif.g08.bks.cpg/sg59_16_cif.got.tgz:31114.got - 2010.06.03 14:40:33.
