data_PCOD9452023
_publ_section_title
;
Structure prediction by ZEFSAII (Michael W. Deem and Ramdas Pophale) SiO2 
 PCOD9452023
Probable space group: P M M N
;
_chemical_formula_sum "Si O2"
_cell_formula_units_Z 64
_cell_length_a 8.675570
_cell_length_b 25.674167
_cell_length_c 14.754038
_cell_angle_alpha 90.000000
_cell_angle_beta 90.000000
_cell_angle_gamma 90.000000
_cell_volume 3286.285403
_symmetry_space_group_name_H-M "P M M N"
_symmetry_group_IT_number 59
_space_group.IT_coordinate_system_code '2'
_symmetry_cell_setting 'orthorhombic'
loop_
_space_group_symop_operation_xyz
x,y,z
1/2-x,1/2-y,z
1/2+x,-y,-z
-x,1/2+y,-z
-x,-y,-z
1/2+x,1/2+y,-z
1/2-x,y,z
x,1/2-y,z
loop_
_atom_site_type_symbol
_atom_site_label
_atom_site_fract_x
_atom_site_fract_y
_atom_site_fract_z
Si Si1 0.935383 0.103387 0.645613
Si Si2 0.435493 0.693406 0.823163
Si Si3 0.566605 0.089258 0.277966
Si Si4 0.435775 0.189880 0.781629
Si Si5 0.566255 0.556920 0.527287
Si Si6 0.431815 0.163404 0.987170
Si Si7 0.572621 0.487892 0.774214
Si Si8 0.072715 0.554059 0.029916
O O1 0.750000 0.104248 0.640886
O O2 0.982633 0.048928 0.693510
O O3 0.991752 0.150227 0.709525
O O4 0.007160 0.098967 0.546278
O O5 0.250000 0.691420 0.821618
O O6 0.484836 0.750000 0.786438
O O7 0.490506 0.643062 0.766855
O O8 0.487933 0.689780 0.927382
O O9 0.750000 0.092525 0.289651
O O10 0.490779 0.074673 0.373836
O O11 0.526062 0.039780 0.214808
O O12 0.250000 0.182954 0.779882
O O13 0.470746 0.250000 0.759603
O O14 0.485840 0.179394 0.886089
O O15 0.500000 0.500000 0.500000
O O16 0.750000 0.553497 0.525902
O O17 0.250000 0.173700 0.991565
O O18 0.469769 0.102482 0.997833
O O19 0.750000 0.503812 0.757666
O O20 0.572484 0.451107 0.861503
O O21 0.250000 0.560486 0.999197
O O22 0.000000 0.500000 0.000000
#
# Coordination Sequence:
#
# PCOD9452023 Si02
#       8
#     8   8   8   8   8   8   8   8
#     4  11  22  39  62  90 122 157 199 248 300 358
#     4  10  23  43  64  88 121 161 206 255 302 353
#     4  11  23  39  63  92 121 158 202 248 304 366
#     4  10  22  40  61  88 124 164 206 252 301 355
#     4  12  24  40  64  93 124 158 196 245 303 367
#     4  11  22  37  60  89 122 161 207 254 301 358
#     4  10  21  36  56  83 121 158 194 244 301 359
#     4  11  22  36  53  81 120 162 205 250 303 361
#
# _framework density 19.474875999999998
#
# number of rings (size 3 to 8) (size 9 to 14) (size 15 to 20)
#    0.000    1.250    2.500    3.750    0.000    6.000 
#    0.000    0.625    0.000    2.250    0.000    0.000 
#    0.000    0.000    0.000    0.000    0.000    0.000 
#
# Total GULP energy -357576.411830 kJ/mol
# GULP energy per Si atom -5587.131435 kJ/mol
# Density = 1.943055 g / cm^3
# Si number density = 19.474876 Si / 1000 Ang^3
#
#
#
# Elastic Constant Matrix: (Units=GPa)
#
#
# Indices 1 2 3 4 5 6 
#
# 1 44.9659 32.7586 20.3130 0.0000 0.0000 0.0000
# 2 32.7586 135.5764 44.1198 0.0000 0.0000 0.0000
# 3 20.3130 44.1198 80.4210 0.0000 0.0000 0.0000
# 4 0.0000 0.0000 0.0000 17.3426 0.0000 0.0000
# 5 0.0000 0.0000 0.0000 0.0000 31.6774 0.0000
# 6 0.0000 0.0000 0.0000 0.0000 0.0000 19.0194
#
#
#
# Elastic Compliance Matrix: (Units=1/GPa)
#
#
# Indices 1 2 3 4 5 6 
#
# 1 0.028058 -0.005445 -0.004100 0.000000 0.000000 0.000000
# 2 -0.005445 0.010036 -0.004130 0.000000 0.000000 0.000000
# 3 -0.004100 -0.004130 0.015736 0.000000 0.000000 0.000000
# 4 0.000000 0.000000 0.000000 0.057662 0.000000 0.000000
# 5 0.000000 0.000000 0.000000 0.000000 0.031568 0.000000
# 6 0.000000 0.000000 0.000000 0.000000 0.000000 0.052578
#
#
# Mechanical properties :
#
#
# Convention : Reuss Voigt Hill
#
# Bulk Modulus (GPa) = 37.76546 50.59403 44.17974
# Shear Modulus (GPa) = 21.56895 24.52600 23.04747
#
# Velocity S-wave (km/s) = 3.33156 3.55260 3.44386
# Velocity P-wave (km/s) = 5.85090 6.54702 6.20873
#
# Compressibility (1/GPa) = 0.02647922
#
# Stress axis : x y z
#
# Youngs Moduli (GPa) = 35.64024 99.64364 63.54868
#
# Poissons Ratio (x) = 0.54260 0.26052
# Poissons Ratio (y) = 0.19408 0.26247
# Poissons Ratio (z) = 0.14611 0.41156
#
# Static dielectric constant tensor:
#      x y z
#    x 1.667860 0.000000 0.000000 
#    y 0.000000 1.712640 0.000000 
#    z 0.000000 0.000000 1.720290 
# 
# From -- ./inp_files/21426.got.cif
#   From: 2010.05.17/outbox.cif.g08.bks.cpg/sg59_11_cif.got.tgz:21426.got - 2010.06.03 14:40:33.
