data_PCOD9452794
_publ_section_title
;
Structure prediction by ZEFSAII (Michael W. Deem and Ramdas Pophale) SiO2 
 PCOD9452794
Probable space group: P M M N
;
_chemical_formula_sum "Si O2"
_cell_formula_units_Z 48
_cell_length_a 15.029048
_cell_length_b 8.410280
_cell_length_c 20.355961
_cell_angle_alpha 90.000000
_cell_angle_beta 90.000000
_cell_angle_gamma 90.000000
_cell_volume 2572.962973
_symmetry_space_group_name_H-M "P M M N"
_symmetry_group_IT_number 59
_space_group.IT_coordinate_system_code '2'
_symmetry_cell_setting 'orthorhombic'
loop_
_space_group_symop_operation_xyz
x,y,z
1/2-x,1/2-y,z
1/2+x,-y,-z
-x,1/2+y,-z
-x,-y,-z
1/2+x,1/2+y,-z
1/2-x,y,z
x,1/2-y,z
loop_
_atom_site_type_symbol
_atom_site_label
_atom_site_fract_x
_atom_site_fract_y
_atom_site_fract_z
Si Si1 0.510840 0.438426 0.827300
Si Si2 0.058203 0.940872 0.561666
Si Si3 0.355529 0.440098 0.064795
Si Si4 0.250000 0.440588 0.522124
Si Si5 0.250000 0.444179 0.369112
Si Si6 0.559859 0.558658 0.684171
Si Si7 0.648196 0.555858 0.083250
O O1 0.502781 0.250000 0.819270
O O2 0.588446 0.476071 0.879197
O O3 0.531478 0.510753 0.756768
O O4 0.420507 0.499358 0.861889
O O5 0.057862 0.750000 0.560828
O O6 0.009183 0.996224 0.628215
O O7 0.159131 0.999684 0.554836
O O8 0.000000 0.000000 0.500000
O O9 0.250000 0.466918 0.072668
O O10 0.370439 0.250000 0.069423
O O11 0.379390 0.492887 0.990606
O O12 0.250000 0.250000 0.522924
O O13 0.250000 0.492271 0.445508
O O14 0.250000 0.250000 0.368177
O O15 0.159318 0.498217 0.334275
O O16 0.562096 0.750000 0.680878
O O17 0.750000 0.506024 0.094631
O O18 0.647737 0.750000 0.082707
#
# Coordination Sequence:
#
# PCOD9452794 Si02
#       7
#     8   8   8   4   4   8   8
#     4  11  22  34  53  83 115 143 179 232 284 327
#     4  11  22  39  63  90 118 151 193 244 292 341
#     4   9  18  34  57  80 104 144 188 222 270 339
#     4  11  21  39  65  91 117 150 193 240 289 347
#     4   9  18  37  61  83 107 148 189 220 271 335
#     4  10  22  40  59  80 115 155 190 225 273 344
#     4   8  16  34  57  78 104 141 186 230 274 330
#
# _framework density 18.655533999999999
#
# number of rings (size 3 to 8) (size 9 to 14) (size 15 to 20)
#    0.000    2.167    1.667    2.750    1.167    1.667 
#    1.500    0.833    0.000    3.500    0.000    0.000 
#    0.000    0.000    0.000    0.000    0.000    0.000 
#
# Total GULP energy -267966.930394 kJ/mol
# GULP energy per Si atom -5582.644383 kJ/mol
# Density = 1.861307 g / cm^3
# Si number density = 18.655534 Si / 1000 Ang^3
#
#
#
# Elastic Constant Matrix: (Units=GPa)
#
#
# Indices 1 2 3 4 5 6 
#
# 1 143.0557 23.6816 104.8804 0.0000 0.0000 0.0000
# 2 23.6816 16.3747 19.5965 0.0000 0.0000 0.0000
# 3 104.8804 19.5965 173.0073 0.0000 0.0000 0.0000
# 4 0.0000 0.0000 0.0000 24.9289 0.0000 0.0000
# 5 0.0000 0.0000 0.0000 0.0000 -22.4033 0.0000
# 6 0.0000 0.0000 0.0000 0.0000 0.0000 24.4489
#
#
#
# Elastic Compliance Matrix: (Units=1/GPa)
#
#
# Indices 1 2 3 4 5 6 
#
# 1 0.014361 -0.011973 -0.007349 0.000000 0.000000 0.000000
# 2 -0.011973 0.080629 -0.001874 0.000000 0.000000 0.000000
# 3 -0.007349 -0.001874 0.010448 0.000000 0.000000 0.000000
# 4 0.000000 0.000000 0.000000 0.040114 0.000000 0.000000
# 5 0.000000 0.000000 0.000000 0.000000 -0.044636 0.000000
# 6 0.000000 0.000000 0.000000 0.000000 0.000000 0.040902
#
#
# Mechanical properties :
#
#
# Convention : Reuss Voigt Hill
#
# Bulk Modulus (GPa) = 15.86215 69.86165 42.86190
# Shear Modulus (GPa) = 24.36345 17.68017 21.02181
#
# Velocity S-wave (km/s) = 3.61773 3.08184 3.36049
# Velocity P-wave (km/s) = 5.09625 7.08471 6.17110
#
# Compressibility (1/GPa) = 0.06304316
#
# Stress axis : x y z
#
# Youngs Moduli (GPa) = 69.63516 12.40249 95.71392
#
# Poissons Ratio (x) = 0.14850 0.70344
# Poissons Ratio (y) = 0.83376 0.17941
# Poissons Ratio (z) = 0.51178 0.02325
#
# Static dielectric constant tensor:
#      x y z
#    x 1.630430 0.000000 0.000000 
#    y 0.000000 1.470320 0.000000 
#    z 0.000000 0.000000 1.618380 
# 
# From -- ./inp_files/27421.got.cif
#   From: 2010.05.17/outbox.cif.g08.bks.cpg/sg59_14_cif.got.tgz:27421.got - 2010.06.03 14:40:33.
