data_PCOD9452805
_publ_section_title
;
Structure prediction by ZEFSAII (Michael W. Deem and Ramdas Pophale) SiO2 
 PCOD9452805
Probable space group: P M M N
;
_chemical_formula_sum "Si O2"
_cell_formula_units_Z 64
_cell_length_a 9.032339
_cell_length_b 14.870937
_cell_length_c 26.307835
_cell_angle_alpha 90.000000
_cell_angle_beta 90.000000
_cell_angle_gamma 90.000000
_cell_volume 3533.651145
_symmetry_space_group_name_H-M "P M M N"
_symmetry_group_IT_number 59
_space_group.IT_coordinate_system_code '2'
_symmetry_cell_setting 'orthorhombic'
loop_
_space_group_symop_operation_xyz
x,y,z
1/2-x,1/2-y,z
1/2+x,-y,-z
-x,1/2+y,-z
-x,-y,-z
1/2+x,1/2+y,-z
1/2-x,y,z
x,1/2-y,z
loop_
_atom_site_type_symbol
_atom_site_label
_atom_site_fract_x
_atom_site_fract_y
_atom_site_fract_z
Si Si1 0.572313 0.500272 0.444515
Si Si2 0.924638 0.004958 0.175640
Si Si3 0.927675 0.143867 0.629316
Si Si4 0.580179 0.851811 0.895885
Si Si5 0.427396 0.356085 0.371317
Si Si6 0.573741 0.402487 0.001747
Si Si7 0.921451 0.147227 0.886449
Si Si8 0.074689 0.000331 0.284483
O O1 0.500000 0.500000 0.500000
O O2 0.750000 0.500696 0.446958
O O3 0.513315 0.587818 0.413848
O O4 0.514354 0.412276 0.414065
O O5 0.750000 0.015884 0.175214
O O6 0.972871 0.915676 0.145619
O O7 0.985047 0.001737 0.232718
O O8 0.000280 0.084498 0.143864
O O9 0.750000 0.136567 0.620132
O O10 0.964652 0.250000 0.631808
O O11 0.957366 0.087864 0.681104
O O12 0.750000 0.881644 0.903221
O O13 0.579905 0.750000 0.876971
O O14 0.498971 0.855006 0.950082
O O15 0.250000 0.363371 0.381054
O O16 0.464400 0.250000 0.368748
O O17 0.455575 0.411886 0.319394
O O18 0.750000 0.408070 0.009157
O O19 0.500000 0.500000 0.000000
O O20 0.547069 0.359057 0.946684
O O21 0.750000 0.117830 0.879523
O O22 0.933377 0.250000 0.870165
O O23 0.250000 0.999660 0.272963
#
# Coordination Sequence:
#
# PCOD9452805 Si02
#       8
#     8   8   8   8   8   8   8   8
#     4  11  22  36  56  85 123 162 198 239 286 335
#     4  12  25  39  58  85 117 150 186 237 291 340
#     4   9  19  38  63  88 114 150 196 241 287 341
#     4  11  24  41  61  84 112 149 191 234 283 341
#     4   9  19  38  63  88 114 149 194 240 288 342
#     4  11  21  36  61  88 115 148 184 225 280 341
#     4  10  22  40  61  83 111 149 189 228 276 339
#     4   9  19  37  60  85 115 150 189 234 286 347
#
# _framework density 18.111578999999999
#
# number of rings (size 3 to 8) (size 9 to 14) (size 15 to 20)
#    0.000    1.750    1.250    4.125    0.000    6.250 
#    0.000    2.500    0.000    0.000    0.000    0.000 
#    0.000    0.000    0.000    0.000    0.000    0.000 
#
# Total GULP energy -357404.947754 kJ/mol
# GULP energy per Si atom -5584.452309 kJ/mol
# Density = 1.807036 g / cm^3
# Si number density = 18.111579 Si / 1000 Ang^3
#
#
#
# Elastic Constant Matrix: (Units=GPa)
#
#
# Indices 1 2 3 4 5 6 
#
# 1 120.8923 68.1736 95.4547 0.0000 0.0000 0.0000
# 2 68.1736 144.8477 62.1070 0.0000 0.0000 0.0000
# 3 95.4547 62.1070 134.3424 0.0000 0.0000 0.0000
# 4 0.0000 0.0000 0.0000 20.9708 0.0000 0.0000
# 5 0.0000 0.0000 0.0000 0.0000 34.8158 0.0000
# 6 0.0000 0.0000 0.0000 0.0000 0.0000 16.6187
#
#
#
# Elastic Compliance Matrix: (Units=1/GPa)
#
#
# Indices 1 2 3 4 5 6 
#
# 1 0.020794 -0.004305 -0.012785 0.000000 0.000000 0.000000
# 2 -0.004305 0.009502 -0.001334 0.000000 0.000000 0.000000
# 3 -0.012785 -0.001334 0.017144 0.000000 0.000000 0.000000
# 4 0.000000 0.000000 0.000000 0.047685 0.000000 0.000000
# 5 0.000000 0.000000 0.000000 0.000000 0.028723 0.000000
# 6 0.000000 0.000000 0.000000 0.000000 0.000000 0.060173
#
#
# Mechanical properties :
#
#
# Convention : Reuss Voigt Hill
#
# Bulk Modulus (GPa) = 94.40152 94.61702 94.50927
# Shear Modulus (GPa) = 22.28166 26.10420 24.19293
#
# Velocity S-wave (km/s) = 3.51129 3.80056 3.65879
# Velocity P-wave (km/s) = 8.28699 8.46248 8.37520
#
# Compressibility (1/GPa) = 0.01059305
#
# Stress axis : x y z
#
# Youngs Moduli (GPa) = 48.09042 105.24125 58.32875
#
# Poissons Ratio (x) = 0.45308 0.74571
# Poissons Ratio (y) = 0.20704 0.07780
# Poissons Ratio (z) = 0.61482 0.14037
#
# Static dielectric constant tensor:
#      x y z
#    x 1.605940 0.000000 0.000000 
#    y 0.000000 1.640730 0.000000 
#    z 0.000000 0.000000 1.603340 
# 
# From -- ./inp_files/31648.got.cif
#   From: 2010.05.17/outbox.cif.g08.bks.cpg/sg59_16_cif.got.tgz:31648.got - 2010.06.03 14:40:33.
