data_PCOD9452638
_publ_section_title
;
Structure prediction by ZEFSAII (Michael W. Deem and Ramdas Pophale) SiO2 
 PCOD9452638
Probable space group: P M M N
;
_chemical_formula_sum "Si O2"
_cell_formula_units_Z 58
_cell_length_a 7.630008
_cell_length_b 27.166201
_cell_length_c 12.948165
_cell_angle_alpha 90.000000
_cell_angle_beta 90.000000
_cell_angle_gamma 90.000000
_cell_volume 2683.874030
_symmetry_space_group_name_H-M "P M M N"
_symmetry_group_IT_number 59
_space_group.IT_coordinate_system_code '2'
_symmetry_cell_setting 'orthorhombic'
loop_
_space_group_symop_operation_xyz
x,y,z
1/2-x,1/2-y,z
1/2+x,-y,-z
-x,1/2+y,-z
-x,-y,-z
1/2+x,1/2+y,-z
1/2-x,y,z
x,1/2-y,z
loop_
_atom_site_type_symbol
_atom_site_label
_atom_site_fract_x
_atom_site_fract_y
_atom_site_fract_z
Si Si1 0.547463 0.605069 0.615284
Si Si2 0.955874 0.836501 0.817833
Si Si3 0.537343 0.130844 0.960059
Si Si4 0.049772 0.497725 0.669050
Si Si5 0.458070 0.975603 0.108895
Si Si6 0.538353 0.610715 0.390005
Si Si7 0.460169 0.804694 0.224853
Si Si8 0.250000 0.750000 0.829703
O O1 0.750000 0.619326 0.610899
O O2 0.483307 0.630491 0.719992
O O3 0.537998 0.546001 0.622875
O O4 0.469642 0.621174 0.505473
O O5 0.750000 0.821758 0.803878
O O6 0.094345 0.792660 0.829450
O O7 0.965016 0.866599 0.924994
O O8 0.750000 0.130907 0.966840
O O9 0.484874 0.081042 0.901458
O O10 0.480099 0.175904 0.887299
O O11 0.250000 0.499139 0.632840
O O12 0.974279 0.443796 0.642837
O O13 0.043901 0.501139 0.793085
O O14 0.250000 0.977176 0.125968
O O15 0.500000 0.000000 0.000000
O O16 0.750000 0.607326 0.392571
O O17 0.497229 0.653861 0.310002
O O18 0.250000 0.801747 0.218263
O O19 0.527794 0.750000 0.248952
#
# Coordination Sequence:
#
# PCOD9452638 Si02
#       8
#     8   8   8   8   8   8   8   2
#     4  10  23  43  65  92 130 170 220 274 329 400
#     4  11  25  44  70 101 131 179 226 275 343 405
#     4  10  21  39  64  91 131 174 217 276 331 389
#     4  11  22  36  62  95 129 170 217 266 332 402
#     4  11  22  36  58  89 131 176 213 262 328 392
#     4  10  22  42  63  92 130 170 215 273 330 397
#     4  10  22  40  64  93 125 166 215 270 331 393
#     4  12  26  48  72  94 142 172 230 292 330 396
#
# _framework density 21.610552999999999
#
# number of rings (size 3 to 8) (size 9 to 14) (size 15 to 20)
#    0.000    1.517    2.069    2.276    1.931    5.241 
#    1.241    0.000    0.000    0.000    0.000    0.000 
#    0.000    0.000    0.000    0.000    0.000    0.000 
#
# Total GULP energy -323489.812757 kJ/mol
# GULP energy per Si atom -5577.410565 kJ/mol
# Density = 2.156137 g / cm^3
# Si number density = 21.610553 Si / 1000 Ang^3
#
#
#
# Elastic Constant Matrix: (Units=GPa)
#
#
# Indices 1 2 3 4 5 6 
#
# 1 71.4332 -2.3675 -8.7480 0.0000 0.0000 0.0000
# 2 -2.3675 43.6875 4.2586 0.0000 0.0000 0.0000
# 3 -8.7480 4.2586 119.5411 0.0000 0.0000 0.0000
# 4 0.0000 0.0000 0.0000 1.7429 0.0000 0.0000
# 5 0.0000 0.0000 0.0000 0.0000 -42.8023 0.0000
# 6 0.0000 0.0000 0.0000 0.0000 0.0000 29.1554
#
#
#
# Elastic Compliance Matrix: (Units=1/GPa)
#
#
# Indices 1 2 3 4 5 6 
#
# 1 0.014145 0.000668 0.001011 0.000000 0.000000 0.000000
# 2 0.000668 0.023001 -0.000771 0.000000 0.000000 0.000000
# 3 0.001011 -0.000771 0.008467 0.000000 0.000000 0.000000
# 4 0.000000 0.000000 0.000000 0.573755 0.000000 0.000000
# 5 0.000000 0.000000 0.000000 0.000000 -0.023363 0.000000
# 6 0.000000 0.000000 0.000000 0.000000 0.000000 0.034299
#
#
# Mechanical properties :
#
#
# Convention : Reuss Voigt Hill
#
# Bulk Modulus (GPa) = 21.08346 24.54979 22.81663
# Shear Modulus (GPa) = 7.76040 13.72045 10.74042
#
# Velocity S-wave (km/s) = 1.89706 2.52245 2.23177
# Velocity P-wave (km/s) = 3.81781 4.45740 4.14995
#
# Compressibility (1/GPa) = 0.04743054
#
# Stress axis : x y z
#
# Youngs Moduli (GPa) = 70.69592 43.47611 118.10867
#
# Poissons Ratio (x) = -0.02904 -0.11945
# Poissons Ratio (y) = -0.04722 0.09101
# Poissons Ratio (z) = -0.07150 0.03350
#
# Static dielectric constant tensor:
#      x y z
#    x 1.811580 0.000000 0.000000 
#    y 0.000000 1.942440 0.000000 
#    z 0.000000 0.000000 1.799090 
# 
# From -- ./inp_files/14657.got.cif
#   From: 2010.05.17/outbox.cif.g08.bks.cpg/sg59_8_cif.got.tgz:14657.got - 2010.06.03 14:40:33.
