data_PCOD9452734
_publ_section_title
;
Structure prediction by ZEFSAII (Michael W. Deem and Ramdas Pophale) SiO2 
 PCOD9452734
Probable space group: P M M N
;
_chemical_formula_sum "Si O2"
_cell_formula_units_Z 60
_cell_length_a 19.280389
_cell_length_b 21.834498
_cell_length_c 7.017168
_cell_angle_alpha 90.000000
_cell_angle_beta 90.000000
_cell_angle_gamma 90.000000
_cell_volume 2954.070649
_symmetry_space_group_name_H-M "P M M N"
_symmetry_group_IT_number 59
_space_group.IT_coordinate_system_code '2'
_symmetry_cell_setting 'orthorhombic'
loop_
_space_group_symop_operation_xyz
x,y,z
1/2-x,1/2-y,z
1/2+x,-y,-z
-x,1/2+y,-z
-x,-y,-z
1/2+x,1/2+y,-z
1/2-x,y,z
x,1/2-y,z
loop_
_atom_site_type_symbol
_atom_site_label
_atom_site_fract_x
_atom_site_fract_y
_atom_site_fract_z
Si Si1 0.582854 0.505884 0.495281
Si Si2 0.750000 0.862538 0.155025
Si Si3 0.623409 0.854663 0.457616
Si Si4 0.332076 0.817895 0.530429
Si Si5 0.119238 0.903270 0.202804
Si Si6 0.831614 0.070800 0.210513
Si Si7 0.861489 0.681576 0.883355
Si Si8 0.511032 0.819344 0.150003
O O1 0.500000 0.500000 0.500000
O O2 0.603785 0.576006 0.512948
O O3 0.610684 0.462210 0.662963
O O4 0.619555 0.480617 0.303124
O O5 0.689081 0.854852 0.318293
O O6 0.689543 0.864802 0.987408
O O7 0.638186 0.821964 0.656970
O O8 0.559530 0.826794 0.336840
O O9 0.250000 0.812482 0.558263
O O10 0.363267 0.750000 0.540407
O O11 0.344402 0.850994 0.329745
O O12 0.355798 0.865606 0.690993
O O13 0.045866 0.872342 0.150918
O O14 0.159102 0.921867 0.013312
O O15 0.750000 0.059296 0.257017
O O16 0.837130 0.750000 0.945924
O O17 0.938149 0.673829 0.969285
O O18 0.481829 0.750000 0.147422
#
# Coordination Sequence:
#
# PCOD9452734 Si02
#       8
#     8   4   8   8   8   8   8   8
#     4  11  25  44  65  92 126 171 226 276 325 392
#     4  10  23  40  62  94 126 164 209 270 314 396
#     4  11  23  43  65  90 131 169 218 262 333 378
#     4   9  19  37  61  90 126 163 208 259 315 389
#     4  11  22  39  65  91 126 169 214 264 324 381
#     4  10  24  43  64  95 132 172 216 272 334 384
#     4  10  22  39  63  94 126 164 211 262 329 398
#     4  10  22  38  60  94 129 160 207 265 318 393
#
# _framework density 20.310956999999998
#
# number of rings (size 3 to 8) (size 9 to 14) (size 15 to 20)
#    0.000    1.733    1.333    1.800    2.800    5.867 
#    0.000    2.667    0.000    0.000    0.000    0.000 
#    0.000    0.000    0.000    0.000    0.000    0.000 
#
# Total GULP energy -334049.230115 kJ/mol
# GULP energy per Si atom -5567.487169 kJ/mol
# Density = 2.026473 g / cm^3
# Si number density = 20.310957 Si / 1000 Ang^3
#
#
#
# Elastic Constant Matrix: (Units=GPa)
#
#
# Indices 1 2 3 4 5 6 
#
# 1 34.2042 -1.8908 4.8138 0.0000 0.0000 0.0000
# 2 -1.8908 74.6084 1.5476 0.0000 0.0000 0.0000
# 3 4.8138 1.5476 96.8568 0.0000 0.0000 0.0000
# 4 0.0000 0.0000 0.0000 -55.2075 0.0000 0.0000
# 5 0.0000 0.0000 0.0000 0.0000 12.8840 0.0000
# 6 0.0000 0.0000 0.0000 0.0000 0.0000 8.5827
#
#
#
# Elastic Compliance Matrix: (Units=1/GPa)
#
#
# Indices 1 2 3 4 5 6 
#
# 1 0.029487 0.000778 -0.001478 0.000000 0.000000 0.000000
# 2 0.000778 0.013428 -0.000253 0.000000 0.000000 0.000000
# 3 -0.001478 -0.000253 0.010402 0.000000 0.000000 0.000000
# 4 0.000000 0.000000 0.000000 -0.018113 0.000000 0.000000
# 5 0.000000 0.000000 0.000000 0.000000 0.077616 0.000000
# 6 0.000000 0.000000 0.000000 0.000000 0.000000 0.116514
#
#
# Mechanical properties :
#
#
# Convention : Reuss Voigt Hill
#
# Bulk Modulus (GPa) = 19.45106 23.84561 21.64834
# Shear Modulus (GPa) = 20.13070 6.66509 13.39789
#
# Velocity S-wave (km/s) = 3.15163 1.81346 2.57113
# Velocity P-wave (km/s) = 4.77924 4.01878 4.41541
#
# Compressibility (1/GPa) = 0.05141107
#
# Stress axis : x y z
#
# Youngs Moduli (GPa) = 33.91303 74.46962 96.13513
#
# Poissons Ratio (x) = -0.05794 0.14208
# Poissons Ratio (y) = -0.02638 0.02434
# Poissons Ratio (z) = 0.05012 0.01886
#
# Static dielectric constant tensor:
#      x y z
#    x 1.717720 0.000000 0.000000 
#    y 0.000000 1.845820 0.000000 
#    z 0.000000 0.000000 1.695590 
# 
# From -- ./inp_files/3486.got.cif
#   From: 2010.05.17/outbox.cif.g08.bks.cpg/sg59_2_cif.got.tgz:3486.got - 2010.06.03 14:40:33.
