data_PCOD9452709
_publ_section_title
;
Structure prediction by ZEFSAII (Michael W. Deem and Ramdas Pophale) SiO2 
 PCOD9452709
Probable space group: P M M N
;
_chemical_formula_sum "Si O2"
_cell_formula_units_Z 48
_cell_length_a 17.714314
_cell_length_b 15.772726
_cell_length_c 9.163496
_cell_angle_alpha 90.000000
_cell_angle_beta 90.000000
_cell_angle_gamma 90.000000
_cell_volume 2560.308465
_symmetry_space_group_name_H-M "P M M N"
_symmetry_group_IT_number 59
_space_group.IT_coordinate_system_code '2'
_symmetry_cell_setting 'orthorhombic'
loop_
_space_group_symop_operation_xyz
x,y,z
1/2-x,1/2-y,z
1/2+x,-y,-z
-x,1/2+y,-z
-x,-y,-z
1/2+x,1/2+y,-z
1/2-x,y,z
x,1/2-y,z
loop_
_atom_site_type_symbol
_atom_site_label
_atom_site_fract_x
_atom_site_fract_y
_atom_site_fract_z
Si Si1 0.837200 0.515882 0.856509
Si Si2 0.558347 0.397689 0.053166
Si Si3 0.099058 0.568461 0.416425
Si Si4 0.896963 0.847884 0.063977
Si Si5 0.159979 0.750000 0.311129
Si Si6 0.839194 0.250000 0.041013
Si Si7 0.936887 0.525639 0.302257
O O1 0.750000 0.492197 0.879271
O O2 0.858803 0.498413 0.689750
O O3 0.893017 0.452882 0.941374
O O4 0.852645 0.606561 0.931457
O O5 0.533000 0.459733 0.181122
O O6 0.485696 0.355908 0.979284
O O7 0.618037 0.329579 0.108187
O O8 0.128727 0.663051 0.382030
O O9 0.106332 0.530493 0.578340
O O10 0.009718 0.567622 0.377675
O O11 0.876958 0.750000 0.083621
O O12 0.889929 0.904927 0.210296
O O13 0.250000 0.750000 0.326776
O O14 0.144722 0.750000 0.135255
O O15 0.750000 0.250000 0.061173
#
# Coordination Sequence:
#
# PCOD9452709 Si02
#       7
#     8   8   8   8   4   4   8
#     4  11  21  37  60  85 118 156 199 247 297 355
#     4  11  19  37  59  90 119 153 200 246 298 356
#     4  11  21  38  57  89 123 159 196 240 296 365
#     4  11  21  39  64  89 115 155 208 257 297 347
#     4  11  22  37  59  89 123 159 192 234 301 374
#     4  11  20  31  59  93 122 155 196 248 300 360
#     4  10  22  37  59  85 123 156 200 246 295 355
#
# _framework density 18.747741999999999
#
# number of rings (size 3 to 8) (size 9 to 14) (size 15 to 20)
#    0.000    1.167    5.833    2.000    1.167    1.000 
#    0.000   10.000    0.000    0.000    0.000    0.000 
#    0.000    0.000    0.000    0.000    0.000    0.000 
#
# Total GULP energy -267817.825230 kJ/mol
# GULP energy per Si atom -5579.538026 kJ/mol
# Density = 1.870507 g / cm^3
# Si number density = 18.747742 Si / 1000 Ang^3
#
#
#
# Elastic Constant Matrix: (Units=GPa)
#
#
# Indices 1 2 3 4 5 6 
#
# 1 63.3463 10.5458 14.7446 0.0000 0.0000 0.0000
# 2 10.5458 117.7562 29.2991 0.0000 0.0000 0.0000
# 3 14.7446 29.2991 63.0058 0.0000 0.0000 0.0000
# 4 0.0000 0.0000 0.0000 16.6522 0.0000 0.0000
# 5 0.0000 0.0000 0.0000 0.0000 16.8213 0.0000
# 6 0.0000 0.0000 0.0000 0.0000 0.0000 11.3809
#
#
#
# Elastic Compliance Matrix: (Units=1/GPa)
#
#
# Indices 1 2 3 4 5 6 
#
# 1 0.016732 -0.000593 -0.003640 0.000000 0.000000 0.000000
# 2 -0.000593 0.009624 -0.004337 0.000000 0.000000 0.000000
# 3 -0.003640 -0.004337 0.018740 0.000000 0.000000 0.000000
# 4 0.000000 0.000000 0.000000 0.060052 0.000000 0.000000
# 5 0.000000 0.000000 0.000000 0.000000 0.059449 0.000000
# 6 0.000000 0.000000 0.000000 0.000000 0.000000 0.087866
#
#
# Mechanical properties :
#
#
# Convention : Reuss Voigt Hill
#
# Bulk Modulus (GPa) = 35.76873 39.25415 37.51144
# Shear Modulus (GPa) = 17.92618 21.60547 19.76582
#
# Velocity S-wave (km/s) = 3.09557 3.39843 3.25053
# Velocity P-wave (km/s) = 5.64775 6.03180 5.84293
#
# Compressibility (1/GPa) = 0.02795738
#
# Stress axis : x y z
#
# Youngs Moduli (GPa) = 59.76508 103.90423 53.36159
#
# Poissons Ratio (x) = 0.06159 0.19424
# Poissons Ratio (y) = 0.03543 0.23142
# Poissons Ratio (z) = 0.21755 0.45061
#
# Static dielectric constant tensor:
#      x y z
#    x 1.646030 0.000000 0.000000 
#    y 0.000000 1.692470 0.000000 
#    z 0.000000 0.000000 1.674030 
# 
# From -- ./inp_files/10276.got.cif
#   From: 2010.05.17/outbox.cif.g08.bks.cpg/sg59_6_cif.got.tgz:10276.got - 2010.06.03 14:40:33.
