data_PCOD9452086
_publ_section_title
;
Structure prediction by ZEFSAII (Michael W. Deem and Ramdas Pophale) SiO2 
 PCOD9452086
Probable space group: P M M N
;
_chemical_formula_sum "Si O2"
_cell_formula_units_Z 48
_cell_length_a 10.282832
_cell_length_b 8.447912
_cell_length_c 30.258922
_cell_angle_alpha 90.000000
_cell_angle_beta 90.000000
_cell_angle_gamma 90.000000
_cell_volume 2628.545951
_symmetry_space_group_name_H-M "P M M N"
_symmetry_group_IT_number 59
_space_group.IT_coordinate_system_code '2'
_symmetry_cell_setting 'orthorhombic'
loop_
_space_group_symop_operation_xyz
x,y,z
1/2-x,1/2-y,z
1/2+x,-y,-z
-x,1/2+y,-z
-x,-y,-z
1/2+x,1/2+y,-z
1/2-x,y,z
x,1/2-y,z
loop_
_atom_site_type_symbol
_atom_site_label
_atom_site_fract_x
_atom_site_fract_y
_atom_site_fract_z
Si Si1 0.398576 0.060339 0.771287
Si Si2 0.407703 0.931989 0.865579
Si Si3 0.099125 0.941881 0.963025
Si Si4 0.025040 0.440098 0.398331
Si Si5 0.250000 0.940150 0.461833
Si Si6 0.602722 0.441549 0.698413
Si Si7 0.250000 0.942848 0.563813
O O1 0.250000 0.999664 0.765599
O O2 0.393070 0.250000 0.767497
O O3 0.497488 0.000490 0.734110
O O4 0.444898 0.020066 0.820821
O O5 0.250000 0.932018 0.866652
O O6 0.451043 0.750000 0.862102
O O7 0.444709 0.996469 0.913859
O O8 0.250000 0.991349 0.970679
O O9 0.099233 0.750000 0.961921
O O10 0.000000 0.000000 0.000000
O O11 0.028301 0.250000 0.397320
O O12 0.124943 0.498783 0.435422
O O13 0.066612 0.503584 0.350657
O O14 0.880510 0.494019 0.411511
O O15 0.250000 0.750000 0.461123
O O16 0.250000 0.993990 0.512705
O O17 0.750000 0.493064 0.708878
O O18 0.601137 0.250000 0.698971
O O19 0.250000 0.750000 0.563520
#
# Coordination Sequence:
#
# PCOD9452086 Si02
#       7
#     8   8   8   8   4   8   4
#     4   9  18  32  52  77 101 129 172 220 260 308
#     4   8  15  30  50  72 100 133 169 213 265 315
#     4   9  18  32  50  74 105 140 179 221 265 316
#     4  11  22  38  58  82 110 140 177 219 260 309
#     4  11  21  39  61  81 109 145 177 211 262 317
#     4  10  21  37  54  74 106 142 173 208 261 318
#     4   9  22  39  57  83 113 139 173 221 264 305
#
# _framework density 18.261047000000001
#
# number of rings (size 3 to 8) (size 9 to 14) (size 15 to 20)
#    0.000    2.500    0.833    2.250    1.167    1.667 
#    0.000    6.250    0.000    3.000    0.000    0.000 
#    0.000    0.000    0.000    0.000    0.000    0.000 
#
# Total GULP energy -267670.520102 kJ/mol
# GULP energy per Si atom -5576.469169 kJ/mol
# Density = 1.821948 g / cm^3
# Si number density = 18.261047 Si / 1000 Ang^3
#
#
#
# Elastic Constant Matrix: (Units=GPa)
#
#
# Indices 1 2 3 4 5 6 
#
# 1 123.0537 18.3118 69.8023 0.0000 0.0000 0.0000
# 2 18.3118 7.2327 14.7184 0.0000 0.0000 0.0000
# 3 69.8023 14.7184 132.8905 0.0000 0.0000 0.0000
# 4 0.0000 0.0000 0.0000 26.1869 0.0000 0.0000
# 5 0.0000 0.0000 0.0000 0.0000 36.9054 0.0000
# 6 0.0000 0.0000 0.0000 0.0000 0.0000 4.6016
#
#
#
# Elastic Compliance Matrix: (Units=1/GPa)
#
#
# Indices 1 2 3 4 5 6 
#
# 1 0.015059 -0.028440 -0.004760 0.000000 0.000000 0.000000
# 2 -0.028440 0.232202 -0.010779 0.000000 0.000000 0.000000
# 3 -0.004760 -0.010779 0.011219 0.000000 0.000000 0.000000
# 4 0.000000 0.000000 0.000000 0.038187 0.000000 0.000000
# 5 0.000000 0.000000 0.000000 0.000000 0.027096 0.000000
# 6 0.000000 0.000000 0.000000 0.000000 0.000000 0.217313
#
#
# Mechanical properties :
#
#
# Convention : Reuss Voigt Hill
#
# Bulk Modulus (GPa) = 5.86435 52.09354 28.97895
# Shear Modulus (GPa) = 7.28995 24.22841 15.75918
#
# Velocity S-wave (km/s) = 2.00019 3.64645 2.94086
# Velocity P-wave (km/s) = 2.92450 6.80572 5.23787
#
# Compressibility (1/GPa) = 0.17052175
#
# Stress axis : x y z
#
# Youngs Moduli (GPa) = 66.40648 4.30659 89.13385
#
# Poissons Ratio (x) = 0.12248 0.42427
# Poissons Ratio (y) = 1.88858 0.96081
# Poissons Ratio (z) = 0.31609 0.04642
#
# Static dielectric constant tensor:
#      x y z
#    x 1.626250 0.000000 0.000000 
#    y 0.000000 1.634040 0.000000 
#    z 0.000000 0.000000 1.615860 
# 
# From -- ./inp_files/32978.got.cif
#   From: 2010.05.17/outbox.cif.g08.bks.cpg/sg59_17_cif.got.tgz:32978.got - 2010.06.03 14:40:33.
