data_PCOD9452013
_publ_section_title
;
Structure prediction by ZEFSAII (Michael W. Deem and Ramdas Pophale) SiO2 
 PCOD9452013
Probable space group: P M M N
;
_chemical_formula_sum "Si O2"
_cell_formula_units_Z 56
_cell_length_a 8.629720
_cell_length_b 23.028812
_cell_length_c 14.844963
_cell_angle_alpha 90.000000
_cell_angle_beta 90.000000
_cell_angle_gamma 90.000000
_cell_volume 2950.172148
_symmetry_space_group_name_H-M "P M M N"
_symmetry_group_IT_number 59
_space_group.IT_coordinate_system_code '2'
_symmetry_cell_setting 'orthorhombic'
loop_
_space_group_symop_operation_xyz
x,y,z
1/2-x,1/2-y,z
1/2+x,-y,-z
-x,1/2+y,-z
-x,-y,-z
1/2+x,1/2+y,-z
1/2-x,y,z
x,1/2-y,z
loop_
_atom_site_type_symbol
_atom_site_label
_atom_site_fract_x
_atom_site_fract_y
_atom_site_fract_z
Si Si1 0.436181 0.097657 0.346535
Si Si2 0.932774 0.026932 0.089711
Si Si3 0.564197 0.750000 0.174514
Si Si4 0.567353 0.524959 0.284864
Si Si5 0.559758 0.750000 0.965687
Si Si6 0.936795 0.185283 0.490271
Si Si7 0.564965 0.153043 0.693362
Si Si8 0.434039 0.144645 0.157280
O O1 0.250000 0.094348 0.344635
O O2 0.491115 0.133143 0.433108
O O3 0.492410 0.135039 0.259253
O O4 0.500295 0.032159 0.335057
O O5 0.750000 0.039279 0.080999
O O6 0.027326 0.084830 0.109147
O O7 0.952422 0.987207 0.178137
O O8 0.000000 0.000000 0.000000
O O9 0.750000 0.750000 0.174377
O O10 0.507316 0.693126 0.228694
O O11 0.510394 0.750000 0.070026
O O12 0.750000 0.528692 0.304523
O O13 0.488154 0.586165 0.305412
O O14 0.750000 0.750000 0.967949
O O15 0.505883 0.695290 0.906682
O O16 0.750000 0.181847 0.483083
O O17 0.985362 0.250000 0.459111
O O18 0.977264 0.178517 0.595397
O O19 0.750000 0.155948 0.702472
O O20 0.250000 0.153397 0.164824
#
# Coordination Sequence:
#
# PCOD9452013 Si02
#       8
#     8   8   4   8   4   8   8   8
#     4  10  21  37  62  93 121 152 196 246 295 351
#     4  10  21  36  56  82 114 151 195 240 288 343
#     4  11  23  39  60  87 120 158 201 243 294 357
#     4  10  22  40  61  86 119 157 196 243 300 356
#     4   9  20  37  58  83 116 156 191 231 288 345
#     4  10  22  41  62  85 118 160 196 238 299 355
#     4  11  23  42  64  87 119 156 200 250 298 349
#     4   9  19  37  58  83 118 153 190 235 286 344
#
# _framework density 18.981942
#
# number of rings (size 3 to 8) (size 9 to 14) (size 15 to 20)
#    0.000    2.000    0.714    1.929    3.000    4.286 
#    0.000    1.071    0.000    0.000    0.000    0.000 
#    0.000    0.000    0.000    0.000    0.000    0.000 
#
# Total GULP energy -312513.880794 kJ/mol
# GULP energy per Si atom -5580.605014 kJ/mol
# Density = 1.893874 g / cm^3
# Si number density = 18.981942 Si / 1000 Ang^3
#
#
#
# Elastic Constant Matrix: (Units=GPa)
#
#
# Indices 1 2 3 4 5 6 
#
# 1 20.9222 23.0205 20.3491 0.0000 0.0000 0.0000
# 2 23.0205 109.7838 57.2968 0.0000 0.0000 0.0000
# 3 20.3491 57.2968 61.7665 0.0000 0.0000 0.0000
# 4 0.0000 0.0000 0.0000 20.9014 0.0000 0.0000
# 5 0.0000 0.0000 0.0000 0.0000 22.8286 0.0000
# 6 0.0000 0.0000 0.0000 0.0000 0.0000 31.1546
#
#
#
# Elastic Compliance Matrix: (Units=1/GPa)
#
#
# Indices 1 2 3 4 5 6 
#
# 1 0.071866 -0.005258 -0.018798 0.000000 0.000000 0.000000
# 2 -0.005258 0.018042 -0.015004 0.000000 0.000000 0.000000
# 3 -0.018798 -0.015004 0.036302 0.000000 0.000000 0.000000
# 4 0.000000 0.000000 0.000000 0.047844 0.000000 0.000000
# 5 0.000000 0.000000 0.000000 0.000000 0.043805 0.000000
# 6 0.000000 0.000000 0.000000 0.000000 0.000000 0.032098
#
#
# Mechanical properties :
#
#
# Convention : Reuss Voigt Hill
#
# Bulk Modulus (GPa) = 20.79549 43.75616 32.27582
# Shear Modulus (GPa) = 14.53037 21.09734 17.81385
#
# Velocity S-wave (km/s) = 2.76974 3.33745 3.06676
# Velocity P-wave (km/s) = 4.60519 6.16059 5.43878
#
# Compressibility (1/GPa) = 0.04808735
#
# Stress axis : x y z
#
# Youngs Moduli (GPa) = 13.91487 55.42547 27.54698
#
# Poissons Ratio (x) = 0.29145 0.51784
# Poissons Ratio (y) = 0.07317 0.41332
# Poissons Ratio (z) = 0.26158 0.83162
#
# Static dielectric constant tensor:
#      x y z
#    x 1.653560 0.000000 0.000000 
#    y 0.000000 1.662380 0.000000 
#    z 0.000000 0.000000 1.679410 
# 
# From -- ./inp_files/21238.got.cif
#   From: 2010.05.17/outbox.cif.g08.bks.cpg/sg59_11_cif.got.tgz:21238.got - 2010.06.03 14:40:33.
