data_PCOD9452261
_publ_section_title
;
Structure prediction by ZEFSAII (Michael W. Deem and Ramdas Pophale) SiO2 
 PCOD9452261
Probable space group: P M M N
;
_chemical_formula_sum "Si O2"
_cell_formula_units_Z 40
_cell_length_a 13.683740
_cell_length_b 9.092363
_cell_length_c 15.828917
_cell_angle_alpha 90.000000
_cell_angle_beta 90.000000
_cell_angle_gamma 90.000000
_cell_volume 1969.394776
_symmetry_space_group_name_H-M "P M M N"
_symmetry_group_IT_number 59
_space_group.IT_coordinate_system_code '2'
_symmetry_cell_setting 'orthorhombic'
loop_
_space_group_symop_operation_xyz
x,y,z
1/2-x,1/2-y,z
1/2+x,-y,-z
-x,1/2+y,-z
-x,-y,-z
1/2+x,1/2+y,-z
1/2-x,y,z
x,1/2-y,z
loop_
_atom_site_type_symbol
_atom_site_label
_atom_site_fract_x
_atom_site_fract_y
_atom_site_fract_z
Si Si1 0.250000 0.920178 0.641991
Si Si2 0.136870 0.572639 0.286066
Si Si3 0.975943 0.074932 0.411073
Si Si4 0.616610 0.418030 0.065705
Si Si5 0.750000 0.919919 0.188927
Si Si6 0.887734 0.580183 0.895665
O O1 0.250000 0.750000 0.674295
O O2 0.357408 0.938770 0.599918
O O3 0.250000 0.040353 0.714485
O O4 0.250000 0.544592 0.316843
O O5 0.123940 0.750000 0.284217
O O6 0.131357 0.505489 0.191321
O O7 0.049182 0.500195 0.341773
O O8 0.996484 0.250000 0.410631
O O9 0.000000 0.000000 0.500000
O O10 0.647680 0.250000 0.063731
O O11 0.659498 0.504591 0.144089
O O12 0.502217 0.417193 0.083393
O O13 0.647620 0.496594 0.979300
O O14 0.750000 0.750000 0.172017
O O15 0.855727 0.750000 0.889363
#
# Coordination Sequence:
#
# PCOD9452261 Si02
#       6
#     4   8   8   8   4   8
#     4  10  24  46  70  97 134 175 212 266 336 397
#     4  11  25  43  65  95 136 181 223 272 333 395
#     4  11  25  46  73 103 135 171 216 270 333 404
#     4  10  21  37  58  84 123 170 216 269 331 387
#     4  12  24  36  58  91 124 161 214 268 314 377
#     4  10  21  38  60  88 122 166 220 275 326 385
#
# _framework density 20.310808000000002
#
# number of rings (size 3 to 8) (size 9 to 14) (size 15 to 20)
#    0.000    1.400    0.000    4.500    2.800   10.400 
#    0.000    0.000    0.000    0.000    0.000    0.000 
#    0.000    0.000    0.000    0.000    0.000    0.000 
#
# Total GULP energy -223138.114234 kJ/mol
# GULP energy per Si atom -5578.452856 kJ/mol
# Density = 2.026458 g / cm^3
# Si number density = 20.310808 Si / 1000 Ang^3
#
#
#
# Elastic Constant Matrix: (Units=GPa)
#
#
# Indices 1 2 3 4 5 6 
#
# 1 174.7693 64.1655 35.2912 0.0000 0.0000 0.0000
# 2 64.1655 160.3675 45.0788 0.0000 0.0000 0.0000
# 3 35.2912 45.0788 74.6932 0.0000 0.0000 0.0000
# 4 0.0000 0.0000 0.0000 39.3596 0.0000 0.0000
# 5 0.0000 0.0000 0.0000 0.0000 14.2771 0.0000
# 6 0.0000 0.0000 0.0000 0.0000 0.0000 40.7386
#
#
#
# Elastic Compliance Matrix: (Units=1/GPa)
#
#
# Indices 1 2 3 4 5 6 
#
# 1 0.006930 -0.002231 -0.001928 0.000000 0.000000 0.000000
# 2 -0.002231 0.008228 -0.003912 0.000000 0.000000 0.000000
# 3 -0.001928 -0.003912 0.016660 0.000000 0.000000 0.000000
# 4 0.000000 0.000000 0.000000 0.025407 0.000000 0.000000
# 5 0.000000 0.000000 0.000000 0.000000 0.070042 0.000000
# 6 0.000000 0.000000 0.000000 0.000000 0.000000 0.024547
#
#
# Mechanical properties :
#
#
# Convention : Reuss Voigt Hill
#
# Bulk Modulus (GPa) = 63.78857 77.65568 70.72213
# Shear Modulus (GPa) = 28.87164 36.56135 32.71650
#
# Velocity S-wave (km/s) = 3.77436 4.24735 4.01782
# Velocity P-wave (km/s) = 7.10414 7.89747 7.51128
#
# Compressibility (1/GPa) = 0.01567679
#
# Stress axis : x y z
#
# Youngs Moduli (GPa) = 144.29548 121.53847 60.02490
#
# Poissons Ratio (x) = 0.27114 0.11573
# Poissons Ratio (y) = 0.32191 0.23479
# Poissons Ratio (z) = 0.27820 0.47541
#
# Static dielectric constant tensor:
#      x y z
#    x 1.836600 0.000000 0.000000 
#    y 0.000000 1.682480 0.000000 
#    z 0.000000 0.000000 1.693090 
# 
# From -- ./inp_files/22981.got.cif
#   From: 2010.05.17/outbox.cif.g08.bks.cpg/sg59_12_cif.got.tgz:22981.got - 2010.06.03 14:40:33.
