data_PCOD9452074
_publ_section_title
;
Structure prediction by ZEFSAII (Michael W. Deem and Ramdas Pophale) SiO2 
 PCOD9452074
Probable space group: P M M N
;
_chemical_formula_sum "Si O2"
_cell_formula_units_Z 64
_cell_length_a 8.199387
_cell_length_b 28.970825
_cell_length_c 12.549030
_cell_angle_alpha 90.000000
_cell_angle_beta 90.000000
_cell_angle_gamma 90.000000
_cell_volume 2980.934307
_symmetry_space_group_name_H-M "P M M N"
_symmetry_group_IT_number 59
_space_group.IT_coordinate_system_code '2'
_symmetry_cell_setting 'orthorhombic'
loop_
_space_group_symop_operation_xyz
x,y,z
1/2-x,1/2-y,z
1/2+x,-y,-z
-x,1/2+y,-z
-x,-y,-z
1/2+x,1/2+y,-z
1/2-x,y,z
x,1/2-y,z
loop_
_atom_site_type_symbol
_atom_site_label
_atom_site_fract_x
_atom_site_fract_y
_atom_site_fract_z
Si Si1 0.434141 0.039321 0.338474
Si Si2 0.950403 0.197380 0.590302
Si Si3 0.937037 0.398180 0.519371
Si Si4 0.440740 0.951231 0.046914
Si Si5 0.565341 0.305834 0.826201
Si Si6 0.942854 0.108227 0.164283
Si Si7 0.549822 0.197339 0.058212
Si Si8 0.066850 0.442139 0.719172
O O1 0.250000 0.021737 0.335242
O O2 0.468543 0.064442 0.449704
O O3 0.462059 0.078266 0.249515
O O4 0.547486 0.996000 0.312002
O O5 0.750000 0.197263 0.595017
O O6 0.998254 0.250000 0.562788
O O7 0.997615 0.154781 0.515245
O O8 0.010629 0.186001 0.710681
O O9 0.750000 0.399120 0.482981
O O10 0.949145 0.413899 0.641849
O O11 0.250000 0.955228 0.072658
O O12 0.529333 0.938165 0.155999
O O13 0.460377 0.915209 0.951389
O O14 0.500000 0.000000 0.000000
O O15 0.750000 0.325366 0.824333
O O16 0.579060 0.250000 0.831302
O O17 0.490126 0.318051 0.940218
O O18 0.750000 0.106934 0.192077
O O19 0.996920 0.160831 0.147754
O O20 0.750000 0.196604 0.052215
O O21 0.500604 0.250000 0.078197
O O22 0.250000 0.426649 0.696868
#
# Coordination Sequence:
#
# PCOD9452074 Si02
#       8
#     8   8   8   8   8   8   8   8
#     4  12  25  43  63  82 113 156 203 249 304 362
#     4   8  15  29  52  84 119 152 188 236 290 344
#     4  11  23  39  63  92 121 152 198 250 301 356
#     4  11  22  37  60  91 124 158 196 240 294 357
#     4   7  10  19  39  70 108 144 176 217 273 328
#     4  10  21  36  59  88 120 155 197 245 294 349
#     4   8  14  26  48  81 118 153 191 238 287 337
#     4  12  25  42  63  88 122 157 198 247 299 361
#
# _framework density 21.469778999999999
#
# number of rings (size 3 to 8) (size 9 to 14) (size 15 to 20)
#    0.000    2.125    1.250    4.875    1.750    0.500 
#    0.000    0.625    0.000    5.625    0.000    0.000 
#    0.000    0.000    0.000    0.000    0.000    0.000 
#
# Total GULP energy -357329.375753 kJ/mol
# GULP energy per Si atom -5583.271496 kJ/mol
# Density = 2.142091 g / cm^3
# Si number density = 21.469779 Si / 1000 Ang^3
#
#
#
# Elastic Constant Matrix: (Units=GPa)
#
#
# Indices 1 2 3 4 5 6 
#
# 1 28.2772 6.0027 8.5599 0.0000 0.0000 0.0000
# 2 6.0027 55.7405 -2.3195 0.0000 0.0000 0.0000
# 3 8.5599 -2.3195 45.2368 0.0000 0.0000 0.0000
# 4 0.0000 0.0000 0.0000 -24.5467 0.0000 0.0000
# 5 0.0000 0.0000 0.0000 0.0000 24.2636 0.0000
# 6 0.0000 0.0000 0.0000 0.0000 0.0000 8.0810
#
#
#
# Elastic Compliance Matrix: (Units=1/GPa)
#
#
# Indices 1 2 3 4 5 6 
#
# 1 0.038593 -0.004470 -0.007532 0.000000 0.000000 0.000000
# 2 -0.004470 0.018496 0.001794 0.000000 0.000000 0.000000
# 3 -0.007532 0.001794 0.023623 0.000000 0.000000 0.000000
# 4 0.000000 0.000000 0.000000 -0.040739 0.000000 0.000000
# 5 0.000000 0.000000 0.000000 0.000000 0.041214 0.000000
# 6 0.000000 0.000000 0.000000 0.000000 0.000000 0.123747
#
#
# Mechanical properties :
#
#
# Convention : Reuss Voigt Hill
#
# Bulk Modulus (GPa) = 16.58436 17.08231 16.83334
# Shear Modulus (GPa) = 20.37083 9.36032 14.86558
#
# Velocity S-wave (km/s) = 3.08362 2.09027 2.63420
# Velocity P-wave (km/s) = 4.51881 3.71475 4.13636
#
# Compressibility (1/GPa) = 0.06029776
#
# Stress axis : x y z
#
# Youngs Moduli (GPa) = 25.91140 54.06499 42.33140
#
# Poissons Ratio (x) = 0.24164 0.31884
# Poissons Ratio (y) = 0.11581 -0.07595
# Poissons Ratio (z) = 0.19516 -0.09700
#
# Static dielectric constant tensor:
#      x y z
#    x 1.768760 0.000000 0.000000 
#    y 0.000000 1.774700 0.000000 
#    z 0.000000 0.000000 1.728440 
# 
# From -- ./inp_files/15070.got.cif
#   From: 2010.05.17/outbox.cif.g08.bks.cpg/sg59_8_cif.got.tgz:15070.got - 2010.06.03 14:40:33.
