data_PCOD9452838
_publ_section_title
;
Structure prediction by ZEFSAII (Michael W. Deem and Ramdas Pophale) SiO2 
 PCOD9452838
Probable space group: P M M N
;
_chemical_formula_sum "Si O2"
_cell_formula_units_Z 64
_cell_length_a 31.600108
_cell_length_b 8.684257
_cell_length_c 12.165389
_cell_angle_alpha 90.000000
_cell_angle_beta 90.000000
_cell_angle_gamma 90.000000
_cell_volume 3338.468131
_symmetry_space_group_name_H-M "P M M N"
_symmetry_group_IT_number 59
_space_group.IT_coordinate_system_code '2'
_symmetry_cell_setting 'orthorhombic'
loop_
_space_group_symop_operation_xyz
x,y,z
1/2-x,1/2-y,z
1/2+x,-y,-z
-x,1/2+y,-z
-x,-y,-z
1/2+x,1/2+y,-z
1/2-x,y,z
x,1/2-y,z
loop_
_atom_site_type_symbol
_atom_site_label
_atom_site_fract_x
_atom_site_fract_y
_atom_site_fract_z
Si Si1 0.297371 0.435886 0.001489
Si Si2 0.086895 0.933930 0.248207
Si Si3 0.546725 0.065875 0.988374
Si Si4 0.180326 0.066923 0.250268
Si Si5 0.124776 0.066135 0.617225
Si Si6 0.796764 0.433563 0.518635
Si Si7 0.454915 0.064720 0.463645
Si Si8 0.375559 0.934850 0.862054
O O1 0.250000 0.480664 0.965056
O O2 0.300517 0.250000 0.995875
O O3 0.302926 0.478949 0.129965
O O4 0.334885 0.506310 0.929629
O O5 0.094647 0.750000 0.255236
O O6 0.064945 0.968042 0.132280
O O7 0.130952 0.023989 0.253718
O O8 0.058289 0.989455 0.348537
O O9 0.544034 0.250000 0.999269
O O10 0.581475 0.010442 0.076852
O O11 0.500000 0.000000 0.000000
O O12 0.186512 0.250000 0.262757
O O13 0.200593 0.982680 0.354038
O O14 0.125961 0.250000 0.627642
O O15 0.082057 0.024761 0.550890
O O16 0.165193 0.011928 0.547068
O O17 0.125472 0.992459 0.737478
O O18 0.750000 0.476576 0.476121
O O19 0.801525 0.250000 0.510539
O O20 0.456324 0.250000 0.453770
O O21 0.500000 0.000000 0.500000
O O22 0.375219 0.750000 0.864331
#
# Coordination Sequence:
#
# PCOD9452838 Si02
#       8
#     8   8   8   8   8   8   8   8
#     4  10  22  40  63  92 125 164 208 253 306 368
#     4  11  22  40  65  94 129 164 204 257 310 367
#     4  10  24  42  63  93 126 162 205 252 306 365
#     4  11  21  37  63  95 129 165 204 253 311 370
#     4  11  25  44  65  91 123 164 211 257 309 370
#     4  11  24  41  64  94 126 164 208 255 311 371
#     4  11  25  43  65  95 126 163 209 255 311 372
#     4  11  24  43  64  91 124 163 208 257 312 367
#
# _framework density 19.170469000000001
#
# number of rings (size 3 to 8) (size 9 to 14) (size 15 to 20)
#    0.000    1.250    2.500    2.625    1.750    6.250 
#    0.000    0.000    0.000    0.000    0.000    0.000 
#    0.000    0.000    0.000    0.000    0.000    0.000 
#
# Total GULP energy -357852.137362 kJ/mol
# GULP energy per Si atom -5591.439646 kJ/mol
# Density = 1.912684 g / cm^3
# Si number density = 19.170469 Si / 1000 Ang^3
#
#
#
# Elastic Constant Matrix: (Units=GPa)
#
#
# Indices 1 2 3 4 5 6 
#
# 1 153.8840 32.9805 53.4188 0.0000 0.0000 0.0000
# 2 32.9805 32.4979 32.8164 0.0000 0.0000 0.0000
# 3 53.4188 32.8164 118.5566 0.0000 0.0000 0.0000
# 4 0.0000 0.0000 0.0000 35.3721 0.0000 0.0000
# 5 0.0000 0.0000 0.0000 0.0000 37.9762 0.0000
# 6 0.0000 0.0000 0.0000 0.0000 0.0000 24.3872
#
#
#
# Elastic Compliance Matrix: (Units=1/GPa)
#
#
# Indices 1 2 3 4 5 6 
#
# 1 0.008645 -0.006717 -0.002036 0.000000 0.000000 0.000000
# 2 -0.006717 0.047929 -0.010240 0.000000 0.000000 0.000000
# 3 -0.002036 -0.010240 0.012186 0.000000 0.000000 0.000000
# 4 0.000000 0.000000 0.000000 0.028271 0.000000 0.000000
# 5 0.000000 0.000000 0.000000 0.000000 0.026332 0.000000
# 6 0.000000 0.000000 0.000000 0.000000 0.000000 0.041005
#
#
# Mechanical properties :
#
#
# Convention : Reuss Voigt Hill
#
# Bulk Modulus (GPa) = 32.49525 60.37442 46.43483
# Shear Modulus (GPa) = 23.51698 31.92862 27.72280
#
# Velocity S-wave (km/s) = 3.50627 4.08549 3.80691
# Velocity P-wave (km/s) = 5.77749 7.33600 6.60289
#
# Compressibility (1/GPa) = 0.03077373
#
# Stress axis : x y z
#
# Youngs Moduli (GPa) = 115.67689 20.86432 82.05842
#
# Poissons Ratio (x) = 0.14016 0.16705
# Poissons Ratio (y) = 0.77706 0.84027
# Poissons Ratio (z) = 0.23549 0.21365
#
# Static dielectric constant tensor:
#      x y z
#    x 1.672000 0.000000 0.000000 
#    y 0.000000 1.648580 0.000000 
#    z 0.000000 0.000000 1.645500 
# 
# From -- ./inp_files/19370.got.cif
#   From: 2010.05.17/outbox.cif.g08.bks.cpg/sg59_10_cif.got.tgz:19370.got - 2010.06.03 14:40:33.
