data_PCOD9452028
_publ_section_title
;
Structure prediction by ZEFSAII (Michael W. Deem and Ramdas Pophale) SiO2 
 PCOD9452028
Probable space group: P M M N
;
_chemical_formula_sum "Si O2"
_cell_formula_units_Z 56
_cell_length_a 22.843689
_cell_length_b 9.386606
_cell_length_c 14.639802
_cell_angle_alpha 90.000000
_cell_angle_beta 90.000000
_cell_angle_gamma 90.000000
_cell_volume 3139.135272
_symmetry_space_group_name_H-M "P M M N"
_symmetry_group_IT_number 59
_space_group.IT_coordinate_system_code '2'
_symmetry_cell_setting 'orthorhombic'
loop_
_space_group_symop_operation_xyz
x,y,z
1/2-x,1/2-y,z
1/2+x,-y,-z
-x,1/2+y,-z
-x,-y,-z
1/2+x,1/2+y,-z
1/2-x,y,z
x,1/2-y,z
loop_
_atom_site_type_symbol
_atom_site_label
_atom_site_fract_x
_atom_site_fract_y
_atom_site_fract_z
Si Si1 0.442067 0.586909 0.981237
Si Si2 0.750000 0.584204 0.195641
Si Si3 0.872126 0.077666 0.201667
Si Si4 0.750000 0.587336 0.976919
Si Si5 0.955279 0.420210 0.372113
Si Si6 0.153888 0.913800 0.129060
Si Si7 0.420001 0.419553 0.445730
Si Si8 0.181153 0.080435 0.310006
O O1 0.457353 0.750000 0.957944
O O2 0.400799 0.537580 0.896673
O O3 0.500000 0.500000 0.000000
O O4 0.406984 0.585535 0.076118
O O5 0.750000 0.750000 0.227299
O O6 0.689569 0.501979 0.220194
O O7 0.750000 0.586474 0.085451
O O8 0.862201 0.250000 0.200641
O O9 0.919927 0.043043 0.280232
O O10 0.750000 0.750000 0.943702
O O11 0.804337 0.502981 0.936838
O O12 0.949967 0.250000 0.382690
O O13 0.928304 0.497394 0.460190
O O14 0.024838 0.453802 0.378798
O O15 0.173482 0.750000 0.137279
O O16 0.156669 0.990604 0.225715
O O17 0.422502 0.250000 0.463347
O O18 0.358933 0.452189 0.397004
O O19 0.250000 0.050135 0.322143
O O20 0.175280 0.250000 0.291244
#
# Coordination Sequence:
#
# PCOD9452028 Si02
#       8
#     8   4   8   4   8   8   8   8
#     4  10  23  38  55  82 115 152 189 230 281 330
#     4  11  23  37  57  84 111 148 195 237 282 332
#     4  10  21  39  60  82 115 153 189 231 286 346
#     4  11  21  35  55  78 107 148 191 229 270 326
#     4   9  19  37  61  85 107 144 192 233 284 342
#     4  11  22  36  55  81 112 148 188 230 275 325
#     4   9  19  37  60  83 112 147 185 236 287 337
#     4  10  21  36  56  84 116 153 191 229 285 344
#
# _framework density 17.839307999999999
#
# number of rings (size 3 to 8) (size 9 to 14) (size 15 to 20)
#    0.000    2.000    2.143    0.857    2.000    3.429 
#    1.286    0.000    0.000    0.000    0.000    0.000 
#    0.000    0.000    0.000    0.000    0.000    0.000 
#
# Total GULP energy -312244.070534 kJ/mol
# GULP energy per Si atom -5575.786974 kJ/mol
# Density = 1.779871 g / cm^3
# Si number density = 17.839308 Si / 1000 Ang^3
#
#
#
# Elastic Constant Matrix: (Units=GPa)
#
#
# Indices 1 2 3 4 5 6 
#
# 1 100.6367 51.0479 48.1496 0.0000 0.0000 0.0000
# 2 51.0479 53.1847 27.6930 0.0000 0.0000 0.0000
# 3 48.1496 27.6930 74.3007 0.0000 0.0000 0.0000
# 4 0.0000 0.0000 0.0000 29.5275 0.0000 0.0000
# 5 0.0000 0.0000 0.0000 0.0000 27.2133 0.0000
# 6 0.0000 0.0000 0.0000 0.0000 0.0000 28.1633
#
#
#
# Elastic Compliance Matrix: (Units=1/GPa)
#
#
# Indices 1 2 3 4 5 6 
#
# 1 0.022794 -0.017603 -0.008211 0.000000 0.000000 0.000000
# 2 -0.017603 0.036925 -0.002355 0.000000 0.000000 0.000000
# 3 -0.008211 -0.002355 0.019657 0.000000 0.000000 0.000000
# 4 0.000000 0.000000 0.000000 0.033867 0.000000 0.000000
# 5 0.000000 0.000000 0.000000 0.000000 0.036747 0.000000
# 6 0.000000 0.000000 0.000000 0.000000 0.000000 0.035507
#
#
# Mechanical properties :
#
#
# Convention : Reuss Voigt Hill
#
# Bulk Modulus (GPa) = 43.40486 53.54480 48.47483
# Shear Modulus (GPa) = 20.03898 23.72960 21.88429
#
# Velocity S-wave (km/s) = 3.35521 3.65113 3.50629
# Velocity P-wave (km/s) = 6.27644 6.91770 6.60486
#
# Compressibility (1/GPa) = 0.02303889
#
# Stress axis : x y z
#
# Youngs Moduli (GPa) = 43.87045 27.08222 50.87196
#
# Poissons Ratio (x) = 0.47674 0.41769
# Poissons Ratio (y) = 0.77227 0.11979
# Poissons Ratio (z) = 0.36020 0.06377
#
# Static dielectric constant tensor:
#      x y z
#    x 1.614800 0.000000 0.000000 
#    y 0.000000 1.610260 0.000000 
#    z 0.000000 0.000000 1.595530 
# 
# From -- ./inp_files/24395.got.cif
#   From: 2010.05.17/outbox.cif.g08.bks.cpg/sg59_13_cif.got.tgz:24395.got - 2010.06.03 14:40:33.
