data_PCOD9452189
_publ_section_title
;
Structure prediction by ZEFSAII (Michael W. Deem and Ramdas Pophale) SiO2 
 PCOD9452189
Probable space group: P M M N
;
_chemical_formula_sum "Si O2"
_cell_formula_units_Z 40
_cell_length_a 9.215002
_cell_length_b 8.981046
_cell_length_c 26.289447
_cell_angle_alpha 90.000000
_cell_angle_beta 90.000000
_cell_angle_gamma 90.000000
_cell_volume 2175.724015
_symmetry_space_group_name_H-M "P M M N"
_symmetry_group_IT_number 59
_space_group.IT_coordinate_system_code '2'
_symmetry_cell_setting 'orthorhombic'
loop_
_space_group_symop_operation_xyz
x,y,z
1/2-x,1/2-y,z
1/2+x,-y,-z
-x,1/2+y,-z
-x,-y,-z
1/2+x,1/2+y,-z
1/2-x,y,z
x,1/2-y,z
loop_
_atom_site_type_symbol
_atom_site_label
_atom_site_fract_x
_atom_site_fract_y
_atom_site_fract_z
Si Si1 0.919195 0.929502 0.047899
Si Si2 0.078208 0.926928 0.752348
Si Si3 0.577295 0.572958 0.355501
Si Si4 0.921910 0.927630 0.548413
Si Si5 0.579349 0.428684 0.847905
O O1 0.750000 0.971989 0.048480
O O2 0.927899 0.750000 0.044249
O O3 0.996359 0.973601 0.100592
O O4 0.000000 0.000000 0.000000
O O5 0.250000 0.955602 0.760930
O O6 0.057585 0.750000 0.747919
O O7 0.037743 0.005236 0.699300
O O8 0.988783 0.991868 0.799213
O O9 0.750000 0.546650 0.363116
O O10 0.553159 0.750000 0.355779
O O11 0.489574 0.496008 0.400567
O O12 0.750000 0.957095 0.546160
O O13 0.943837 0.750000 0.547793
O O14 0.000000 0.000000 0.500000
O O15 0.750000 0.461057 0.852606
O O16 0.562274 0.250000 0.842048
#
# Coordination Sequence:
#
# PCOD9452189 Si02
#       5
#     8   8   8   8   8
#     4  10  21  37  58  83 111 145 185 229 278 332
#     4  10  21  37  58  84 113 147 186 228 277 331
#     4  10  21  38  61  87 114 147 188 232 279 332
#     4  11  24  40  59  85 116 150 189 232 279 332
#     4  10  21  37  57  81 110 146 187 230 277 329
#
# _framework density 18.384684
#
# number of rings (size 3 to 8) (size 9 to 14) (size 15 to 20)
#    0.000    1.800    0.000    3.600    0.000   10.400 
#    0.000    0.000    0.000    0.000    0.000    0.000 
#    0.000    0.000    0.000    0.000    0.000    0.000 
#
# Total GULP energy -223593.530939 kJ/mol
# GULP energy per Si atom -5589.838273 kJ/mol
# Density = 1.834284 g / cm^3
# Si number density = 18.384684 Si / 1000 Ang^3
#
#
#
# Elastic Constant Matrix: (Units=GPa)
#
#
# Indices 1 2 3 4 5 6 
#
# 1 135.3816 85.5887 128.6103 0.0000 0.0000 0.0000
# 2 85.5887 68.6714 88.5884 0.0000 0.0000 0.0000
# 3 128.6103 88.5884 214.7370 0.0000 0.0000 0.0000
# 4 0.0000 0.0000 0.0000 42.8038 0.0000 0.0000
# 5 0.0000 0.0000 0.0000 0.0000 43.3258 0.0000
# 6 0.0000 0.0000 0.0000 0.0000 0.0000 31.0889
#
#
#
# Elastic Compliance Matrix: (Units=1/GPa)
#
#
# Indices 1 2 3 4 5 6 
#
# 1 0.039352 -0.039850 -0.007129 0.000000 0.000000 0.000000
# 2 -0.039850 0.071483 -0.005623 0.000000 0.000000 0.000000
# 3 -0.007129 -0.005623 0.011246 0.000000 0.000000 0.000000
# 4 0.000000 0.000000 0.000000 0.023362 0.000000 0.000000
# 5 0.000000 0.000000 0.000000 0.000000 0.023081 0.000000
# 6 0.000000 0.000000 0.000000 0.000000 0.000000 0.032166
#
#
# Mechanical properties :
#
#
# Convention : Reuss Voigt Hill
#
# Bulk Modulus (GPa) = 59.24999 113.81831 86.53415
# Shear Modulus (GPa) = 16.05029 31.17723 23.61376
#
# Velocity S-wave (km/s) = 2.95791 4.12251 3.58778
# Velocity P-wave (km/s) = 6.63050 9.20347 8.02083
#
# Compressibility (1/GPa) = 0.01687764
#
# Stress axis : x y z
#
# Youngs Moduli (GPa) = 25.41140 13.98931 88.91916
#
# Poissons Ratio (x) = 0.55748 0.63390
# Poissons Ratio (y) = 1.01265 0.49997
# Poissons Ratio (z) = 0.18116 0.07866
#
# Static dielectric constant tensor:
#      x y z
#    x 1.615840 0.000000 0.000000 
#    y 0.000000 1.614710 0.000000 
#    z 0.000000 0.000000 1.586490 
# 
# From -- ./inp_files/31113.got.cif
#   From: 2010.05.17/outbox.cif.g08.bks.cpg/sg59_16_cif.got.tgz:31113.got - 2010.06.03 14:40:33.
