data_PCOD9452711
_publ_section_title
;
Structure prediction by ZEFSAII (Michael W. Deem and Ramdas Pophale) SiO2 
 PCOD9452711
Probable space group: P M M N
;
_chemical_formula_sum "Si O2"
_cell_formula_units_Z 64
_cell_length_a 8.558206
_cell_length_b 28.051919
_cell_length_c 14.814083
_cell_angle_alpha 90.000000
_cell_angle_beta 90.000000
_cell_angle_gamma 90.000000
_cell_volume 3556.477666
_symmetry_space_group_name_H-M "P M M N"
_symmetry_group_IT_number 59
_space_group.IT_coordinate_system_code '2'
_symmetry_cell_setting 'orthorhombic'
loop_
_space_group_symop_operation_xyz
x,y,z
1/2-x,1/2-y,z
1/2+x,-y,-z
-x,1/2+y,-z
-x,-y,-z
1/2+x,1/2+y,-z
1/2-x,y,z
x,1/2-y,z
loop_
_atom_site_type_symbol
_atom_site_label
_atom_site_fract_x
_atom_site_fract_y
_atom_site_fract_z
Si Si1 0.434365 0.609979 0.134768
Si Si2 0.563399 0.552411 0.972084
Si Si3 0.433103 0.951011 0.461943
Si Si4 0.062102 0.064260 0.234228
Si Si5 0.059122 0.694599 0.265559
Si Si6 0.932560 0.537764 0.274755
Si Si7 0.069172 0.806965 0.468301
Si Si8 0.565705 0.623352 0.599335
O O1 0.250000 0.615493 0.120675
O O2 0.491898 0.657119 0.188758
O O3 0.467813 0.565545 0.200729
O O4 0.511067 0.593391 0.041493
O O5 0.750000 0.549018 0.974064
O O6 0.513214 0.565535 0.870217
O O7 0.500000 0.500000 0.000000
O O8 0.250000 0.955088 0.441721
O O9 0.526341 0.940099 0.371047
O O10 0.467221 0.912106 0.536946
O O11 0.500000 0.000000 0.500000
O O12 0.250000 0.057335 0.236249
O O13 0.027307 0.109916 0.297206
O O14 0.982867 0.017422 0.276376
O O15 0.250000 0.693833 0.267248
O O16 0.013110 0.750000 0.249849
O O17 0.010044 0.679476 0.367388
O O18 0.750000 0.541890 0.253666
O O19 0.250000 0.823085 0.475245
O O20 0.068847 0.750000 0.468344
O O21 0.975170 0.826550 0.553682
O O22 0.750000 0.613901 0.587782
#
# Coordination Sequence:
#
# PCOD9452711 Si02
#       8
#     8   8   8   8   8   8   8   8
#     4  11  21  34  56  83 112 144 179 230 286 335
#     4  11  22  37  56  78 107 144 190 233 278 335
#     4  12  23  35  50  73 108 146 182 221 269 327
#     4  10  22  38  54  72 104 146 186 231 276 325
#     4   8  16  33  57  83 109 141 180 219 269 334
#     4  12  23  34  52  77 107 145 186 227 269 328
#     4   9  18  35  59  85 113 147 186 228 277 335
#     4  11  22  36  55  79 108 145 188 231 279 331
#
# _framework density 17.995334
#
# number of rings (size 3 to 8) (size 9 to 14) (size 15 to 20)
#    0.000    1.500    2.500    4.875    0.000    2.250 
#    0.000    0.625    0.000    3.750    0.000    3.500 
#    0.000    0.000    0.000    0.000    0.000    0.000 
#
# Total GULP energy -357160.320182 kJ/mol
# GULP energy per Si atom -5580.630003 kJ/mol
# Density = 1.795438 g / cm^3
# Si number density = 17.995334 Si / 1000 Ang^3
#
#
#
# Elastic Constant Matrix: (Units=GPa)
#
#
# Indices 1 2 3 4 5 6 
#
# 1 23.4174 16.5290 18.6146 0.0000 0.0000 0.0000
# 2 16.5290 73.6640 46.3011 0.0000 0.0000 0.0000
# 3 18.6146 46.3011 136.8272 0.0000 0.0000 0.0000
# 4 0.0000 0.0000 0.0000 28.6000 0.0000 0.0000
# 5 0.0000 0.0000 0.0000 0.0000 25.1389 0.0000
# 6 0.0000 0.0000 0.0000 0.0000 0.0000 22.2683
#
#
#
# Elastic Compliance Matrix: (Units=1/GPa)
#
#
# Indices 1 2 3 4 5 6 
#
# 1 0.052410 -0.009245 -0.004002 0.000000 0.000000 0.000000
# 2 -0.009245 0.018873 -0.005129 0.000000 0.000000 0.000000
# 3 -0.004002 -0.005129 0.009588 0.000000 0.000000 0.000000
# 4 0.000000 0.000000 0.000000 0.034965 0.000000 0.000000
# 5 0.000000 0.000000 0.000000 0.000000 0.039779 0.000000
# 6 0.000000 0.000000 0.000000 0.000000 0.000000 0.044907
#
#
# Mechanical properties :
#
#
# Convention : Reuss Voigt Hill
#
# Bulk Modulus (GPa) = 22.66500 44.08865 33.37682
# Shear Modulus (GPa) = 19.84291 25.36572 22.60432
#
# Velocity S-wave (km/s) = 3.32425 3.75850 3.54802
# Velocity P-wave (km/s) = 5.23034 6.58698 5.94747
#
# Compressibility (1/GPa) = 0.04412089
#
# Stress axis : x y z
#
# Youngs Moduli (GPa) = 19.08049 52.98525 104.29210
#
# Poissons Ratio (x) = 0.48983 0.41735
# Poissons Ratio (y) = 0.17639 0.53490
# Poissons Ratio (z) = 0.07636 0.27175
#
# Static dielectric constant tensor:
#      x y z
#    x 1.611050 0.000000 0.000000 
#    y 0.000000 1.649280 0.000000 
#    z 0.000000 0.000000 1.649540 
# 
# From -- ./inp_files/21893.got.cif
#   From: 2010.05.17/outbox.cif.g08.bks.cpg/sg59_11_cif.got.tgz:21893.got - 2010.06.03 14:40:33.
