data_PCOD9452078
_publ_section_title
;
Structure prediction by ZEFSAII (Michael W. Deem and Ramdas Pophale) SiO2 
 PCOD9452078
Probable space group: P M M N
;
_chemical_formula_sum "Si O2"
_cell_formula_units_Z 34
_cell_length_a 17.055155
_cell_length_b 15.128425
_cell_length_c 7.003622
_cell_angle_alpha 90.000000
_cell_angle_beta 90.000000
_cell_angle_gamma 90.000000
_cell_volume 1807.057973
_symmetry_space_group_name_H-M "P M M N"
_symmetry_group_IT_number 59
_space_group.IT_coordinate_system_code '2'
_symmetry_cell_setting 'orthorhombic'
loop_
_space_group_symop_operation_xyz
x,y,z
1/2-x,1/2-y,z
1/2+x,-y,-z
-x,1/2+y,-z
-x,-y,-z
1/2+x,1/2+y,-z
1/2-x,y,z
x,1/2-y,z
loop_
_atom_site_type_symbol
_atom_site_label
_atom_site_fract_x
_atom_site_fract_y
_atom_site_fract_z
Si Si1 0.838258 0.511246 0.030077
Si Si2 0.250000 0.750000 0.720833
Si Si3 0.105589 0.647174 0.215576
Si Si4 0.533249 0.650887 0.924272
Si Si5 0.388875 0.606794 0.657119
O O1 0.750000 0.544805 0.028561
O O2 0.843288 0.419585 0.910629
O O3 0.899980 0.578082 0.937933
O O4 0.865528 0.485439 0.243836
O O5 0.319272 0.673880 0.711620
O O6 0.133575 0.750000 0.212758
O O7 0.103827 0.612195 0.430340
O O8 0.020855 0.645608 0.114364
O O9 0.564935 0.750000 0.908236
O O10 0.470735 0.634487 0.755248
#
# Coordination Sequence:
#
# PCOD9452078 Si02
#       5
#     8   2   8   8   8
#     4  11  25  36  56  87 115 150 196 236 270 328
#     4  12  20  32  62  92 116 146 172 220 306 348
#     4  10  21  36  61  86 114 148 181 224 293 356
#     4  10  22  42  59  79 112 156 196 232 279 326
#     4  11  21  38  58  87 121 146 176 231 293 347
#
# _framework density 18.815114000000001
#
# number of rings (size 3 to 8) (size 9 to 14) (size 15 to 20)
#    0.000    1.412    3.529    2.824    3.294    4.706 
#    0.000    1.176    0.000    0.000    0.000    6.588 
#    0.000    0.000    0.000    0.000    0.000    0.000 
#
# Total GULP energy -189286.821338 kJ/mol
# GULP energy per Si atom -5567.259451 kJ/mol
# Density = 1.877229 g / cm^3
# Si number density = 18.815114 Si / 1000 Ang^3
#
#
#
# Elastic Constant Matrix: (Units=GPa)
#
#
# Indices 1 2 3 4 5 6 
#
# 1 73.1332 36.2713 18.7402 0.0000 0.0000 0.0000
# 2 36.2713 41.0461 20.2743 0.0000 0.0000 0.0000
# 3 18.7402 20.2743 105.0477 0.0000 0.0000 0.0000
# 4 0.0000 0.0000 0.0000 8.4489 0.0000 0.0000
# 5 0.0000 0.0000 0.0000 0.0000 -1.7637 0.0000
# 6 0.0000 0.0000 0.0000 0.0000 0.0000 39.5542
#
#
#
# Elastic Compliance Matrix: (Units=1/GPa)
#
#
# Indices 1 2 3 4 5 6 
#
# 1 0.024346 -0.021410 -0.000211 0.000000 0.000000 0.000000
# 2 -0.021410 0.045758 -0.005012 0.000000 0.000000 0.000000
# 3 -0.000211 -0.005012 0.010524 0.000000 0.000000 0.000000
# 4 0.000000 0.000000 0.000000 0.118358 0.000000 0.000000
# 5 0.000000 0.000000 0.000000 0.000000 -0.566991 0.000000
# 6 0.000000 0.000000 0.000000 0.000000 0.000000 0.025282
#
#
# Mechanical properties :
#
#
# Convention : Reuss Voigt Hill
#
# Bulk Modulus (GPa) = 36.54604 41.08871 38.81738
# Shear Modulus (GPa) = -17.83573 18.84397 0.50412
#
# Velocity S-wave (km/s) = -3.08221 3.16814 0.51818
# Velocity P-wave (km/s) = 2.60753 5.93871 4.58626
#
# Compressibility (1/GPa) = 0.02736275
#
# Stress axis : x y z
#
# Youngs Moduli (GPa) = 41.07407 21.85424 95.01692
#
# Poissons Ratio (x) = 0.46790 0.02007
# Poissons Ratio (y) = 0.87939 0.47621
# Poissons Ratio (z) = 0.00867 0.10953
#
# Static dielectric constant tensor:
#      x y z
#    x 1.626380 0.000000 0.000000 
#    y 0.000000 1.669030 0.000000 
#    z 0.000000 0.000000 1.678560 
# 
# From -- ./inp_files/10089.got.cif
#   From: 2010.05.17/outbox.cif.g08.bks.cpg/sg59_6_cif.got.tgz:10089.got - 2010.06.03 14:40:33.
