data_PCOD9452620
_publ_section_title
;
Structure prediction by ZEFSAII (Michael W. Deem and Ramdas Pophale) SiO2 
 PCOD9452620
Probable space group: P M M N
;
_chemical_formula_sum "Si O2"
_cell_formula_units_Z 40
_cell_length_a 18.302652
_cell_length_b 11.463390
_cell_length_c 10.446698
_cell_angle_alpha 90.000000
_cell_angle_beta 90.000000
_cell_angle_gamma 90.000000
_cell_volume 2191.826282
_symmetry_space_group_name_H-M "P M M N"
_symmetry_group_IT_number 59
_space_group.IT_coordinate_system_code '2'
_symmetry_cell_setting 'orthorhombic'
loop_
_space_group_symop_operation_xyz
x,y,z
1/2-x,1/2-y,z
1/2+x,-y,-z
-x,1/2+y,-z
-x,-y,-z
1/2+x,1/2+y,-z
1/2-x,y,z
x,1/2-y,z
loop_
_atom_site_type_symbol
_atom_site_label
_atom_site_fract_x
_atom_site_fract_y
_atom_site_fract_z
Si Si1 0.409039 0.486447 0.137455
Si Si2 0.070093 0.887796 0.874354
Si Si3 0.837783 0.112368 0.621691
Si Si4 0.161358 0.250000 0.745291
Si Si5 0.837548 0.750000 0.957336
Si Si6 0.661968 0.496844 0.348581
O O1 0.494070 0.453947 0.152571
O O2 0.377674 0.551672 0.260187
O O3 0.367022 0.365819 0.110062
O O4 0.401549 0.565714 0.010801
O O5 0.057180 0.750000 0.880041
O O6 0.126259 0.920325 0.762789
O O7 0.750000 0.100094 0.637441
O O8 0.854369 0.250000 0.615888
O O9 0.858261 0.051031 0.487952
O O10 0.250000 0.250000 0.747145
O O11 0.138703 0.369122 0.676048
O O12 0.137018 0.250000 0.893677
O O13 0.750000 0.750000 0.956610
O O14 0.750000 0.491348 0.338153
#
# Coordination Sequence:
#
# PCOD9452620 Si02
#       6
#     8   8   8   4   4   8
#     4  11  23  39  60  88 122 162 198 246 309 353
#     4  11  23  39  60  87 122 158 205 249 293 362
#     4  10  22  41  62  89 123 156 198 249 301 359
#     4   9  18  35  59  89 119 150 199 247 294 352
#     4  11  20  37  63  91 122 156 201 255 299 352
#     4  10  21  39  63  88 118 159 200 248 301 356
#
# _framework density 18.249623
#
# number of rings (size 3 to 8) (size 9 to 14) (size 15 to 20)
#    0.000    1.600    3.000    1.800    0.000    3.600 
#    1.800    2.000    0.000    0.000    0.000    0.000 
#    0.000    0.000    0.000    0.000    0.000    0.000 
#
# Total GULP energy -223481.774904 kJ/mol
# GULP energy per Si atom -5587.044373 kJ/mol
# Density = 1.820809 g / cm^3
# Si number density = 18.249623 Si / 1000 Ang^3
#
#
#
# Elastic Constant Matrix: (Units=GPa)
#
#
# Indices 1 2 3 4 5 6 
#
# 1 35.1919 18.9435 52.7420 0.0000 0.0000 0.0000
# 2 18.9435 105.9105 75.3023 0.0000 0.0000 0.0000
# 3 52.7420 75.3023 171.1470 0.0000 0.0000 0.0000
# 4 0.0000 0.0000 0.0000 35.2711 0.0000 0.0000
# 5 0.0000 0.0000 0.0000 0.0000 27.4892 0.0000
# 6 0.0000 0.0000 0.0000 0.0000 0.0000 9.2422
#
#
#
# Elastic Compliance Matrix: (Units=1/GPa)
#
#
# Indices 1 2 3 4 5 6 
#
# 1 0.053508 0.003134 -0.017868 0.000000 0.000000 0.000000
# 2 0.003134 0.013924 -0.007092 0.000000 0.000000 0.000000
# 3 -0.017868 -0.007092 0.014470 0.000000 0.000000 0.000000
# 4 0.000000 0.000000 0.000000 0.028352 0.000000 0.000000
# 5 0.000000 0.000000 0.000000 0.000000 0.036378 0.000000
# 6 0.000000 0.000000 0.000000 0.000000 0.000000 0.108199
#
#
# Mechanical properties :
#
#
# Convention : Reuss Voigt Hill
#
# Bulk Modulus (GPa) = 26.14496 67.35835 46.75166
# Shear Modulus (GPa) = 16.06517 25.41793 20.74155
#
# Velocity S-wave (km/s) = 2.97021 3.73606 3.37493
# Velocity P-wave (km/s) = 5.11080 7.45657 6.39221
#
# Compressibility (1/GPa) = 0.03824828
#
# Stress axis : x y z
#
# Youngs Moduli (GPa) = 18.68891 71.81929 69.11002
#
# Poissons Ratio (x) = -0.22506 1.23487
# Poissons Ratio (y) = -0.05856 0.49013
# Poissons Ratio (z) = 0.33394 0.50934
#
# Static dielectric constant tensor:
#      x y z
#    x 1.614920 0.000000 0.000000 
#    y 0.000000 1.679420 0.000000 
#    z 0.000000 0.000000 1.590110 
# 
# From -- ./inp_files/11153.got.cif
#   From: 2010.05.17/outbox.cif.g08.bks.cpg/sg59_6_cif.got.tgz:11153.got - 2010.06.03 14:40:33.
