data_PCOD9452970
_publ_section_title
;
Structure prediction by ZEFSAII (Michael W. Deem and Ramdas Pophale) SiO2 
 PCOD9452970
Probable space group: P M M N
;
_chemical_formula_sum "Si O2"
_cell_formula_units_Z 64
_cell_length_a 25.487280
_cell_length_b 9.211597
_cell_length_c 19.147195
_cell_angle_alpha 90.000000
_cell_angle_beta 90.000000
_cell_angle_gamma 90.000000
_cell_volume 4495.350717
_symmetry_space_group_name_H-M "P M M N"
_symmetry_group_IT_number 59
_space_group.IT_coordinate_system_code '2'
_symmetry_cell_setting 'orthorhombic'
loop_
_space_group_symop_operation_xyz
x,y,z
1/2-x,1/2-y,z
1/2+x,-y,-z
-x,1/2+y,-z
-x,-y,-z
1/2+x,1/2+y,-z
1/2-x,y,z
x,1/2-y,z
loop_
_atom_site_type_symbol
_atom_site_label
_atom_site_fract_x
_atom_site_fract_y
_atom_site_fract_z
Si Si1 0.809208 0.426487 0.929458
Si Si2 0.187700 0.918067 0.232341
Si Si3 0.495606 0.575076 0.267356
Si Si4 0.512505 0.576467 0.106812
Si Si5 0.107565 0.077285 0.327810
Si Si6 0.416949 0.924618 0.005069
Si Si7 0.423175 0.916104 0.462274
Si Si8 0.544332 0.916005 0.408109
O O1 0.750000 0.476432 0.947371
O O2 0.808138 0.250000 0.931992
O O3 0.820617 0.462202 0.848434
O O4 0.858121 0.474443 0.976367
O O5 0.250000 0.920892 0.244157
O O6 0.169680 0.750000 0.240129
O O7 0.157092 0.019945 0.284904
O O8 0.486082 0.750000 0.271318
O O9 0.511112 0.538733 0.188424
O O10 0.443106 0.491452 0.289256
O O11 0.538813 0.541743 0.326959
O O12 0.519710 0.750000 0.101153
O O13 0.456902 0.541992 0.069127
O O14 0.557327 0.496812 0.062681
O O15 0.104036 0.250000 0.329058
O O16 0.107014 0.013513 0.406170
O O17 0.416459 0.750000 0.997175
O O18 0.405184 0.750000 0.460528
O O19 0.483956 0.917221 0.435914
O O20 0.423959 0.981299 0.539915
O O21 0.563054 0.750000 0.413540
#
# Coordination Sequence:
#
# PCOD9452970 Si02
#       8
#     8   8   8   8   8   8   8   8
#     4   8  14  26  45  64  79 102 138 174 206 243
#     4   9  17  30  46  60  77 105 139 171 203 242
#     4   9  17  29  43  57  77 108 142 170 199 243
#     4   9  17  28  41  57  80 111 141 168 203 248
#     4  11  20  27  39  59  83 108 135 170 205 238
#     4   9  16  26  41  60  82 106 135 172 206 241
#     4   9  16  26  39  54  76 106 135 159 188 232
#     4   8  14  24  38  56  76  98 128 166 200 226
#
# _framework density 14.236931999999999
#
# number of rings (size 3 to 8) (size 9 to 14) (size 15 to 20)
#    0.000    3.000    0.000    3.750    0.000    5.750 
#    0.000    3.125    0.000    1.125    0.000    0.000 
#    0.000    1.000    0.000    8.000    0.000    2.875 
#
# Total GULP energy -356331.700038 kJ/mol
# GULP energy per Si atom -5567.682813 kJ/mol
# Density = 1.420453 g / cm^3
# Si number density = 14.236932 Si / 1000 Ang^3
#
#
#
# Elastic Constant Matrix: (Units=GPa)
#
#
# Indices 1 2 3 4 5 6 
#
# 1 56.6095 27.6875 41.8856 0.0000 0.0000 0.0000
# 2 27.6875 50.0500 45.4151 0.0000 0.0000 0.0000
# 3 41.8856 45.4151 120.9084 0.0000 0.0000 0.0000
# 4 0.0000 0.0000 0.0000 21.9336 0.0000 0.0000
# 5 0.0000 0.0000 0.0000 0.0000 17.6157 0.0000
# 6 0.0000 0.0000 0.0000 0.0000 0.0000 15.7200
#
#
#
# Elastic Compliance Matrix: (Units=1/GPa)
#
#
# Indices 1 2 3 4 5 6 
#
# 1 0.026478 -0.009594 -0.005569 0.000000 0.000000 0.000000
# 2 -0.009594 0.033788 -0.009367 0.000000 0.000000 0.000000
# 3 -0.005569 -0.009367 0.013718 0.000000 0.000000 0.000000
# 4 0.000000 0.000000 0.000000 0.045592 0.000000 0.000000
# 5 0.000000 0.000000 0.000000 0.000000 0.056767 0.000000
# 6 0.000000 0.000000 0.000000 0.000000 0.000000 0.063613
#
#
# Mechanical properties :
#
#
# Convention : Reuss Voigt Hill
#
# Bulk Modulus (GPa) = 40.12413 50.83827 45.48120
# Shear Modulus (GPa) = 16.81661 18.55918 17.68789
#
# Velocity S-wave (km/s) = 3.44058 3.61445 3.52859
# Velocity P-wave (km/s) = 6.63534 7.29419 6.97255
#
# Compressibility (1/GPa) = 0.02492266
#
# Stress axis : x y z
#
# Youngs Moduli (GPa) = 37.76754 29.59670 72.89468
#
# Poissons Ratio (x) = 0.28396 0.40593
# Poissons Ratio (y) = 0.36236 0.68284
# Poissons Ratio (z) = 0.21032 0.27724
#
# Static dielectric constant tensor:
#      x y z
#    x 1.457310 0.000000 0.000000 
#    y 0.000000 1.476060 0.000000 
#    z 0.000000 0.000000 1.474200 
# 
# From -- ./inp_files/28471.got.cif
#   From: 2010.05.17/outbox.cif.g08.bks.cpg/sg59_15_cif.got.tgz:28471.got - 2010.06.03 14:40:33.
