data_PCOD9452728
_publ_section_title
;
Structure prediction by ZEFSAII (Michael W. Deem and Ramdas Pophale) SiO2 
 PCOD9452728
Probable space group: P M M N
;
_chemical_formula_sum "Si O2"
_cell_formula_units_Z 56
_cell_length_a 21.808882
_cell_length_b 8.384522
_cell_length_c 14.723892
_cell_angle_alpha 90.000000
_cell_angle_beta 90.000000
_cell_angle_gamma 90.000000
_cell_volume 2692.367469
_symmetry_space_group_name_H-M "P M M N"
_symmetry_group_IT_number 59
_space_group.IT_coordinate_system_code '2'
_symmetry_cell_setting 'orthorhombic'
loop_
_space_group_symop_operation_xyz
x,y,z
1/2-x,1/2-y,z
1/2+x,-y,-z
-x,1/2+y,-z
-x,-y,-z
1/2+x,1/2+y,-z
1/2-x,y,z
x,1/2-y,z
loop_
_atom_site_type_symbol
_atom_site_label
_atom_site_fract_x
_atom_site_fract_y
_atom_site_fract_z
Si Si1 0.817920 0.559209 0.390034
Si Si2 0.750000 0.569476 0.108729
Si Si3 0.563840 0.059933 0.283400
Si Si4 0.817636 0.056806 0.597381
Si Si5 0.882615 0.441388 0.100965
Si Si6 0.617498 0.441030 0.896237
Si Si7 0.065325 0.557799 0.287459
Si Si8 0.250000 0.068837 0.111543
O O1 0.750000 0.507105 0.356384
O O2 0.820573 0.750000 0.383329
O O3 0.875450 0.487847 0.337606
O O4 0.821743 0.508202 0.495259
O O5 0.750000 0.750000 0.144445
O O6 0.813415 0.483964 0.131284
O O7 0.750000 0.575075 0.998679
O O8 0.559898 0.250000 0.281334
O O9 0.573070 0.998225 0.179941
O O10 0.500636 0.994231 0.323142
O O11 0.750000 0.011065 0.634390
O O12 0.819358 0.250000 0.594175
O O13 0.876002 0.001789 0.655093
O O14 0.887218 0.250000 0.096967
O O15 0.893109 0.504495 0.998505
O O16 0.611982 0.250000 0.900987
O O17 0.574094 0.501412 0.816210
O O18 0.687044 0.480417 0.865947
O O19 0.067309 0.750000 0.286528
O O20 0.250000 0.250000 0.145605
#
# Coordination Sequence:
#
# PCOD9452728 Si02
#       8
#     8   4   8   8   8   8   8   4
#     4  10  22  41  65  91 116 145 187 238 291 347
#     4   9  17  29  49  77 106 139 184 239 291 332
#     4  11  24  39  57  83 119 159 197 237 288 345
#     4   9  19  38  64  91 117 146 185 234 289 349
#     4   9  19  35  53  78 112 154 198 237 281 338
#     4   9  18  34  56  79 111 154 198 239 282 336
#     4  10  22  38  59  87 118 154 197 240 286 340
#     4   9  17  29  47  77 110 141 184 237 289 334
#
# _framework density 20.799537999999998
#
# number of rings (size 3 to 8) (size 9 to 14) (size 15 to 20)
#    0.000    2.429    0.000    1.286    2.000    6.000 
#    0.000    0.000    0.000    0.000    0.000    0.000 
#    0.000    0.000    0.000    0.000    0.000    0.000 
#
# Total GULP energy -312537.919027 kJ/mol
# GULP energy per Si atom -5581.034268 kJ/mol
# Density = 2.075220 g / cm^3
# Si number density = 20.799538 Si / 1000 Ang^3
#
#
#
# Elastic Constant Matrix: (Units=GPa)
#
#
# Indices 1 2 3 4 5 6 
#
# 1 148.9840 6.2764 59.3481 0.0000 0.0000 0.0000
# 2 6.2764 7.0648 7.5866 0.0000 0.0000 0.0000
# 3 59.3481 7.5866 69.1302 0.0000 0.0000 0.0000
# 4 0.0000 0.0000 0.0000 8.4999 0.0000 0.0000
# 5 0.0000 0.0000 0.0000 0.0000 17.1666 0.0000
# 6 0.0000 0.0000 0.0000 0.0000 0.0000 12.4894
#
#
#
# Elastic Compliance Matrix: (Units=1/GPa)
#
#
# Indices 1 2 3 4 5 6 
#
# 1 0.010202 0.000387 -0.008800 0.000000 0.000000 0.000000
# 2 0.000387 0.160470 -0.017943 0.000000 0.000000 0.000000
# 3 -0.008800 -0.017943 0.023990 0.000000 0.000000 0.000000
# 4 0.000000 0.000000 0.000000 0.117649 0.000000 0.000000
# 5 0.000000 0.000000 0.000000 0.000000 0.058253 0.000000
# 6 0.000000 0.000000 0.000000 0.000000 0.000000 0.080068
#
#
# Mechanical properties :
#
#
# Convention : Reuss Voigt Hill
#
# Bulk Modulus (GPa) = 7.04477 41.28903 24.16690
# Shear Modulus (GPa) = 9.08002 17.76238 13.42120
#
# Velocity S-wave (km/s) = 2.09164 2.92546 2.54296
# Velocity P-wave (km/s) = 3.03770 5.59510 4.50182
#
# Compressibility (1/GPa) = 0.14194922
#
# Stress axis : x y z
#
# Youngs Moduli (GPa) = 98.02476 6.23168 41.68444
#
# Poissons Ratio (x) = -0.00241 0.36684
# Poissons Ratio (y) = -0.03797 0.74795
# Poissons Ratio (z) = 0.86266 0.11182
#
# Static dielectric constant tensor:
#      x y z
#    x 1.739330 0.000000 0.000000 
#    y 0.000000 1.711030 0.000000 
#    z 0.000000 0.000000 1.779140 
# 
# From -- ./inp_files/24387.got.cif
#   From: 2010.05.17/outbox.cif.g08.bks.cpg/sg59_13_cif.got.tgz:24387.got - 2010.06.03 14:40:33.
