data_PCOD9452596
_publ_section_title
;
Structure prediction by ZEFSAII (Michael W. Deem and Ramdas Pophale) SiO2 
 PCOD9452596
Probable space group: P M M N
;
_chemical_formula_sum "Si O2"
_cell_formula_units_Z 60
_cell_length_a 20.712075
_cell_length_b 22.932856
_cell_length_c 6.140405
_cell_angle_alpha 90.000000
_cell_angle_beta 90.000000
_cell_angle_gamma 90.000000
_cell_volume 2916.612755
_symmetry_space_group_name_H-M "P M M N"
_symmetry_group_IT_number 59
_space_group.IT_coordinate_system_code '2'
_symmetry_cell_setting 'orthorhombic'
loop_
_space_group_symop_operation_xyz
x,y,z
1/2-x,1/2-y,z
1/2+x,-y,-z
-x,1/2+y,-z
-x,-y,-z
1/2+x,1/2+y,-z
1/2-x,y,z
x,1/2-y,z
loop_
_atom_site_type_symbol
_atom_site_label
_atom_site_fract_x
_atom_site_fract_y
_atom_site_fract_z
Si Si1 0.412293 0.904317 0.821024
Si Si2 0.561295 0.315680 0.554006
Si Si3 0.175356 0.974439 0.504275
Si Si4 0.475511 0.383515 0.892591
Si Si5 0.374240 0.180757 0.202402
Si Si6 0.637403 0.903745 0.405254
Si Si7 0.750000 0.636990 0.071249
Si Si8 0.824813 0.364510 0.805308
O O1 0.442240 0.860708 0.643625
O O2 0.373098 0.953457 0.692568
O O3 0.470268 0.921168 0.982964
O O4 0.359434 0.869537 0.963243
O O5 0.547399 0.250000 0.487641
O O6 0.514572 0.337283 0.745589
O O7 0.633424 0.322438 0.652398
O O8 0.250000 0.971710 0.578414
O O9 0.169447 0.928684 0.307093
O O10 0.157789 0.040739 0.449519
O O11 0.427704 0.416422 0.728922
O O12 0.430994 0.349563 0.064218
O O13 0.382903 0.250000 0.212455
O O14 0.372880 0.151784 0.440758
O O15 0.307085 0.165307 0.083775
O O16 0.693693 0.890356 0.234010
O O17 0.750000 0.349168 0.819424
#
# Coordination Sequence:
#
# PCOD9452596 Si02
#       8
#     8   8   8   8   8   8   4   8
#     4  10  21  39  61  90 122 162 205 251 313 365
#     4  10  21  39  62  86 122 162 203 251 300 365
#     4  10  21  40  64  89 121 160 202 255 310 370
#     4  10  23  40  61  91 122 158 210 254 305 374
#     4  11  24  41  63  91 127 168 204 253 317 371
#     4  11  23  41  63  93 123 156 209 258 305 369
#     4  10  23  40  60  90 122 156 205 254 302 368
#     4   9  20  38  60  90 121 157 201 249 308 367
#
# _framework density 20.571808000000001
#
# number of rings (size 3 to 8) (size 9 to 14) (size 15 to 20)
#    0.000    1.867    0.667    2.200    0.000   10.400 
#    2.400    9.333    0.000    0.000    0.000    0.000 
#    0.000    0.000    0.000    0.000    0.000    0.000 
#
# Total GULP energy -334050.940773 kJ/mol
# GULP energy per Si atom -5567.515680 kJ/mol
# Density = 2.052499 g / cm^3
# Si number density = 20.571808 Si / 1000 Ang^3
#
#
#
# Elastic Constant Matrix: (Units=GPa)
#
#
# Indices 1 2 3 4 5 6 
#
# 1 139.8854 -0.0172 22.4182 0.0000 0.0000 0.0000
# 2 -0.0172 44.1163 -3.4079 0.0000 0.0000 0.0000
# 3 22.4182 -3.4079 36.5620 0.0000 0.0000 0.0000
# 4 0.0000 0.0000 0.0000 8.5885 0.0000 0.0000
# 5 0.0000 0.0000 0.0000 0.0000 19.0750 0.0000
# 6 0.0000 0.0000 0.0000 0.0000 0.0000 11.3706
#
#
#
# Elastic Compliance Matrix: (Units=1/GPa)
#
#
# Indices 1 2 3 4 5 6 
#
# 1 0.007934 -0.000375 -0.004900 0.000000 0.000000 0.000000
# 2 -0.000375 0.022850 0.002360 0.000000 0.000000 0.000000
# 3 -0.004900 0.002360 0.030575 0.000000 0.000000 0.000000
# 4 0.000000 0.000000 0.000000 0.116435 0.000000 0.000000
# 5 0.000000 0.000000 0.000000 0.000000 0.052425 0.000000
# 6 0.000000 0.000000 0.000000 0.000000 0.000000 0.087946
#
#
# Mechanical properties :
#
#
# Convention : Reuss Voigt Hill
#
# Bulk Modulus (GPa) = 18.00888 28.72776 23.36832
# Shear Modulus (GPa) = 14.59835 21.24483 17.92159
#
# Velocity S-wave (km/s) = 2.66678 3.21708 2.95477
# Velocity P-wave (km/s) = 4.27264 5.27204 4.79843
#
# Compressibility (1/GPa) = 0.05552817
#
# Stress axis : x y z
#
# Youngs Moduli (GPa) = 126.04139 43.76458 32.70635
#
# Poissons Ratio (x) = 0.01643 0.16025
# Poissons Ratio (y) = 0.04732 -0.07718
# Poissons Ratio (z) = 0.61757 -0.10328
#
# Static dielectric constant tensor:
#      x y z
#    x 1.732510 0.000000 0.000000 
#    y 0.000000 1.704520 0.000000 
#    z 0.000000 0.000000 1.734550 
# 
# From -- ./inp_files/3482.got.cif
#   From: 2010.05.17/outbox.cif.g08.bks.cpg/sg59_2_cif.got.tgz:3482.got - 2010.06.03 14:40:33.
