data_PCOD9452373
_publ_section_title
;
Structure prediction by ZEFSAII (Michael W. Deem and Ramdas Pophale) SiO2 
 PCOD9452373
Probable space group: P M M N
;
_chemical_formula_sum "Si O2"
_cell_formula_units_Z 64
_cell_length_a 17.656744
_cell_length_b 8.685382
_cell_length_c 23.864290
_cell_angle_alpha 90.000000
_cell_angle_beta 90.000000
_cell_angle_gamma 90.000000
_cell_volume 3659.721712
_symmetry_space_group_name_H-M "P M M N"
_symmetry_group_IT_number 59
_space_group.IT_coordinate_system_code '2'
_symmetry_cell_setting 'orthorhombic'
loop_
_space_group_symop_operation_xyz
x,y,z
1/2-x,1/2-y,z
1/2+x,-y,-z
-x,1/2+y,-z
-x,-y,-z
1/2+x,1/2+y,-z
1/2-x,y,z
x,1/2-y,z
loop_
_atom_site_type_symbol
_atom_site_label
_atom_site_fract_x
_atom_site_fract_y
_atom_site_fract_z
Si Si1 0.482274 0.434936 0.740707
Si Si2 0.662183 0.566907 0.538826
Si Si3 0.073802 0.434794 0.031572
Si Si4 0.335531 0.935847 0.934535
Si Si5 0.483495 0.935132 0.863915
Si Si6 0.334904 0.434140 0.671922
Si Si7 0.062267 0.566253 0.371285
Si Si8 0.915445 0.068455 0.430927
O O1 0.484810 0.250000 0.744264
O O2 0.493032 0.503121 0.801733
O O3 0.399572 0.477813 0.716111
O O4 0.541476 0.482111 0.692128
O O5 0.750000 0.526456 0.530818
O O6 0.653753 0.750000 0.532789
O O7 0.632740 0.514510 0.599409
O O8 0.612000 0.485520 0.491438
O O9 0.076084 0.250000 0.027559
O O10 0.054109 0.477531 0.095628
O O11 0.143178 0.503987 0.996643
O O12 0.000000 0.500000 0.000000
O O13 0.250000 0.983471 0.918653
O O14 0.337795 0.750000 0.935494
O O15 0.403688 0.987488 0.892840
O O16 0.480223 0.750000 0.862566
O O17 0.250000 0.463344 0.691961
O O18 0.342630 0.250000 0.660962
O O19 0.351630 0.522868 0.614483
O O20 0.071141 0.750000 0.372437
O O21 0.989485 0.519946 0.408787
O O22 0.930127 0.250000 0.430534
#
# Coordination Sequence:
#
# PCOD9452373 Si02
#       8
#     8   8   8   8   8   8   8   8
#     4   9  19  33  50  72  96 128 169 208 245 287
#     4  11  23  37  54  77 103 129 159 201 255 308
#     4   9  17  30  48  71  98 129 165 201 239 282
#     4   9  18  32  49  73 106 137 163 198 246 292
#     4   9  18  31  48  71  99 131 165 203 244 288
#     4   9  18  33  49  67  98 135 167 204 249 293
#     4  10  21  38  56  74 100 132 167 208 251 294
#     4  11  21  33  52  77 103 131 166 204 245 299
#
# _framework density 17.487669
#
# number of rings (size 3 to 8) (size 9 to 14) (size 15 to 20)
#    0.000    2.375    0.000    4.500    0.000    8.500 
#    0.000    0.000    0.000    0.750    0.000    0.000 
#    0.000    0.000    0.000    0.000    0.000    0.000 
#
# Total GULP energy -356833.649477 kJ/mol
# GULP energy per Si atom -5575.525773 kJ/mol
# Density = 1.744787 g / cm^3
# Si number density = 17.487669 Si / 1000 Ang^3
#
#
#
# Elastic Constant Matrix: (Units=GPa)
#
#
# Indices 1 2 3 4 5 6 
#
# 1 21.1220 -0.0807 18.8033 0.0000 0.0000 0.0000
# 2 -0.0807 5.6531 10.4706 0.0000 0.0000 0.0000
# 3 18.8033 10.4706 123.4883 0.0000 0.0000 0.0000
# 4 0.0000 0.0000 0.0000 32.4674 0.0000 0.0000
# 5 0.0000 0.0000 0.0000 0.0000 11.3599 0.0000
# 6 0.0000 0.0000 0.0000 0.0000 0.0000 20.3299
#
#
#
# Elastic Compliance Matrix: (Units=1/GPa)
#
#
# Indices 1 2 3 4 5 6 
#
# 1 0.056593 0.019893 -0.010304 0.000000 0.000000 0.000000
# 2 0.019893 0.216844 -0.021415 0.000000 0.000000 0.000000
# 3 -0.010304 -0.021415 0.011483 0.000000 0.000000 0.000000
# 4 0.000000 0.000000 0.000000 0.030800 0.000000 0.000000
# 5 0.000000 0.000000 0.000000 0.000000 0.088029 0.000000
# 6 0.000000 0.000000 0.000000 0.000000 0.000000 0.049189
#
#
# Mechanical properties :
#
#
# Convention : Reuss Voigt Hill
#
# Bulk Modulus (GPa) = 3.82750 23.18331 13.50541
# Shear Modulus (GPa) = 8.87030 20.90278 14.88654
#
# Velocity S-wave (km/s) = 2.25462 3.46104 2.92080
# Velocity P-wave (km/s) = 2.99520 5.40902 4.37200
#
# Compressibility (1/GPa) = 0.26126700
#
# Stress axis : x y z
#
# Youngs Moduli (GPa) = 17.67001 4.61162 87.08728
#
# Poissons Ratio (x) = -0.09174 0.89735
# Poissons Ratio (y) = -0.35151 1.86501
# Poissons Ratio (z) = 0.18207 0.09876
#
# Static dielectric constant tensor:
#      x y z
#    x 1.601010 0.000000 0.000000 
#    y 0.000000 1.587580 0.000000 
#    z 0.000000 0.000000 1.599950 
# 
# From -- ./inp_files/32302.got.cif
#   From: 2010.05.17/outbox.cif.g08.bks.cpg/sg59_17_cif.got.tgz:32302.got - 2010.06.03 14:40:33.
