data_PCOD9452911
_publ_section_title
;
Structure prediction by ZEFSAII (Michael W. Deem and Ramdas Pophale) SiO2 
 PCOD9452911
Probable space group: P M M N
;
_chemical_formula_sum "Si O2"
_cell_formula_units_Z 48
_cell_length_a 18.895515
_cell_length_b 7.841516
_cell_length_c 16.571417
_cell_angle_alpha 90.000000
_cell_angle_beta 90.000000
_cell_angle_gamma 90.000000
_cell_volume 2455.378293
_symmetry_space_group_name_H-M "P M M N"
_symmetry_group_IT_number 59
_space_group.IT_coordinate_system_code '2'
_symmetry_cell_setting 'orthorhombic'
loop_
_space_group_symop_operation_xyz
x,y,z
1/2-x,1/2-y,z
1/2+x,-y,-z
-x,1/2+y,-z
-x,-y,-z
1/2+x,1/2+y,-z
1/2-x,y,z
x,1/2-y,z
loop_
_atom_site_type_symbol
_atom_site_label
_atom_site_fract_x
_atom_site_fract_y
_atom_site_fract_z
Si Si1 0.570449 0.952480 0.549818
Si Si2 0.902750 0.563492 0.198504
Si Si3 0.665589 0.250000 0.292181
Si Si4 0.831009 0.043564 0.861110
Si Si5 0.918632 0.045564 0.018073
Si Si6 0.665249 0.250000 0.480987
Si Si7 0.950375 0.948875 0.739248
O O1 0.585886 0.750000 0.539347
O O2 0.556523 0.984453 0.644553
O O3 0.500000 0.000000 0.500000
O O4 0.631306 0.080830 0.520227
O O5 0.875596 0.750000 0.220605
O O6 0.864813 0.415676 0.248009
O O7 0.896054 0.533201 0.103076
O O8 0.985971 0.551671 0.220125
O O9 0.750000 0.250000 0.287058
O O10 0.645112 0.250000 0.386250
O O11 0.750000 0.985233 0.857834
O O12 0.831124 0.250000 0.860822
O O13 0.877851 0.983807 0.786040
O O14 0.870284 0.988570 0.943250
O O15 0.913266 0.250000 0.025346
O O16 0.000000 0.000000 0.000000
O O17 0.750000 0.250000 0.488478
O O18 0.968859 0.750000 0.748904
#
# Coordination Sequence:
#
# PCOD9452911 Si02
#       7
#     8   8   4   8   8   4   8
#     4  11  24  42  69 102 134 173 228 280 331 404
#     4  12  24  41  70  99 129 174 223 273 328 393
#     4  11  26  48  68  97 134 170 217 277 338 398
#     4  10  23  40  61  92 130 175 222 270 327 391
#     4  11  21  38  62  94 129 172 219 271 326 388
#     4  11  26  46  70  99 138 180 215 271 354 412
#     4  11  23  40  64  97 133 172 219 273 330 390
#
# _framework density 19.548924
#
# number of rings (size 3 to 8) (size 9 to 14) (size 15 to 20)
#    0.000    1.000    4.167    2.000    2.333    5.000 
#    0.000    3.333    0.000    0.000    0.000    0.000 
#    0.000    0.000    0.000    0.000    0.000    0.000 
#
# Total GULP energy -268501.469281 kJ/mol
# GULP energy per Si atom -5593.780610 kJ/mol
# Density = 1.950443 g / cm^3
# Si number density = 19.548924 Si / 1000 Ang^3
#
#
#
# Elastic Constant Matrix: (Units=GPa)
#
#
# Indices 1 2 3 4 5 6 
#
# 1 85.5992 31.2238 58.6146 0.0000 0.0000 0.0000
# 2 31.2238 108.3414 58.0036 0.0000 0.0000 0.0000
# 3 58.6146 58.0036 149.5652 0.0000 0.0000 0.0000
# 4 0.0000 0.0000 0.0000 17.1135 0.0000 0.0000
# 5 0.0000 0.0000 0.0000 0.0000 30.9893 0.0000
# 6 0.0000 0.0000 0.0000 0.0000 0.0000 26.9393
#
#
#
# Elastic Compliance Matrix: (Units=1/GPa)
#
#
# Indices 1 2 3 4 5 6 
#
# 1 0.016184 -0.001601 -0.005722 0.000000 0.000000 0.000000
# 2 -0.001601 0.011807 -0.003952 0.000000 0.000000 0.000000
# 3 -0.005722 -0.003952 0.010461 0.000000 0.000000 0.000000
# 4 0.000000 0.000000 0.000000 0.058433 0.000000 0.000000
# 5 0.000000 0.000000 0.000000 0.000000 0.032269 0.000000
# 6 0.000000 0.000000 0.000000 0.000000 0.000000 0.037120
#
#
# Mechanical properties :
#
#
# Convention : Reuss Voigt Hill
#
# Bulk Modulus (GPa) = 62.87838 71.02108 66.94973
# Shear Modulus (GPa) = 25.75658 28.05267 26.90463
#
# Velocity S-wave (km/s) = 3.63374 3.79225 3.71384
# Velocity P-wave (km/s) = 7.05973 7.45544 7.26029
#
# Compressibility (1/GPa) = 0.01590372
#
# Stress axis : x y z
#
# Youngs Moduli (GPa) = 61.78805 84.69522 95.59445
#
# Poissons Ratio (x) = 0.13560 0.54697
# Poissons Ratio (y) = 0.09892 0.37774
# Poissons Ratio (z) = 0.35354 0.33467
#
# Static dielectric constant tensor:
#      x y z
#    x 1.650670 0.000000 0.000000 
#    y 0.000000 1.691780 0.000000 
#    z 0.000000 0.000000 1.660080 
# 
# From -- ./inp_files/23731.got.cif
#   From: 2010.05.17/outbox.cif.g08.bks.cpg/sg59_12_cif.got.tgz:23731.got - 2010.06.03 14:40:33.
