data_PCOD9452764
_publ_section_title
;
Structure prediction by ZEFSAII (Michael W. Deem and Ramdas Pophale) SiO2 
 PCOD9452764
Probable space group: P M M N
;
_chemical_formula_sum "Si O2"
_cell_formula_units_Z 56
_cell_length_a 19.279285
_cell_length_b 8.987302
_cell_length_c 18.204684
_cell_angle_alpha 90.000000
_cell_angle_beta 90.000000
_cell_angle_gamma 90.000000
_cell_volume 3154.302962
_symmetry_space_group_name_H-M "P M M N"
_symmetry_group_IT_number 59
_space_group.IT_coordinate_system_code '2'
_symmetry_cell_setting 'orthorhombic'
loop_
_space_group_symop_operation_xyz
x,y,z
1/2-x,1/2-y,z
1/2+x,-y,-z
-x,1/2+y,-z
-x,-y,-z
1/2+x,1/2+y,-z
1/2-x,y,z
x,1/2-y,z
loop_
_atom_site_type_symbol
_atom_site_label
_atom_site_fract_x
_atom_site_fract_y
_atom_site_fract_z
Si Si1 0.435909 0.428830 0.805434
Si Si2 0.169243 0.428680 0.373217
Si Si3 0.083562 0.071702 0.228260
Si Si4 0.330506 0.071440 0.676166
Si Si5 0.831345 0.073553 0.902571
Si Si6 0.334319 0.578566 0.524802
Si Si7 0.068017 0.927364 0.963482
O O1 0.439235 0.250000 0.811877
O O2 0.509879 0.491914 0.779637
O O3 0.378063 0.468836 0.745092
O O4 0.420125 0.499416 0.884541
O O5 0.250000 0.472863 0.360842
O O6 0.168173 0.250000 0.380267
O O7 0.122723 0.470048 0.303585
O O8 0.144123 0.499156 0.449556
O O9 0.074763 0.250000 0.226612
O O10 0.130615 0.019920 0.160118
O O11 0.250000 0.027230 0.687798
O O12 0.332035 0.250000 0.668157
O O13 0.356311 0.000122 0.600078
O O14 0.750000 0.039679 0.905563
O O15 0.839660 0.250000 0.885947
O O16 0.868973 0.047060 0.980165
O O17 0.250000 0.571802 0.524900
O O18 0.355504 0.750000 0.524603
O O19 0.057636 0.750000 0.955637
O O20 0.000000 0.000000 0.000000
#
# Coordination Sequence:
#
# PCOD9452764 Si02
#       7
#     8   8   8   8   8   8   8
#     4  11  23  38  58  83 112 147 187 229 280 338
#     4   9  18  33  53  78 109 145 185 227 272 327
#     4  11  22  36  56  82 113 150 190 230 276 332
#     4   9  19  37  59  81 108 144 186 232 281 333
#     4  10  22  39  59  84 114 147 184 230 282 332
#     4   9  17  30  52  82 111 141 180 227 280 332
#     4  11  22  38  60  83 111 148 187 226 275 334
#
# _framework density 17.753526000000001
#
# number of rings (size 3 to 8) (size 9 to 14) (size 15 to 20)
#    0.000    2.000    1.429    2.143    0.000    6.000 
#    0.000    2.143    0.000    0.000    0.000    0.000 
#    0.000    0.000    0.000    0.000    0.000    0.000 
#
# Total GULP energy -312643.393207 kJ/mol
# GULP energy per Si atom -5582.917736 kJ/mol
# Density = 1.771312 g / cm^3
# Si number density = 17.753526 Si / 1000 Ang^3
#
#
#
# Elastic Constant Matrix: (Units=GPa)
#
#
# Indices 1 2 3 4 5 6 
#
# 1 89.7944 46.7951 75.3442 0.0000 0.0000 0.0000
# 2 46.7951 57.9167 76.7619 0.0000 0.0000 0.0000
# 3 75.3442 76.7619 196.8815 0.0000 0.0000 0.0000
# 4 0.0000 0.0000 0.0000 32.8100 0.0000 0.0000
# 5 0.0000 0.0000 0.0000 0.0000 -592.8806 0.0000
# 6 0.0000 0.0000 0.0000 0.0000 0.0000 15.2580
#
#
#
# Elastic Compliance Matrix: (Units=1/GPa)
#
#
# Indices 1 2 3 4 5 6 
#
# 1 0.019952 -0.012418 -0.002794 0.000000 0.000000 0.000000
# 2 -0.012418 0.043458 -0.012192 0.000000 0.000000 0.000000
# 3 -0.002794 -0.012192 0.010902 0.000000 0.000000 0.000000
# 4 0.000000 0.000000 0.000000 0.030478 0.000000 0.000000
# 5 0.000000 0.000000 0.000000 0.000000 -0.001687 0.000000
# 6 0.000000 0.000000 0.000000 0.000000 0.000000 0.065539
#
#
# Mechanical properties :
#
#
# Convention : Reuss Voigt Hill
#
# Bulk Modulus (GPa) = 51.26818 82.48833 66.87826
# Shear Modulus (GPa) = 21.74367 -99.24976 -38.75304
#
# Velocity S-wave (km/s) = 3.50344 -7.48503 -4.67715
# Velocity P-wave (km/s) = 6.73097 5.30442 2.92993
#
# Compressibility (1/GPa) = 0.01950528
#
# Stress axis : x y z
#
# Youngs Moduli (GPa) = 50.11967 23.01064 91.72809
#
# Poissons Ratio (x) = 0.28574 0.25628
# Poissons Ratio (y) = 0.62238 1.11832
# Poissons Ratio (z) = 0.14003 0.28054
#
# Static dielectric constant tensor:
#      x y z
#    x 1.590250 0.000000 0.000000 
#    y 0.000000 1.596530 0.000000 
#    z 0.000000 0.000000 1.583170 
# 
# From -- ./inp_files/28036.got.cif
#   From: 2010.05.17/outbox.cif.g08.bks.cpg/sg59_15_cif.got.tgz:28036.got - 2010.06.03 14:40:33.
