data_PCOD9452053
_publ_section_title
;
Structure prediction by ZEFSAII (Michael W. Deem and Ramdas Pophale) SiO2 
 PCOD9452053
Probable space group: P M M N
;
_chemical_formula_sum "Si O2"
_cell_formula_units_Z 40
_cell_length_a 14.682069
_cell_length_b 8.651767
_cell_length_c 17.673355
_cell_angle_alpha 90.000000
_cell_angle_beta 90.000000
_cell_angle_gamma 90.000000
_cell_volume 2244.972766
_symmetry_space_group_name_H-M "P M M N"
_symmetry_group_IT_number 59
_space_group.IT_coordinate_system_code '2'
_symmetry_cell_setting 'orthorhombic'
loop_
_space_group_symop_operation_xyz
x,y,z
1/2-x,1/2-y,z
1/2+x,-y,-z
-x,1/2+y,-z
-x,-y,-z
1/2+x,1/2+y,-z
1/2-x,y,z
x,1/2-y,z
loop_
_atom_site_type_symbol
_atom_site_label
_atom_site_fract_x
_atom_site_fract_y
_atom_site_fract_z
Si Si1 0.944248 0.063255 0.717660
Si Si2 0.750000 0.438046 0.653823
Si Si3 0.494023 0.435000 0.119313
Si Si4 0.058475 0.435562 0.569873
Si Si5 0.144993 0.436685 0.987930
Si Si6 0.250000 0.564258 0.522828
O O1 0.943797 0.250000 0.722447
O O2 0.842154 0.011654 0.695250
O O3 0.010224 0.019511 0.648369
O O4 0.976155 0.996293 0.797083
O O5 0.750000 0.250000 0.653531
O O6 0.750000 0.485043 0.565742
O O7 0.497729 0.250000 0.119677
O O8 0.586341 0.499493 0.081938
O O9 0.411187 0.483067 0.063202
O O10 0.059225 0.250000 0.565672
O O11 0.159602 0.500653 0.561811
O O12 0.000000 0.500000 0.500000
O O13 0.250000 0.488163 0.988948
O O14 0.144317 0.250000 0.984527
O O15 0.250000 0.750000 0.524362
#
# Coordination Sequence:
#
# PCOD9452053 Si02
#       6
#     8   4   8   8   8   4
#     4  10  21  38  58  82 116 153 187 227 283 344
#     4   9  18  35  57  83 112 147 186 227 279 340
#     4  10  21  36  57  87 117 142 183 234 278 329
#     4  11  22  38  60  85 115 154 198 240 289 346
#     4   9  19  38  61  82 111 150 184 222 279 339
#     4  11  21  39  61  83 114 151 196 247 293 344
#
# _framework density 17.817589999999999
#
# number of rings (size 3 to 8) (size 9 to 14) (size 15 to 20)
#    0.000    2.000    2.000    1.500    1.400    2.800 
#    1.800    0.000    0.000    0.000    0.000    0.000 
#    0.000    0.000    0.000    0.000    0.000    0.000 
#
# Total GULP energy -223347.735651 kJ/mol
# GULP energy per Si atom -5583.693391 kJ/mol
# Density = 1.777704 g / cm^3
# Si number density = 17.817590 Si / 1000 Ang^3
#
#
#
# Elastic Constant Matrix: (Units=GPa)
#
#
# Indices 1 2 3 4 5 6 
#
# 1 193.2014 39.6865 101.9436 0.0000 0.0000 0.0000
# 2 39.6865 27.4434 39.3454 0.0000 0.0000 0.0000
# 3 101.9436 39.3454 173.2928 0.0000 0.0000 0.0000
# 4 0.0000 0.0000 0.0000 27.2491 0.0000 0.0000
# 5 0.0000 0.0000 0.0000 0.0000 14.6311 0.0000
# 6 0.0000 0.0000 0.0000 0.0000 0.0000 28.8760
#
#
#
# Elastic Compliance Matrix: (Units=1/GPa)
#
#
# Indices 1 2 3 4 5 6 
#
# 1 0.008442 -0.007544 -0.003254 0.000000 0.000000 0.000000
# 2 -0.007544 0.060766 -0.009359 0.000000 0.000000 0.000000
# 3 -0.003254 -0.009359 0.009809 0.000000 0.000000 0.000000
# 4 0.000000 0.000000 0.000000 0.036698 0.000000 0.000000
# 5 0.000000 0.000000 0.000000 0.000000 0.068347 0.000000
# 6 0.000000 0.000000 0.000000 0.000000 0.000000 0.034631
#
#
# Mechanical properties :
#
#
# Convention : Reuss Voigt Hill
#
# Bulk Modulus (GPa) = 25.83648 83.98763 54.91206
# Shear Modulus (GPa) = 18.38854 28.34871 23.36862
#
# Velocity S-wave (km/s) = 3.21603 3.99313 3.62546
# Velocity P-wave (km/s) = 5.32189 8.27647 6.95782
#
# Compressibility (1/GPa) = 0.03870496
#
# Stress axis : x y z
#
# Youngs Moduli (GPa) = 118.44986 16.45664 101.94297
#
# Poissons Ratio (x) = 0.12415 0.33168
# Poissons Ratio (y) = 0.89360 0.95404
# Poissons Ratio (z) = 0.38539 0.15401
#
# Static dielectric constant tensor:
#      x y z
#    x 1.595850 0.000000 0.000000 
#    y 0.000000 1.604770 0.000000 
#    z 0.000000 0.000000 1.575870 
# 
# From -- ./inp_files/19936.got.cif
#   From: 2010.05.17/outbox.cif.g08.bks.cpg/sg59_10_cif.got.tgz:19936.got - 2010.06.03 14:40:33.
