data_PCOD9452662
_publ_section_title
;
Structure prediction by ZEFSAII (Michael W. Deem and Ramdas Pophale) SiO2 
 PCOD9452662
Probable space group: P M M N
;
_chemical_formula_sum "Si O2"
_cell_formula_units_Z 40
_cell_length_a 14.139711
_cell_length_b 10.046235
_cell_length_c 13.941066
_cell_angle_alpha 90.000000
_cell_angle_beta 90.000000
_cell_angle_gamma 90.000000
_cell_volume 1980.340408
_symmetry_space_group_name_H-M "P M M N"
_symmetry_group_IT_number 59
_space_group.IT_coordinate_system_code '2'
_symmetry_cell_setting 'orthorhombic'
loop_
_space_group_symop_operation_xyz
x,y,z
1/2-x,1/2-y,z
1/2+x,-y,-z
-x,1/2+y,-z
-x,-y,-z
1/2+x,1/2+y,-z
1/2-x,y,z
x,1/2-y,z
loop_
_atom_site_type_symbol
_atom_site_label
_atom_site_fract_x
_atom_site_fract_y
_atom_site_fract_z
Si Si1 0.497960 0.409095 0.594739
Si Si2 0.638632 0.094323 0.766294
Si Si3 0.642445 0.097133 0.295834
Si Si4 0.646472 0.054362 0.068385
Si Si5 0.066287 0.390545 0.076998
O O1 0.500000 0.500000 0.500000
O O2 0.484290 0.250000 0.577032
O O3 0.590845 0.423114 0.662003
O O4 0.416111 0.480025 0.656293
O O5 0.750000 0.062885 0.765012
O O6 0.627575 0.250000 0.792012
O O7 0.586665 0.004327 0.845250
O O8 0.750000 0.096863 0.332371
O O9 0.605537 0.250000 0.308622
O O10 0.646399 0.066844 0.182500
O O11 0.750000 0.105862 0.036361
O O12 0.543266 0.112968 0.043595
O O13 0.632568 0.914596 0.014944
O O14 0.087779 0.250000 0.124186
#
# Coordination Sequence:
#
# PCOD9452662 Si02
#       5
#     8   8   8   8   8
#     4  11  24  42  65  93 125 160 206 260 317 374
#     4  10  23  43  64  88 123 166 207 250 308 374
#     4  10  21  40  66  93 123 163 208 254 309 372
#     4  10  22  38  58  90 131 170 205 246 306 371
#     4  11  23  39  63  94 127 163 211 261 302 355
#
# _framework density 20.198549
#
# number of rings (size 3 to 8) (size 9 to 14) (size 15 to 20)
#    0.000    1.600    2.000    1.800    0.000    9.600 
#    0.000    6.000    0.000    0.000    0.000    0.000 
#    0.000    0.000    0.000    0.000    0.000    0.000 
#
# Total GULP energy -222769.695763 kJ/mol
# GULP energy per Si atom -5569.242394 kJ/mol
# Density = 2.015258 g / cm^3
# Si number density = 20.198549 Si / 1000 Ang^3
#
#
#
# Elastic Constant Matrix: (Units=GPa)
#
#
# Indices 1 2 3 4 5 6 
#
# 1 127.5112 70.3512 31.0089 0.0000 0.0000 0.0000
# 2 70.3512 141.9276 66.6475 0.0000 0.0000 0.0000
# 3 31.0089 66.6475 63.0120 0.0000 0.0000 0.0000
# 4 0.0000 0.0000 0.0000 25.6824 0.0000 0.0000
# 5 0.0000 0.0000 0.0000 0.0000 13.2197 0.0000
# 6 0.0000 0.0000 0.0000 0.0000 0.0000 10.3835
#
#
#
# Elastic Compliance Matrix: (Units=1/GPa)
#
#
# Indices 1 2 3 4 5 6 
#
# 1 0.010810 -0.005683 0.000691 0.000000 0.000000 0.000000
# 2 -0.005683 0.016986 -0.015170 0.000000 0.000000 0.000000
# 3 0.000691 -0.015170 0.031575 0.000000 0.000000 0.000000
# 4 0.000000 0.000000 0.000000 0.038937 0.000000 0.000000
# 5 0.000000 0.000000 0.000000 0.000000 0.075645 0.000000
# 6 0.000000 0.000000 0.000000 0.000000 0.000000 0.096306
#
#
# Mechanical properties :
#
#
# Convention : Reuss Voigt Hill
#
# Bulk Modulus (GPa) = 52.49912 74.27399 63.38655
# Shear Modulus (GPa) = 15.77631 20.82000 18.29816
#
# Velocity S-wave (km/s) = 2.79778 3.21404 3.01311
# Velocity P-wave (km/s) = 6.04026 7.11514 6.59962
#
# Compressibility (1/GPa) = 0.01904794
#
# Stress axis : x y z
#
# Youngs Moduli (GPa) = 92.50965 58.87159 31.67077
#
# Poissons Ratio (x) = 0.33455 -0.02188
# Poissons Ratio (y) = 0.52570 0.48043
# Poissons Ratio (z) = -0.06392 0.89306
#
# Static dielectric constant tensor:
#      x y z
#    x 1.742470 0.000000 0.000000 
#    y 0.000000 1.719970 0.000000 
#    z 0.000000 0.000000 1.715800 
# 
# From -- ./inp_files/22975.got.cif
#   From: 2010.05.17/outbox.cif.g08.bks.cpg/sg59_12_cif.got.tgz:22975.got - 2010.06.03 14:40:33.
