data_PCOD9452940
_publ_section_title
;
Structure prediction by ZEFSAII (Michael W. Deem and Ramdas Pophale) SiO2 
 PCOD9452940
Probable space group: P M M N
;
_chemical_formula_sum "Si O2"
_cell_formula_units_Z 18
_cell_length_a 7.379585
_cell_length_b 12.627155
_cell_length_c 10.488234
_cell_angle_alpha 90.000000
_cell_angle_beta 90.000000
_cell_angle_gamma 90.000000
_cell_volume 977.326825
_symmetry_space_group_name_H-M "P M M N"
_symmetry_group_IT_number 59
_space_group.IT_coordinate_system_code '2'
_symmetry_cell_setting 'orthorhombic'
loop_
_space_group_symop_operation_xyz
x,y,z
1/2-x,1/2-y,z
1/2+x,-y,-z
-x,1/2+y,-z
-x,-y,-z
1/2+x,1/2+y,-z
1/2-x,y,z
x,1/2-y,z
loop_
_atom_site_type_symbol
_atom_site_label
_atom_site_fract_x
_atom_site_fract_y
_atom_site_fract_z
Si Si1 0.034675 0.520213 0.648889
Si Si2 0.250000 0.870152 0.223108
Si Si3 0.544655 0.250000 0.273705
Si Si4 0.750000 0.250000 0.024714
O O1 0.250000 0.514337 0.675456
O O2 0.966465 0.638376 0.683604
O O3 0.000000 0.500000 0.500000
O O4 0.923420 0.434477 0.729015
O O5 0.250000 0.750000 0.277573
O O6 0.250000 0.849237 0.071148
O O7 0.750000 0.250000 0.330690
O O8 0.580981 0.250000 0.121584
#
# Coordination Sequence:
#
# PCOD9452940 Si02
#       4
#     8   4   4   2
#     4  11  22  39  66  93 126 165 201 265 316 371
#     4  10  24  40  61  92 123 168 209 254 312 368
#     4   8  20  40  60  90 123 160 205 254 312 362
#     4   8  20  44  62  82 134 166 200 272 294 374
#
# _framework density 18.417584999999999
#
# number of rings (size 3 to 8) (size 9 to 14) (size 15 to 20)
#    1.333    0.889    2.222    0.000    3.111    3.556 
#    0.000    0.000    4.889    0.000    0.000    0.000 
#    0.000    0.000    0.000    0.000    0.000    0.000 
#
# Total GULP energy -100214.292521 kJ/mol
# GULP energy per Si atom -5567.460696 kJ/mol
# Density = 1.837567 g / cm^3
# Si number density = 18.417585 Si / 1000 Ang^3
#
#
#
# Elastic Constant Matrix: (Units=GPa)
#
#
# Indices 1 2 3 4 5 6 
#
# 1 107.8156 57.3003 23.4033 0.0000 0.0000 0.0000
# 2 57.3003 199.8099 80.0438 0.0000 0.0000 0.0000
# 3 23.4033 80.0438 147.0797 0.0000 0.0000 0.0000
# 4 0.0000 0.0000 0.0000 75.8748 0.0000 0.0000
# 5 0.0000 0.0000 0.0000 0.0000 23.1628 0.0000
# 6 0.0000 0.0000 0.0000 0.0000 0.0000 35.6033
#
#
#
# Elastic Compliance Matrix: (Units=1/GPa)
#
#
# Indices 1 2 3 4 5 6 
#
# 1 0.010943 -0.003121 -0.000043 0.000000 0.000000 0.000000
# 2 -0.003121 0.007290 -0.003471 0.000000 0.000000 0.000000
# 3 -0.000043 -0.003471 0.008695 0.000000 0.000000 0.000000
# 4 0.000000 0.000000 0.000000 0.013180 0.000000 0.000000
# 5 0.000000 0.000000 0.000000 0.000000 0.043173 0.000000
# 6 0.000000 0.000000 0.000000 0.000000 0.000000 0.028087
#
#
# Mechanical properties :
#
#
# Convention : Reuss Voigt Hill
#
# Bulk Modulus (GPa) = 73.21303 86.24443 79.72873
# Shear Modulus (GPa) = 38.70273 46.52537 42.61405
#
# Velocity S-wave (km/s) = 4.58908 5.03152 4.81538
# Velocity P-wave (km/s) = 8.24121 8.98242 8.61978
#
# Compressibility (1/GPa) = 0.01365877
#
# Stress axis : x y z
#
# Youngs Moduli (GPa) = 91.38161 137.16985 115.01200
#
# Poissons Ratio (x) = 0.42812 0.00491
# Poissons Ratio (y) = 0.28521 0.39919
# Poissons Ratio (z) = 0.00390 0.47610
#
# Static dielectric constant tensor:
#      x y z
#    x 2.654920 0.000000 0.000000 
#    y 0.000000 1.643010 0.000000 
#    z 0.000000 0.000000 1.612140 
# 
# From -- ./inp_files/13417.got.cif
#   From: 2010.05.17/outbox.cif.g08.bks.cpg/sg59_7_cif.got.tgz:13417.got - 2010.06.03 14:40:33.
