data_PCOD9452671
_publ_section_title
;
Structure prediction by ZEFSAII (Michael W. Deem and Ramdas Pophale) SiO2 
 PCOD9452671
Probable space group: P M M N
;
_chemical_formula_sum "Si O2"
_cell_formula_units_Z 48
_cell_length_a 13.909815
_cell_length_b 13.916355
_cell_length_c 10.858485
_cell_angle_alpha 90.000000
_cell_angle_beta 90.000000
_cell_angle_gamma 90.000000
_cell_volume 2101.919545
_symmetry_space_group_name_H-M "P M M N"
_symmetry_group_IT_number 59
_space_group.IT_coordinate_system_code '2'
_symmetry_cell_setting 'orthorhombic'
loop_
_space_group_symop_operation_xyz
x,y,z
1/2-x,1/2-y,z
1/2+x,-y,-z
-x,1/2+y,-z
-x,-y,-z
1/2+x,1/2+y,-z
1/2-x,y,z
x,1/2-y,z
loop_
_atom_site_type_symbol
_atom_site_label
_atom_site_fract_x
_atom_site_fract_y
_atom_site_fract_z
Si Si1 0.545082 0.863471 0.501761
Si Si2 0.644037 0.364652 0.174616
Si Si3 0.563215 0.953910 0.754327
Si Si4 0.362799 0.863203 0.360240
Si Si5 0.112123 0.478953 0.994570
Si Si6 0.361712 0.357914 0.748353
O O1 0.563677 0.750000 0.510109
O O2 0.588666 0.912403 0.621133
O O3 0.430156 0.876083 0.481427
O O4 0.589957 0.900172 0.373919
O O5 0.750000 0.382816 0.235190
O O6 0.630770 0.250000 0.169522
O O7 0.546170 0.412973 0.228030
O O8 0.652471 0.416912 0.041758
O O9 0.627500 0.928586 0.874052
O O10 0.368125 0.086835 0.876861
O O11 0.250000 0.886379 0.376017
O O12 0.369593 0.750000 0.328437
O O13 0.412565 0.932495 0.259520
O O14 0.000000 0.500000 0.000000
O O15 0.250000 0.352176 0.718331
O O16 0.400896 0.250000 0.765251
#
# Coordination Sequence:
#
# PCOD9452671 Si02
#       6
#     8   8   8   8   8   8
#     4  10  21  40  67  98 133 175 223 275 333 397
#     4  10  22  41  66  98 138 182 225 272 332 405
#     4  11  23  41  68 104 138 169 217 288 349 391
#     4  10  23  42  64  95 137 184 230 275 331 402
#     4  10  22  38  60  90 125 168 218 271 326 388
#     4  10  22  42  67  94 130 179 226 264 319 406
#
# _framework density 22.836269000000001
#
# number of rings (size 3 to 8) (size 9 to 14) (size 15 to 20)
#    0.000    1.833    0.000    3.500    0.000    6.667 
#    0.000    3.333    0.000    4.000    0.000    0.000 
#    0.000    0.000    0.000    0.000    0.000    0.000 
#
# Total GULP energy -267357.024043 kJ/mol
# GULP energy per Si atom -5569.938001 kJ/mol
# Density = 2.278429 g / cm^3
# Si number density = 22.836269 Si / 1000 Ang^3
#
#
#
# Elastic Constant Matrix: (Units=GPa)
#
#
# Indices 1 2 3 4 5 6 
#
# 1 100.8722 27.9640 40.2571 0.0000 0.0000 0.0000
# 2 27.9640 113.4568 60.9495 0.0000 0.0000 0.0000
# 3 40.2571 60.9495 167.4919 0.0000 0.0000 0.0000
# 4 0.0000 0.0000 0.0000 18.6262 0.0000 0.0000
# 5 0.0000 0.0000 0.0000 0.0000 14.5843 0.0000
# 6 0.0000 0.0000 0.0000 0.0000 0.0000 46.3896
#
#
#
# Elastic Compliance Matrix: (Units=1/GPa)
#
#
# Indices 1 2 3 4 5 6 
#
# 1 0.011204 -0.001634 -0.002098 0.000000 0.000000 0.000000
# 2 -0.001634 0.011194 -0.003681 0.000000 0.000000 0.000000
# 3 -0.002098 -0.003681 0.007814 0.000000 0.000000 0.000000
# 4 0.000000 0.000000 0.000000 0.053688 0.000000 0.000000
# 5 0.000000 0.000000 0.000000 0.000000 0.068567 0.000000
# 6 0.000000 0.000000 0.000000 0.000000 0.000000 0.021557
#
#
# Mechanical properties :
#
#
# Convention : Reuss Voigt Hill
#
# Bulk Modulus (GPa) = 64.99497 71.12913 68.06205
# Shear Modulus (GPa) = 25.77611 32.76338 29.26975
#
# Velocity S-wave (km/s) = 3.36331 3.79186 3.58400
# Velocity P-wave (km/s) = 6.60345 7.09831 6.85535
#
# Compressibility (1/GPa) = 0.01538581
#
# Stress axis : x y z
#
# Youngs Moduli (GPa) = 89.25414 89.33360 127.97371
#
# Poissons Ratio (x) = 0.14600 0.26851
# Poissons Ratio (y) = 0.14587 0.47102
# Poissons Ratio (z) = 0.18727 0.32880
#
# Static dielectric constant tensor:
#      x y z
#    x 2.062590 0.000000 0.000000 
#    y 0.000000 1.904120 0.000000 
#    z 0.000000 0.000000 1.942370 
# 
# From -- ./inp_files/16825.got.cif
#   From: 2010.05.17/outbox.cif.g08.bks.cpg/sg59_9_cif.got.tgz:16825.got - 2010.06.03 14:40:33.
