data_PCOD9452851
_publ_section_title
;
Structure prediction by ZEFSAII (Michael W. Deem and Ramdas Pophale) SiO2 
 PCOD9452851
Probable space group: P M M N
;
_chemical_formula_sum "Si O2"
_cell_formula_units_Z 48
_cell_length_a 28.770726
_cell_length_b 8.530430
_cell_length_c 10.352347
_cell_angle_alpha 90.000000
_cell_angle_beta 90.000000
_cell_angle_gamma 90.000000
_cell_volume 2540.741991
_symmetry_space_group_name_H-M "P M M N"
_symmetry_group_IT_number 59
_space_group.IT_coordinate_system_code '2'
_symmetry_cell_setting 'orthorhombic'
loop_
_space_group_symop_operation_xyz
x,y,z
1/2-x,1/2-y,z
1/2+x,-y,-z
-x,1/2+y,-z
-x,-y,-z
1/2+x,1/2+y,-z
1/2-x,y,z
x,1/2-y,z
loop_
_atom_site_type_symbol
_atom_site_label
_atom_site_fract_x
_atom_site_fract_y
_atom_site_fract_z
Si Si1 0.250000 0.438430 0.079824
Si Si2 0.004756 0.062391 0.646580
Si Si3 0.250000 0.441410 0.381005
Si Si4 0.395390 0.059946 0.761422
Si Si5 0.850781 0.436350 0.977887
Si Si6 0.909176 0.561815 0.735392
Si Si7 0.346020 0.059284 0.503936
O O1 0.250000 0.250000 0.074532
O O2 0.250000 0.487695 0.231070
O O3 0.298000 0.499319 0.019375
O O4 0.004881 0.250000 0.639362
O O5 0.053139 0.013817 0.713417
O O6 0.960975 0.004917 0.729781
O O7 0.000000 0.000000 0.500000
O O8 0.250000 0.250000 0.381522
O O9 0.203820 0.494961 0.453768
O O10 0.394474 0.250000 0.771994
O O11 0.360642 0.010570 0.646415
O O12 0.378849 0.988715 0.895460
O O13 0.849361 0.250000 0.968536
O O14 0.877687 0.504131 0.853345
O O15 0.910995 0.750000 0.738934
O O16 0.884268 0.512886 0.601747
O O17 0.345405 0.250000 0.504075
#
# Coordination Sequence:
#
# PCOD9452851 Si02
#       7
#     4   8   4   8   8   8   8
#     4  11  21  40  69  92 120 168 211 249 310 379
#     4  11  22  38  63  94 127 163 209 263 319 378
#     4   9  16  30  61  96 118 144 197 257 304 359
#     4  10  22  41  62  89 125 167 210 254 310 379
#     4  12  26  42  61  93 132 166 206 262 317 370
#     4  11  21  39  65  92 122 163 212 258 309 377
#     4   9  17  33  59  92 120 150 202 257 300 360
#
# _framework density 18.892118
#
# number of rings (size 3 to 8) (size 9 to 14) (size 15 to 20)
#    0.000    1.500    3.333    2.750    0.000    2.667 
#    0.000    1.667    0.000    0.000    0.000    0.000 
#    0.000    0.000    0.000    0.000    0.000    0.000 
#
# Total GULP energy -268176.174652 kJ/mol
# GULP energy per Si atom -5587.003639 kJ/mol
# Density = 1.884912 g / cm^3
# Si number density = 18.892118 Si / 1000 Ang^3
#
#
#
# Elastic Constant Matrix: (Units=GPa)
#
#
# Indices 1 2 3 4 5 6 
#
# 1 121.7268 25.8003 19.3873 0.0000 0.0000 0.0000
# 2 25.8003 47.9739 16.0193 0.0000 0.0000 0.0000
# 3 19.3873 16.0193 79.1163 0.0000 0.0000 0.0000
# 4 0.0000 0.0000 0.0000 20.7488 0.0000 0.0000
# 5 0.0000 0.0000 0.0000 0.0000 33.3272 0.0000
# 6 0.0000 0.0000 0.0000 0.0000 0.0000 27.7946
#
#
#
# Elastic Compliance Matrix: (Units=1/GPa)
#
#
# Indices 1 2 3 4 5 6 
#
# 1 0.009409 -0.004601 -0.001374 0.000000 0.000000 0.000000
# 2 -0.004601 0.024606 -0.003855 0.000000 0.000000 0.000000
# 3 -0.001374 -0.003855 0.013757 0.000000 0.000000 0.000000
# 4 0.000000 0.000000 0.000000 0.048196 0.000000 0.000000
# 5 0.000000 0.000000 0.000000 0.000000 0.030005 0.000000
# 6 0.000000 0.000000 0.000000 0.000000 0.000000 0.035978
#
#
# Mechanical properties :
#
#
# Convention : Reuss Voigt Hill
#
# Bulk Modulus (GPa) = 35.57180 41.24788 38.40984
# Shear Modulus (GPa) = 26.18036 28.88147 27.53092
#
# Velocity S-wave (km/s) = 3.72665 3.91417 3.82156
# Velocity P-wave (km/s) = 6.11449 6.50450 6.31251
#
# Compressibility (1/GPa) = 0.02811216
#
# Stress axis : x y z
#
# Youngs Moduli (GPa) = 106.27846 40.63975 72.69127
#
# Poissons Ratio (x) = 0.18700 0.09988
# Poissons Ratio (y) = 0.48904 0.28020
# Poissons Ratio (z) = 0.14603 0.15665
#
# Static dielectric constant tensor:
#      x y z
#    x 1.653190 0.000000 0.000000 
#    y 0.000000 1.647120 0.000000 
#    z 0.000000 0.000000 1.621370 
# 
# From -- ./inp_files/13020.got.cif
#   From: 2010.05.17/outbox.cif.g08.bks.cpg/sg59_7_cif.got.tgz:13020.got - 2010.06.03 14:40:33.
