data_PCOD9452486
_publ_section_title
;
Structure prediction by ZEFSAII (Michael W. Deem and Ramdas Pophale) SiO2 
 PCOD9452486
Probable space group: P M M N
;
_chemical_formula_sum "Si O2"
_cell_formula_units_Z 24
_cell_length_a 9.781335
_cell_length_b 16.218641
_cell_length_c 6.040959
_cell_angle_alpha 90.000000
_cell_angle_beta 90.000000
_cell_angle_gamma 90.000000
_cell_volume 958.337499
_symmetry_space_group_name_H-M "P M M N"
_symmetry_group_IT_number 59
_space_group.IT_coordinate_system_code '2'
_symmetry_cell_setting 'orthorhombic'
loop_
_space_group_symop_operation_xyz
x,y,z
1/2-x,1/2-y,z
1/2+x,-y,-z
-x,1/2+y,-z
-x,-y,-z
1/2+x,1/2+y,-z
1/2-x,y,z
x,1/2-y,z
loop_
_atom_site_type_symbol
_atom_site_label
_atom_site_fract_x
_atom_site_fract_y
_atom_site_fract_z
Si Si1 0.750000 0.750000 0.401733
Si Si2 0.750000 0.250000 0.274574
Si Si3 0.750000 0.928560 0.481756
Si Si4 0.036721 0.250000 0.005280
Si Si5 0.750000 0.389037 0.652216
Si Si6 0.524511 0.585983 0.115223
O O1 0.750000 0.832443 0.543827
O O2 0.613814 0.750000 0.244058
O O3 0.750000 0.331355 0.434897
O O4 0.887388 0.250000 0.127148
O O5 0.619785 0.934110 0.320774
O O6 0.750000 0.011587 0.622008
O O7 0.081368 0.344801 0.051862
O O8 0.886355 0.372690 0.791118
O O9 0.500000 0.500000 0.000000
#
# Coordination Sequence:
#
# PCOD9452486 Si02
#       6
#     2   2   4   4   4   8
#     4   8  20  40  64  86 124 164 204 248 298 364
#     4  12  24  40  62  96 126 152 200 254 304 356
#     4  10  21  38  60  90 121 157 203 253 301 346
#     4  10  21  40  64  90 119 164 206 242 297 368
#     4  12  24  39  61  92 125 159 199 260 307 346
#     4  11  22  41  63  87 122 164 203 243 298 369
#
# _framework density 25.043368000000001
#
# number of rings (size 3 to 8) (size 9 to 14) (size 15 to 20)
#    0.000    1.333    0.000    6.000    0.000    0.000 
#    0.000    3.333    0.000    0.000    0.000    0.000 
#    0.000    0.000    0.000    0.000    0.000    0.000 
#
# Total GULP energy -133696.785424 kJ/mol
# GULP energy per Si atom -5570.699393 kJ/mol
# Density = 2.498637 g / cm^3
# Si number density = 25.043368 Si / 1000 Ang^3
#
#
#
# Elastic Constant Matrix: (Units=GPa)
#
#
# Indices 1 2 3 4 5 6 
#
# 1 143.3532 -18.7131 67.1045 0.0000 0.0000 0.0000
# 2 -18.7131 240.2633 52.7675 0.0000 0.0000 0.0000
# 3 67.1045 52.7675 102.2676 0.0000 0.0000 0.0000
# 4 0.0000 0.0000 0.0000 44.5079 0.0000 0.0000
# 5 0.0000 0.0000 0.0000 0.0000 52.2015 0.0000
# 6 0.0000 0.0000 0.0000 0.0000 0.0000 34.3146
#
#
#
# Elastic Compliance Matrix: (Units=1/GPa)
#
#
# Indices 1 2 3 4 5 6 
#
# 1 0.011632 0.002912 -0.009135 0.000000 0.000000 0.000000
# 2 0.002912 0.005423 -0.004709 0.000000 0.000000 0.000000
# 3 -0.009135 -0.004709 0.018202 0.000000 0.000000 0.000000
# 4 0.000000 0.000000 0.000000 0.022468 0.000000 0.000000
# 5 0.000000 0.000000 0.000000 0.000000 0.019157 0.000000
# 6 0.000000 0.000000 0.000000 0.000000 0.000000 0.029142
#
#
# Mechanical properties :
#
#
# Convention : Reuss Voigt Hill
#
# Bulk Modulus (GPa) = 74.66377 76.46687 75.56532
# Shear Modulus (GPa) = 37.77763 51.85315 44.81539
#
# Velocity S-wave (km/s) = 3.88814 4.55525 4.23485
# Velocity P-wave (km/s) = 7.07357 7.63329 7.35875
#
# Compressibility (1/GPa) = 0.01339338
#
# Stress axis : x y z
#
# Youngs Moduli (GPa) = 85.96762 184.39360 54.93771
#
# Poissons Ratio (x) = -0.53702 0.50188
# Poissons Ratio (y) = -0.25037 0.25871
# Poissons Ratio (z) = 0.78535 0.86835
#
# Static dielectric constant tensor:
#      x y z
#    x 2.152360 0.000000 0.000000 
#    y 0.000000 1.982950 0.000000 
#    z 0.000000 0.000000 1.929250 
# 
# From -- ./inp_files/983.got.cif
#   From: 2010.05.17/outbox.cif.g08.bks.cpg/sg59_1_cif.got.tgz:983.got - 2010.06.03 14:40:33.
