data_PCOD9452458
_publ_section_title
;
Structure prediction by ZEFSAII (Michael W. Deem and Ramdas Pophale) SiO2 
 PCOD9452458
Probable space group: P M M N
;
_chemical_formula_sum "Si O2"
_cell_formula_units_Z 56
_cell_length_a 9.328901
_cell_length_b 20.336820
_cell_length_c 15.081413
_cell_angle_alpha 90.000000
_cell_angle_beta 90.000000
_cell_angle_gamma 90.000000
_cell_volume 2861.248396
_symmetry_space_group_name_H-M "P M M N"
_symmetry_group_IT_number 59
_space_group.IT_coordinate_system_code '2'
_symmetry_cell_setting 'orthorhombic'
loop_
_space_group_symop_operation_xyz
x,y,z
1/2-x,1/2-y,z
1/2+x,-y,-z
-x,1/2+y,-z
-x,-y,-z
1/2+x,1/2+y,-z
1/2-x,y,z
x,1/2-y,z
loop_
_atom_site_type_symbol
_atom_site_label
_atom_site_fract_x
_atom_site_fract_y
_atom_site_fract_z
Si Si1 0.582042 0.059125 0.277729
Si Si2 0.023391 0.675318 0.400953
Si Si3 0.914426 0.410270 0.927115
Si Si4 0.084972 0.068121 0.099815
Si Si5 0.412600 0.975212 0.412533
Si Si6 0.916831 0.321114 0.411512
Si Si7 0.910106 0.826784 0.208245
O O1 0.750000 0.042458 0.267243
O O2 0.511329 0.079532 0.185769
O O3 0.567806 0.119626 0.345358
O O4 0.495096 0.001447 0.326126
O O5 0.088611 0.750000 0.390528
O O6 0.096623 0.603634 0.402616
O O7 0.977897 0.676316 0.504257
O O8 0.923637 0.670258 0.314918
O O9 0.750000 0.390803 0.943651
O O10 0.916106 0.488746 0.911282
O O11 0.977228 0.371806 0.842940
O O12 0.013789 0.400011 0.013063
O O13 0.250000 0.088604 0.111067
O O14 0.250000 0.001018 0.417871
O O15 0.500000 0.000000 0.500000
O O16 0.750000 0.323979 0.445212
O O17 0.933025 0.250000 0.367633
O O18 0.750000 0.847387 0.182272
O O19 0.930952 0.750000 0.184119
#
# Coordination Sequence:
#
# PCOD9452458 Si02
#       7
#     8   8   8   8   8   8   8
#     4  11  22  38  60  88 120 156 198 247 299 354
#     4  10  21  38  60  85 116 158 205 245 290 352
#     4  10  21  38  61  88 115 149 194 241 291 354
#     4  10  21  38  61  88 117 152 192 240 297 355
#     4  12  24  38  57  85 119 156 198 247 301 352
#     4   9  18  35  57  81 112 153 200 245 286 336
#     4  10  22  39  59  87 122 157 193 241 302 359
#
# _framework density 19.571874999999999
#
# number of rings (size 3 to 8) (size 9 to 14) (size 15 to 20)
#    0.000    1.714    1.429    3.000    0.000    7.429 
#    0.000    3.571    0.000    4.286    0.000    0.000 
#    0.000    0.000    0.000    0.000    0.000    0.000 
#
# Total GULP energy -311983.043880 kJ/mol
# GULP energy per Si atom -5571.125784 kJ/mol
# Density = 1.952733 g / cm^3
# Si number density = 19.571875 Si / 1000 Ang^3
#
#
#
# Elastic Constant Matrix: (Units=GPa)
#
#
# Indices 1 2 3 4 5 6 
#
# 1 127.4382 29.2089 50.7038 0.0000 0.0000 0.0000
# 2 29.2089 79.3289 14.7217 0.0000 0.0000 0.0000
# 3 50.7038 14.7217 98.5360 0.0000 0.0000 0.0000
# 4 0.0000 0.0000 0.0000 22.1348 0.0000 0.0000
# 5 0.0000 0.0000 0.0000 0.0000 25.7765 0.0000
# 6 0.0000 0.0000 0.0000 0.0000 0.0000 12.3090
#
#
#
# Elastic Compliance Matrix: (Units=1/GPa)
#
#
# Indices 1 2 3 4 5 6 
#
# 1 0.010495 -0.002944 -0.004961 0.000000 0.000000 0.000000
# 2 -0.002944 0.013791 -0.000546 0.000000 0.000000 0.000000
# 3 -0.004961 -0.000546 0.012783 0.000000 0.000000 0.000000
# 4 0.000000 0.000000 0.000000 0.045178 0.000000 0.000000
# 5 0.000000 0.000000 0.000000 0.000000 0.038795 0.000000
# 6 0.000000 0.000000 0.000000 0.000000 0.000000 0.081241
#
#
# Mechanical properties :
#
#
# Convention : Reuss Voigt Hill
#
# Bulk Modulus (GPa) = 49.58194 54.95242 52.26718
# Shear Modulus (GPa) = 22.13305 26.08863 24.11084
#
# Velocity S-wave (km/s) = 3.36647 3.65494 3.51367
# Velocity P-wave (km/s) = 6.36389 6.77862 6.57453
#
# Compressibility (1/GPa) = 0.02016863
#
# Stress axis : x y z
#
# Youngs Moduli (GPa) = 95.27963 72.51149 78.23014
#
# Poissons Ratio (x) = 0.21346 0.38809
# Poissons Ratio (y) = 0.28048 0.04268
# Poissons Ratio (z) = 0.47267 0.03956
#
# Static dielectric constant tensor:
#      x y z
#    x 1.696710 0.000000 0.000000 
#    y 0.000000 1.708810 0.000000 
#    z 0.000000 0.000000 1.681460 
# 
# From -- ./inp_files/21012.got.cif
#   From: 2010.05.17/outbox.cif.g08.bks.cpg/sg59_11_cif.got.tgz:21012.got - 2010.06.03 14:40:33.
