data_PCOD9452084
_publ_section_title
;
Structure prediction by ZEFSAII (Michael W. Deem and Ramdas Pophale) SiO2 
 PCOD9452084
Probable space group: P M M N
;
_chemical_formula_sum "Si O2"
_cell_formula_units_Z 64
_cell_length_a 8.968064
_cell_length_b 19.257378
_cell_length_c 21.940545
_cell_angle_alpha 90.000000
_cell_angle_beta 90.000000
_cell_angle_gamma 90.000000
_cell_volume 3789.162803
_symmetry_space_group_name_H-M "P M M N"
_symmetry_group_IT_number 59
_space_group.IT_coordinate_system_code '2'
_symmetry_cell_setting 'orthorhombic'
loop_
_space_group_symop_operation_xyz
x,y,z
1/2-x,1/2-y,z
1/2+x,-y,-z
-x,1/2+y,-z
-x,-y,-z
1/2+x,1/2+y,-z
1/2-x,y,z
x,1/2-y,z
loop_
_atom_site_type_symbol
_atom_site_label
_atom_site_fract_x
_atom_site_fract_y
_atom_site_fract_z
Si Si1 0.080868 0.866479 0.765866
Si Si2 0.928423 0.969351 0.939014
Si Si3 0.428708 0.569283 0.298507
Si Si4 0.429136 0.831456 0.408182
Si Si5 0.430387 0.826772 0.896873
Si Si6 0.920517 0.523353 0.180559
Si Si7 0.429677 0.075406 0.487284
Si Si8 0.927970 0.583634 0.650676
O O1 0.250000 0.843725 0.754889
O O2 0.022192 0.827694 0.825605
O O3 0.993970 0.867058 0.702727
O O4 0.082219 0.946393 0.789295
O O5 0.750000 0.969674 0.941704
O O6 0.989554 0.891064 0.928806
O O7 0.985132 0.013981 0.880853
O O8 0.000000 0.000000 0.000000
O O9 0.250000 0.569070 0.289398
O O10 0.468512 0.630811 0.344623
O O11 0.507727 0.570559 0.233060
O O12 0.467674 0.496210 0.331879
O O13 0.250000 0.839919 0.415900
O O14 0.463531 0.750000 0.407276
O O15 0.510885 0.871167 0.462694
O O16 0.250000 0.838474 0.897506
O O17 0.459584 0.750000 0.922412
O O18 0.750000 0.542771 0.166746
O O19 0.250000 0.070291 0.489515
O O20 0.474341 0.097378 0.418615
O O21 0.500000 0.000000 0.500000
O O22 0.750000 0.588140 0.653553
#
# Coordination Sequence:
#
# PCOD9452084 Si02
#       8
#     8   8   8   8   8   8   8   8
#     4   8  15  27  45  71  99 128 162 202 249 302
#     4  11  21  34  54  81 113 147 183 224 267 312
#     4   9  16  30  50  73  99 128 165 210 261 315
#     4  10  21  37  54  74 103 137 174 220 276 334
#     4   9  18  34  54  77 108 143 179 220 265 316
#     4   9  17  30  49  76 104 130 165 209 256 304
#     4  11  21  34  52  74 101 134 179 227 273 326
#     4   9  17  29  46  69  96 126 164 214 261 306
#
# _framework density 16.890274999999999
#
# number of rings (size 3 to 8) (size 9 to 14) (size 15 to 20)
#    0.000    2.500    1.250    2.625    0.000    5.000 
#    0.000    0.625    0.000    3.000    0.000    1.750 
#    0.000    0.000    0.000    0.000    0.000    0.000 
#
# Total GULP energy -356697.251432 kJ/mol
# GULP energy per Si atom -5573.394554 kJ/mol
# Density = 1.685183 g / cm^3
# Si number density = 16.890275 Si / 1000 Ang^3
#
#
#
# Elastic Constant Matrix: (Units=GPa)
#
#
# Indices 1 2 3 4 5 6 
#
# 1 72.6457 46.1719 68.5260 0.0000 0.0000 0.0000
# 2 46.1719 85.4145 62.1552 0.0000 0.0000 0.0000
# 3 68.5260 62.1552 148.8043 0.0000 0.0000 0.0000
# 4 0.0000 0.0000 0.0000 16.1334 0.0000 0.0000
# 5 0.0000 0.0000 0.0000 0.0000 32.7086 0.0000
# 6 0.0000 0.0000 0.0000 0.0000 0.0000 17.1997
#
#
#
# Elastic Compliance Matrix: (Units=1/GPa)
#
#
# Indices 1 2 3 4 5 6 
#
# 1 0.027848 -0.008220 -0.009391 0.000000 0.000000 0.000000
# 2 -0.008220 0.019246 -0.004254 0.000000 0.000000 0.000000
# 3 -0.009391 -0.004254 0.012822 0.000000 0.000000 0.000000
# 4 0.000000 0.000000 0.000000 0.061983 0.000000 0.000000
# 5 0.000000 0.000000 0.000000 0.000000 0.030573 0.000000
# 6 0.000000 0.000000 0.000000 0.000000 0.000000 0.058141
#
#
# Mechanical properties :
#
#
# Convention : Reuss Voigt Hill
#
# Bulk Modulus (GPa) = 61.77844 73.39673 67.58759
# Shear Modulus (GPa) = 19.25013 21.87578 20.56296
#
# Velocity S-wave (km/s) = 3.37963 3.60275 3.49297
# Velocity P-wave (km/s) = 7.20312 7.80101 7.50802
#
# Compressibility (1/GPa) = 0.01618688
#
# Stress axis : x y z
#
# Youngs Moduli (GPa) = 35.90888 51.95753 77.99308
#
# Poissons Ratio (x) = 0.42709 0.73243
# Poissons Ratio (y) = 0.29517 0.33177
# Poissons Ratio (z) = 0.33722 0.22102
#
# Static dielectric constant tensor:
#      x y z
#    x 1.577040 0.000000 0.000000 
#    y 0.000000 1.570840 0.000000 
#    z 0.000000 0.000000 1.568240 
# 
# From -- ./inp_files/29527.got.cif
#   From: 2010.05.17/outbox.cif.g08.bks.cpg/sg59_15_cif.got.tgz:29527.got - 2010.06.03 14:40:33.
