data_PCOD9452512
_publ_section_title
;
Structure prediction by ZEFSAII (Michael W. Deem and Ramdas Pophale) SiO2 
 PCOD9452512
Probable space group: P M M N
;
_chemical_formula_sum "Si O2"
_cell_formula_units_Z 48
_cell_length_a 9.513640
_cell_length_b 9.752287
_cell_length_c 27.975608
_cell_angle_alpha 90.000000
_cell_angle_beta 90.000000
_cell_angle_gamma 90.000000
_cell_volume 2595.569852
_symmetry_space_group_name_H-M "P M M N"
_symmetry_group_IT_number 59
_space_group.IT_coordinate_system_code '2'
_symmetry_cell_setting 'orthorhombic'
loop_
_space_group_symop_operation_xyz
x,y,z
1/2-x,1/2-y,z
1/2+x,-y,-z
-x,1/2+y,-z
-x,-y,-z
1/2+x,1/2+y,-z
1/2-x,y,z
x,1/2-y,z
loop_
_atom_site_type_symbol
_atom_site_label
_atom_site_fract_x
_atom_site_fract_y
_atom_site_fract_z
Si Si1 0.412877 0.585260 0.293923
Si Si2 0.408540 0.090555 0.799012
Si Si3 0.579143 0.750000 0.562514
Si Si4 0.482241 0.583192 0.889480
Si Si5 0.417233 0.250000 0.547169
Si Si6 0.250000 0.917542 0.077832
Si Si7 0.080074 0.506520 0.614346
Si Si8 0.750000 0.086327 0.032859
O O1 0.250000 0.540307 0.298023
O O2 0.415675 0.750000 0.300488
O O3 0.477603 0.558891 0.241635
O O4 0.514521 0.521602 0.333728
O O5 0.250000 0.086373 0.778530
O O6 0.430568 0.250000 0.815487
O O7 0.417110 0.980726 0.841464
O O8 0.750000 0.750000 0.564956
O O9 0.529476 0.750000 0.507003
O O10 0.508703 0.624661 0.589709
O O11 0.500639 0.750000 0.886795
O O12 0.619188 0.492174 0.897919
O O13 0.383719 0.550229 0.934990
O O14 0.250000 0.250000 0.541498
O O15 0.451275 0.120744 0.579552
O O16 0.250000 0.750000 0.082024
O O17 0.250000 0.960280 0.021669
O O18 0.250000 0.528234 0.616296
O O19 0.750000 0.250000 0.029713
#
# Coordination Sequence:
#
# PCOD9452512 Si02
#       8
#     8   8   4   8   4   4   8   4
#     4  10  21  38  62  91 119 155 203 257 311 363
#     4  10  21  38  61  88 116 155 204 255 307 369
#     4  11  23  39  57  89 131 165 203 257 308 365
#     4  11  22  40  62  90 126 162 203 253 312 367
#     4   9  20  37  63  91 121 161 209 253 306 365
#     4  11  23  39  61  91 125 167 209 251 302 357
#     4  11  21  39  63  89 122 163 208 255 308 369
#     4   9  20  39  63  89 125 163 205 253 300 367
#
# _framework density 18.493048999999999
#
# number of rings (size 3 to 8) (size 9 to 14) (size 15 to 20)
#    0.000    1.667    1.667    3.000    1.167    0.667 
#    1.500    5.000    0.000    0.000    0.000    0.000 
#    0.000    0.000    0.000    0.000    0.000    0.000 
#
# Total GULP energy -267582.011259 kJ/mol
# GULP energy per Si atom -5574.625235 kJ/mol
# Density = 1.845096 g / cm^3
# Si number density = 18.493049 Si / 1000 Ang^3
#
#
#
# Elastic Constant Matrix: (Units=GPa)
#
#
# Indices 1 2 3 4 5 6 
#
# 1 125.8340 44.6297 34.6627 0.0000 0.0000 0.0000
# 2 44.6297 100.1730 36.0575 0.0000 0.0000 0.0000
# 3 34.6627 36.0575 86.8193 0.0000 0.0000 0.0000
# 4 0.0000 0.0000 0.0000 -41.7119 0.0000 0.0000
# 5 0.0000 0.0000 0.0000 0.0000 29.0576 0.0000
# 6 0.0000 0.0000 0.0000 0.0000 0.0000 -1.0098
#
#
#
# Elastic Compliance Matrix: (Units=1/GPa)
#
#
# Indices 1 2 3 4 5 6 
#
# 1 0.009875 -0.003504 -0.002487 0.000000 0.000000 0.000000
# 2 -0.003504 0.012981 -0.003992 0.000000 0.000000 0.000000
# 3 -0.002487 -0.003992 0.014169 0.000000 0.000000 0.000000
# 4 0.000000 0.000000 0.000000 -0.023974 0.000000 0.000000
# 5 0.000000 0.000000 0.000000 0.000000 0.034414 0.000000
# 6 0.000000 0.000000 0.000000 0.000000 0.000000 -0.990299
#
#
# Mechanical properties :
#
#
# Convention : Reuss Voigt Hill
#
# Bulk Modulus (GPa) = 58.62386 60.39179 59.50782
# Shear Modulus (GPa) = -5.45149 10.43228 2.49040
#
# Velocity S-wave (km/s) = -1.71880 2.37770 1.16172
# Velocity P-wave (km/s) = 5.27544 6.34549 5.83505
#
# Compressibility (1/GPa) = 0.01705790
#
# Stress axis : x y z
#
# Youngs Moduli (GPa) = 101.26602 77.03594 70.57567
#
# Poissons Ratio (x) = 0.26996 0.17554
# Poissons Ratio (y) = 0.35486 0.28175
# Poissons Ratio (z) = 0.25187 0.30754
#
# Static dielectric constant tensor:
#      x y z
#    x 1.775750 0.000000 0.000000 
#    y 0.000000 1.597870 0.000000 
#    z 0.000000 0.000000 1.635730 
# 
# From -- ./inp_files/33117.got.cif
#   From: 2010.05.17/outbox.cif.g08.bks.cpg/sg59_17_cif.got.tgz:33117.got - 2010.06.03 14:40:33.
