data_PCOD9452321
_publ_section_title
;
Structure prediction by ZEFSAII (Michael W. Deem and Ramdas Pophale) SiO2 
 PCOD9452321
Probable space group: P M M N
;
_chemical_formula_sum "Si O2"
_cell_formula_units_Z 64
_cell_length_a 30.965936
_cell_length_b 9.018441
_cell_length_c 12.411921
_cell_angle_alpha 90.000000
_cell_angle_beta 90.000000
_cell_angle_gamma 90.000000
_cell_volume 3466.208500
_symmetry_space_group_name_H-M "P M M N"
_symmetry_group_IT_number 59
_space_group.IT_coordinate_system_code '2'
_symmetry_cell_setting 'orthorhombic'
loop_
_space_group_symop_operation_xyz
x,y,z
1/2-x,1/2-y,z
1/2+x,-y,-z
-x,1/2+y,-z
-x,-y,-z
1/2+x,1/2+y,-z
1/2-x,y,z
x,1/2-y,z
loop_
_atom_site_type_symbol
_atom_site_label
_atom_site_fract_x
_atom_site_fract_y
_atom_site_fract_z
Si Si1 0.510720 0.076935 0.886607
Si Si2 0.627168 0.926819 0.635839
Si Si3 0.557668 0.073633 0.259474
Si Si4 0.698478 0.920038 0.263681
Si Si5 0.699472 0.427086 0.488362
Si Si6 0.638041 0.073053 0.099948
Si Si7 0.886458 0.422799 0.859942
Si Si8 0.047290 0.071756 0.515799
O O1 0.497527 0.250000 0.888707
O O2 0.561765 0.070824 0.868847
O O3 0.485760 0.990879 0.792930
O O4 0.500000 0.000000 0.000000
O O5 0.630835 0.750000 0.630500
O O6 0.581667 0.967647 0.577673
O O7 0.666593 0.999658 0.571237
O O8 0.627601 0.982533 0.758075
O O9 0.554240 0.250000 0.277729
O O10 0.594985 0.047282 0.171108
O O11 0.565664 0.990525 0.371452
O O12 0.750000 0.924125 0.251038
O O13 0.685046 0.750000 0.281592
O O14 0.687656 0.016040 0.368996
O O15 0.675647 0.986827 0.159918
O O16 0.750000 0.467509 0.507583
O O17 0.696009 0.250000 0.492670
O O18 0.645866 0.250000 0.102088
O O19 0.631428 0.028514 0.976155
O O20 0.874411 0.250000 0.843299
O O21 0.043139 0.250000 0.519747
O O22 0.000000 0.000000 0.500000
#
# Coordination Sequence:
#
# PCOD9452321 Si02
#       8
#     8   8   8   8   8   8   8   8
#     4  11  21  36  57  82 114 153 196 241 288 339
#     4  11  24  40  60  88 119 154 198 248 302 354
#     4  11  22  37  57  84 115 147 190 241 290 340
#     4  10  21  37  59  89 121 148 180 231 290 344
#     4  10  21  39  65  93 118 151 194 237 290 358
#     4  10  21  38  58  83 114 149 191 233 278 339
#     4  10  22  40  58  81 115 156 199 240 285 343
#     4  11  24  40  57  83 117 156 199 243 295 354
#
# _framework density 18.463979999999999
#
# number of rings (size 3 to 8) (size 9 to 14) (size 15 to 20)
#    0.000    1.500    1.250    3.750    0.000   10.000 
#    0.000    0.625    0.000    0.750    0.000    0.000 
#    0.000    0.000    0.000    0.000    0.000    0.000 
#
# Total GULP energy -357723.705399 kJ/mol
# GULP energy per Si atom -5589.432897 kJ/mol
# Density = 1.842195 g / cm^3
# Si number density = 18.463980 Si / 1000 Ang^3
#
#
#
# Elastic Constant Matrix: (Units=GPa)
#
#
# Indices 1 2 3 4 5 6 
#
# 1 64.6941 47.8149 53.1744 0.0000 0.0000 0.0000
# 2 47.8149 70.4130 62.7667 0.0000 0.0000 0.0000
# 3 53.1744 62.7667 139.4774 0.0000 0.0000 0.0000
# 4 0.0000 0.0000 0.0000 34.8498 0.0000 0.0000
# 5 0.0000 0.0000 0.0000 0.0000 35.9060 0.0000
# 6 0.0000 0.0000 0.0000 0.0000 0.0000 29.9829
#
#
#
# Elastic Compliance Matrix: (Units=1/GPa)
#
#
# Indices 1 2 3 4 5 6 
#
# 1 0.032371 -0.018337 -0.004089 0.000000 0.000000 0.000000
# 2 -0.018337 0.034102 -0.008356 0.000000 0.000000 0.000000
# 3 -0.004089 -0.008356 0.012489 0.000000 0.000000 0.000000
# 4 0.000000 0.000000 0.000000 0.028695 0.000000 0.000000
# 5 0.000000 0.000000 0.000000 0.000000 0.027850 0.000000
# 6 0.000000 0.000000 0.000000 0.000000 0.000000 0.033352
#
#
# Mechanical properties :
#
#
# Convention : Reuss Voigt Hill
#
# Bulk Modulus (GPa) = 57.47659 66.89960 62.18809
# Shear Modulus (GPa) = 21.16651 27.53631 24.35141
#
# Velocity S-wave (km/s) = 3.38948 3.86599 3.63555
# Velocity P-wave (km/s) = 6.82017 7.49927 7.16777
#
# Compressibility (1/GPa) = 0.01739839
#
# Stress axis : x y z
#
# Youngs Moduli (GPa) = 30.89175 29.32383 80.07155
#
# Poissons Ratio (x) = 0.53770 0.32745
# Poissons Ratio (y) = 0.56645 0.66905
# Poissons Ratio (z) = 0.12633 0.24502
#
# Static dielectric constant tensor:
#      x y z
#    x -0.424050 0.000000 0.000000 
#    y 0.000000 1.621540 0.000000 
#    z 0.000000 0.000000 1.619680 
# 
# From -- ./inp_files/19341.got.cif
#   From: 2010.05.17/outbox.cif.g08.bks.cpg/sg59_10_cif.got.tgz:19341.got - 2010.06.03 14:40:33.
