data_PCOD9452590
_publ_section_title
;
Structure prediction by ZEFSAII (Michael W. Deem and Ramdas Pophale) SiO2 
 PCOD9452590
Probable space group: P M M N
;
_chemical_formula_sum "Si O2"
_cell_formula_units_Z 64
_cell_length_a 7.899002
_cell_length_b 31.921175
_cell_length_c 12.287105
_cell_angle_alpha 90.000000
_cell_angle_beta 90.000000
_cell_angle_gamma 90.000000
_cell_volume 3098.137314
_symmetry_space_group_name_H-M "P M M N"
_symmetry_group_IT_number 59
_space_group.IT_coordinate_system_code '2'
_symmetry_cell_setting 'orthorhombic'
loop_
_space_group_symop_operation_xyz
x,y,z
1/2-x,1/2-y,z
1/2+x,-y,-z
-x,1/2+y,-z
-x,-y,-z
1/2+x,1/2+y,-z
1/2-x,y,z
x,1/2-y,z
loop_
_atom_site_type_symbol
_atom_site_label
_atom_site_fract_x
_atom_site_fract_y
_atom_site_fract_z
Si Si1 0.949997 0.704107 0.006897
Si Si2 0.953526 0.547580 0.022824
Si Si3 0.453933 0.376425 0.124446
Si Si4 0.047191 0.952659 0.471637
Si Si5 0.454218 0.623427 0.623260
Si Si6 0.050741 0.412025 0.752474
Si Si7 0.457023 0.795987 0.486903
Si Si8 0.054771 0.682270 0.247396
O O1 0.750000 0.705587 0.982952
O O2 0.022877 0.750000 0.980398
O O3 0.020068 0.664602 0.939696
O O4 0.968615 0.696023 0.135728
O O5 0.750000 0.549461 0.022640
O O6 0.010366 0.563011 0.141608
O O7 0.016649 0.581218 0.934194
O O8 0.000000 0.500000 0.000000
O O9 0.250000 0.376366 0.113390
O O10 0.495377 0.375566 0.251253
O O11 0.250000 0.949662 0.464790
O O12 0.988151 0.918707 0.561407
O O13 0.973867 0.938732 0.355884
O O14 0.000000 0.000000 0.500000
O O15 0.250000 0.623768 0.618506
O O16 0.515201 0.664695 0.558423
O O17 0.250000 0.402368 0.766843
O O18 0.956997 0.367894 0.743383
O O19 0.250000 0.797754 0.484688
O O20 0.505530 0.750000 0.528975
O O21 0.514254 0.800566 0.361637
O O22 0.250000 0.695415 0.238799
#
# Coordination Sequence:
#
# PCOD9452590 Si02
#       8
#     8   8   8   8   8   8   8   8
#     4  10  21  39  61  85 119 159 196 242 300 356
#     4  10  23  41  61  86 118 153 193 241 293 349
#     4  10  22  41  59  83 117 156 197 241 294 351
#     4  11  24  42  62  90 122 156 199 245 299 354
#     4  10  22  40  59  84 117 154 196 243 291 346
#     4  11  22  40  64  90 121 157 195 243 299 355
#     4   9  18  35  58  84 117 153 187 234 295 346
#     4  11  20  35  60  91 123 155 195 245 294 353
#
# _framework density 20.657574
#
# number of rings (size 3 to 8) (size 9 to 14) (size 15 to 20)
#    0.000    1.750    2.500    1.500    1.750    4.250 
#    0.000    0.000    0.000    1.500    0.000    0.000 
#    0.000    0.000    0.000    0.000    0.000    0.000 
#
# Total GULP energy -357597.914741 kJ/mol
# GULP energy per Si atom -5587.467418 kJ/mol
# Density = 2.061056 g / cm^3
# Si number density = 20.657574 Si / 1000 Ang^3
#
#
#
# Elastic Constant Matrix: (Units=GPa)
#
#
# Indices 1 2 3 4 5 6 
#
# 1 25.7523 4.6496 -0.4533 0.0000 0.0000 0.0000
# 2 4.6496 207.2543 94.8920 0.0000 0.0000 0.0000
# 3 -0.4533 94.8920 156.2864 0.0000 0.0000 0.0000
# 4 0.0000 0.0000 0.0000 69.3763 0.0000 0.0000
# 5 0.0000 0.0000 0.0000 0.0000 30.1749 0.0000
# 6 0.0000 0.0000 0.0000 0.0000 0.0000 16.7153
#
#
#
# Elastic Compliance Matrix: (Units=1/GPa)
#
#
# Indices 1 2 3 4 5 6 
#
# 1 0.039079 -0.001286 0.000894 0.000000 0.000000 0.000000
# 2 -0.001286 0.006725 -0.004087 0.000000 0.000000 0.000000
# 3 0.000894 -0.004087 0.008883 0.000000 0.000000 0.000000
# 4 0.000000 0.000000 0.000000 0.014414 0.000000 0.000000
# 5 0.000000 0.000000 0.000000 0.000000 0.033140 0.000000
# 6 0.000000 0.000000 0.000000 0.000000 0.000000 0.059825
#
#
# Mechanical properties :
#
#
# Convention : Reuss Voigt Hill
#
# Bulk Modulus (GPa) = 21.86781 65.27440 43.57110
# Shear Modulus (GPa) = 26.84312 42.60030 34.72171
#
# Velocity S-wave (km/s) = 3.60867 4.54609 4.10423
# Velocity P-wave (km/s) = 5.28888 7.69563 6.60284
#
# Compressibility (1/GPa) = 0.04572931
#
# Stress axis : x y z
#
# Youngs Moduli (GPa) = 25.58893 148.69720 112.57990
#
# Poissons Ratio (x) = 0.19125 -0.10068
# Poissons Ratio (y) = 0.03291 0.46011
# Poissons Ratio (z) = -0.02288 0.60772
#
# Static dielectric constant tensor:
#      x y z
#    x 1.768520 0.000000 0.000000 
#    y 0.000000 1.737920 0.000000 
#    z 0.000000 0.000000 1.698920 
# 
# From -- ./inp_files/14899.got.cif
#   From: 2010.05.17/outbox.cif.g08.bks.cpg/sg59_8_cif.got.tgz:14899.got - 2010.06.03 14:40:33.
