data_PCOD9452349
_publ_section_title
;
Structure prediction by ZEFSAII (Michael W. Deem and Ramdas Pophale) SiO2 
 PCOD9452349
Probable space group: P M M N
;
_chemical_formula_sum "Si O2"
_cell_formula_units_Z 48
_cell_length_a 14.798976
_cell_length_b 8.880330
_cell_length_c 20.034067
_cell_angle_alpha 90.000000
_cell_angle_beta 90.000000
_cell_angle_gamma 90.000000
_cell_volume 2632.872889
_symmetry_space_group_name_H-M "P M M N"
_symmetry_group_IT_number 59
_space_group.IT_coordinate_system_code '2'
_symmetry_cell_setting 'orthorhombic'
loop_
_space_group_symop_operation_xyz
x,y,z
1/2-x,1/2-y,z
1/2+x,-y,-z
-x,1/2+y,-z
-x,-y,-z
1/2+x,1/2+y,-z
1/2-x,y,z
x,1/2-y,z
loop_
_atom_site_type_symbol
_atom_site_label
_atom_site_fract_x
_atom_site_fract_y
_atom_site_fract_z
Si Si1 0.050996 0.569866 0.563898
Si Si2 0.250000 0.070368 0.369450
Si Si3 0.936120 0.430554 0.681574
Si Si4 0.750000 0.428852 0.484562
Si Si5 0.014117 0.570226 0.166007
Si Si6 0.357644 0.427857 0.055608
Si Si7 0.856012 0.429411 0.087208
O O1 0.037019 0.750000 0.564618
O O2 0.157781 0.540407 0.555181
O O3 0.000000 0.500000 0.500000
O O4 0.008185 0.497166 0.629572
O O5 0.250000 0.250000 0.363861
O O6 0.160537 0.001687 0.336235
O O7 0.250000 0.021308 0.446925
O O8 0.931244 0.250000 0.673681
O O9 0.962941 0.465861 0.757524
O O10 0.750000 0.250000 0.501670
O O11 0.013609 0.750000 0.158522
O O12 0.087736 0.500552 0.115947
O O13 0.918652 0.503505 0.142709
O O14 0.250000 0.448387 0.065244
O O15 0.376642 0.250000 0.051834
O O16 0.381931 0.504467 0.985196
O O17 0.750000 0.462562 0.097597
O O18 0.868192 0.250000 0.086592
#
# Coordination Sequence:
#
# PCOD9452349 Si02
#       7
#     8   4   8   4   8   8   8
#     4  11  22  39  64  92 122 159 202 249 297 353
#     4  12  24  38  64  94 120 157 198 243 298 360
#     4  11  25  43  61  87 125 163 198 245 301 358
#     4  10  22  40  64  90 122 157 196 249 304 354
#     4  11  24  40  60  85 119 162 199 242 299 356
#     4  10  21  37  60  90 121 154 196 247 295 350
#     4  10  21  39  63  88 116 154 199 248 298 352
#
# _framework density 18.231034999999999
#
# number of rings (size 3 to 8) (size 9 to 14) (size 15 to 20)
#    0.000    1.333    1.667    3.750    1.167    5.333 
#    1.500    0.000    0.000    0.000    0.000    0.000 
#    0.000    0.000    0.000    0.000    0.000    0.000 
#
# Total GULP energy -268421.931013 kJ/mol
# GULP energy per Si atom -5592.123563 kJ/mol
# Density = 1.818954 g / cm^3
# Si number density = 18.231035 Si / 1000 Ang^3
#
#
#
# Elastic Constant Matrix: (Units=GPa)
#
#
# Indices 1 2 3 4 5 6 
#
# 1 143.1027 80.5505 99.1785 0.0000 0.0000 0.0000
# 2 80.5505 98.6151 88.1824 0.0000 0.0000 0.0000
# 3 99.1785 88.1824 154.6132 0.0000 0.0000 0.0000
# 4 0.0000 0.0000 0.0000 34.8568 0.0000 0.0000
# 5 0.0000 0.0000 0.0000 0.0000 -31.7512 0.0000
# 6 0.0000 0.0000 0.0000 0.0000 0.0000 31.0670
#
#
#
# Elastic Compliance Matrix: (Units=1/GPa)
#
#
# Indices 1 2 3 4 5 6 
#
# 1 0.014798 -0.007345 -0.005303 0.000000 0.000000 0.000000
# 2 -0.007345 0.024341 -0.009171 0.000000 0.000000 0.000000
# 3 -0.005303 -0.009171 0.015100 0.000000 0.000000 0.000000
# 4 0.000000 0.000000 0.000000 0.028689 0.000000 0.000000
# 5 0.000000 0.000000 0.000000 0.000000 -0.031495 0.000000
# 6 0.000000 0.000000 0.000000 0.000000 0.000000 0.032188
#
#
# Mechanical properties :
#
#
# Convention : Reuss Voigt Hill
#
# Bulk Modulus (GPa) = 94.33563 103.57265 98.95414
# Shear Modulus (GPa) = 38.22855 15.39583 26.81219
#
# Velocity S-wave (km/s) = 4.58415 2.90915 3.83912
# Velocity P-wave (km/s) = 8.93735 8.25946 8.60508
#
# Compressibility (1/GPa) = 0.01060045
#
# Stress axis : x y z
#
# Youngs Moduli (GPa) = 67.57819 41.08338 66.22522
#
# Poissons Ratio (x) = 0.30176 0.35119
# Poissons Ratio (y) = 0.49636 0.60735
# Poissons Ratio (z) = 0.35836 0.37677
#
# Static dielectric constant tensor:
#      x y z
#    x 1.625050 0.000000 0.000000 
#    y 0.000000 1.607570 0.000000 
#    z 0.000000 0.000000 1.583720 
# 
# From -- ./inp_files/25562.got.cif
#   From: 2010.05.17/outbox.cif.g08.bks.cpg/sg59_13_cif.got.tgz:25562.got - 2010.06.03 14:40:33.
