data_PCOD9452462
_publ_section_title
;
Structure prediction by ZEFSAII (Michael W. Deem and Ramdas Pophale) SiO2 
 PCOD9452462
Probable space group: P M M N
;
_chemical_formula_sum "Si O2"
_cell_formula_units_Z 40
_cell_length_a 8.814498
_cell_length_b 14.512736
_cell_length_c 15.516361
_cell_angle_alpha 90.000000
_cell_angle_beta 90.000000
_cell_angle_gamma 90.000000
_cell_volume 1984.891418
_symmetry_space_group_name_H-M "P M M N"
_symmetry_group_IT_number 59
_space_group.IT_coordinate_system_code '2'
_symmetry_cell_setting 'orthorhombic'
loop_
_space_group_symop_operation_xyz
x,y,z
1/2-x,1/2-y,z
1/2+x,-y,-z
-x,1/2+y,-z
-x,-y,-z
1/2+x,1/2+y,-z
1/2-x,y,z
x,1/2-y,z
loop_
_atom_site_type_symbol
_atom_site_label
_atom_site_fract_x
_atom_site_fract_y
_atom_site_fract_z
Si Si1 0.429886 0.361517 0.581955
Si Si2 0.066552 0.358407 0.770107
Si Si3 0.926322 0.637763 0.604591
Si Si4 0.429030 0.501503 0.094543
Si Si5 0.924634 0.139499 0.216715
O O1 0.250000 0.382195 0.579493
O O2 0.442012 0.250000 0.584150
O O3 0.489525 0.391673 0.675185
O O4 0.490914 0.391949 0.488733
O O5 0.250000 0.366283 0.770524
O O6 0.030558 0.250000 0.779314
O O7 0.997639 0.417453 0.846525
O O8 0.750000 0.608967 0.613593
O O9 0.924816 0.750000 0.603168
O O10 0.021990 0.611072 0.687728
O O11 0.250000 0.511831 0.088186
O O12 0.472883 0.408902 0.145777
O O13 0.500000 0.500000 0.000000
O O14 0.750000 0.111964 0.203537
O O15 0.935098 0.250000 0.211286
#
# Coordination Sequence:
#
# PCOD9452462 Si02
#       5
#     8   8   8   8   8
#     4   7  11  23  48  81 114 149 186 222 264 319
#     4   9  18  36  62  89 118 152 188 228 278 334
#     4   8  13  25  49  81 115 150 187 224 266 321
#     4  12  26  43  62  83 110 144 186 237 289 341
#     4  10  21  38  60  86 116 149 187 233 283 334
#
# _framework density 20.152235000000001
#
# number of rings (size 3 to 8) (size 9 to 14) (size 15 to 20)
#    0.000    2.800    0.000    4.800    0.000    2.400 
#    0.000    2.000    0.000    3.600    0.000    0.000 
#    0.000    0.000    0.000    0.000    0.000    0.000 
#
# Total GULP energy -223184.358162 kJ/mol
# GULP energy per Si atom -5579.608954 kJ/mol
# Density = 2.010637 g / cm^3
# Si number density = 20.152235 Si / 1000 Ang^3
#
#
#
# Elastic Constant Matrix: (Units=GPa)
#
#
# Indices 1 2 3 4 5 6 
#
# 1 47.0945 6.2486 34.9860 0.0000 0.0000 0.0000
# 2 6.2486 54.2584 21.0830 0.0000 0.0000 0.0000
# 3 34.9860 21.0830 179.9626 0.0000 0.0000 0.0000
# 4 0.0000 0.0000 0.0000 31.3912 0.0000 0.0000
# 5 0.0000 0.0000 0.0000 0.0000 29.7210 0.0000
# 6 0.0000 0.0000 0.0000 0.0000 0.0000 23.0698
#
#
#
# Elastic Compliance Matrix: (Units=1/GPa)
#
#
# Indices 1 2 3 4 5 6 
#
# 1 0.024873 -0.001033 -0.004715 0.000000 0.000000 0.000000
# 2 -0.001033 0.019352 -0.002066 0.000000 0.000000 0.000000
# 3 -0.004715 -0.002066 0.006715 0.000000 0.000000 0.000000
# 4 0.000000 0.000000 0.000000 0.031856 0.000000 0.000000
# 5 0.000000 0.000000 0.000000 0.000000 0.033646 0.000000
# 6 0.000000 0.000000 0.000000 0.000000 0.000000 0.043347
#
#
# Mechanical properties :
#
#
# Convention : Reuss Voigt Hill
#
# Bulk Modulus (GPa) = 28.31764 45.10563 36.71163
# Shear Modulus (GPa) = 26.71111 31.43628 29.07369
#
# Velocity S-wave (km/s) = 3.64464 3.95389 3.80241
# Velocity P-wave (km/s) = 5.63858 6.57840 6.12654
#
# Compressibility (1/GPa) = 0.03531368
#
# Stress axis : x y z
#
# Youngs Moduli (GPa) = 40.20373 51.67382 148.91275
#
# Poissons Ratio (x) = 0.05336 0.70206
# Poissons Ratio (y) = 0.04151 0.30771
# Poissons Ratio (z) = 0.18954 0.10678
#
# Static dielectric constant tensor:
#      x y z
#    x 1.690380 0.000000 0.000000 
#    y 0.000000 1.759730 0.000000 
#    z 0.000000 0.000000 1.718460 
# 
# From -- ./inp_files/19859.got.cif
#   From: 2010.05.17/outbox.cif.g08.bks.cpg/sg59_10_cif.got.tgz:19859.got - 2010.06.03 14:40:33.
