data_PCOD9452225
_publ_section_title
;
Structure prediction by ZEFSAII (Michael W. Deem and Ramdas Pophale) SiO2 
 PCOD9452225
Probable space group: P M M N
;
_chemical_formula_sum "Si O2"
_cell_formula_units_Z 64
_cell_length_a 8.856702
_cell_length_b 14.713803
_cell_length_c 26.781867
_cell_angle_alpha 90.000000
_cell_angle_beta 90.000000
_cell_angle_gamma 90.000000
_cell_volume 3490.099579
_symmetry_space_group_name_H-M "P M M N"
_symmetry_group_IT_number 59
_space_group.IT_coordinate_system_code '2'
_symmetry_cell_setting 'orthorhombic'
loop_
_space_group_symop_operation_xyz
x,y,z
1/2-x,1/2-y,z
1/2+x,-y,-z
-x,1/2+y,-z
-x,-y,-z
1/2+x,1/2+y,-z
1/2-x,y,z
x,1/2-y,z
loop_
_atom_site_type_symbol
_atom_site_label
_atom_site_fract_x
_atom_site_fract_y
_atom_site_fract_z
Si Si1 0.071447 0.858168 0.129837
Si Si2 0.571797 0.141777 0.235788
Si Si3 0.069966 0.498917 0.310666
Si Si4 0.431618 0.855924 0.496417
Si Si5 0.430047 0.499574 0.945031
Si Si6 0.930490 0.996555 0.420267
Si Si7 0.571402 0.641931 0.237027
Si Si8 0.571809 0.641743 0.871225
O O1 0.250000 0.878070 0.130031
O O2 0.051568 0.750000 0.123001
O O3 0.990444 0.913917 0.086541
O O4 0.000684 0.882463 0.183536
O O5 0.750000 0.121000 0.234295
O O6 0.554023 0.250000 0.242656
O O7 0.493386 0.086741 0.279820
O O8 0.496870 0.117510 0.182756
O O9 0.250000 0.498699 0.310655
O O10 0.007335 0.498625 0.366633
O O11 0.007881 0.585883 0.280532
O O12 0.250000 0.860281 0.489464
O O13 0.474752 0.750000 0.499829
O O14 0.510680 0.909660 0.451337
O O15 0.466892 0.914504 0.546081
O O16 0.250000 0.498337 0.947718
O O17 0.487457 0.586588 0.914003
O O18 0.500000 0.500000 0.000000
O O19 0.750000 0.991700 0.414758
O O20 0.750000 0.622341 0.236255
O O21 0.551200 0.750000 0.243997
O O22 0.750000 0.620793 0.872037
O O23 0.553217 0.750000 0.877787
#
# Coordination Sequence:
#
# PCOD9452225 Si02
#       8
#     8   8   8   8   8   8   8   8
#     4  10  21  39  62  86 114 148 186 229 279 337
#     4  10  21  38  60  85 114 150 191 232 277 332
#     4  12  24  37  56  83 119 156 189 233 284 333
#     4   9  19  38  62  84 109 145 187 231 281 335
#     4  12  25  40  59  83 113 147 187 234 283 337
#     4  10  21  37  57  84 115 147 188 233 279 332
#     4  10  21  38  60  85 113 148 191 234 278 333
#     4  10  21  39  62  86 114 148 187 231 279 335
#
# _framework density 18.337585000000001
#
# number of rings (size 3 to 8) (size 9 to 14) (size 15 to 20)
#    0.000    1.625    0.000    4.875    0.000    5.250 
#    0.000    1.250    0.000    0.000    0.000    0.000 
#    0.000    0.000    0.000    0.000    0.000    0.000 
#
# Total GULP energy -357814.584981 kJ/mol
# GULP energy per Si atom -5590.852890 kJ/mol
# Density = 1.829585 g / cm^3
# Si number density = 18.337585 Si / 1000 Ang^3
#
#
#
# Elastic Constant Matrix: (Units=GPa)
#
#
# Indices 1 2 3 4 5 6 
#
# 1 157.0430 73.5933 107.7526 0.0000 0.0000 0.0000
# 2 73.5933 114.9403 83.4475 0.0000 0.0000 0.0000
# 3 107.7526 83.4475 193.7790 0.0000 0.0000 0.0000
# 4 0.0000 0.0000 0.0000 20.1307 0.0000 0.0000
# 5 0.0000 0.0000 0.0000 0.0000 37.8736 0.0000
# 6 0.0000 0.0000 0.0000 0.0000 0.0000 17.8535
#
#
#
# Elastic Compliance Matrix: (Units=1/GPa)
#
#
# Indices 1 2 3 4 5 6 
#
# 1 0.011394 -0.003921 -0.004647 0.000000 0.000000 0.000000
# 2 -0.003921 0.014007 -0.003851 0.000000 0.000000 0.000000
# 3 -0.004647 -0.003851 0.009403 0.000000 0.000000 0.000000
# 4 0.000000 0.000000 0.000000 0.049675 0.000000 0.000000
# 5 0.000000 0.000000 0.000000 0.000000 0.026404 0.000000
# 6 0.000000 0.000000 0.000000 0.000000 0.000000 0.056011
#
#
# Mechanical properties :
#
#
# Convention : Reuss Voigt Hill
#
# Bulk Modulus (GPa) = 100.35692 110.59433 105.47563
# Shear Modulus (GPa) = 25.63378 28.56949 27.10164
#
# Velocity S-wave (km/s) = 3.74288 3.95140 3.84855
# Velocity P-wave (km/s) = 8.57468 9.01439 8.79728
#
# Compressibility (1/GPa) = 0.00996443
#
# Stress axis : x y z
#
# Youngs Moduli (GPa) = 87.76760 71.39251 106.34927
#
# Poissons Ratio (x) = 0.27996 0.49419
# Poissons Ratio (y) = 0.34417 0.40959
# Poissons Ratio (z) = 0.40785 0.27496
#
# Static dielectric constant tensor:
#      x y z
#    x 1.622000 0.000000 0.000000 
#    y 0.000000 1.636340 0.000000 
#    z 0.000000 0.000000 1.582790 
# 
# From -- ./inp_files/31413.got.cif
#   From: 2010.05.17/outbox.cif.g08.bks.cpg/sg59_16_cif.got.tgz:31413.got - 2010.06.03 14:40:33.
