data_PCOD9452380
_publ_section_title
;
Structure prediction by ZEFSAII (Michael W. Deem and Ramdas Pophale) SiO2 
 PCOD9452380
Probable space group: P M M N
;
_chemical_formula_sum "Si O2"
_cell_formula_units_Z 64
_cell_length_a 8.480096
_cell_length_b 15.971126
_cell_length_c 24.452061
_cell_angle_alpha 90.000000
_cell_angle_beta 90.000000
_cell_angle_gamma 90.000000
_cell_volume 3311.706003
_symmetry_space_group_name_H-M "P M M N"
_symmetry_group_IT_number 59
_space_group.IT_coordinate_system_code '2'
_symmetry_cell_setting 'orthorhombic'
loop_
_space_group_symop_operation_xyz
x,y,z
1/2-x,1/2-y,z
1/2+x,-y,-z
-x,1/2+y,-z
-x,-y,-z
1/2+x,1/2+y,-z
1/2-x,y,z
x,1/2-y,z
loop_
_atom_site_type_symbol
_atom_site_label
_atom_site_fract_x
_atom_site_fract_y
_atom_site_fract_z
Si Si1 0.440622 0.843528 0.134512
Si Si2 0.060901 0.411511 0.752320
Si Si3 0.061647 0.500041 0.061518
Si Si4 0.436828 0.399393 0.245930
Si Si5 0.561760 0.343213 0.130061
Si Si6 0.558008 0.843283 0.366215
Si Si7 0.559449 0.343801 0.363586
Si Si8 0.940865 0.000600 0.438300
O O1 0.250000 0.847816 0.138082
O O2 0.483491 0.750000 0.115825
O O3 0.509531 0.860744 0.194438
O O4 0.494861 0.917666 0.094511
O O5 0.250000 0.422161 0.752020
O O6 0.014718 0.366152 0.696000
O O7 0.982736 0.502767 0.754432
O O8 0.250000 0.503082 0.060449
O O9 0.010071 0.417410 0.094166
O O10 0.000000 0.500000 0.000000
O O11 0.250000 0.389894 0.241120
O O12 0.516591 0.357822 0.193230
O O13 0.495208 0.361436 0.303043
O O14 0.750000 0.347224 0.124833
O O15 0.508633 0.250000 0.113352
O O16 0.750000 0.842803 0.367950
O O17 0.503172 0.750000 0.380791
O O18 0.505018 0.917478 0.406045
O O19 0.750000 0.347498 0.360783
O O20 0.513966 0.250000 0.381210
O O21 0.507008 0.417060 0.404672
O O22 0.750000 0.000675 0.438359
O O23 0.000000 0.000000 0.500000
#
# Coordination Sequence:
#
# PCOD9452380 Si02
#       8
#     8   8   8   8   8   8   8   8
#     4  10  22  40  61  89 125 160 195 242 303 360
#     4  11  20  35  61  89 119 155 197 240 291 357
#     4  11  24  42  64  90 123 165 207 254 302 351
#     4  12  23  36  59  91 125 157 192 241 302 362
#     4  11  24  42  65  92 123 161 203 250 305 361
#     4   9  18  34  57  84 113 146 186 234 286 341
#     4  10  21  39  61  84 114 154 197 240 290 351
#     4  10  21  38  57  81 112 150 194 240 289 343
#
# _framework density 19.325386000000002
#
# number of rings (size 3 to 8) (size 9 to 14) (size 15 to 20)
#    0.000    1.500    2.500    3.000    0.000    5.500 
#    0.000    1.250    0.000    1.500    0.000    0.000 
#    0.000    0.000    0.000    0.000    0.000    0.000 
#
# Total GULP energy -357698.156937 kJ/mol
# GULP energy per Si atom -5589.033702 kJ/mol
# Density = 1.928140 g / cm^3
# Si number density = 19.325386 Si / 1000 Ang^3
#
#
#
# Elastic Constant Matrix: (Units=GPa)
#
#
# Indices 1 2 3 4 5 6 
#
# 1 18.3297 23.3162 17.7152 0.0000 0.0000 0.0000
# 2 23.3162 182.2254 85.2906 0.0000 0.0000 0.0000
# 3 17.7152 85.2906 156.2911 0.0000 0.0000 0.0000
# 4 0.0000 0.0000 0.0000 0.2015 0.0000 0.0000
# 5 0.0000 0.0000 0.0000 0.0000 33.2782 0.0000
# 6 0.0000 0.0000 0.0000 0.0000 0.0000 21.1129
#
#
#
# Elastic Compliance Matrix: (Units=1/GPa)
#
#
# Indices 1 2 3 4 5 6 
#
# 1 0.066895 -0.006729 -0.003910 0.000000 0.000000 0.000000
# 2 -0.006729 0.008047 -0.003629 0.000000 0.000000 0.000000
# 3 -0.003910 -0.003629 0.008822 0.000000 0.000000 0.000000
# 4 0.000000 0.000000 0.000000 4.963885 0.000000 0.000000
# 5 0.000000 0.000000 0.000000 0.000000 0.030050 0.000000
# 6 0.000000 0.000000 0.000000 0.000000 0.000000 0.047364
#
#
# Mechanical properties :
#
#
# Convention : Reuss Voigt Hill
#
# Bulk Modulus (GPa) = 18.10680 67.72112 42.91396
# Shear Modulus (GPa) = 0.96674 26.28681 13.62678
#
# Velocity S-wave (km/s) = 0.70805 3.69212 2.65830
# Velocity P-wave (km/s) = 3.17147 7.30030 5.62817
#
# Compressibility (1/GPa) = 0.05522788
#
# Stress axis : x y z
#
# Youngs Moduli (GPa) = 14.94876 124.26737 113.35603
#
# Poissons Ratio (x) = 0.83623 0.44323
# Poissons Ratio (y) = 0.10059 0.41134
# Poissons Ratio (z) = 0.05845 0.45093
#
# Static dielectric constant tensor:
#      x y z
#    x 1.658350 0.000000 0.000000 
#    y 0.000000 1.692880 0.000000 
#    z 0.000000 0.000000 1.631800 
# 
# From -- ./inp_files/31443.got.cif
#   From: 2010.05.17/outbox.cif.g08.bks.cpg/sg59_16_cif.got.tgz:31443.got - 2010.06.03 14:40:33.
