data_PCOD9452263
_publ_section_title
;
Structure prediction by ZEFSAII (Michael W. Deem and Ramdas Pophale) SiO2 
 PCOD9452263
Probable space group: P M M N
;
_chemical_formula_sum "Si O2"
_cell_formula_units_Z 48
_cell_length_a 9.251144
_cell_length_b 7.912799
_cell_length_c 34.983737
_cell_angle_alpha 90.000000
_cell_angle_beta 90.000000
_cell_angle_gamma 90.000000
_cell_volume 2560.895013
_symmetry_space_group_name_H-M "P M M N"
_symmetry_group_IT_number 59
_space_group.IT_coordinate_system_code '2'
_symmetry_cell_setting 'orthorhombic'
loop_
_space_group_symop_operation_xyz
x,y,z
1/2-x,1/2-y,z
1/2+x,-y,-z
-x,1/2+y,-z
-x,-y,-z
1/2+x,1/2+y,-z
1/2-x,y,z
x,1/2-y,z
loop_
_atom_site_type_symbol
_atom_site_label
_atom_site_fract_x
_atom_site_fract_y
_atom_site_fract_z
Si Si1 0.082492 0.047573 0.961315
Si Si2 0.586107 0.952931 0.613793
Si Si3 0.586792 0.951102 0.462103
Si Si4 0.923191 0.448499 0.308724
Si Si5 0.076523 0.250000 0.748772
Si Si6 0.923939 0.250000 0.830213
Si Si7 0.577852 0.559530 0.885079
O O1 0.250000 0.995469 0.963676
O O2 0.076997 0.250000 0.956817
O O3 0.005631 0.967392 0.924636
O O4 0.000000 0.000000 0.000000
O O5 0.750000 0.019759 0.612395
O O6 0.593715 0.750000 0.615016
O O7 0.503476 0.002902 0.652444
O O8 0.498073 0.997951 0.575957
O O9 0.750000 0.022180 0.462463
O O10 0.597086 0.750000 0.461976
O O11 0.500000 0.000000 0.500000
O O12 0.750000 0.457479 0.314792
O O13 0.957869 0.250000 0.300390
O O14 0.960591 0.581449 0.275531
O O15 0.250000 0.250000 0.754041
O O16 0.998713 0.250000 0.789320
O O17 0.750000 0.250000 0.825675
O O18 0.964091 0.415563 0.854893
O O19 0.750000 0.540951 0.892384
O O20 0.552358 0.750000 0.870788
#
# Coordination Sequence:
#
# PCOD9452263 Si02
#       7
#     8   8   8   8   4   4   8
#     4  11  23  37  56  85 120 157 199 246 296 351
#     4  10  21  37  58  85 115 147 186 234 287 343
#     4  11  24  39  56  80 111 148 191 236 282 337
#     4   9  19  37  59  84 117 154 191 238 294 346
#     4  10  22  38  60  88 118 152 198 246 290 356
#     4  10  22  40  60  86 120 156 192 244 304 354
#     4  10  21  39  62  86 115 155 201 245 295 354
#
# _framework density 18.743447
#
# number of rings (size 3 to 8) (size 9 to 14) (size 15 to 20)
#    0.000    1.833    0.833    2.500    1.167    9.667 
#    0.000    0.000    0.000    0.000    0.000    0.000 
#    0.000    0.000    0.000    0.000    0.000    0.000 
#
# Total GULP energy -268115.488224 kJ/mol
# GULP energy per Si atom -5585.739338 kJ/mol
# Density = 1.870079 g / cm^3
# Si number density = 18.743447 Si / 1000 Ang^3
#
#
#
# Elastic Constant Matrix: (Units=GPa)
#
#
# Indices 1 2 3 4 5 6 
#
# 1 92.9910 52.0308 86.4726 0.0000 0.0000 0.0000
# 2 52.0308 97.5476 75.9893 0.0000 0.0000 0.0000
# 3 86.4726 75.9893 190.3695 0.0000 0.0000 0.0000
# 4 0.0000 0.0000 0.0000 32.0146 0.0000 0.0000
# 5 0.0000 0.0000 0.0000 0.0000 42.2368 0.0000
# 6 0.0000 0.0000 0.0000 0.0000 0.0000 21.0437
#
#
#
# Elastic Compliance Matrix: (Units=1/GPa)
#
#
# Indices 1 2 3 4 5 6 
#
# 1 0.020346 -0.005302 -0.007126 0.000000 0.000000 0.000000
# 2 -0.005302 0.016259 -0.004082 0.000000 0.000000 0.000000
# 3 -0.007126 -0.004082 0.010119 0.000000 0.000000 0.000000
# 4 0.000000 0.000000 0.000000 0.031236 0.000000 0.000000
# 5 0.000000 0.000000 0.000000 0.000000 0.023676 0.000000
# 6 0.000000 0.000000 0.000000 0.000000 0.000000 0.047520
#
#
# Mechanical properties :
#
#
# Convention : Reuss Voigt Hill
#
# Bulk Modulus (GPa) = 72.96115 89.98816 81.47466
# Shear Modulus (GPa) = 26.77466 30.15339 28.46402
#
# Velocity S-wave (km/s) = 3.78363 4.01527 3.90116
# Velocity P-wave (km/s) = 7.62224 8.34333 7.99092
#
# Compressibility (1/GPa) = 0.01370592
#
# Stress axis : x y z
#
# Youngs Moduli (GPa) = 49.14863 61.50457 98.82256
#
# Poissons Ratio (x) = 0.32607 0.70420
# Poissons Ratio (y) = 0.26056 0.40339
# Poissons Ratio (z) = 0.35023 0.25106
#
# Static dielectric constant tensor:
#      x y z
#    x 1.650870 0.000000 0.000000 
#    y 0.000000 1.666270 0.000000 
#    z 0.000000 0.000000 1.715050 
# 
# From -- ./inp_files/33016.got.cif
#   From: 2010.05.17/outbox.cif.g08.bks.cpg/sg59_17_cif.got.tgz:33016.got - 2010.06.03 14:40:33.
