data_PCOD9452922
_publ_section_title
;
Structure prediction by ZEFSAII (Michael W. Deem and Ramdas Pophale) SiO2 
 PCOD9452922
Probable space group: P M M N
;
_chemical_formula_sum "Si O2"
_cell_formula_units_Z 38
_cell_length_a 9.380502
_cell_length_b 11.693973
_cell_length_c 17.131473
_cell_angle_alpha 90.000000
_cell_angle_beta 90.000000
_cell_angle_gamma 90.000000
_cell_volume 1879.242706
_symmetry_space_group_name_H-M "P M M N"
_symmetry_group_IT_number 59
_space_group.IT_coordinate_system_code '2'
_symmetry_cell_setting 'orthorhombic'
loop_
_space_group_symop_operation_xyz
x,y,z
1/2-x,1/2-y,z
1/2+x,-y,-z
-x,1/2+y,-z
-x,-y,-z
1/2+x,1/2+y,-z
1/2-x,y,z
x,1/2-y,z
loop_
_atom_site_type_symbol
_atom_site_label
_atom_site_fract_x
_atom_site_fract_y
_atom_site_fract_z
Si Si1 0.250000 0.113342 0.925792
Si Si2 0.995071 0.524423 0.184922
Si Si3 0.750000 0.614004 0.890172
Si Si4 0.919043 0.250000 0.726324
Si Si5 0.250000 0.119157 0.394995
Si Si6 0.750000 0.990998 0.442220
Si Si7 0.446601 0.616943 0.670964
Si Si8 0.750000 0.750000 0.353545
O O1 0.250000 0.250000 0.916022
O O2 0.387185 0.064329 0.881699
O O3 0.250000 0.087386 0.017477
O O4 0.111597 0.440310 0.149231
O O5 0.069663 0.635056 0.223012
O O6 0.911850 0.458214 0.253955
O O7 0.750000 0.750000 0.879937
O O8 0.750000 0.250000 0.691795
O O9 0.084723 0.250000 0.685496
O O10 0.250000 0.250000 0.426730
O O11 0.250000 0.030381 0.466003
O O12 0.385889 0.106933 0.341223
O O13 0.750000 0.866835 0.402256
O O14 0.619451 0.063111 0.407235
O O15 0.409187 0.750000 0.679108
#
# Coordination Sequence:
#
# PCOD9452922 Si02
#       8
#     4   8   4   4   4   4   8   2
#     4  11  24  42  68  97 130 172 220 282 355 414
#     4  12  22  42  69  94 132 172 225 280 337 410
#     4  11  25  43  63  94 134 176 220 275 350 418
#     4  12  24  42  70 106 134 174 236 290 338 402
#     4  10  23  42  64  91 128 171 219 273 343 404
#     4  12  22  42  66  90 136 168 225 273 343 406
#     4  11  24  40  65  95 127 172 218 273 335 406
#     4  12  24  42  70 104 132 186 222 294 354 392
#
# _framework density 20.220911999999998
#
# number of rings (size 3 to 8) (size 9 to 14) (size 15 to 20)
#    0.000    0.632    4.737    4.105    0.000    0.842 
#    0.000    1.579    4.632    0.000    0.000    0.000 
#    0.000    0.000    0.000    0.000    0.000    0.000 
#
# Total GULP energy -212075.117833 kJ/mol
# GULP energy per Si atom -5580.924153 kJ/mol
# Density = 2.017489 g / cm^3
# Si number density = 20.220912 Si / 1000 Ang^3
#
#
#
# Elastic Constant Matrix: (Units=GPa)
#
#
# Indices 1 2 3 4 5 6 
#
# 1 134.4391 9.5599 24.1780 0.0000 0.0000 0.0000
# 2 9.5599 109.8145 44.9572 0.0000 0.0000 0.0000
# 3 24.1780 44.9572 90.8468 0.0000 0.0000 0.0000
# 4 0.0000 0.0000 0.0000 27.1819 0.0000 0.0000
# 5 0.0000 0.0000 0.0000 0.0000 24.1644 0.0000
# 6 0.0000 0.0000 0.0000 0.0000 0.0000 37.5399
#
#
#
# Elastic Compliance Matrix: (Units=1/GPa)
#
#
# Indices 1 2 3 4 5 6 
#
# 1 0.007816 0.000215 -0.002186 0.000000 0.000000 0.000000
# 2 0.000215 0.011426 -0.005711 0.000000 0.000000 0.000000
# 3 -0.002186 -0.005711 0.014416 0.000000 0.000000 0.000000
# 4 0.000000 0.000000 0.000000 0.036789 0.000000 0.000000
# 5 0.000000 0.000000 0.000000 0.000000 0.041383 0.000000
# 6 0.000000 0.000000 0.000000 0.000000 0.000000 0.026638
#
#
# Mechanical properties :
#
#
# Convention : Reuss Voigt Hill
#
# Bulk Modulus (GPa) = 54.67012 54.72119 54.69566
# Shear Modulus (GPa) = 31.26327 34.87093 33.06710
#
# Velocity S-wave (km/s) = 3.93630 4.15721 4.04826
# Velocity P-wave (km/s) = 6.91045 7.08263 6.99707
#
# Compressibility (1/GPa) = 0.01829153
#
# Stress axis : x y z
#
# Youngs Moduli (GPa) = 127.93829 87.52144 69.36813
#
# Poissons Ratio (x) = -0.01879 0.15167
# Poissons Ratio (y) = -0.02747 0.39619
# Poissons Ratio (z) = 0.27973 0.49987
#
# Static dielectric constant tensor:
#      x y z
#    x 1.763910 0.000000 0.000000 
#    y 0.000000 1.688720 0.000000 
#    z 0.000000 0.000000 1.692410 
# 
# From -- ./inp_files/25306.got.cif
#   From: 2010.05.17/outbox.cif.g08.bks.cpg/sg59_13_cif.got.tgz:25306.got - 2010.06.03 14:40:33.
