data_PCOD9452869
_publ_section_title
;
Structure prediction by ZEFSAII (Michael W. Deem and Ramdas Pophale) SiO2 
 PCOD9452869
Probable space group: P M M N
;
_chemical_formula_sum "Si O2"
_cell_formula_units_Z 48
_cell_length_a 34.951830
_cell_length_b 8.934130
_cell_length_c 7.691693
_cell_angle_alpha 90.000000
_cell_angle_beta 90.000000
_cell_angle_gamma 90.000000
_cell_volume 2401.840307
_symmetry_space_group_name_H-M "P M M N"
_symmetry_group_IT_number 59
_space_group.IT_coordinate_system_code '2'
_symmetry_cell_setting 'orthorhombic'
loop_
_space_group_symop_operation_xyz
x,y,z
1/2-x,1/2-y,z
1/2+x,-y,-z
-x,1/2+y,-z
-x,-y,-z
1/2+x,1/2+y,-z
1/2-x,y,z
x,1/2-y,z
loop_
_atom_site_type_symbol
_atom_site_label
_atom_site_fract_x
_atom_site_fract_y
_atom_site_fract_z
Si Si1 0.992130 0.071049 0.815222
Si Si2 0.409775 0.918837 0.312902
Si Si3 0.665657 0.572754 0.595294
Si Si4 0.566817 0.417369 0.286534
Si Si5 0.149482 0.568270 0.781238
Si Si6 0.206288 0.928777 0.093541
O O1 0.992053 0.250000 0.812798
O O2 0.949432 0.023264 0.764097
O O3 0.028432 0.013340 0.707234
O O4 0.000000 0.000000 0.000000
O O5 0.401154 0.750000 0.245257
O O6 0.418539 0.904531 0.517329
O O7 0.373368 0.024291 0.305060
O O8 0.668189 0.750000 0.577601
O O9 0.663671 0.499450 0.402770
O O10 0.697783 0.508068 0.723367
O O11 0.557397 0.250000 0.219878
O O12 0.604738 0.475804 0.187596
O O13 0.149451 0.750000 0.765584
O O14 0.176935 0.525705 0.940581
O O15 0.250000 0.957095 0.038843
O O16 0.201590 0.750000 0.118556
#
# Coordination Sequence:
#
# PCOD9452869 Si02
#       6
#     8   8   8   8   8   8
#     4  11  23  35  51  79 114 151 193 239 287 342
#     4   9  20  39  59  78 108 154 200 239 283 341
#     4  11  23  38  61  93 126 158 195 246 304 358
#     4   9  18  35  57  80 108 145 191 243 292 339
#     4   9  20  40  64  89 119 159 205 247 293 355
#     4  10  22  41  66  92 119 157 202 244 290 355
#
# _framework density 19.984676
#
# number of rings (size 3 to 8) (size 9 to 14) (size 15 to 20)
#    0.000    2.167    0.000    3.500    2.333    5.667 
#    0.000    1.667    0.000    0.000    0.000    0.000 
#    0.000    0.000    0.000    0.000    0.000    0.000 
#
# Total GULP energy -267791.754403 kJ/mol
# GULP energy per Si atom -5578.994883 kJ/mol
# Density = 1.993919 g / cm^3
# Si number density = 19.984676 Si / 1000 Ang^3
#
#
#
# Elastic Constant Matrix: (Units=GPa)
#
#
# Indices 1 2 3 4 5 6 
#
# 1 66.9031 16.3306 14.5342 0.0000 0.0000 0.0000
# 2 16.3306 35.3220 13.0623 0.0000 0.0000 0.0000
# 3 14.5342 13.0623 48.9110 0.0000 0.0000 0.0000
# 4 0.0000 0.0000 0.0000 20.3579 0.0000 0.0000
# 5 0.0000 0.0000 0.0000 0.0000 39.4277 0.0000
# 6 0.0000 0.0000 0.0000 0.0000 0.0000 20.6172
#
#
#
# Elastic Compliance Matrix: (Units=1/GPa)
#
#
# Indices 1 2 3 4 5 6 
#
# 1 0.017326 -0.006776 -0.003339 0.000000 0.000000 0.000000
# 2 -0.006776 0.034063 -0.007084 0.000000 0.000000 0.000000
# 3 -0.003339 -0.007084 0.023329 0.000000 0.000000 0.000000
# 4 0.000000 0.000000 0.000000 0.049121 0.000000 0.000000
# 5 0.000000 0.000000 0.000000 0.000000 0.025363 0.000000
# 6 0.000000 0.000000 0.000000 0.000000 0.000000 0.048503
#
#
# Mechanical properties :
#
#
# Convention : Reuss Voigt Hill
#
# Bulk Modulus (GPa) = 24.80034 26.55446 25.67740
# Shear Modulus (GPa) = 20.36301 23.22782 21.79541
#
# Velocity S-wave (km/s) = 3.19553 3.41292 3.30602
# Velocity P-wave (km/s) = 5.10410 5.37094 5.23922
#
# Compressibility (1/GPa) = 0.04032203
#
# Stress axis : x y z
#
# Youngs Moduli (GPa) = 57.71575 29.35719 42.86454
#
# Poissons Ratio (x) = 0.19892 0.14313
# Poissons Ratio (y) = 0.39107 0.30364
# Poissons Ratio (z) = 0.19272 0.20795
#
# Static dielectric constant tensor:
#      x y z
#    x 1.876980 0.000000 0.000000 
#    y 0.000000 1.761700 0.000000 
#    z 0.000000 0.000000 1.713880 
# 
# From -- ./inp_files/12980.got.cif
#   From: 2010.05.17/outbox.cif.g08.bks.cpg/sg59_7_cif.got.tgz:12980.got - 2010.06.03 14:40:33.
