data_PCOD9452275
_publ_section_title
;
Structure prediction by ZEFSAII (Michael W. Deem and Ramdas Pophale) SiO2 
 PCOD9452275
Probable space group: P M M N
;
_chemical_formula_sum "Si O2"
_cell_formula_units_Z 40
_cell_length_a 14.733876
_cell_length_b 8.509563
_cell_length_c 17.679480
_cell_angle_alpha 90.000000
_cell_angle_beta 90.000000
_cell_angle_gamma 90.000000
_cell_volume 2216.632801
_symmetry_space_group_name_H-M "P M M N"
_symmetry_group_IT_number 59
_space_group.IT_coordinate_system_code '2'
_symmetry_cell_setting 'orthorhombic'
loop_
_space_group_symop_operation_xyz
x,y,z
1/2-x,1/2-y,z
1/2+x,-y,-z
-x,1/2+y,-z
-x,-y,-z
1/2+x,1/2+y,-z
1/2-x,y,z
x,1/2-y,z
loop_
_atom_site_type_symbol
_atom_site_label
_atom_site_fract_x
_atom_site_fract_y
_atom_site_fract_z
Si Si1 0.055508 0.061546 0.283839
Si Si2 0.506754 0.438216 0.880783
Si Si3 0.054058 0.438975 0.573053
Si Si4 0.250000 0.058784 0.520491
Si Si5 0.250000 0.058466 0.345066
Si Si6 0.354512 0.560123 0.988542
O O1 0.055336 0.250000 0.283186
O O2 0.157987 0.007518 0.303867
O O3 0.023743 0.999932 0.202965
O O4 0.991236 0.003426 0.351270
O O5 0.504735 0.250000 0.880152
O O6 0.413835 0.499713 0.918216
O O7 0.588939 0.489187 0.936779
O O8 0.050767 0.250000 0.573763
O O9 0.158213 0.490320 0.561897
O O10 0.000000 0.500000 0.500000
O O11 0.250000 0.250000 0.518612
O O12 0.250000 0.006937 0.432776
O O13 0.250000 0.250000 0.345889
O O14 0.250000 0.506500 0.988904
O O15 0.354314 0.750000 0.986791
#
# Coordination Sequence:
#
# PCOD9452275 Si02
#       6
#     8   8   8   4   4   8
#     4  11  22  38  58  83 115 150 188 233 281 335
#     4  10  21  37  58  87 118 147 184 231 283 337
#     4  11  21  37  59  82 111 149 189 234 283 337
#     4   9  18  36  58  78 107 146 187 228 280 337
#     4   9  18  34  56  82 111 146 185 228 282 337
#     4   9  19  38  62  85 114 150 186 229 279 334
#
# _framework density 18.045387000000002
#
# number of rings (size 3 to 8) (size 9 to 14) (size 15 to 20)
#    0.000    2.000    2.000    1.800    1.400    1.200 
#    1.800    4.500    0.000    0.000    0.000    0.000 
#    0.000    0.000    0.000    0.000    0.000    0.000 
#
# Total GULP energy -223328.753561 kJ/mol
# GULP energy per Si atom -5583.218839 kJ/mol
# Density = 1.800431 g / cm^3
# Si number density = 18.045387 Si / 1000 Ang^3
#
#
#
# Elastic Constant Matrix: (Units=GPa)
#
#
# Indices 1 2 3 4 5 6 
#
# 1 191.3208 30.3537 101.6918 0.0000 0.0000 0.0000
# 2 30.3537 25.5408 26.1189 0.0000 0.0000 0.0000
# 3 101.6918 26.1189 177.6250 0.0000 0.0000 0.0000
# 4 0.0000 0.0000 0.0000 27.4345 0.0000 0.0000
# 5 0.0000 0.0000 0.0000 0.0000 13.7260 0.0000
# 6 0.0000 0.0000 0.0000 0.0000 0.0000 22.9141
#
#
#
# Elastic Compliance Matrix: (Units=1/GPa)
#
#
# Indices 1 2 3 4 5 6 
#
# 1 0.008185 -0.005809 -0.003832 0.000000 0.000000 0.000000
# 2 -0.005809 0.050205 -0.004057 0.000000 0.000000 0.000000
# 3 -0.003832 -0.004057 0.008420 0.000000 0.000000 0.000000
# 4 0.000000 0.000000 0.000000 0.036450 0.000000 0.000000
# 5 0.000000 0.000000 0.000000 0.000000 0.072854 0.000000
# 6 0.000000 0.000000 0.000000 0.000000 0.000000 0.043641
#
#
# Mechanical properties :
#
#
# Convention : Reuss Voigt Hill
#
# Bulk Modulus (GPa) = 25.37081 78.97949 52.17515
# Shear Modulus (GPa) = 19.20931 28.56974 23.88953
#
# Velocity S-wave (km/s) = 3.26621 3.98328 3.64243
# Velocity P-wave (km/s) = 5.32110 8.06334 6.83124
#
# Compressibility (1/GPa) = 0.03941538
#
# Stress axis : x y z
#
# Youngs Moduli (GPa) = 122.17183 19.91820 118.76251
#
# Poissons Ratio (x) = 0.11570 0.45509
# Poissons Ratio (y) = 0.70969 0.48179
# Poissons Ratio (z) = 0.46815 0.08080
#
# Static dielectric constant tensor:
#      x y z
#    x 1.616670 0.000000 0.000000 
#    y 0.000000 1.617010 0.000000 
#    z 0.000000 0.000000 1.576960 
# 
# From -- ./inp_files/19994.got.cif
#   From: 2010.05.17/outbox.cif.g08.bks.cpg/sg59_10_cif.got.tgz:19994.got - 2010.06.03 14:40:33.
