data_PCOD9452069
_publ_section_title
;
Structure prediction by ZEFSAII (Michael W. Deem and Ramdas Pophale) SiO2 
 PCOD9452069
Probable space group: P M M N
;
_chemical_formula_sum "Si O2"
_cell_formula_units_Z 40
_cell_length_a 9.607996
_cell_length_b 7.406892
_cell_length_c 28.686716
_cell_angle_alpha 90.000000
_cell_angle_beta 90.000000
_cell_angle_gamma 90.000000
_cell_volume 2041.501295
_symmetry_space_group_name_H-M "P M M N"
_symmetry_group_IT_number 59
_space_group.IT_coordinate_system_code '2'
_symmetry_cell_setting 'orthorhombic'
loop_
_space_group_symop_operation_xyz
x,y,z
1/2-x,1/2-y,z
1/2+x,-y,-z
-x,1/2+y,-z
-x,-y,-z
1/2+x,1/2+y,-z
1/2-x,y,z
x,1/2-y,z
loop_
_atom_site_type_symbol
_atom_site_label
_atom_site_fract_x
_atom_site_fract_y
_atom_site_fract_z
Si Si1 0.416528 0.968167 0.861667
Si Si2 0.750000 0.969571 0.543508
Si Si3 0.975092 0.545904 0.616893
Si Si4 0.415704 0.750000 0.310102
Si Si5 0.750000 0.968942 0.436526
Si Si6 0.589259 0.965094 0.953560
Si Si7 0.419166 0.750000 0.199836
O O1 0.250000 0.010490 0.862467
O O2 0.427886 0.750000 0.856206
O O3 0.495187 0.023235 0.909617
O O4 0.502319 0.077428 0.822646
O O5 0.750000 0.750000 0.541243
O O6 0.622204 0.027238 0.575419
O O7 0.750000 0.030220 0.490333
O O8 0.931692 0.750000 0.628400
O O9 0.971693 0.423173 0.662314
O O10 0.121301 0.540854 0.592091
O O11 0.250000 0.750000 0.316590
O O12 0.442457 0.750000 0.255305
O O13 0.750000 0.750000 0.435908
O O14 0.750000 0.035262 0.954608
O O15 0.601213 0.750000 0.949251
O O16 0.500000 0.000000 0.000000
O O17 0.250000 0.750000 0.191052
#
# Coordination Sequence:
#
# PCOD9452069 Si02
#       7
#     8   4   8   4   4   8   4
#     4  10  22  43  67  94 132 170 216 273 330 393
#     4   9  20  36  62  90 120 164 208 244 306 375
#     4  11  22  41  61  88 125 162 204 256 309 376
#     4  11  24  44  68  92 120 164 212 264 323 376
#     4  11  21  37  59  92 127 163 204 251 305 373
#     4  10  21  36  58  91 131 177 221 262 317 379
#     4  11  25  43  69  97 121 165 223 277 336 391
#
# _framework density 19.593423999999999
#
# number of rings (size 3 to 8) (size 9 to 14) (size 15 to 20)
#    0.000    1.600    2.000    2.400    1.400    3.200 
#    7.200    2.000    0.000    0.000    0.000    0.000 
#    0.000    0.000    0.000    0.000    0.000    0.000 
#
# Total GULP energy -223233.384512 kJ/mol
# GULP energy per Si atom -5580.834613 kJ/mol
# Density = 1.954883 g / cm^3
# Si number density = 19.593424 Si / 1000 Ang^3
#
#
#
# Elastic Constant Matrix: (Units=GPa)
#
#
# Indices 1 2 3 4 5 6 
#
# 1 188.4525 31.4431 91.7443 0.0000 0.0000 0.0000
# 2 31.4431 102.3260 52.1817 0.0000 0.0000 0.0000
# 3 91.7443 52.1817 182.1657 0.0000 0.0000 0.0000
# 4 0.0000 0.0000 0.0000 34.9186 0.0000 0.0000
# 5 0.0000 0.0000 0.0000 0.0000 40.7480 0.0000
# 6 0.0000 0.0000 0.0000 0.0000 0.0000 29.0919
#
#
#
# Elastic Compliance Matrix: (Units=1/GPa)
#
#
# Indices 1 2 3 4 5 6 
#
# 1 0.007045 -0.000416 -0.003429 0.000000 0.000000 0.000000
# 2 -0.000416 0.011469 -0.003076 0.000000 0.000000 0.000000
# 3 -0.003429 -0.003076 0.008097 0.000000 0.000000 0.000000
# 4 0.000000 0.000000 0.000000 0.028638 0.000000 0.000000
# 5 0.000000 0.000000 0.000000 0.000000 0.024541 0.000000
# 6 0.000000 0.000000 0.000000 0.000000 0.000000 0.034374
#
#
# Mechanical properties :
#
#
# Convention : Reuss Voigt Hill
#
# Bulk Modulus (GPa) = 78.30902 91.52025 84.91464
# Shear Modulus (GPa) = 37.80348 40.79004 39.29676
#
# Velocity S-wave (km/s) = 4.39725 4.56765 4.48326
# Velocity P-wave (km/s) = 8.11387 8.63881 8.38045
#
# Compressibility (1/GPa) = 0.01276992
#
# Stress axis : x y z
#
# Youngs Moduli (GPa) = 141.94221 87.19108 123.49570
#
# Poissons Ratio (x) = 0.03629 0.42345
# Poissons Ratio (y) = 0.05909 0.37983
# Poissons Ratio (z) = 0.48671 0.26817
#
# Static dielectric constant tensor:
#      x y z
#    x 8.874360 0.000000 0.000000 
#    y 0.000000 1.590690 0.000000 
#    z 0.000000 0.000000 1.644130 
# 
# From -- ./inp_files/32454.got.cif
#   From: 2010.05.17/outbox.cif.g08.bks.cpg/sg59_17_cif.got.tgz:32454.got - 2010.06.03 14:40:33.
