data_PCOD9452264
_publ_section_title
;
Structure prediction by ZEFSAII (Michael W. Deem and Ramdas Pophale) SiO2 
 PCOD9452264
Probable space group: P M M N
;
_chemical_formula_sum "Si O2"
_cell_formula_units_Z 64
_cell_length_a 19.419825
_cell_length_b 8.481276
_cell_length_c 20.217103
_cell_angle_alpha 90.000000
_cell_angle_beta 90.000000
_cell_angle_gamma 90.000000
_cell_volume 3329.855841
_symmetry_space_group_name_H-M "P M M N"
_symmetry_group_IT_number 59
_space_group.IT_coordinate_system_code '2'
_symmetry_cell_setting 'orthorhombic'
loop_
_space_group_symop_operation_xyz
x,y,z
1/2-x,1/2-y,z
1/2+x,-y,-z
-x,1/2+y,-z
-x,-y,-z
1/2+x,1/2+y,-z
1/2-x,y,z
x,1/2-y,z
loop_
_atom_site_type_symbol
_atom_site_label
_atom_site_fract_x
_atom_site_fract_y
_atom_site_fract_z
Si Si1 0.055246 0.559532 0.790022
Si Si2 0.669937 0.061492 0.966079
Si Si3 0.561422 0.442550 0.362586
Si Si4 0.830113 0.062853 0.711371
Si Si5 0.328224 0.560204 0.533740
Si Si6 0.914379 0.936606 0.589324
Si Si7 0.670836 0.561360 0.111960
Si Si8 0.596040 0.561706 0.838727
O O1 0.058162 0.750000 0.790305
O O2 0.058195 0.506323 0.713607
O O3 0.118343 0.495619 0.832559
O O4 0.982312 0.513167 0.822449
O O5 0.750000 0.014059 0.954378
O O6 0.665964 0.250000 0.960971
O O7 0.621363 0.985390 0.911217
O O8 0.652112 0.009561 0.040401
O O9 0.560225 0.250000 0.361996
O O10 0.629057 0.494026 0.402096
O O11 0.492835 0.493904 0.401709
O O12 0.750000 0.022000 0.702885
O O13 0.837778 0.250000 0.700484
O O14 0.876166 0.971933 0.658263
O O15 0.855245 0.019373 0.784481
O O16 0.250000 0.499698 0.530551
O O17 0.324944 0.750000 0.536527
O O18 0.371895 0.515523 0.469319
O O19 0.915755 0.750000 0.577535
O O20 0.750000 0.513235 0.126350
O O21 0.668807 0.750000 0.107253
O O22 0.600673 0.750000 0.830497
#
# Coordination Sequence:
#
# PCOD9452264 Si02
#       8
#     8   8   8   8   8   8   8   8
#     4  10  21  39  61  86 116 151 195 240 286 348
#     4  10  21  38  60  86 117 156 200 241 286 346
#     4   9  19  38  60  83 113 150 194 238 284 345
#     4  11  23  37  55  82 116 154 196 237 281 342
#     4  10  21  37  58  85 115 148 190 239 289 345
#     4  11  21  37  59  83 114 151 190 238 289 342
#     4  10  22  40  61  87 117 150 193 244 295 344
#     4  11  22  37  58  86 120 154 191 240 291 343
#
# _framework density 19.220050000000001
#
# number of rings (size 3 to 8) (size 9 to 14) (size 15 to 20)
#    0.000    1.750    1.250    3.000    0.000    7.750 
#    0.000    2.500    0.000    0.000    0.000    0.000 
#    0.000    0.000    0.000    0.000    0.000    0.000 
#
# Total GULP energy -357619.301428 kJ/mol
# GULP energy per Si atom -5587.801585 kJ/mol
# Density = 1.917630 g / cm^3
# Si number density = 19.220050 Si / 1000 Ang^3
#
#
#
# Elastic Constant Matrix: (Units=GPa)
#
#
# Indices 1 2 3 4 5 6 
#
# 1 103.8620 12.6137 79.5449 0.0000 0.0000 0.0000
# 2 12.6137 14.1821 5.2802 0.0000 0.0000 0.0000
# 3 79.5449 5.2802 106.9917 0.0000 0.0000 0.0000
# 4 0.0000 0.0000 0.0000 21.5565 0.0000 0.0000
# 5 0.0000 0.0000 0.0000 0.0000 49.5495 0.0000
# 6 0.0000 0.0000 0.0000 0.0000 0.0000 23.8593
#
#
#
# Elastic Compliance Matrix: (Units=1/GPa)
#
#
# Indices 1 2 3 4 5 6 
#
# 1 0.025445 -0.015879 -0.018134 0.000000 0.000000 0.000000
# 2 -0.015879 0.081741 0.007772 0.000000 0.000000 0.000000
# 3 -0.018134 0.007772 0.022445 0.000000 0.000000 0.000000
# 4 0.000000 0.000000 0.000000 0.046390 0.000000 0.000000
# 5 0.000000 0.000000 0.000000 0.000000 0.020182 0.000000
# 6 0.000000 0.000000 0.000000 0.000000 0.000000 0.041912
#
#
# Mechanical properties :
#
#
# Convention : Reuss Voigt Hill
#
# Bulk Modulus (GPa) = 12.96214 46.65705 29.80959
# Shear Modulus (GPa) = 15.80717 27.49954 21.65336
#
# Velocity S-wave (km/s) = 2.87092 3.78666 3.36013
# Velocity P-wave (km/s) = 4.21287 6.59138 5.53148
#
# Compressibility (1/GPa) = 0.07714776
#
# Stress axis : x y z
#
# Youngs Moduli (GPa) = 39.30106 12.23381 44.55391
#
# Poissons Ratio (x) = 0.19426 0.80792
# Poissons Ratio (y) = 0.62407 -0.34626
# Poissons Ratio (z) = 0.71267 -0.09508
#
# Static dielectric constant tensor:
#      x y z
#    x 1.664410 0.000000 0.000000 
#    y 0.000000 1.666800 0.000000 
#    z 0.000000 0.000000 1.635530 
# 
# From -- ./inp_files/28249.got.cif
#   From: 2010.05.17/outbox.cif.g08.bks.cpg/sg59_15_cif.got.tgz:28249.got - 2010.06.03 14:40:33.
