data_PCOD9452948
_publ_section_title
;
Structure prediction by ZEFSAII (Michael W. Deem and Ramdas Pophale) SiO2 
 PCOD9452948
Probable space group: P M M N
;
_chemical_formula_sum "Si O2"
_cell_formula_units_Z 40
_cell_length_a 10.957739
_cell_length_b 7.963521
_cell_length_c 23.005808
_cell_angle_alpha 90.000000
_cell_angle_beta 90.000000
_cell_angle_gamma 90.000000
_cell_volume 2007.537065
_symmetry_space_group_name_H-M "P M M N"
_symmetry_group_IT_number 59
_space_group.IT_coordinate_system_code '2'
_symmetry_cell_setting 'orthorhombic'
loop_
_space_group_symop_operation_xyz
x,y,z
1/2-x,1/2-y,z
1/2+x,-y,-z
-x,1/2+y,-z
-x,-y,-z
1/2+x,1/2+y,-z
1/2-x,y,z
x,1/2-y,z
loop_
_atom_site_type_symbol
_atom_site_label
_atom_site_fract_x
_atom_site_fract_y
_atom_site_fract_z
Si Si1 0.008157 0.445325 0.173214
Si Si2 0.493663 0.554485 0.567363
Si Si3 0.108919 0.750000 0.369564
Si Si4 0.891833 0.549327 0.955468
Si Si5 0.750000 0.954027 0.223776
Si Si6 0.106470 0.750000 0.245407
Si Si7 0.250000 0.453654 0.636859
O O1 0.039143 0.250000 0.183394
O O2 0.053698 0.489753 0.108333
O O3 0.071467 0.579362 0.214203
O O4 0.866674 0.474077 0.189375
O O5 0.500000 0.500000 0.500000
O O6 0.526917 0.750000 0.572193
O O7 0.579785 0.419952 0.597660
O O8 0.365900 0.524316 0.601110
O O9 0.250000 0.750000 0.358697
O O10 0.041181 0.750000 0.307902
O O11 0.750000 0.484512 0.963223
O O12 0.881954 0.750000 0.959277
O O13 0.000000 0.500000 0.000000
O O14 0.750000 0.750000 0.220043
O O15 0.750000 0.996612 0.293562
O O16 0.250000 0.750000 0.247933
O O17 0.250000 0.250000 0.632324
#
# Coordination Sequence:
#
# PCOD9452948 Si02
#       7
#     8   8   4   8   4   4   4
#     4  11  24  43  69  98 137 178 228 281 346 409
#     4  12  25  43  68  96 130 177 222 276 340 406
#     4  11  26  45  65  97 137 168 223 277 333 404
#     4  10  24  44  67  99 139 182 232 286 343 410
#     4  11  23  41  69 102 137 177 222 286 347 413
#     4  11  24  43  69  97 131 178 223 277 337 406
#     4  11  23  43  69 100 137 173 226 280 341 411
#
# _framework density 19.924913
#
# number of rings (size 3 to 8) (size 9 to 14) (size 15 to 20)
#    0.000    1.000    3.000    2.400    4.200    6.000 
#    0.000    2.000    0.000    0.000    0.000    0.000 
#    0.000    0.000    0.000    0.000    0.000    0.000 
#
# Total GULP energy -223117.299305 kJ/mol
# GULP energy per Si atom -5577.932483 kJ/mol
# Density = 1.987956 g / cm^3
# Si number density = 19.924913 Si / 1000 Ang^3
#
#
#
# Elastic Constant Matrix: (Units=GPa)
#
#
# Indices 1 2 3 4 5 6 
#
# 1 139.3307 33.5468 61.5502 0.0000 0.0000 0.0000
# 2 33.5468 140.8045 69.2437 0.0000 0.0000 0.0000
# 3 61.5502 69.2437 157.8417 0.0000 0.0000 0.0000
# 4 0.0000 0.0000 0.0000 25.0821 0.0000 0.0000
# 5 0.0000 0.0000 0.0000 0.0000 29.8984 0.0000
# 6 0.0000 0.0000 0.0000 0.0000 0.0000 -131.9438
#
#
#
# Elastic Compliance Matrix: (Units=1/GPa)
#
#
# Indices 1 2 3 4 5 6 
#
# 1 0.008700 -0.000516 -0.003166 0.000000 0.000000 0.000000
# 2 -0.000516 0.009086 -0.003785 0.000000 0.000000 0.000000
# 3 -0.003166 -0.003785 0.009231 0.000000 0.000000 0.000000
# 4 0.000000 0.000000 0.000000 0.039869 0.000000 0.000000
# 5 0.000000 0.000000 0.000000 0.000000 0.033447 0.000000
# 6 0.000000 0.000000 0.000000 0.000000 0.000000 -0.007579
#
#
# Mechanical properties :
#
#
# Convention : Reuss Voigt Hill
#
# Bulk Modulus (GPa) = 82.76137 85.18426 83.97281
# Shear Modulus (GPa) = 44.75660 2.84974 23.80317
#
# Velocity S-wave (km/s) = 4.74462 1.19722 3.46011
# Velocity P-wave (km/s) = 8.46416 6.69004 7.62885
#
# Compressibility (1/GPa) = 0.01208293
#
# Stress axis : x y z
#
# Youngs Moduli (GPa) = 114.94125 110.05646 108.33511
#
# Poissons Ratio (x) = 0.05675 0.34303
# Poissons Ratio (y) = 0.05927 0.41004
# Poissons Ratio (z) = 0.36395 0.41656
#
# Static dielectric constant tensor:
#      x y z
#    x 1.750480 0.000000 0.000000 
#    y 0.000000 1.668550 0.000000 
#    z 0.000000 0.000000 1.738860 
# 
# From -- ./inp_files/29971.got.cif
#   From: 2010.05.17/outbox.cif.g08.bks.cpg/sg59_15_cif.got.tgz:29971.got - 2010.06.03 14:40:33.
