data_PCOD9452636
_publ_section_title
;
Structure prediction by ZEFSAII (Michael W. Deem and Ramdas Pophale) SiO2 
 PCOD9452636
Probable space group: P M M N
;
_chemical_formula_sum "Si O2"
_cell_formula_units_Z 56
_cell_length_a 14.972637
_cell_length_b 15.776955
_cell_length_c 11.778522
_cell_angle_alpha 90.000000
_cell_angle_beta 90.000000
_cell_angle_gamma 90.000000
_cell_volume 2782.353329
_symmetry_space_group_name_H-M "P M M N"
_symmetry_group_IT_number 59
_space_group.IT_coordinate_system_code '2'
_symmetry_cell_setting 'orthorhombic'
loop_
_space_group_symop_operation_xyz
x,y,z
1/2-x,1/2-y,z
1/2+x,-y,-z
-x,1/2+y,-z
-x,-y,-z
1/2+x,1/2+y,-z
1/2-x,y,z
x,1/2-y,z
loop_
_atom_site_type_symbol
_atom_site_label
_atom_site_fract_x
_atom_site_fract_y
_atom_site_fract_z
Si Si1 0.852889 0.455319 0.196418
Si Si2 0.142197 0.846171 0.200745
Si Si3 0.855756 0.158290 0.542268
Si Si4 0.650103 0.847061 0.588325
Si Si5 0.400190 0.493483 0.043329
Si Si6 0.531833 0.650741 0.806948
Si Si7 0.908918 0.508219 0.428283
O O1 0.750000 0.431079 0.226822
O O2 0.898071 0.514719 0.293180
O O3 0.928867 0.381544 0.185762
O O4 0.846807 0.499888 0.073603
O O5 0.250000 0.844512 0.201495
O O6 0.113252 0.750000 0.167311
O O7 0.109637 0.861431 0.330482
O O8 0.117337 0.924500 0.121553
O O9 0.750000 0.166117 0.556199
O O10 0.892398 0.250000 0.505920
O O11 0.868801 0.083855 0.455073
O O12 0.750000 0.857026 0.639503
O O13 0.642606 0.750000 0.548332
O O14 0.572806 0.861230 0.680942
O O15 0.640595 0.914417 0.488543
O O16 0.403241 0.407276 0.115424
O O17 0.500000 0.500000 0.000000
O O18 0.536538 0.750000 0.835110
O O19 0.000000 0.500000 0.500000
#
# Coordination Sequence:
#
# PCOD9452636 Si02
#       7
#     8   8   8   8   8   8   8
#     4  11  24  41  62  92 129 170 215 261 322 388
#     4   9  18  35  62  91 115 147 196 253 311 366
#     4   9  19  35  58  90 119 147 195 255 311 370
#     4  10  21  39  64  91 121 162 214 266 312 370
#     4  10  22  37  57  83 124 162 200 250 308 373
#     4  10  22  42  65  95 129 164 214 264 316 381
#     4  12  23  38  63  87 128 173 210 259 319 377
#
# _framework density 20.126847999999999
#
# number of rings (size 3 to 8) (size 9 to 14) (size 15 to 20)
#    0.000    1.857    1.429    3.429    2.000    6.000 
#    0.000    0.714    0.000    0.857    0.000    0.000 
#    0.000    0.000    0.000    0.000    0.000    0.000 
#
# Total GULP energy -311956.305377 kJ/mol
# GULP energy per Si atom -5570.648310 kJ/mol
# Density = 2.008104 g / cm^3
# Si number density = 20.126848 Si / 1000 Ang^3
#
#
#
# Elastic Constant Matrix: (Units=GPa)
#
#
# Indices 1 2 3 4 5 6 
#
# 1 74.0665 18.1154 5.0844 0.0000 0.0000 0.0000
# 2 18.1154 110.7042 60.9943 0.0000 0.0000 0.0000
# 3 5.0844 60.9943 81.7267 0.0000 0.0000 0.0000
# 4 0.0000 0.0000 0.0000 -17.5194 0.0000 0.0000
# 5 0.0000 0.0000 0.0000 0.0000 22.1773 0.0000
# 6 0.0000 0.0000 0.0000 0.0000 0.0000 29.4696
#
#
#
# Elastic Compliance Matrix: (Units=1/GPa)
#
#
# Indices 1 2 3 4 5 6 
#
# 1 0.014164 -0.003112 0.001441 0.000000 0.000000 0.000000
# 2 -0.003112 0.016025 -0.011766 0.000000 0.000000 0.000000
# 3 0.001441 -0.011766 0.020928 0.000000 0.000000 0.000000
# 4 0.000000 0.000000 0.000000 -0.057080 0.000000 0.000000
# 5 0.000000 0.000000 0.000000 0.000000 0.045091 0.000000
# 6 0.000000 0.000000 0.000000 0.000000 0.000000 0.033933
#
#
# Mechanical properties :
#
#
# Convention : Reuss Voigt Hill
#
# Bulk Modulus (GPa) = 41.24955 48.32060 44.78508
# Shear Modulus (GPa) = 46.28963 18.97906 32.63435
#
# Velocity S-wave (km/s) = 4.80092 3.07412 4.03107
# Velocity P-wave (km/s) = 7.16039 6.05478 6.63067
#
# Compressibility (1/GPa) = 0.02424269
#
# Stress axis : x y z
#
# Youngs Moduli (GPa) = 70.60387 62.40207 47.78366
#
# Poissons Ratio (x) = 0.19418 -0.06887
# Poissons Ratio (y) = 0.21970 0.56224
# Poissons Ratio (z) = -0.10176 0.73424
#
# Static dielectric constant tensor:
#      x y z
#    x 1.767540 0.000000 0.000000 
#    y 0.000000 1.739440 0.000000 
#    z 0.000000 0.000000 1.793790 
# 
# From -- ./inp_files/16981.got.cif
#   From: 2010.05.17/outbox.cif.g08.bks.cpg/sg59_9_cif.got.tgz:16981.got - 2010.06.03 14:40:33.
