data_PCOD9452104
_publ_section_title
;
Structure prediction by ZEFSAII (Michael W. Deem and Ramdas Pophale) SiO2 
 PCOD9452104
Probable space group: P M M N
;
_chemical_formula_sum "Si O2"
_cell_formula_units_Z 56
_cell_length_a 13.869378
_cell_length_b 14.082037
_cell_length_c 13.521148
_cell_angle_alpha 90.000000
_cell_angle_beta 90.000000
_cell_angle_gamma 90.000000
_cell_volume 2640.803168
_symmetry_space_group_name_H-M "P M M N"
_symmetry_group_IT_number 59
_space_group.IT_coordinate_system_code '2'
_symmetry_cell_setting 'orthorhombic'
loop_
_space_group_symop_operation_xyz
x,y,z
1/2-x,1/2-y,z
1/2+x,-y,-z
-x,1/2+y,-z
-x,-y,-z
1/2+x,1/2+y,-z
1/2-x,y,z
x,1/2-y,z
loop_
_atom_site_type_symbol
_atom_site_label
_atom_site_fract_x
_atom_site_fract_y
_atom_site_fract_z
Si Si1 0.137119 0.056220 0.302939
Si Si2 0.132635 0.643747 0.988983
Si Si3 0.132682 0.051968 0.084730
Si Si4 0.363435 0.857218 0.388908
Si Si5 0.134030 0.547983 0.781920
Si Si6 0.466161 0.861681 0.594950
Si Si7 0.867776 0.645127 0.118926
O O1 0.250000 0.077477 0.312848
O O2 0.102415 0.084062 0.193358
O O3 0.075670 0.107078 0.386877
O O4 0.124481 0.942614 0.312579
O O5 0.250000 0.644820 0.994114
O O6 0.099515 0.750000 0.013397
O O7 0.108732 0.613858 0.876343
O O8 0.102245 0.555522 0.057729
O O9 0.250000 0.051151 0.086902
O O10 0.104107 0.118752 0.993665
O O11 0.250000 0.858090 0.417836
O O12 0.385148 0.750000 0.353753
O O13 0.426471 0.879415 0.485557
O O14 0.250000 0.549252 0.775526
O O15 0.091791 0.582299 0.679018
O O16 0.102860 0.441376 0.810888
O O17 0.454666 0.750000 0.613340
O O18 0.750000 0.644835 0.119328
O O19 0.900198 0.750000 0.147613
#
# Coordination Sequence:
#
# PCOD9452104 Si02
#       7
#     8   8   8   8   8   8   8
#     4  10  21  37  55  76 105 139 175 214 256 307
#     4   8  13  23  42  69 101 135 169 209 259 309
#     4   8  15  27  45  70  97 131 175 215 252 300
#     4   9  19  37  61  85 105 129 165 211 265 320
#     4   9  17  30  50  77 107 138 175 219 266 312
#     4  11  22  35  54  80 108 138 174 217 263 311
#     4   8  14  27  48  73 104 143 182 218 257 303
#
# _framework density 21.205670000000001
#
# number of rings (size 3 to 8) (size 9 to 14) (size 15 to 20)
#    0.000    3.000    0.000    3.000    0.000    2.857 
#    0.000    7.857    0.000    2.571    0.000    2.000 
#    0.000    0.000    0.000    0.000    0.000    0.857 
#
# Total GULP energy -312796.597835 kJ/mol
# GULP energy per Si atom -5585.653533 kJ/mol
# Density = 2.115740 g / cm^3
# Si number density = 21.205670 Si / 1000 Ang^3
#
#
#
# Elastic Constant Matrix: (Units=GPa)
#
#
# Indices 1 2 3 4 5 6 
#
# 1 72.2571 2.5935 16.5072 0.0000 0.0000 0.0000
# 2 2.5935 71.1200 2.2842 0.0000 0.0000 0.0000
# 3 16.5072 2.2842 24.1868 0.0000 0.0000 0.0000
# 4 0.0000 0.0000 0.0000 9.2987 0.0000 0.0000
# 5 0.0000 0.0000 0.0000 0.0000 20.6931 0.0000
# 6 0.0000 0.0000 0.0000 0.0000 0.0000 15.2876
#
#
#
# Elastic Compliance Matrix: (Units=1/GPa)
#
#
# Indices 1 2 3 4 5 6 
#
# 1 0.016400 -0.000239 -0.011170 0.000000 0.000000 0.000000
# 2 -0.000239 0.014107 -0.001169 0.000000 0.000000 0.000000
# 3 -0.011170 -0.001169 0.049079 0.000000 0.000000 0.000000
# 4 0.000000 0.000000 0.000000 0.107542 0.000000 0.000000
# 5 0.000000 0.000000 0.000000 0.000000 0.048325 0.000000
# 6 0.000000 0.000000 0.000000 0.000000 0.000000 0.065412
#
#
# Mechanical properties :
#
#
# Convention : Reuss Voigt Hill
#
# Bulk Modulus (GPa) = 18.37261 23.37043 20.87152
# Shear Modulus (GPa) = 14.52792 18.80116 16.66454
#
# Velocity S-wave (km/s) = 2.62027 2.98083 2.80635
# Velocity P-wave (km/s) = 4.22342 4.78455 4.51271
#
# Compressibility (1/GPa) = 0.05442885
#
# Stress axis : x y z
#
# Youngs Moduli (GPa) = 60.97604 70.88677 20.37545
#
# Poissons Ratio (x) = 0.01696 0.22760
# Poissons Ratio (y) = 0.01459 0.02382
# Poissons Ratio (z) = 0.68111 0.08286
#
# Static dielectric constant tensor:
#      x y z
#    x 1.831990 0.000000 0.000000 
#    y 0.000000 1.752060 0.000000 
#    z 0.000000 0.000000 1.715050 
# 
# From -- ./inp_files/16985.got.cif
#   From: 2010.05.17/outbox.cif.g08.bks.cpg/sg59_9_cif.got.tgz:16985.got - 2010.06.03 14:40:33.
