data_PCOD9452663
_publ_section_title
;
Structure prediction by ZEFSAII (Michael W. Deem and Ramdas Pophale) SiO2 
 PCOD9452663
Probable space group: P M M N
;
_chemical_formula_sum "Si O2"
_cell_formula_units_Z 48
_cell_length_a 15.341362
_cell_length_b 8.825066
_cell_length_c 19.244106
_cell_angle_alpha 90.000000
_cell_angle_beta 90.000000
_cell_angle_gamma 90.000000
_cell_volume 2605.431264
_symmetry_space_group_name_H-M "P M M N"
_symmetry_group_IT_number 59
_space_group.IT_coordinate_system_code '2'
_symmetry_cell_setting 'orthorhombic'
loop_
_space_group_symop_operation_xyz
x,y,z
1/2-x,1/2-y,z
1/2+x,-y,-z
-x,1/2+y,-z
-x,-y,-z
1/2+x,1/2+y,-z
1/2-x,y,z
x,1/2-y,z
loop_
_atom_site_type_symbol
_atom_site_label
_atom_site_fract_x
_atom_site_fract_y
_atom_site_fract_z
Si Si1 0.750000 0.069645 0.080480
Si Si2 0.406021 0.068451 0.176847
Si Si3 0.594983 0.931366 0.170451
Si Si4 0.148078 0.569294 0.325131
Si Si5 0.351318 0.431450 0.669990
Si Si6 0.750000 0.931052 0.928620
Si Si7 0.502044 0.930613 0.576674
O O1 0.750000 0.250000 0.086435
O O2 0.665779 0.001676 0.119128
O O3 0.750000 0.018875 0.000608
O O4 0.411388 0.250000 0.184382
O O5 0.334576 0.033865 0.118089
O O6 0.499935 0.000847 0.158754
O O7 0.375404 0.997539 0.249753
O O8 0.593123 0.750000 0.162303
O O9 0.623230 0.964028 0.250080
O O10 0.250000 0.541380 0.339618
O O11 0.133020 0.750000 0.324208
O O12 0.085063 0.493950 0.381300
O O13 0.250000 0.470259 0.658823
O O14 0.361283 0.250000 0.659949
O O15 0.416767 0.516933 0.619242
O O16 0.750000 0.750000 0.942408
O O17 0.505788 0.750000 0.573293
O O18 0.500000 0.000000 0.500000
#
# Coordination Sequence:
#
# PCOD9452663 Si02
#       7
#     4   8   8   8   8   4   8
#     4  12  26  42  64  94 129 166 215 268 318 376
#     4  11  22  39  65  97 127 164 213 264 313 373
#     4  11  22  40  66  94 128 169 210 257 316 381
#     4  11  23  40  65  95 128 167 212 259 312 378
#     4  10  21  40  66  94 125 164 209 255 311 378
#     4  10  24  44  64  90 131 170 209 262 322 380
#     4  12  26  43  65  93 130 168 209 263 318 375
#
# _framework density 18.423054
#
# number of rings (size 3 to 8) (size 9 to 14) (size 15 to 20)
#    0.000    1.000    3.333    3.750    0.000    4.667 
#    0.000    0.000    0.000    0.000    0.000    0.000 
#    0.000    0.000    0.000    0.000    0.000    0.000 
#
# Total GULP energy -268534.793365 kJ/mol
# GULP energy per Si atom -5594.474862 kJ/mol
# Density = 1.838112 g / cm^3
# Si number density = 18.423054 Si / 1000 Ang^3
#
#
#
# Elastic Constant Matrix: (Units=GPa)
#
#
# Indices 1 2 3 4 5 6 
#
# 1 198.7248 108.6599 105.9942 0.0000 0.0000 0.0000
# 2 108.6599 122.1672 100.3824 0.0000 0.0000 0.0000
# 3 105.9942 100.3824 160.4994 0.0000 0.0000 0.0000
# 4 0.0000 0.0000 0.0000 35.0316 0.0000 0.0000
# 5 0.0000 0.0000 0.0000 0.0000 27.0509 0.0000
# 6 0.0000 0.0000 0.0000 0.0000 0.0000 29.8870
#
#
#
# Elastic Compliance Matrix: (Units=1/GPa)
#
#
# Indices 1 2 3 4 5 6 
#
# 1 0.010152 -0.007243 -0.002175 0.000000 0.000000 0.000000
# 2 -0.007243 0.022007 -0.008981 0.000000 0.000000 0.000000
# 3 -0.002175 -0.008981 0.013283 0.000000 0.000000 0.000000
# 4 0.000000 0.000000 0.000000 0.028546 0.000000 0.000000
# 5 0.000000 0.000000 0.000000 0.000000 0.036967 0.000000
# 6 0.000000 0.000000 0.000000 0.000000 0.000000 0.033459
#
#
# Mechanical properties :
#
#
# Convention : Reuss Voigt Hill
#
# Bulk Modulus (GPa) = 115.65707 123.49605 119.57656
# Shear Modulus (GPa) = 27.16006 29.48421 28.32213
#
# Velocity S-wave (km/s) = 3.84375 4.00484 3.92512
# Velocity P-wave (km/s) = 9.08922 9.41084 9.25143
#
# Compressibility (1/GPa) = 0.00864625
#
# Stress axis : x y z
#
# Youngs Moduli (GPa) = 98.49955 45.44009 75.28154
#
# Poissons Ratio (x) = 0.32913 0.16370
# Poissons Ratio (y) = 0.71344 0.67608
# Poissons Ratio (z) = 0.21419 0.40808
#
# Static dielectric constant tensor:
#      x y z
#    x 1.618240 0.000000 0.000000 
#    y 0.000000 1.617770 0.000000 
#    z 0.000000 0.000000 1.594260 
# 
# From -- ./inp_files/27441.got.cif
#   From: 2010.05.17/outbox.cif.g08.bks.cpg/sg59_14_cif.got.tgz:27441.got - 2010.06.03 14:40:33.
