data_PCOD9452372
_publ_section_title
;
Structure prediction by ZEFSAII (Michael W. Deem and Ramdas Pophale) SiO2 
 PCOD9452372
Probable space group: P M M N
;
_chemical_formula_sum "Si O2"
_cell_formula_units_Z 64
_cell_length_a 8.750565
_cell_length_b 24.551542
_cell_length_c 17.048319
_cell_angle_alpha 90.000000
_cell_angle_beta 90.000000
_cell_angle_gamma 90.000000
_cell_volume 3662.658537
_symmetry_space_group_name_H-M "P M M N"
_symmetry_group_IT_number 59
_space_group.IT_coordinate_system_code '2'
_symmetry_cell_setting 'orthorhombic'
loop_
_space_group_symop_operation_xyz
x,y,z
1/2-x,1/2-y,z
1/2+x,-y,-z
-x,1/2+y,-z
-x,-y,-z
1/2+x,1/2+y,-z
1/2-x,y,z
x,1/2-y,z
loop_
_atom_site_type_symbol
_atom_site_label
_atom_site_fract_x
_atom_site_fract_y
_atom_site_fract_z
Si Si1 0.566543 0.187974 0.266273
Si Si2 0.932269 0.313632 0.617957
Si Si3 0.574778 0.683962 0.898902
Si Si4 0.433156 0.976871 0.315826
Si Si5 0.933334 0.084908 0.364566
Si Si6 0.569291 0.586238 0.463921
Si Si7 0.932729 0.127539 0.780336
Si Si8 0.565422 0.687008 0.071220
O O1 0.750000 0.189815 0.269289
O O2 0.509649 0.250000 0.280145
O O3 0.517442 0.170147 0.178974
O O4 0.516046 0.142806 0.328582
O O5 0.750000 0.323553 0.605734
O O6 0.961863 0.250000 0.607822
O O7 0.967753 0.332811 0.706652
O O8 0.026494 0.352058 0.560298
O O9 0.750000 0.665287 0.890071
O O10 0.577596 0.750000 0.902645
O O11 0.513953 0.667507 0.984599
O O12 0.250000 0.981903 0.316344
O O13 0.486996 0.950351 0.398098
O O14 0.476753 0.932830 0.249257
O O15 0.511068 0.035386 0.310114
O O16 0.750000 0.084358 0.370919
O O17 0.005647 0.075849 0.449787
O O18 0.750000 0.576864 0.460752
O O19 0.750000 0.128332 0.790868
O O20 0.009959 0.149512 0.858390
O O21 0.750000 0.687658 0.068880
O O22 0.514856 0.750000 0.083696
#
# Coordination Sequence:
#
# PCOD9452372 Si02
#       8
#     8   8   8   8   8   8   8   8
#     4   9  19  35  54  77 103 129 158 196 245 298
#     4   9  18  33  50  69 100 139 172 205 250 298
#     4   8  15  29  48  71 101 134 164 196 238 287
#     4  10  21  38  55  72  98 131 168 209 253 295
#     4  11  22  36  55  77  99 126 163 205 250 300
#     4  11  22  35  52  75 101 130 168 211 252 296
#     4   9  18  31  48  71  98 130 167 205 244 288
#     4   9  17  28  45  73 106 136 165 199 241 288
#
# _framework density 17.473645000000001
#
# number of rings (size 3 to 8) (size 9 to 14) (size 15 to 20)
#    0.000    2.500    0.000    4.125    0.000    5.500 
#    0.000    2.500    0.000    0.750    0.000    0.000 
#    0.000    0.000    0.000    0.000    0.000    0.000 
#
# Total GULP energy -356907.519504 kJ/mol
# GULP energy per Si atom -5576.679992 kJ/mol
# Density = 1.743387 g / cm^3
# Si number density = 17.473645 Si / 1000 Ang^3
#
#
#
# Elastic Constant Matrix: (Units=GPa)
#
#
# Indices 1 2 3 4 5 6 
#
# 1 18.6956 9.7091 2.4137 0.0000 0.0000 0.0000
# 2 9.7091 70.1335 15.0358 0.0000 0.0000 0.0000
# 3 2.4137 15.0358 46.6346 0.0000 0.0000 0.0000
# 4 0.0000 0.0000 0.0000 15.2909 0.0000 0.0000
# 5 0.0000 0.0000 0.0000 0.0000 25.7957 0.0000
# 6 0.0000 0.0000 0.0000 0.0000 0.0000 24.7151
#
#
#
# Elastic Compliance Matrix: (Units=1/GPa)
#
#
# Indices 1 2 3 4 5 6 
#
# 1 0.057640 -0.007885 -0.000441 0.000000 0.000000 0.000000
# 2 -0.007885 0.016396 -0.004878 0.000000 0.000000 0.000000
# 3 -0.000441 -0.004878 0.023039 0.000000 0.000000 0.000000
# 4 0.000000 0.000000 0.000000 0.065399 0.000000 0.000000
# 5 0.000000 0.000000 0.000000 0.000000 0.038766 0.000000
# 6 0.000000 0.000000 0.000000 0.000000 0.000000 0.040461
#
#
# Mechanical properties :
#
#
# Convention : Reuss Voigt Hill
#
# Bulk Modulus (GPa) = 14.15093 21.08677 17.61885
# Shear Modulus (GPa) = 17.14293 20.38066 18.76180
#
# Velocity S-wave (km/s) = 3.13561 3.41892 3.28032
# Velocity P-wave (km/s) = 4.60710 5.26111 4.94493
#
# Compressibility (1/GPa) = 0.07066672
#
# Stress axis : x y z
#
# Youngs Moduli (GPa) = 17.34893 60.99074 43.40473
#
# Poissons Ratio (x) = 0.48091 0.01915
# Poissons Ratio (y) = 0.13680 0.21174
# Poissons Ratio (z) = 0.00765 0.29753
#
# Static dielectric constant tensor:
#      x y z
#    x 1.591070 0.000000 0.000000 
#    y 0.000000 1.610400 0.000000 
#    z 0.000000 0.000000 1.589030 
# 
# From -- ./inp_files/21532.got.cif
#   From: 2010.05.17/outbox.cif.g08.bks.cpg/sg59_11_cif.got.tgz:21532.got - 2010.06.03 14:40:33.
