data_PCOD9452654
_publ_section_title
;
Structure prediction by ZEFSAII (Michael W. Deem and Ramdas Pophale) SiO2 
 PCOD9452654
Probable space group: P M M N
;
_chemical_formula_sum "Si O2"
_cell_formula_units_Z 32
_cell_length_a 15.627017
_cell_length_b 8.528792
_cell_length_c 10.070204
_cell_angle_alpha 90.000000
_cell_angle_beta 90.000000
_cell_angle_gamma 90.000000
_cell_volume 1342.152535
_symmetry_space_group_name_H-M "P M M N"
_symmetry_group_IT_number 59
_space_group.IT_coordinate_system_code '2'
_symmetry_cell_setting 'orthorhombic'
loop_
_space_group_symop_operation_xyz
x,y,z
1/2-x,1/2-y,z
1/2+x,-y,-z
-x,1/2+y,-z
-x,-y,-z
1/2+x,1/2+y,-z
1/2-x,y,z
x,1/2-y,z
loop_
_atom_site_type_symbol
_atom_site_label
_atom_site_fract_x
_atom_site_fract_y
_atom_site_fract_z
Si Si1 0.845391 0.989908 0.249999
Si Si2 0.975858 0.566841 0.750000
Si Si3 0.345469 0.571042 0.053838
Si Si4 0.154531 0.928959 0.446162
O O1 0.750000 0.911982 0.249999
O O2 0.845869 0.070758 0.394137
O O3 0.945692 0.942644 0.249999
O O4 0.845869 0.070760 0.105862
O O5 0.003799 0.750000 0.750000
O O6 0.916814 0.534580 0.878055
O O7 0.916814 0.534579 0.621945
O O8 0.250000 0.518732 0.093426
O O9 0.357709 0.750000 0.097324
O O10 0.250000 0.981268 0.406574
O O11 0.142291 0.750000 0.402678
#
# Coordination Sequence:
#
# PCOD9452654 Si02
#       4
#     8   8   8   8
#     4  10  22  41  64  88 115 153 203 249 288 340
#     4  12  24  37  59  91 124 155 189 240 299 348
#     4  10  21  40  65  88 114 154 200 242 287 346
#     4  10  21  40  65  88 114 154 200 242 287 346
#
# _framework density 23.842296999999999
#
# number of rings (size 3 to 8) (size 9 to 14) (size 15 to 20)
#    0.000    1.500    0.000    5.250    0.000    9.500 
#    0.000    3.750    0.000   13.500    0.000    0.000 
#    0.000    0.000    0.000    0.000    0.000    0.000 
#
# Total GULP energy -178139.905355 kJ/mol
# GULP energy per Si atom -5566.872042 kJ/mol
# Density = 2.378803 g / cm^3
# Si number density = 23.842297 Si / 1000 Ang^3
#
#
#
# Elastic Constant Matrix: (Units=GPa)
#
#
# Indices 1 2 3 4 5 6 
#
# 1 193.2467 46.7591 39.6824 0.0000 0.0000 0.0000
# 2 46.7591 68.1140 29.5451 0.0000 0.0000 0.0000
# 3 39.6824 29.5451 172.3551 0.0000 0.0000 0.0000
# 4 0.0000 0.0000 0.0000 -36.0710 0.0000 0.0000
# 5 0.0000 0.0000 0.0000 0.0000 54.2142 0.0000
# 6 0.0000 0.0000 0.0000 0.0000 0.0000 -6.7897
#
#
#
# Elastic Compliance Matrix: (Units=1/GPa)
#
#
# Indices 1 2 3 4 5 6 
#
# 1 0.006298 -0.003991 -0.000766 0.000000 0.000000 0.000000
# 2 -0.003991 0.018390 -0.002233 0.000000 0.000000 0.000000
# 3 -0.000766 -0.002233 0.006361 0.000000 0.000000 0.000000
# 4 0.000000 0.000000 0.000000 -0.027723 0.000000 0.000000
# 5 0.000000 0.000000 0.000000 0.000000 0.018445 0.000000
# 6 0.000000 0.000000 0.000000 0.000000 0.000000 -0.147281
#
#
# Mechanical properties :
#
#
# Convention : Reuss Voigt Hill
#
# Bulk Modulus (GPa) = 58.58934 73.96545 66.27739
# Shear Modulus (GPa) = -47.24099 23.45263 -11.89418
#
# Velocity S-wave (km/s) = -4.45611 3.13973 -2.23596
# Velocity P-wave (km/s) = 1.35974 6.65087 4.60354
#
# Compressibility (1/GPa) = 0.01706795
#
# Stress axis : x y z
#
# Youngs Moduli (GPa) = 158.78822 54.37772 157.20408
#
# Poissons Ratio (x) = 0.21703 0.12039
# Poissons Ratio (y) = 0.63374 0.35112
# Poissons Ratio (z) = 0.12160 0.12145
#
# Static dielectric constant tensor:
#      x y z
#    x 1.947150 0.000000 0.000000 
#    y 0.000000 1.831450 0.000000 
#    z 0.000000 0.000000 1.899060 
# 
# From -- ./inp_files/16467.got.cif
#   From: 2010.05.17/outbox.cif.g08.bks.cpg/sg59_9_cif.got.tgz:16467.got - 2010.06.03 14:40:33.
