data_PCOD9452355
_publ_section_title
;
Structure prediction by ZEFSAII (Michael W. Deem and Ramdas Pophale) SiO2 
 PCOD9452355
Probable space group: P M M N
;
_chemical_formula_sum "Si O2"
_cell_formula_units_Z 56
_cell_length_a 21.131291
_cell_length_b 15.319700
_cell_length_c 8.637008
_cell_angle_alpha 90.000000
_cell_angle_beta 90.000000
_cell_angle_gamma 90.000000
_cell_volume 2796.015749
_symmetry_space_group_name_H-M "P M M N"
_symmetry_group_IT_number 59
_space_group.IT_coordinate_system_code '2'
_symmetry_cell_setting 'orthorhombic'
loop_
_space_group_symop_operation_xyz
x,y,z
1/2-x,1/2-y,z
1/2+x,-y,-z
-x,1/2+y,-z
-x,-y,-z
1/2+x,1/2+y,-z
1/2-x,y,z
x,1/2-y,z
loop_
_atom_site_type_symbol
_atom_site_label
_atom_site_fract_x
_atom_site_fract_y
_atom_site_fract_z
Si Si1 0.177856 0.125361 0.882334
Si Si2 0.119248 0.000040 0.329828
Si Si3 0.181672 0.936808 0.028671
Si Si4 0.463226 0.854016 0.504881
Si Si5 0.564071 0.148976 0.135319
Si Si6 0.570193 0.653652 0.877586
Si Si7 0.385463 0.149977 0.551335
O O1 0.250000 0.158194 0.880868
O O2 0.141738 0.142348 0.723262
O O3 0.183392 0.024206 0.926266
O O4 0.130834 0.159169 0.014652
O O5 0.077976 0.922133 0.403976
O O6 0.079458 0.069337 0.227740
O O7 0.144762 0.068729 0.457475
O O8 0.169131 0.961154 0.207952
O O9 0.250000 0.892013 0.013612
O O10 0.120820 0.890630 0.959573
O O11 0.447773 0.750000 0.483271
O O12 0.448930 0.878449 0.685690
O O13 0.538055 0.862268 0.462488
O O14 0.578731 0.250000 0.148152
O O15 0.497703 0.138923 0.043661
O O16 0.563020 0.750000 0.799782
O O17 0.370925 0.250000 0.498936
#
# Coordination Sequence:
#
# PCOD9452355 Si02
#       7
#     8   8   8   8   8   8   8
#     4  10  23  40  60  87 125 172 213 249 299 365
#     4  11  22  37  63  88 125 162 196 249 320 361
#     4  10  24  42  60  88 122 161 212 260 308 373
#     4  10  22  39  60  94 126 155 202 257 310 371
#     4  10  21  40  65  90 120 159 205 261 316 366
#     4  10  21  37  60  92 124 159 210 257 301 365
#     4  11  22  37  60  91 126 161 203 249 302 371
#
# _framework density 20.028499
#
# number of rings (size 3 to 8) (size 9 to 14) (size 15 to 20)
#    0.000    1.714    1.429    2.143    4.000    3.714 
#    0.000    0.714    0.000    3.429    0.000    0.000 
#    0.000    0.000    0.000    0.000    0.000    0.000 
#
# Total GULP energy -311898.699560 kJ/mol
# GULP energy per Si atom -5569.619635 kJ/mol
# Density = 1.998291 g / cm^3
# Si number density = 20.028499 Si / 1000 Ang^3
#
#
#
# Elastic Constant Matrix: (Units=GPa)
#
#
# Indices 1 2 3 4 5 6 
#
# 1 99.9490 36.8838 38.8065 0.0000 0.0000 0.0000
# 2 36.8838 61.5509 45.6413 0.0000 0.0000 0.0000
# 3 38.8065 45.6413 77.2985 0.0000 0.0000 0.0000
# 4 0.0000 0.0000 0.0000 -1.2336 0.0000 0.0000
# 5 0.0000 0.0000 0.0000 0.0000 11.7574 0.0000
# 6 0.0000 0.0000 0.0000 0.0000 0.0000 16.5883
#
#
#
# Elastic Compliance Matrix: (Units=1/GPa)
#
#
# Indices 1 2 3 4 5 6 
#
# 1 0.013364 -0.005396 -0.003523 0.000000 0.000000 0.000000
# 2 -0.005396 0.031079 -0.015642 0.000000 0.000000 0.000000
# 3 -0.003523 -0.015642 0.023941 0.000000 0.000000 0.000000
# 4 0.000000 0.000000 0.000000 -0.810635 0.000000 0.000000
# 5 0.000000 0.000000 0.000000 0.000000 0.085053 0.000000
# 6 0.000000 0.000000 0.000000 0.000000 0.000000 0.060284
#
#
# Mechanical properties :
#
#
# Convention : Reuss Voigt Hill
#
# Bulk Modulus (GPa) = 51.91371 53.49574 52.70472
# Shear Modulus (GPa) = -9.23580 13.25352 2.00886
#
# Velocity S-wave (km/s) = -2.14973 2.57521 1.00259
# Velocity P-wave (km/s) = 4.45134 5.96742 5.26424
#
# Compressibility (1/GPa) = 0.01926274
#
# Stress axis : x y z
#
# Youngs Moduli (GPa) = 74.82636 32.17628 41.76852
#
# Poissons Ratio (x) = 0.17362 0.14717
# Poissons Ratio (y) = 0.40374 0.65333
# Poissons Ratio (z) = 0.26364 0.50329
#
# Static dielectric constant tensor:
#      x y z
#    x 1.738870 0.000000 0.000000 
#    y 0.000000 1.696890 0.000000 
#    z 0.000000 0.000000 1.773680 
# 
# From -- ./inp_files/11415.got.cif
#   From: 2010.05.17/outbox.cif.g08.bks.cpg/sg59_6_cif.got.tgz:11415.got - 2010.06.03 14:40:33.
