data_PCOD9452723
_publ_section_title
;
Structure prediction by ZEFSAII (Michael W. Deem and Ramdas Pophale) SiO2 
 PCOD9452723
Probable space group: P M M N
;
_chemical_formula_sum "Si O2"
_cell_formula_units_Z 40
_cell_length_a 18.946392
_cell_length_b 11.625794
_cell_length_c 9.553098
_cell_angle_alpha 90.000000
_cell_angle_beta 90.000000
_cell_angle_gamma 90.000000
_cell_volume 2104.230808
_symmetry_space_group_name_H-M "P M M N"
_symmetry_group_IT_number 59
_space_group.IT_coordinate_system_code '2'
_symmetry_cell_setting 'orthorhombic'
loop_
_space_group_symop_operation_xyz
x,y,z
1/2-x,1/2-y,z
1/2+x,-y,-z
-x,1/2+y,-z
-x,-y,-z
1/2+x,1/2+y,-z
1/2-x,y,z
x,1/2-y,z
loop_
_atom_site_type_symbol
_atom_site_label
_atom_site_fract_x
_atom_site_fract_y
_atom_site_fract_z
Si Si1 0.083818 0.388077 0.607762
Si Si2 0.670673 0.385367 0.890439
Si Si3 0.831687 0.940878 0.122410
Si Si4 0.532644 0.874197 0.959354
Si Si5 0.939305 0.988622 0.690704
O O1 0.086184 0.250000 0.604766
O O2 0.140950 0.433155 0.719555
O O3 0.091778 0.441700 0.453875
O O4 0.007217 0.432117 0.660100
O O5 0.750000 0.417901 0.846005
O O6 0.664028 0.250000 0.889304
O O7 0.616271 0.441780 0.783905
O O8 0.663011 0.434708 0.047702
O O9 0.750000 0.902980 0.111651
O O10 0.890057 0.873552 0.030788
O O11 0.498823 0.750000 0.998367
O O12 0.537490 0.884757 0.792220
O O13 0.500000 0.000000 0.000000
#
# Coordination Sequence:
#
# PCOD9452723 Si02
#       5
#     8   8   8   8   8
#     4  11  22  38  57  83 120 159 199 249 308 364
#     4   9  19  38  62  86 117 156 200 254 309 363
#     4  10  22  39  60  90 122 157 204 254 306 367
#     4  11  22  38  62  92 121 161 208 258 311 367
#     4  10  22  38  57  87 117 158 201 252 296 369
#
# _framework density 19.009319999999999
#
# number of rings (size 3 to 8) (size 9 to 14) (size 15 to 20)
#    0.000    1.800    2.000    1.800    0.000    5.600 
#    0.000    2.000    0.000    6.000    0.000    0.000 
#    0.000    0.000    0.000    0.000    0.000    0.000 
#
# Total GULP energy -222966.701750 kJ/mol
# GULP energy per Si atom -5574.167544 kJ/mol
# Density = 1.896605 g / cm^3
# Si number density = 19.009320 Si / 1000 Ang^3
#
#
#
# Elastic Constant Matrix: (Units=GPa)
#
#
# Indices 1 2 3 4 5 6 
#
# 1 104.5117 47.3030 49.6115 0.0000 0.0000 0.0000
# 2 47.3030 125.9205 50.2052 0.0000 0.0000 0.0000
# 3 49.6115 50.2052 137.4781 0.0000 0.0000 0.0000
# 4 0.0000 0.0000 0.0000 0.8191 0.0000 0.0000
# 5 0.0000 0.0000 0.0000 0.0000 33.5515 0.0000
# 6 0.0000 0.0000 0.0000 0.0000 0.0000 11.9162
#
#
#
# Elastic Compliance Matrix: (Units=1/GPa)
#
#
# Indices 1 2 3 4 5 6 
#
# 1 0.012708 -0.003447 -0.003327 0.000000 0.000000 0.000000
# 2 -0.003447 0.010230 -0.002492 0.000000 0.000000 0.000000
# 3 -0.003327 -0.002492 0.009384 0.000000 0.000000 0.000000
# 4 0.000000 0.000000 0.000000 1.220842 0.000000 0.000000
# 5 0.000000 0.000000 0.000000 0.000000 0.029805 0.000000
# 6 0.000000 0.000000 0.000000 0.000000 0.000000 0.083920
#
#
# Mechanical properties :
#
#
# Convention : Reuss Voigt Hill
#
# Bulk Modulus (GPa) = 72.51559 73.57218 73.04388
# Shear Modulus (GPa) = 3.59707 23.97673 13.78690
#
# Velocity S-wave (km/s) = 1.37709 3.55535 2.69601
# Velocity P-wave (km/s) = 6.38425 7.45931 6.94262
#
# Compressibility (1/GPa) = 0.01379014
#
# Stress axis : x y z
#
# Youngs Moduli (GPa) = 78.69114 97.75122 106.55902
#
# Poissons Ratio (x) = 0.33698 0.35452
# Poissons Ratio (y) = 0.27128 0.26553
# Poissons Ratio (z) = 0.26180 0.24358
#
# Static dielectric constant tensor:
#      x y z
#    x 1.702790 0.000000 0.000000 
#    y 0.000000 1.685450 0.000000 
#    z 0.000000 0.000000 1.665130 
# 
# From -- ./inp_files/7364.got.cif
#   From: 2010.05.17/outbox.cif.g08.bks.cpg/sg59_4_cif.got.tgz:7364.got - 2010.06.03 14:40:33.
