data_PCOD9452586
_publ_section_title
;
Structure prediction by ZEFSAII (Michael W. Deem and Ramdas Pophale) SiO2 
 PCOD9452586
Probable space group: P M M N
;
_chemical_formula_sum "Si O2"
_cell_formula_units_Z 48
_cell_length_a 15.277825
_cell_length_b 8.321586
_cell_length_c 19.786017
_cell_angle_alpha 90.000000
_cell_angle_beta 90.000000
_cell_angle_gamma 90.000000
_cell_volume 2515.509807
_symmetry_space_group_name_H-M "P M M N"
_symmetry_group_IT_number 59
_space_group.IT_coordinate_system_code '2'
_symmetry_cell_setting 'orthorhombic'
loop_
_space_group_symop_operation_xyz
x,y,z
1/2-x,1/2-y,z
1/2+x,-y,-z
-x,1/2+y,-z
-x,-y,-z
1/2+x,1/2+y,-z
1/2-x,y,z
x,1/2-y,z
loop_
_atom_site_type_symbol
_atom_site_label
_atom_site_fract_x
_atom_site_fract_y
_atom_site_fract_z
Si Si1 0.342713 0.557428 0.888075
Si Si2 0.943883 0.058240 0.435155
Si Si3 0.250000 0.437241 0.536958
Si Si4 0.250000 0.560913 0.385806
Si Si5 0.530644 0.946278 0.834859
Si Si6 0.095023 0.442797 0.025218
Si Si7 0.073241 0.054728 0.316717
O O1 0.250000 0.497607 0.859494
O O2 0.344637 0.750000 0.881101
O O3 0.432436 0.497046 0.854242
O O4 0.344853 0.516969 0.967694
O O5 0.945523 0.250000 0.437145
O O6 0.995417 0.005565 0.367653
O O7 0.842569 0.006393 0.437134
O O8 0.000000 0.000000 0.500000
O O9 0.250000 0.250000 0.551490
O O10 0.250000 0.467675 0.456544
O O11 0.250000 0.750000 0.400950
O O12 0.336455 0.513851 0.344956
O O13 0.528847 0.750000 0.835255
O O14 0.596133 0.992475 0.896058
O O15 0.556776 0.997550 0.760200
O O16 0.102241 0.250000 0.022201
O O17 0.000000 0.500000 0.000000
O O18 0.078089 0.250000 0.317639
#
# Coordination Sequence:
#
# PCOD9452586 Si02
#       7
#     8   8   4   4   8   8   8
#     4   9  17  31  52  78 108 142 182 228 273 322
#     4  11  22  37  61  90 118 149 192 238 285 340
#     4  12  24  40  62  86 116 153 194 237 286 337
#     4  12  24  38  60  86 114 145 186 235 288 347
#     4   8  16  33  54  77 104 141 185 224 268 327
#     4   9  16  29  51  75 100 133 176 221 266 316
#     4  10  21  39  61  84 113 149 188 231 285 343
#
# _framework density 19.081617999999999
#
# number of rings (size 3 to 8) (size 9 to 14) (size 15 to 20)
#    0.000    2.167    1.667    3.500    0.000    1.000 
#    3.000    4.167    0.000    0.000    0.000    0.000 
#    0.000    0.000    0.000    0.000    0.000    0.000 
#
# Total GULP energy -267579.738424 kJ/mol
# GULP energy per Si atom -5574.577884 kJ/mol
# Density = 1.903819 g / cm^3
# Si number density = 19.081618 Si / 1000 Ang^3
#
#
#
# Elastic Constant Matrix: (Units=GPa)
#
#
# Indices 1 2 3 4 5 6 
#
# 1 123.2172 7.9276 33.0938 0.0000 0.0000 0.0000
# 2 7.9276 16.2267 0.7072 0.0000 0.0000 0.0000
# 3 33.0938 0.7072 100.4008 0.0000 0.0000 0.0000
# 4 0.0000 0.0000 0.0000 21.7068 0.0000 0.0000
# 5 0.0000 0.0000 0.0000 0.0000 10.3062 0.0000
# 6 0.0000 0.0000 0.0000 0.0000 0.0000 24.0405
#
#
#
# Elastic Compliance Matrix: (Units=1/GPa)
#
#
# Indices 1 2 3 4 5 6 
#
# 1 0.009203 -0.004365 -0.003003 0.000000 0.000000 0.000000
# 2 -0.004365 0.063717 0.000990 0.000000 0.000000 0.000000
# 3 -0.003003 0.000990 0.010943 0.000000 0.000000 0.000000
# 4 0.000000 0.000000 0.000000 0.046069 0.000000 0.000000
# 5 0.000000 0.000000 0.000000 0.000000 0.097029 0.000000
# 6 0.000000 0.000000 0.000000 0.000000 0.000000 0.041597
#
#
# Mechanical properties :
#
#
# Convention : Reuss Voigt Hill
#
# Bulk Modulus (GPa) = 14.06340 35.92242 24.99291
# Shear Modulus (GPa) = 16.39265 24.41843 20.40554
#
# Velocity S-wave (km/s) = 2.93419 3.58115 3.27369
# Velocity P-wave (km/s) = 4.34343 5.99717 5.23600
#
# Compressibility (1/GPa) = 0.07110655
#
# Stress axis : x y z
#
# Youngs Moduli (GPa) = 108.65915 15.69451 91.38377
#
# Poissons Ratio (x) = 0.06851 0.27440
# Poissons Ratio (y) = 0.47433 -0.09048
# Poissons Ratio (z) = 0.32628 -0.01554
#
# Static dielectric constant tensor:
#      x y z
#    x 1.610030 0.000000 0.000000 
#    y 0.000000 1.663360 0.000000 
#    z 0.000000 0.000000 1.668840 
# 
# From -- ./inp_files/27403.got.cif
#   From: 2010.05.17/outbox.cif.g08.bks.cpg/sg59_14_cif.got.tgz:27403.got - 2010.06.03 14:40:33.
