data_PCOD9452653
_publ_section_title
;
Structure prediction by ZEFSAII (Michael W. Deem and Ramdas Pophale) SiO2 
 PCOD9452653
Probable space group: P M M N
;
_chemical_formula_sum "Si O2"
_cell_formula_units_Z 40
_cell_length_a 20.832910
_cell_length_b 8.572057
_cell_length_c 11.805034
_cell_angle_alpha 90.000000
_cell_angle_beta 90.000000
_cell_angle_gamma 90.000000
_cell_volume 2108.153502
_symmetry_space_group_name_H-M "P M M N"
_symmetry_group_IT_number 59
_space_group.IT_coordinate_system_code '2'
_symmetry_cell_setting 'orthorhombic'
loop_
_space_group_symop_operation_xyz
x,y,z
1/2-x,1/2-y,z
1/2+x,-y,-z
-x,1/2+y,-z
-x,-y,-z
1/2+x,1/2+y,-z
1/2-x,y,z
x,1/2-y,z
loop_
_atom_site_type_symbol
_atom_site_label
_atom_site_fract_x
_atom_site_fract_y
_atom_site_fract_z
Si Si1 0.374340 0.937171 0.755474
Si Si2 0.825655 0.061545 0.996598
Si Si3 0.377361 0.062351 0.236521
Si Si4 0.250000 0.062016 0.627819
Si Si5 0.250000 0.060748 0.366962
Si Si6 0.000262 0.435935 0.628927
O O1 0.379163 0.750000 0.751369
O O2 0.359860 0.982866 0.885603
O O3 0.312632 0.994041 0.686679
O O4 0.436902 0.008659 0.697169
O O5 0.750000 0.011973 0.995207
O O6 0.825615 0.250000 0.989492
O O7 0.864767 0.992928 0.891311
O O8 0.381032 0.250000 0.239209
O O9 0.313998 0.008472 0.304199
O O10 0.439072 0.995359 0.300118
O O11 0.250000 0.250000 0.635364
O O12 0.250000 0.014748 0.496922
O O13 0.250000 0.250000 0.363058
O O14 0.999513 0.250000 0.622708
O O15 0.000000 0.500000 0.500000
#
# Coordination Sequence:
#
# PCOD9452653 Si02
#       6
#     8   8   8   4   4   8
#     4  11  23  42  65  92 127 171 216 267 322 379
#     4  10  21  40  64  93 130 168 211 265 320 377
#     4  11  22  40  65  94 127 168 213 264 320 380
#     4  11  21  36  61  92 126 165 212 267 322 383
#     4   9  20  36  57  88 122 157 204 257 312 373
#     4  12  26  45  66  94 129 170 214 264 323 389
#
# _framework density 18.973951
#
# number of rings (size 3 to 8) (size 9 to 14) (size 15 to 20)
#    0.000    1.200    2.000    4.500    0.000    4.000 
#    0.000    3.000    0.000    0.000    0.000    0.000 
#    0.000    0.000    0.000    0.000    0.000    0.000 
#
# Total GULP energy -223621.309957 kJ/mol
# GULP energy per Si atom -5590.532749 kJ/mol
# Density = 1.893077 g / cm^3
# Si number density = 18.973951 Si / 1000 Ang^3
#
#
#
# Elastic Constant Matrix: (Units=GPa)
#
#
# Indices 1 2 3 4 5 6 
#
# 1 201.0889 56.5629 118.7946 0.0000 0.0000 0.0000
# 2 56.5629 81.1858 68.5054 0.0000 0.0000 0.0000
# 3 118.7946 68.5054 219.1672 0.0000 0.0000 0.0000
# 4 0.0000 0.0000 0.0000 32.7605 0.0000 0.0000
# 5 0.0000 0.0000 0.0000 0.0000 42.3048 0.0000
# 6 0.0000 0.0000 0.0000 0.0000 0.0000 85.2309
#
#
#
# Elastic Compliance Matrix: (Units=1/GPa)
#
#
# Indices 1 2 3 4 5 6 
#
# 1 0.007670 -0.002493 -0.003378 0.000000 0.000000 0.000000
# 2 -0.002493 0.017540 -0.004131 0.000000 0.000000 0.000000
# 3 -0.003378 -0.004131 0.007685 0.000000 0.000000 0.000000
# 4 0.000000 0.000000 0.000000 0.030525 0.000000 0.000000
# 5 0.000000 0.000000 0.000000 0.000000 0.023638 0.000000
# 6 0.000000 0.000000 0.000000 0.000000 0.000000 0.011733
#
#
# Mechanical properties :
#
#
# Convention : Reuss Voigt Hill
#
# Bulk Modulus (GPa) = 77.57724 109.90750 93.74237
# Shear Modulus (GPa) = 40.61998 49.23118 44.92558
#
# Velocity S-wave (km/s) = 4.63193 5.09932 4.87123
# Velocity P-wave (km/s) = 8.34154 9.62922 9.00842
#
# Compressibility (1/GPa) = 0.01289038
#
# Stress axis : x y z
#
# Youngs Moduli (GPa) = 130.38223 57.01098 130.12470
#
# Poissons Ratio (x) = 0.14215 0.43955
# Poissons Ratio (y) = 0.32508 0.53757
# Poissons Ratio (z) = 0.44042 0.23552
#
# Static dielectric constant tensor:
#      x y z
#    x 1.630310 0.000000 0.000000 
#    y 0.000000 1.646050 0.000000 
#    z 0.000000 0.000000 1.648700 
# 
# From -- ./inp_files/18169.got.cif
#   From: 2010.05.17/outbox.cif.g08.bks.cpg/sg59_10_cif.got.tgz:18169.got - 2010.06.03 14:40:33.
