data_PCOD9452170
_publ_section_title
;
Structure prediction by ZEFSAII (Michael W. Deem and Ramdas Pophale) SiO2 
 PCOD9452170
Probable space group: P M M N
;
_chemical_formula_sum "Si O2"
_cell_formula_units_Z 56
_cell_length_a 14.458435
_cell_length_b 9.021192
_cell_length_c 21.923933
_cell_angle_alpha 90.000000
_cell_angle_beta 90.000000
_cell_angle_gamma 90.000000
_cell_volume 2859.589404
_symmetry_space_group_name_H-M "P M M N"
_symmetry_group_IT_number 59
_space_group.IT_coordinate_system_code '2'
_symmetry_cell_setting 'orthorhombic'
loop_
_space_group_symop_operation_xyz
x,y,z
1/2-x,1/2-y,z
1/2+x,-y,-z
-x,1/2+y,-z
-x,-y,-z
1/2+x,1/2+y,-z
1/2-x,y,z
x,1/2-y,z
loop_
_atom_site_type_symbol
_atom_site_label
_atom_site_fract_x
_atom_site_fract_y
_atom_site_fract_z
Si Si1 0.360848 0.077776 0.538369
Si Si2 0.857811 0.426601 0.848148
Si Si3 0.137177 0.419378 0.025218
Si Si4 0.640927 0.426081 0.590480
Si Si5 0.359566 0.926765 0.900846
Si Si6 0.478808 0.572069 0.784103
Si Si7 0.971577 0.072953 0.352725
O O1 0.250000 0.072143 0.546218
O O2 0.388003 0.250000 0.530421
O O3 0.382608 0.985763 0.477260
O O4 0.409840 0.007465 0.596683
O O5 0.750000 0.464910 0.838666
O O6 0.866067 0.250000 0.849108
O O7 0.887272 0.491997 0.913834
O O8 0.923486 0.496389 0.797619
O O9 0.250000 0.419791 0.023276
O O10 0.105550 0.250000 0.029998
O O11 0.106325 0.493231 0.962120
O O12 0.750000 0.453082 0.600705
O O13 0.624465 0.250000 0.594240
O O14 0.575412 0.514522 0.636187
O O15 0.250000 0.955975 0.894330
O O16 0.370897 0.750000 0.908710
O O17 0.411564 0.972906 0.839368
O O18 0.489569 0.750000 0.786908
O O19 0.443335 0.536133 0.716557
O O20 0.967082 0.250000 0.360966
#
# Coordination Sequence:
#
# PCOD9452170 Si02
#       7
#     8   8   8   8   8   8   8
#     4  10  21  38  61  88 116 146 183 228 276 325
#     4  10  21  37  57  80 107 141 181 227 277 326
#     4   9  17  31  54  82 108 136 174 222 276 329
#     4  10  21  38  61  87 114 146 185 229 277 328
#     4   9  18  35  57  79 106 139 178 225 272 321
#     4  10  23  39  55  79 109 147 189 223 266 323
#     4  11  23  38  57  82 115 152 188 228 274 328
#
# _framework density 19.583231000000001
#
# number of rings (size 3 to 8) (size 9 to 14) (size 15 to 20)
#    0.000    2.143    0.000    2.571    0.000    7.714 
#    0.000    4.286    0.000    1.714    0.000    0.000 
#    0.000    0.000    0.000    0.000    0.000    0.000 
#
# Total GULP energy -312940.894529 kJ/mol
# GULP energy per Si atom -5588.230259 kJ/mol
# Density = 1.953866 g / cm^3
# Si number density = 19.583231 Si / 1000 Ang^3
#
#
#
# Elastic Constant Matrix: (Units=GPa)
#
#
# Indices 1 2 3 4 5 6 
#
# 1 32.0453 4.6920 2.4116 0.0000 0.0000 0.0000
# 2 4.6920 32.5028 7.5549 0.0000 0.0000 0.0000
# 3 2.4116 7.5549 56.1126 0.0000 0.0000 0.0000
# 4 0.0000 0.0000 0.0000 30.9768 0.0000 0.0000
# 5 0.0000 0.0000 0.0000 0.0000 20.5893 0.0000
# 6 0.0000 0.0000 0.0000 0.0000 0.0000 25.0052
#
#
#
# Elastic Compliance Matrix: (Units=1/GPa)
#
#
# Indices 1 2 3 4 5 6 
#
# 1 0.031912 -0.004426 -0.000776 0.000000 0.000000 0.000000
# 2 -0.004426 0.032375 -0.004169 0.000000 0.000000 0.000000
# 3 -0.000776 -0.004169 0.018416 0.000000 0.000000 0.000000
# 4 0.000000 0.000000 0.000000 0.032282 0.000000 0.000000
# 5 0.000000 0.000000 0.000000 0.000000 0.048569 0.000000
# 6 0.000000 0.000000 0.000000 0.000000 0.000000 0.039992
#
#
# Mechanical properties :
#
#
# Convention : Reuss Voigt Hill
#
# Bulk Modulus (GPa) = 15.63439 16.66416 16.14928
# Shear Modulus (GPa) = 20.52484 22.38107 21.45295
#
# Velocity S-wave (km/s) = 3.24092 3.38430 3.31339
# Velocity P-wave (km/s) = 4.69102 4.87844 4.78565
#
# Compressibility (1/GPa) = 0.06396154
#
# Stress axis : x y z
#
# Youngs Moduli (GPa) = 31.33590 30.88848 54.30094
#
# Poissons Ratio (x) = 0.13673 0.04211
# Poissons Ratio (y) = 0.13871 0.22636
# Poissons Ratio (z) = 0.02430 0.12876
#
# Static dielectric constant tensor:
#      x y z
#    x 1.715830 0.000000 0.000000 
#    y 0.000000 1.653230 0.000000 
#    z 0.000000 0.000000 1.658680 
# 
# From -- ./inp_files/29003.got.cif
#   From: 2010.05.17/outbox.cif.g08.bks.cpg/sg59_15_cif.got.tgz:29003.got - 2010.06.03 14:40:33.
