data_PCOD9452253
_publ_section_title
;
Structure prediction by ZEFSAII (Michael W. Deem and Ramdas Pophale) SiO2 
 PCOD9452253
Probable space group: P M M N
;
_chemical_formula_sum "Si O2"
_cell_formula_units_Z 32
_cell_length_a 8.783248
_cell_length_b 9.128424
_cell_length_c 21.106177
_cell_angle_alpha 90.000000
_cell_angle_beta 90.000000
_cell_angle_gamma 90.000000
_cell_volume 1692.234424
_symmetry_space_group_name_H-M "P M M N"
_symmetry_group_IT_number 59
_space_group.IT_coordinate_system_code '2'
_symmetry_cell_setting 'orthorhombic'
loop_
_space_group_symop_operation_xyz
x,y,z
1/2-x,1/2-y,z
1/2+x,-y,-z
-x,1/2+y,-z
-x,-y,-z
1/2+x,1/2+y,-z
1/2-x,y,z
x,1/2-y,z
loop_
_atom_site_type_symbol
_atom_site_label
_atom_site_fract_x
_atom_site_fract_y
_atom_site_fract_z
Si Si1 0.066256 0.420073 0.938771
Si Si2 0.932587 0.078023 0.438225
Si Si3 0.567602 0.078240 0.685210
Si Si4 0.933746 0.421779 0.191636
O O1 0.250000 0.425348 0.941979
O O2 0.019527 0.250000 0.937132
O O3 0.020101 0.501792 0.874169
O O4 0.000000 0.500000 0.000000
O O5 0.750000 0.066579 0.439158
O O6 0.973209 0.250000 0.438233
O O7 0.000000 0.000000 0.500000
O O8 0.996215 0.001148 0.375481
O O9 0.750000 0.067113 0.681997
O O10 0.526023 0.250000 0.685216
O O11 0.507871 0.002013 0.748829
O O12 0.750000 0.433253 0.197035
O O13 0.973189 0.250000 0.190944
#
# Coordination Sequence:
#
# PCOD9452253 Si02
#       4
#     8   8   8   8
#     4  10  21  37  58  84 114 150 191 235 286 342
#     4  11  24  41  62  89 119 152 192 236 283 337
#     4  11  24  40  59  86 118 152 192 236 283 338
#     4  10  21  38  60  85 113 148 191 237 286 341
#
# _framework density 18.909911000000001
#
# number of rings (size 3 to 8) (size 9 to 14) (size 15 to 20)
#    0.000    1.500    0.000    4.500    0.000   14.000 
#    0.000    0.000    0.000    0.000    0.000    0.000 
#    0.000    0.000    0.000    0.000    0.000    0.000 
#
# Total GULP energy -178980.466570 kJ/mol
# GULP energy per Si atom -5593.139580 kJ/mol
# Density = 1.886687 g / cm^3
# Si number density = 18.909911 Si / 1000 Ang^3
#
#
#
# Elastic Constant Matrix: (Units=GPa)
#
#
# Indices 1 2 3 4 5 6 
#
# 1 34.9450 73.7892 60.9825 0.0000 0.0000 0.0000
# 2 73.7892 230.3515 146.4900 0.0000 0.0000 0.0000
# 3 60.9825 146.4900 236.0865 0.0000 0.0000 0.0000
# 4 0.0000 0.0000 0.0000 46.6795 0.0000 0.0000
# 5 0.0000 0.0000 0.0000 0.0000 42.8566 0.0000
# 6 0.0000 0.0000 0.0000 0.0000 0.0000 32.5843
#
#
#
# Elastic Compliance Matrix: (Units=1/GPa)
#
#
# Indices 1 2 3 4 5 6 
#
# 1 0.100752 -0.025973 -0.009909 0.000000 0.000000 0.000000
# 2 -0.025973 0.013866 -0.001895 0.000000 0.000000 0.000000
# 3 -0.009909 -0.001895 0.007971 0.000000 0.000000 0.000000
# 4 0.000000 0.000000 0.000000 0.021423 0.000000 0.000000
# 5 0.000000 0.000000 0.000000 0.000000 0.023334 0.000000
# 6 0.000000 0.000000 0.000000 0.000000 0.000000 0.030690
#
#
# Mechanical properties :
#
#
# Convention : Reuss Voigt Hill
#
# Bulk Modulus (GPa) = 21.26029 118.21182 69.73606
# Shear Modulus (GPa) = 17.28506 39.09884 28.19195
#
# Velocity S-wave (km/s) = 3.02665 4.55206 3.86535
# Velocity P-wave (km/s) = 4.84577 9.50143 7.54184
#
# Compressibility (1/GPa) = 0.04703604
#
# Stress axis : x y z
#
# Youngs Moduli (GPa) = 9.92536 72.11786 125.45315
#
# Poissons Ratio (x) = 1.87309 1.24311
# Poissons Ratio (y) = 0.25779 0.23773
# Poissons Ratio (z) = 0.09835 0.13666
#
# Static dielectric constant tensor:
#      x y z
#    x 1.640430 0.000000 0.000000 
#    y 0.000000 1.635640 0.000000 
#    z 0.000000 0.000000 1.602180 
# 
# From -- ./inp_files/28566.got.cif
#   From: 2010.05.17/outbox.cif.g08.bks.cpg/sg59_15_cif.got.tgz:28566.got - 2010.06.03 14:40:33.
