data_PCOD9452819
_publ_section_title
;
Structure prediction by ZEFSAII (Michael W. Deem and Ramdas Pophale) SiO2 
 PCOD9452819
Probable space group: P M M N
;
_chemical_formula_sum "Si O2"
_cell_formula_units_Z 52
_cell_length_a 7.546116
_cell_length_b 26.939705
_cell_length_c 12.326991
_cell_angle_alpha 90.000000
_cell_angle_beta 90.000000
_cell_angle_gamma 90.000000
_cell_volume 2505.955713
_symmetry_space_group_name_H-M "P M M N"
_symmetry_group_IT_number 59
_space_group.IT_coordinate_system_code '2'
_symmetry_cell_setting 'orthorhombic'
loop_
_space_group_symop_operation_xyz
x,y,z
1/2-x,1/2-y,z
1/2+x,-y,-z
-x,1/2+y,-z
-x,-y,-z
1/2+x,1/2+y,-z
1/2-x,y,z
x,1/2-y,z
loop_
_atom_site_type_symbol
_atom_site_label
_atom_site_fract_x
_atom_site_fract_y
_atom_site_fract_z
Si Si1 0.453368 0.594983 0.484045
Si Si2 0.964361 0.805789 0.367623
Si Si3 0.534627 0.805356 0.116211
Si Si4 0.964235 0.460621 0.729652
Si Si5 0.250000 0.916180 0.881007
Si Si6 0.548437 0.924251 0.726061
Si Si7 0.044798 0.088713 0.956951
O O1 0.250000 0.579380 0.499944
O O2 0.461463 0.651237 0.442023
O O3 0.527777 0.562864 0.383679
O O4 0.543983 0.588901 0.599240
O O5 0.750000 0.809019 0.369564
O O6 0.014380 0.750000 0.400066
O O7 0.019572 0.812531 0.241845
O O8 0.750000 0.805547 0.115581
O O9 0.477351 0.750000 0.081647
O O10 0.480087 0.853467 0.048689
O O11 0.750000 0.456819 0.730531
O O12 0.012410 0.518237 0.735039
O O13 0.032873 0.432007 0.834729
O O14 0.406824 0.895961 0.798267
O O15 0.406926 0.936981 0.963772
O O16 0.750000 0.919392 0.763735
O O17 0.250000 0.086061 0.989289
#
# Coordination Sequence:
#
# PCOD9452819 Si02
#       7
#     8   8   8   8   4   8   8
#     4  11  21  37  64  91 128 160 199 259 311 369
#     4   9  17  31  55  90 128 161 195 240 306 380
#     4   8  15  31  57  91 126 157 196 246 308 376
#     4  10  22  40  61  94 125 158 205 254 313 377
#     4  12  26  46  59  86 124 160 219 266 296 364
#     4  11  25  45  63  86 121 170 212 256 308 365
#     4  11  22  38  65  92 124 167 202 256 314 364
#
# _framework density 20.750565999999999
#
# number of rings (size 3 to 8) (size 9 to 14) (size 15 to 20)
#    0.000    1.846    3.077    2.308    1.077    1.538 
#    0.000    0.385    0.000    1.846    0.000    2.154 
#    0.000    0.000    0.000    0.000    0.000    0.000 
#
# Total GULP energy -289514.650524 kJ/mol
# GULP energy per Si atom -5567.589433 kJ/mol
# Density = 2.070334 g / cm^3
# Si number density = 20.750566 Si / 1000 Ang^3
#
#
#
# Elastic Constant Matrix: (Units=GPa)
#
#
# Indices 1 2 3 4 5 6 
#
# 1 98.0518 3.2730 17.1799 0.0000 0.0000 0.0000
# 2 3.2730 54.4732 -3.5024 0.0000 0.0000 0.0000
# 3 17.1799 -3.5024 77.7208 0.0000 0.0000 0.0000
# 4 0.0000 0.0000 0.0000 -8.7314 0.0000 0.0000
# 5 0.0000 0.0000 0.0000 0.0000 -52.7909 0.0000
# 6 0.0000 0.0000 0.0000 0.0000 0.0000 6.6023
#
#
#
# Elastic Compliance Matrix: (Units=1/GPa)
#
#
# Indices 1 2 3 4 5 6 
#
# 1 0.010644 -0.000793 -0.002388 0.000000 0.000000 0.000000
# 2 -0.000793 0.018470 0.001008 0.000000 0.000000 0.000000
# 3 -0.002388 0.001008 0.013440 0.000000 0.000000 0.000000
# 4 0.000000 0.000000 0.000000 -0.114529 0.000000 0.000000
# 5 0.000000 0.000000 0.000000 0.000000 -0.018943 0.000000
# 6 0.000000 0.000000 0.000000 0.000000 0.000000 0.151463
#
#
# Mechanical properties :
#
#
# Convention : Reuss Voigt Hill
#
# Bulk Modulus (GPa) = 26.17401 29.34963 27.76182
# Shear Modulus (GPa) = 64.40976 3.23569 33.82272
#
# Velocity S-wave (km/s) = 5.57740 1.25008 4.04166
# Velocity P-wave (km/s) = 7.35646 4.03216 5.93194
#
# Compressibility (1/GPa) = 0.03820584
#
# Stress axis : x y z
#
# Youngs Moduli (GPa) = 93.95268 54.14158 74.40513
#
# Poissons Ratio (x) = 0.04294 0.17771
# Poissons Ratio (y) = 0.07451 -0.07497
# Poissons Ratio (z) = 0.22440 -0.05455
#
# Static dielectric constant tensor:
#      x y z
#    x 1.843190 0.000000 0.000000 
#    y 0.000000 1.785140 0.000000 
#    z 0.000000 0.000000 1.758460 
# 
# From -- ./inp_files/14577.got.cif
#   From: 2010.05.17/outbox.cif.g08.bks.cpg/sg59_8_cif.got.tgz:14577.got - 2010.06.03 14:40:33.
