data_PCOD9452498
_publ_section_title
;
Structure prediction by ZEFSAII (Michael W. Deem and Ramdas Pophale) SiO2 
 PCOD9452498
Probable space group: P M M N
;
_chemical_formula_sum "Si O2"
_cell_formula_units_Z 48
_cell_length_a 8.913183
_cell_length_b 19.159784
_cell_length_c 15.489542
_cell_angle_alpha 90.000000
_cell_angle_beta 90.000000
_cell_angle_gamma 90.000000
_cell_volume 2645.221285
_symmetry_space_group_name_H-M "P M M N"
_symmetry_group_IT_number 59
_space_group.IT_coordinate_system_code '2'
_symmetry_cell_setting 'orthorhombic'
loop_
_space_group_symop_operation_xyz
x,y,z
1/2-x,1/2-y,z
1/2+x,-y,-z
-x,1/2+y,-z
-x,-y,-z
1/2+x,1/2+y,-z
1/2-x,y,z
x,1/2-y,z
loop_
_atom_site_type_symbol
_atom_site_label
_atom_site_fract_x
_atom_site_fract_y
_atom_site_fract_z
Si Si1 0.070541 0.168692 0.662895
Si Si2 0.570151 0.331015 0.349144
Si Si3 0.929654 0.576407 0.502475
Si Si4 0.571157 0.332161 0.847904
Si Si5 0.071361 0.076660 0.999206
Si Si6 0.929250 0.168111 0.147738
O O1 0.250000 0.162129 0.676963
O O2 0.039879 0.250000 0.641637
O O3 0.027167 0.119797 0.583338
O O4 0.985809 0.151679 0.751460
O O5 0.750000 0.337779 0.359675
O O6 0.530702 0.250000 0.366356
O O7 0.487458 0.381584 0.414523
O O8 0.536764 0.345427 0.248471
O O9 0.750000 0.571812 0.504376
O O10 0.000000 0.500000 0.500000
O O11 0.750000 0.341399 0.854038
O O12 0.537824 0.250000 0.864069
O O13 0.489709 0.380042 0.917469
O O14 0.250000 0.071727 0.995895
O O15 0.018517 0.118786 0.083763
O O16 0.000000 0.000000 0.000000
O O17 0.750000 0.158164 0.135237
O O18 0.960702 0.250000 0.130434
#
# Coordination Sequence:
#
# PCOD9452498 Si02
#       6
#     8   8   8   8   8   8
#     4   9  19  37  59  82 109 144 187 232 278 328
#     4   9  19  37  61  86 112 145 184 227 277 332
#     4  11  23  37  55  81 115 153 189 230 279 330
#     4  10  21  38  61  87 113 143 182 229 279 332
#     4  12  25  39  57  82 114 151 188 229 278 331
#     4   9  19  38  62  86 114 148 185 227 276 330
#
# _framework density 18.145931000000001
#
# number of rings (size 3 to 8) (size 9 to 14) (size 15 to 20)
#    0.000    2.000    0.000    4.500    0.000    7.667 
#    0.000    5.000    0.000    0.000    0.000    0.000 
#    0.000    0.000    0.000    0.000    0.000    0.000 
#
# Total GULP energy -268202.747468 kJ/mol
# GULP energy per Si atom -5587.557239 kJ/mol
# Density = 1.810463 g / cm^3
# Si number density = 18.145931 Si / 1000 Ang^3
#
#
#
# Elastic Constant Matrix: (Units=GPa)
#
#
# Indices 1 2 3 4 5 6 
#
# 1 90.0359 90.1901 87.2948 0.0000 0.0000 0.0000
# 2 90.1901 144.8210 124.0106 0.0000 0.0000 0.0000
# 3 87.2948 124.0106 143.3952 0.0000 0.0000 0.0000
# 4 0.0000 0.0000 0.0000 -23.6068 0.0000 0.0000
# 5 0.0000 0.0000 0.0000 0.0000 38.7405 0.0000
# 6 0.0000 0.0000 0.0000 0.0000 0.0000 33.9522
#
#
#
# Elastic Compliance Matrix: (Units=1/GPa)
#
#
# Indices 1 2 3 4 5 6 
#
# 1 0.032107 -0.012558 -0.008686 0.000000 0.000000 0.000000
# 2 -0.012558 0.031525 -0.019619 0.000000 0.000000 0.000000
# 3 -0.008686 -0.019619 0.029228 0.000000 0.000000 0.000000
# 4 0.000000 0.000000 0.000000 -0.042361 0.000000 0.000000
# 5 0.000000 0.000000 0.000000 0.000000 0.025813 0.000000
# 6 0.000000 0.000000 0.000000 0.000000 0.000000 0.029453
#
#
# Mechanical properties :
#
#
# Convention : Reuss Voigt Hill
#
# Bulk Modulus (GPa) = 89.79957 109.02701 99.41329
# Shear Modulus (GPa) = 26.15023 14.93429 20.54226
#
# Velocity S-wave (km/s) = 3.80031 2.87193 3.36826
# Velocity P-wave (km/s) = 8.29767 8.43867 8.36847
#
# Compressibility (1/GPa) = 0.01113591
#
# Stress axis : x y z
#
# Youngs Moduli (GPa) = 31.14553 31.72053 34.21361
#
# Poissons Ratio (x) = 0.39834 0.29717
# Poissons Ratio (y) = 0.39112 0.67123
# Poissons Ratio (z) = 0.27053 0.62232
#
# Static dielectric constant tensor:
#      x y z
#    x 1.604250 0.000000 0.000000 
#    y 0.000000 1.594930 0.000000 
#    z 0.000000 0.000000 1.599390 
# 
# From -- ./inp_files/20413.got.cif
#   From: 2010.05.17/outbox.cif.g08.bks.cpg/sg59_11_cif.got.tgz:20413.got - 2010.06.03 14:40:33.
