data_PCOD9452774
_publ_section_title
;
Structure prediction by ZEFSAII (Michael W. Deem and Ramdas Pophale) SiO2 
 PCOD9452774
Probable space group: P M M N
;
_chemical_formula_sum "Si O2"
_cell_formula_units_Z 64
_cell_length_a 29.169117
_cell_length_b 8.761339
_cell_length_c 12.879753
_cell_angle_alpha 90.000000
_cell_angle_beta 90.000000
_cell_angle_gamma 90.000000
_cell_volume 3291.556405
_symmetry_space_group_name_H-M "P M M N"
_symmetry_group_IT_number 59
_space_group.IT_coordinate_system_code '2'
_symmetry_cell_setting 'orthorhombic'
loop_
_space_group_symop_operation_xyz
x,y,z
1/2-x,1/2-y,z
1/2+x,-y,-z
-x,1/2+y,-z
-x,-y,-z
1/2+x,1/2+y,-z
1/2-x,y,z
x,1/2-y,z
loop_
_atom_site_type_symbol
_atom_site_label
_atom_site_fract_x
_atom_site_fract_y
_atom_site_fract_z
Si Si1 0.555899 0.067471 0.670624
Si Si2 0.887235 0.568690 0.858386
Si Si3 0.951183 0.432199 0.036014
Si Si4 0.101514 0.065655 0.530401
Si Si5 0.047832 0.433137 0.738620
Si Si6 0.301807 0.432809 0.594603
Si Si7 0.196483 0.565740 0.043793
Si Si8 0.305389 0.922986 0.813900
O O1 0.559612 0.250000 0.674742
O O2 0.503834 0.027444 0.702253
O O3 0.589605 0.993179 0.754385
O O4 0.570574 0.008506 0.557986
O O5 0.890502 0.750000 0.862047
O O6 0.914642 0.495838 0.954624
O O7 0.835319 0.513065 0.872276
O O8 0.952504 0.250000 0.030256
O O9 0.941473 0.485051 0.153354
O O10 0.000000 0.500000 0.000000
O O11 0.099592 0.250000 0.519370
O O12 0.081366 0.028102 0.643823
O O13 0.154914 0.015691 0.526139
O O14 0.049731 0.250000 0.755294
O O15 0.250000 0.491701 0.572346
O O16 0.300033 0.250000 0.587292
O O17 0.314105 0.476659 0.713200
O O18 0.250000 0.528358 0.056135
O O19 0.192055 0.750000 0.047615
O O20 0.180540 0.518550 0.927239
O O21 0.250000 0.912842 0.821329
O O22 0.322911 0.750000 0.798874
#
# Coordination Sequence:
#
# PCOD9452774 Si02
#       8
#     8   8   8   8   8   8   8   8
#     4  11  23  41  63  85 115 156 203 253 309 368
#     4  12  25  40  62  89 123 165 207 252 305 365
#     4  12  24  40  63  92 125 162 202 246 303 368
#     4  10  22  39  60  87 119 154 199 250 302 361
#     4  10  22  40  62  89 122 157 196 250 308 366
#     4   9  18  33  53  80 115 153 191 237 293 350
#     4   9  19  37  59  86 122 161 203 253 306 361
#     4   8  15  29  50  76 109 148 186 231 288 345
#
# _framework density 19.443688999999999
#
# number of rings (size 3 to 8) (size 9 to 14) (size 15 to 20)
#    0.000    1.875    1.250    3.750    1.750    2.250 
#    0.000    1.875    0.000    2.250    0.000    0.000 
#    0.000    0.000    0.000    0.000    0.000    0.000 
#
# Total GULP energy -357457.583786 kJ/mol
# GULP energy per Si atom -5585.274747 kJ/mol
# Density = 1.939943 g / cm^3
# Si number density = 19.443689 Si / 1000 Ang^3
#
#
#
# Elastic Constant Matrix: (Units=GPa)
#
#
# Indices 1 2 3 4 5 6 
#
# 1 55.5306 20.6420 18.3207 0.0000 0.0000 0.0000
# 2 20.6420 39.9480 26.8441 0.0000 0.0000 0.0000
# 3 18.3207 26.8441 75.7983 0.0000 0.0000 0.0000
# 4 0.0000 0.0000 0.0000 34.2725 0.0000 0.0000
# 5 0.0000 0.0000 0.0000 0.0000 6.7534 0.0000
# 6 0.0000 0.0000 0.0000 0.0000 0.0000 18.3462
#
#
#
# Elastic Compliance Matrix: (Units=1/GPa)
#
#
# Indices 1 2 3 4 5 6 
#
# 1 0.022461 -0.010443 -0.001730 0.000000 0.000000 0.000000
# 2 -0.010443 0.037706 -0.010829 0.000000 0.000000 0.000000
# 3 -0.001730 -0.010829 0.017446 0.000000 0.000000 0.000000
# 4 0.000000 0.000000 0.000000 0.029178 0.000000 0.000000
# 5 0.000000 0.000000 0.000000 0.000000 0.148073 0.000000
# 6 0.000000 0.000000 0.000000 0.000000 0.000000 0.054507
#
#
# Mechanical properties :
#
#
# Convention : Reuss Voigt Hill
#
# Bulk Modulus (GPa) = 31.63848 33.65450 32.64649
# Shear Modulus (GPa) = 13.66445 18.90577 16.28511
#
# Velocity S-wave (km/s) = 2.65386 3.12161 2.89719
# Velocity P-wave (km/s) = 5.06930 5.50807 5.29323
#
# Compressibility (1/GPa) = 0.03160708
#
# Stress axis : x y z
#
# Youngs Moduli (GPa) = 44.52164 26.52106 57.31838
#
# Poissons Ratio (x) = 0.27697 0.09918
# Poissons Ratio (y) = 0.46495 0.62072
# Poissons Ratio (z) = 0.07704 0.28721
#
# Static dielectric constant tensor:
#      x y z
#    x 1.707880 0.000000 0.000000 
#    y 0.000000 1.654150 0.000000 
#    z 0.000000 0.000000 1.650610 
# 
# From -- ./inp_files/19289.got.cif
#   From: 2010.05.17/outbox.cif.g08.bks.cpg/sg59_10_cif.got.tgz:19289.got - 2010.06.03 14:40:33.
