data_PCOD9452689
_publ_section_title
;
Structure prediction by ZEFSAII (Michael W. Deem and Ramdas Pophale) SiO2 
 PCOD9452689
Probable space group: P M M N
;
_chemical_formula_sum "Si O2"
_cell_formula_units_Z 44
_cell_length_a 15.012043
_cell_length_b 13.738754
_cell_length_c 11.394447
_cell_angle_alpha 90.000000
_cell_angle_beta 90.000000
_cell_angle_gamma 90.000000
_cell_volume 2350.067842
_symmetry_space_group_name_H-M "P M M N"
_symmetry_group_IT_number 59
_space_group.IT_coordinate_system_code '2'
_symmetry_cell_setting 'orthorhombic'
loop_
_space_group_symop_operation_xyz
x,y,z
1/2-x,1/2-y,z
1/2+x,-y,-z
-x,1/2+y,-z
-x,-y,-z
1/2+x,1/2+y,-z
1/2-x,y,z
x,1/2-y,z
loop_
_atom_site_type_symbol
_atom_site_label
_atom_site_fract_x
_atom_site_fract_y
_atom_site_fract_z
Si Si1 0.750000 0.135199 0.132843
Si Si2 0.646713 0.964972 0.513803
Si Si3 0.982828 0.250000 0.676771
Si Si4 0.750000 0.367786 0.852515
Si Si5 0.851164 0.750000 0.489782
Si Si6 0.928209 0.050427 0.741424
Si Si7 0.908803 0.434634 0.288899
Si Si8 0.359712 0.750000 0.551010
O O1 0.750000 0.250000 0.167277
O O2 0.664346 0.084221 0.190020
O O3 0.750000 0.131095 0.993114
O O4 0.750000 0.993666 0.517342
O O5 0.638358 0.852920 0.554541
O O6 0.593848 0.030404 0.604597
O O7 0.614862 0.978858 0.380652
O O8 0.976581 0.153394 0.752526
O O9 0.902582 0.250000 0.579234
O O10 0.073761 0.250000 0.606713
O O11 0.750000 0.250000 0.817500
O O12 0.664652 0.427893 0.805672
O O13 0.750000 0.750000 0.442801
O O14 0.996484 0.962739 0.768170
O O15 0.897744 0.342052 0.375984
O O16 0.250000 0.750000 0.547473
#
# Coordination Sequence:
#
# PCOD9452689 Si02
#       8
#     4   8   4   4   4   8   8   4
#     4  11  24  45  67  91 116 157 216 268 310 353
#     4  11  20  35  57  89 123 163 195 234 301 371
#     4  12  22  34  54  96 128 154 206 243 301 382
#     4  11  26  45  65  87 120 159 212 272 314 353
#     4  10  22  36  50  82 137 168 191 241 299 369
#     4  12  24  37  63  91 123 163 199 251 311 373
#     4  12  21  37  63  93 122 161 204 249 306 373
#     4  12  22  34  60  98 131 162 199 254 310 361
#
# _framework density 18.722861999999999
#
# number of rings (size 3 to 8) (size 9 to 14) (size 15 to 20)
#    0.000    0.545    8.182    1.636    1.273    0.727 
#    0.000    0.000    0.000    0.000    0.000    5.091 
#    0.000    0.000    0.000    0.000    0.000    0.000 
#
# Total GULP energy -245323.181620 kJ/mol
# GULP energy per Si atom -5575.526855 kJ/mol
# Density = 1.868025 g / cm^3
# Si number density = 18.722862 Si / 1000 Ang^3
#
#
#
# Elastic Constant Matrix: (Units=GPa)
#
#
# Indices 1 2 3 4 5 6 
#
# 1 118.2652 46.4341 34.6338 0.0000 0.0000 0.0000
# 2 46.4341 93.8721 12.7616 0.0000 0.0000 0.0000
# 3 34.6338 12.7616 55.9393 0.0000 0.0000 0.0000
# 4 0.0000 0.0000 0.0000 4.7789 0.0000 0.0000
# 5 0.0000 0.0000 0.0000 0.0000 -68.8463 0.0000
# 6 0.0000 0.0000 0.0000 0.0000 0.0000 28.5805
#
#
#
# Elastic Compliance Matrix: (Units=1/GPa)
#
#
# Indices 1 2 3 4 5 6 
#
# 1 0.012423 -0.005262 -0.006491 0.000000 0.000000 0.000000
# 2 -0.005262 0.013223 0.000242 0.000000 0.000000 0.000000
# 3 -0.006491 0.000242 0.021840 0.000000 0.000000 0.000000
# 4 0.000000 0.000000 0.000000 0.209255 0.000000 0.000000
# 5 0.000000 0.000000 0.000000 0.000000 -0.014525 0.000000
# 6 0.000000 0.000000 0.000000 0.000000 0.000000 0.034989
#
#
# Mechanical properties :
#
#
# Convention : Reuss Voigt Hill
#
# Bulk Modulus (GPa) = 40.87897 50.63727 45.75812
# Shear Modulus (GPa) = 16.21369 4.51907 10.36638
#
# Velocity S-wave (km/s) = 2.94595 1.55528 2.35558
# Velocity P-wave (km/s) = 5.78382 5.50723 5.64722
#
# Compressibility (1/GPa) = 0.02446246
#
# Stress axis : x y z
#
# Youngs Moduli (GPa) = 80.49889 75.62553 45.78755
#
# Poissons Ratio (x) = 0.39798 0.29719
# Poissons Ratio (y) = 0.42362 -0.01106
# Poissons Ratio (z) = 0.52249 -0.01827
#
# Static dielectric constant tensor:
#      x y z
#    x 1.714410 0.000000 0.000000 
#    y 0.000000 1.733860 0.000000 
#    z 0.000000 0.000000 1.608160 
# 
# From -- ./inp_files/16791.got.cif
#   From: 2010.05.17/outbox.cif.g08.bks.cpg/sg59_9_cif.got.tgz:16791.got - 2010.06.03 14:40:33.
