data_PCOD9452879
_publ_section_title
;
Structure prediction by ZEFSAII (Michael W. Deem and Ramdas Pophale) SiO2 
 PCOD9452879
Probable space group: P M M N
;
_chemical_formula_sum "Si O2"
_cell_formula_units_Z 38
_cell_length_a 11.345007
_cell_length_b 9.724330
_cell_length_c 18.331737
_cell_angle_alpha 90.000000
_cell_angle_beta 90.000000
_cell_angle_gamma 90.000000
_cell_volume 2022.404740
_symmetry_space_group_name_H-M "P M M N"
_symmetry_group_IT_number 59
_space_group.IT_coordinate_system_code '2'
_symmetry_cell_setting 'orthorhombic'
loop_
_space_group_symop_operation_xyz
x,y,z
1/2-x,1/2-y,z
1/2+x,-y,-z
-x,1/2+y,-z
-x,-y,-z
1/2+x,1/2+y,-z
1/2-x,y,z
x,1/2-y,z
loop_
_atom_site_type_symbol
_atom_site_label
_atom_site_fract_x
_atom_site_fract_y
_atom_site_fract_z
Si Si1 0.612030 0.250000 0.604534
Si Si2 0.393974 0.583820 0.042427
Si Si3 0.995478 0.750000 0.549758
Si Si4 0.995957 0.020343 0.328764
Si Si5 0.109978 0.100086 0.178563
Si Si6 0.250000 0.250000 0.534131
Si Si7 0.750000 0.904840 0.320871
O O1 0.750000 0.250000 0.616269
O O2 0.582557 0.250000 0.518716
O O3 0.554427 0.118211 0.641874
O O4 0.250000 0.555907 0.025553
O O5 0.408528 0.750000 0.036454
O O6 0.414729 0.525985 0.124403
O O7 0.500000 0.500000 0.000000
O O8 0.865686 0.750000 0.514332
O O9 0.009945 0.620888 0.602544
O O10 0.865948 0.985192 0.301473
O O11 0.064491 0.079696 0.260146
O O12 0.250000 0.106802 0.182314
O O13 0.066631 0.250000 0.150382
O O14 0.250000 0.122711 0.591067
O O15 0.750000 0.750000 0.290037
#
# Coordination Sequence:
#
# PCOD9452879 Si02
#       7
#     4   8   4   8   8   2   4
#     4  12  26  38  62  88 117 157 212 270 318 391
#     4  10  22  42  73 107 141 175 213 260 311 378
#     4  12  26  38  64  86 117 157 212 267 325 378
#     4  12  24  42  60  90 119 163 212 263 321 380
#     4  10  22  42  65  95 131 168 211 264 316 368
#     4  10  22  42  60  82 118 160 200 264 338 382
#     4  10  22  43  57  76 122 162 198 262 329 378
#
# _framework density 18.789512999999999
#
# number of rings (size 3 to 8) (size 9 to 14) (size 15 to 20)
#    0.316    0.842    4.211    1.895    5.895    1.263 
#    1.895    0.000    0.000    0.000    0.000    0.000 
#    0.000    0.000    0.000    0.000    0.000    0.000 
#
# Total GULP energy -211809.272297 kJ/mol
# GULP energy per Si atom -5573.928218 kJ/mol
# Density = 1.874675 g / cm^3
# Si number density = 18.789513 Si / 1000 Ang^3
#
#
#
# Elastic Constant Matrix: (Units=GPa)
#
#
# Indices 1 2 3 4 5 6 
#
# 1 50.6384 41.1542 11.4328 0.0000 0.0000 0.0000
# 2 41.1542 125.5562 26.7732 0.0000 0.0000 0.0000
# 3 11.4328 26.7732 63.5261 0.0000 0.0000 0.0000
# 4 0.0000 0.0000 0.0000 -179.2330 0.0000 0.0000
# 5 0.0000 0.0000 0.0000 0.0000 26.4858 0.0000
# 6 0.0000 0.0000 0.0000 0.0000 0.0000 26.0734
#
#
#
# Elastic Compliance Matrix: (Units=1/GPa)
#
#
# Indices 1 2 3 4 5 6 
#
# 1 0.027007 -0.008588 -0.001241 0.000000 0.000000 0.000000
# 2 -0.008588 0.011482 -0.003293 0.000000 0.000000 0.000000
# 3 -0.001241 -0.003293 0.017353 0.000000 0.000000 0.000000
# 4 0.000000 0.000000 0.000000 -0.005579 0.000000 0.000000
# 5 0.000000 0.000000 0.000000 0.000000 0.037756 0.000000
# 6 0.000000 0.000000 0.000000 0.000000 0.000000 0.038353
#
#
# Mechanical properties :
#
#
# Convention : Reuss Voigt Hill
#
# Bulk Modulus (GPa) = 33.78687 44.27126 39.02907
# Shear Modulus (GPa) = 30.77255 -14.64406 8.06424
#
# Velocity S-wave (km/s) = 4.05130 -2.79476 2.07393
# Velocity P-wave (km/s) = 6.31703 3.63299 5.15284
#
# Compressibility (1/GPa) = 0.02959730
#
# Stress axis : x y z
#
# Youngs Moduli (GPa) = 37.02696 87.09530 57.62703
#
# Poissons Ratio (x) = 0.74795 0.07153
# Poissons Ratio (y) = 0.31798 0.18979
# Poissons Ratio (z) = 0.04596 0.28684
#
# Static dielectric constant tensor:
#      x y z
#    x 1.576340 0.000000 0.000000 
#    y 0.000000 1.600540 0.000000 
#    z 0.000000 0.000000 1.713000 
# 
# From -- ./inp_files/26780.got.cif
#   From: 2010.05.17/outbox.cif.g08.bks.cpg/sg59_14_cif.got.tgz:26780.got - 2010.06.03 14:40:33.
