data_PCOD9452878
_publ_section_title
;
Structure prediction by ZEFSAII (Michael W. Deem and Ramdas Pophale) SiO2 
 PCOD9452878
Probable space group: P M M N
;
_chemical_formula_sum "Si O2"
_cell_formula_units_Z 38
_cell_length_a 11.431705
_cell_length_b 10.156433
_cell_length_c 18.795644
_cell_angle_alpha 90.000000
_cell_angle_beta 90.000000
_cell_angle_gamma 90.000000
_cell_volume 2182.274748
_symmetry_space_group_name_H-M "P M M N"
_symmetry_group_IT_number 59
_space_group.IT_coordinate_system_code '2'
_symmetry_cell_setting 'orthorhombic'
loop_
_space_group_symop_operation_xyz
x,y,z
1/2-x,1/2-y,z
1/2+x,-y,-z
-x,1/2+y,-z
-x,-y,-z
1/2+x,1/2+y,-z
1/2-x,y,z
x,1/2-y,z
loop_
_atom_site_type_symbol
_atom_site_label
_atom_site_fract_x
_atom_site_fract_y
_atom_site_fract_z
Si Si1 0.611604 0.250000 0.578331
Si Si2 0.392083 0.409454 0.032031
Si Si3 0.984775 0.750000 0.568055
Si Si4 0.002141 0.992872 0.335437
Si Si5 0.111642 0.102955 0.199929
Si Si6 0.250000 0.250000 0.521341
Si Si7 0.750000 0.897979 0.339227
O O1 0.750000 0.250000 0.588552
O O2 0.580930 0.250000 0.494571
O O3 0.553680 0.124796 0.617016
O O4 0.250000 0.437992 0.015387
O O5 0.407267 0.250000 0.017714
O O6 0.405529 0.428960 0.117178
O O7 0.500000 0.500000 0.000000
O O8 0.987984 0.623287 0.617716
O O9 0.863550 0.750000 0.525738
O O10 0.867057 0.969059 0.319559
O O11 0.063933 0.006764 0.259691
O O12 0.250000 0.109726 0.210666
O O13 0.062041 0.250000 0.212702
O O14 0.250000 0.126649 0.575297
O O15 0.750000 0.750000 0.309041
#
# Coordination Sequence:
#
# PCOD9452878 Si02
#       7
#     4   8   4   8   8   2   4
#     4  12  26  38  58  84 115 147 194 252 292 355
#     4   9  19  39  67  95 128 161 197 243 295 355
#     4  12  26  36  64  84 107 147 202 247 297 350
#     4  12  23  41  59  85 111 154 198 242 298 348
#     4   9  19  39  63  90 120 153 195 246 290 337
#     4  10  22  42  56  82 110 152 188 240 316 350
#     4  10  22  43  55  70 122 156 182 242 310 348
#
# _framework density 17.413024
#
# number of rings (size 3 to 8) (size 9 to 14) (size 15 to 20)
#    0.316    1.263    4.211    2.526    4.421    0.421 
#    3.789    0.000    0.000    0.000    0.000    0.000 
#    0.000    0.000    0.000    0.000    0.000    0.000 
#
# Total GULP energy -211625.958477 kJ/mol
# GULP energy per Si atom -5569.104170 kJ/mol
# Density = 1.737339 g / cm^3
# Si number density = 17.413024 Si / 1000 Ang^3
#
#
#
# Elastic Constant Matrix: (Units=GPa)
#
#
# Indices 1 2 3 4 5 6 
#
# 1 112.3324 43.7251 48.8079 0.0000 0.0000 0.0000
# 2 43.7251 104.3588 41.6629 0.0000 0.0000 0.0000
# 3 48.8079 41.6629 78.3265 0.0000 0.0000 0.0000
# 4 0.0000 0.0000 0.0000 5.0022 0.0000 0.0000
# 5 0.0000 0.0000 0.0000 0.0000 54.4721 0.0000
# 6 0.0000 0.0000 0.0000 0.0000 0.0000 30.4216
#
#
#
# Elastic Compliance Matrix: (Units=1/GPa)
#
#
# Indices 1 2 3 4 5 6 
#
# 1 0.012807 -0.002768 -0.006509 0.000000 0.000000 0.000000
# 2 -0.002768 0.012764 -0.005065 0.000000 0.000000 0.000000
# 3 -0.006509 -0.005065 0.019517 0.000000 0.000000 0.000000
# 4 0.000000 0.000000 0.000000 0.199910 0.000000 0.000000
# 5 0.000000 0.000000 0.000000 0.000000 0.018358 0.000000
# 6 0.000000 0.000000 0.000000 0.000000 0.000000 0.032871
#
#
# Mechanical properties :
#
#
# Convention : Reuss Voigt Hill
#
# Bulk Modulus (GPa) = 60.95249 62.60106 61.77677
# Shear Modulus (GPa) = 15.13417 28.70065 21.91741
#
# Velocity S-wave (km/s) = 2.95130 4.06424 3.55164
# Velocity P-wave (km/s) = 6.83326 7.61924 7.23693
#
# Compressibility (1/GPa) = 0.01640622
#
# Stress axis : x y z
#
# Youngs Moduli (GPa) = 78.07973 78.34585 51.23816
#
# Poissons Ratio (x) = 0.21684 0.33349
# Poissons Ratio (y) = 0.21611 0.25950
# Poissons Ratio (z) = 0.50818 0.39679
#
# Static dielectric constant tensor:
#      x y z
#    x 1.616450 0.000000 0.000000 
#    y 0.000000 1.607480 0.000000 
#    z 0.000000 0.000000 1.593080 
# 
# From -- ./inp_files/26781.got.cif
#   From: 2010.05.17/outbox.cif.g08.bks.cpg/sg59_14_cif.got.tgz:26781.got - 2010.06.03 14:40:33.
