data_PCOD9452808
_publ_section_title
;
Structure prediction by ZEFSAII (Michael W. Deem and Ramdas Pophale) SiO2 
 PCOD9452808
Probable space group: P M M N
;
_chemical_formula_sum "Si O2"
_cell_formula_units_Z 56
_cell_length_a 8.260063
_cell_length_b 15.792596
_cell_length_c 20.992465
_cell_angle_alpha 90.000000
_cell_angle_beta 90.000000
_cell_angle_gamma 90.000000
_cell_volume 2738.421671
_symmetry_space_group_name_H-M "P M M N"
_symmetry_group_IT_number 59
_space_group.IT_coordinate_system_code '2'
_symmetry_cell_setting 'orthorhombic'
loop_
_space_group_symop_operation_xyz
x,y,z
1/2-x,1/2-y,z
1/2+x,-y,-z
-x,1/2+y,-z
-x,-y,-z
1/2+x,1/2+y,-z
1/2-x,y,z
x,1/2-y,z
loop_
_atom_site_type_symbol
_atom_site_label
_atom_site_fract_x
_atom_site_fract_y
_atom_site_fract_z
Si Si1 0.559507 0.152785 0.156169
Si Si2 0.448712 0.417128 0.430834
Si Si3 0.061246 0.392371 0.565697
Si Si4 0.556281 0.152813 0.838993
Si Si5 0.564955 0.648549 0.707070
Si Si6 0.566566 0.649068 0.297644
Si Si7 0.557714 0.497851 0.927653
O O1 0.750000 0.155505 0.144194
O O2 0.496003 0.250000 0.149185
O O3 0.530153 0.124813 0.229366
O O4 0.484927 0.084090 0.109239
O O5 0.250000 0.426649 0.432887
O O6 0.537511 0.506842 0.435432
O O7 0.494652 0.365288 0.494970
O O8 0.492969 0.380600 0.362125
O O9 0.250000 0.366827 0.569665
O O10 0.986349 0.367080 0.633521
O O11 0.750000 0.157110 0.845523
O O12 0.494742 0.250000 0.847437
O O13 0.519819 0.121826 0.767027
O O14 0.491439 0.083802 0.888827
O O15 0.750000 0.618062 0.714823
O O16 0.566446 0.750000 0.705106
O O17 0.750000 0.613395 0.297532
O O18 0.577187 0.750000 0.293056
O O19 0.750000 0.489624 0.928016
O O20 0.500000 0.500000 0.000000
#
# Coordination Sequence:
#
# PCOD9452808 Si02
#       7
#     8   8   8   8   8   8   8
#     4  10  22  40  61  86 118 155 193 237 288 340
#     4   9  18  31  47  69 100 138 180 224 274 329
#     4   9  18  31  46  69 101 138 178 224 275 325
#     4   9  20  39  60  83 114 150 186 226 274 331
#     4   9  18  33  53  77 104 138 183 232 281 334
#     4   9  18  32  51  76 104 136 178 226 274 323
#     4  11  24  41  63  92 121 152 190 229 278 340
#
# _framework density 20.449736000000001
#
# number of rings (size 3 to 8) (size 9 to 14) (size 15 to 20)
#    0.000    2.571    0.000    0.857    2.000    4.286 
#    0.000    4.286    0.000    0.000    0.000    8.000 
#    0.000    0.000    0.000    0.000    0.000    0.000 
#
# Total GULP energy -311987.546138 kJ/mol
# GULP energy per Si atom -5571.206181 kJ/mol
# Density = 2.040319 g / cm^3
# Si number density = 20.449736 Si / 1000 Ang^3
#
#
#
# Elastic Constant Matrix: (Units=GPa)
#
#
# Indices 1 2 3 4 5 6 
#
# 1 15.4373 11.9104 17.5912 0.0000 0.0000 0.0000
# 2 11.9104 64.9069 71.0592 0.0000 0.0000 0.0000
# 3 17.5912 71.0592 198.1909 0.0000 0.0000 0.0000
# 4 0.0000 0.0000 0.0000 62.5981 0.0000 0.0000
# 5 0.0000 0.0000 0.0000 0.0000 24.7999 0.0000
# 6 0.0000 0.0000 0.0000 0.0000 0.0000 17.8512
#
#
#
# Elastic Compliance Matrix: (Units=1/GPa)
#
#
# Indices 1 2 3 4 5 6 
#
# 1 0.076455 -0.010865 -0.002891 0.000000 0.000000 0.000000
# 2 -0.010865 0.026906 -0.008682 0.000000 0.000000 0.000000
# 3 -0.002891 -0.008682 0.008415 0.000000 0.000000 0.000000
# 4 0.000000 0.000000 0.000000 0.015975 0.000000 0.000000
# 5 0.000000 0.000000 0.000000 0.000000 0.040323 0.000000
# 6 0.000000 0.000000 0.000000 0.000000 0.000000 0.056019
#
#
# Mechanical properties :
#
#
# Convention : Reuss Voigt Hill
#
# Bulk Modulus (GPa) = 14.94769 53.29518 34.12144
# Shear Modulus (GPa) = 17.16634 32.91478 25.04056
#
# Velocity S-wave (km/s) = 2.90045 4.01627 3.50307
# Velocity P-wave (km/s) = 4.30606 6.90111 5.75185
#
# Compressibility (1/GPa) = 0.06689995
#
# Stress axis : x y z
#
# Youngs Moduli (GPa) = 13.07965 37.16667 118.83263
#
# Poissons Ratio (x) = 0.40381 0.34349
# Poissons Ratio (y) = 0.14211 1.03176
# Poissons Ratio (z) = 0.03781 0.32270
#
# Static dielectric constant tensor:
#      x y z
#    x 1.764110 0.000000 0.000000 
#    y 0.000000 1.740960 0.000000 
#    z 0.000000 0.000000 1.767790 
# 
# From -- ./inp_files/29112.got.cif
#   From: 2010.05.17/outbox.cif.g08.bks.cpg/sg59_15_cif.got.tgz:29112.got - 2010.06.03 14:40:33.
