data_PCOD9452537
_publ_section_title
;
Structure prediction by ZEFSAII (Michael W. Deem and Ramdas Pophale) SiO2 
 PCOD9452537
Probable space group: P M M N
;
_chemical_formula_sum "Si O2"
_cell_formula_units_Z 40
_cell_length_a 15.144221
_cell_length_b 17.481274
_cell_length_c 7.794813
_cell_angle_alpha 90.000000
_cell_angle_beta 90.000000
_cell_angle_gamma 90.000000
_cell_volume 2063.600951
_symmetry_space_group_name_H-M "P M M N"
_symmetry_group_IT_number 59
_space_group.IT_coordinate_system_code '2'
_symmetry_cell_setting 'orthorhombic'
loop_
_space_group_symop_operation_xyz
x,y,z
1/2-x,1/2-y,z
1/2+x,-y,-z
-x,1/2+y,-z
-x,-y,-z
1/2+x,1/2+y,-z
1/2-x,y,z
x,1/2-y,z
loop_
_atom_site_type_symbol
_atom_site_label
_atom_site_fract_x
_atom_site_fract_y
_atom_site_fract_z
Si Si1 0.102828 0.007019 0.542910
Si Si2 0.148888 0.913405 0.882772
Si Si3 0.468131 0.164131 0.074238
Si Si4 0.346480 0.464049 0.185362
Si Si5 0.853305 0.663240 0.271776
O O1 0.130887 0.951795 0.697837
O O2 0.149949 0.990550 0.363035
O O3 0.126492 0.093378 0.601800
O O4 0.000000 0.000000 0.500000
O O5 0.250000 0.885313 0.890043
O O6 0.072007 0.853629 0.926273
O O7 0.139662 0.980460 0.024548
O O8 0.451901 0.250000 0.135325
O O9 0.421259 0.099902 0.187714
O O10 0.419779 0.156279 0.889458
O O11 0.250000 0.427599 0.167774
O O12 0.750000 0.655988 0.218184
O O13 0.863782 0.750000 0.341631
#
# Coordination Sequence:
#
# PCOD9452537 Si02
#       5
#     8   8   8   8   8
#     4  12  22  38  62  89 122 158 202 246 298 360
#     4  11  23  42  63  86 122 161 203 254 299 352
#     4  11  22  38  60  88 121 160 200 242 298 360
#     4  11  22  37  63  92 117 152 201 251 303 360
#     4  10  21  38  61  91 128 163 196 247 313 367
#
# _framework density 19.383592
#
# number of rings (size 3 to 8) (size 9 to 14) (size 15 to 20)
#    0.000    1.000    4.000    4.200    0.000    2.400 
#    0.000    0.000    0.000    0.000    0.000    2.800 
#    0.000    0.000    0.000    0.000    0.000    0.000 
#
# Total GULP energy -223367.579391 kJ/mol
# GULP energy per Si atom -5584.189485 kJ/mol
# Density = 1.933947 g / cm^3
# Si number density = 19.383592 Si / 1000 Ang^3
#
#
#
# Elastic Constant Matrix: (Units=GPa)
#
#
# Indices 1 2 3 4 5 6 
#
# 1 109.5678 13.1808 21.3172 0.0000 0.0000 0.0000
# 2 13.1808 21.5083 5.4309 0.0000 0.0000 0.0000
# 3 21.3172 5.4309 91.1552 0.0000 0.0000 0.0000
# 4 0.0000 0.0000 0.0000 9.5296 0.0000 0.0000
# 5 0.0000 0.0000 0.0000 0.0000 16.1519 0.0000
# 6 0.0000 0.0000 0.0000 0.0000 0.0000 26.1994
#
#
#
# Elastic Compliance Matrix: (Units=1/GPa)
#
#
# Indices 1 2 3 4 5 6 
#
# 1 0.010216 -0.005744 -0.002047 0.000000 0.000000 0.000000
# 2 -0.005744 0.050433 -0.001662 0.000000 0.000000 0.000000
# 3 -0.002047 -0.001662 0.011548 0.000000 0.000000 0.000000
# 4 0.000000 0.000000 0.000000 0.104937 0.000000 0.000000
# 5 0.000000 0.000000 0.000000 0.000000 0.061912 0.000000
# 6 0.000000 0.000000 0.000000 0.000000 0.000000 0.038169
#
#
# Mechanical properties :
#
#
# Convention : Reuss Voigt Hill
#
# Bulk Modulus (GPa) = 18.76427 33.56545 26.16486
# Shear Modulus (GPa) = 15.92949 22.52966 19.22958
#
# Velocity S-wave (km/s) = 2.86982 3.41296 3.15311
# Velocity P-wave (km/s) = 4.54782 5.73455 5.17531
#
# Compressibility (1/GPa) = 0.05329278
#
# Stress axis : x y z
#
# Youngs Moduli (GPa) = 97.88598 19.82822 86.59531
#
# Poissons Ratio (x) = 0.11389 0.17725
# Poissons Ratio (y) = 0.56223 0.14388
# Poissons Ratio (z) = 0.20036 0.03295
#
# Static dielectric constant tensor:
#      x y z
#    x 1.622870 0.000000 0.000000 
#    y 0.000000 1.659610 0.000000 
#    z 0.000000 0.000000 1.697890 
# 
# From -- ./inp_files/8612.got.cif
#   From: 2010.05.17/outbox.cif.g08.bks.cpg/sg59_5_cif.got.tgz:8612.got - 2010.06.03 14:40:33.
