data_PCOD9452796
_publ_section_title
;
Structure prediction by ZEFSAII (Michael W. Deem and Ramdas Pophale) SiO2 
 PCOD9452796
Probable space group: P M M N
;
_chemical_formula_sum "Si O2"
_cell_formula_units_Z 48
_cell_length_a 8.628051
_cell_length_b 31.709225
_cell_length_c 9.158772
_cell_angle_alpha 90.000000
_cell_angle_beta 90.000000
_cell_angle_gamma 90.000000
_cell_volume 2505.737537
_symmetry_space_group_name_H-M "P M M N"
_symmetry_group_IT_number 59
_space_group.IT_coordinate_system_code '2'
_symmetry_cell_setting 'orthorhombic'
loop_
_space_group_symop_operation_xyz
x,y,z
1/2-x,1/2-y,z
1/2+x,-y,-z
-x,1/2+y,-z
-x,-y,-z
1/2+x,1/2+y,-z
1/2-x,y,z
x,1/2-y,z
loop_
_atom_site_type_symbol
_atom_site_label
_atom_site_fract_x
_atom_site_fract_y
_atom_site_fract_z
Si Si1 0.562911 0.082189 0.830150
Si Si2 0.936364 0.750000 0.172842
Si Si3 0.064309 0.499204 0.663702
Si Si4 0.563802 0.666045 0.663453
Si Si5 0.438479 0.250000 0.164390
Si Si6 0.562571 0.415281 0.169493
Si Si7 0.936114 0.332144 0.664226
O O1 0.750000 0.079401 0.824795
O O2 0.494933 0.041810 0.748588
O O3 0.516516 0.125227 0.748804
O O4 0.516091 0.083386 0.999769
O O5 0.750000 0.750000 0.176242
O O6 0.997170 0.791455 0.254125
O O7 0.988898 0.750000 0.003912
O O8 0.250000 0.498435 0.658368
O O9 0.016530 0.541589 0.749498
O O10 0.000000 0.500000 0.500000
O O11 0.750000 0.666446 0.654823
O O12 0.512197 0.707931 0.750714
O O13 0.508587 0.624777 0.749394
O O14 0.495659 0.666340 0.501124
O O15 0.250000 0.250000 0.163548
O O16 0.750000 0.411994 0.175687
O O17 0.750000 0.329984 0.664637
#
# Coordination Sequence:
#
# PCOD9452796 Si02
#       7
#     8   4   8   8   4   8   8
#     4  10  22  40  61  84 115 152 193 240 290 344
#     4  11  22  39  62  86 114 149 190 237 282 334
#     4  11  23  38  59  85 116 152 192 238 291 347
#     4  11  22  38  61  87 116 154 195 237 285 342
#     4   9  21  39  58  84 116 147 186 235 284 330
#     4  10  22  40  59  84 117 152 190 239 293 345
#     4  11  23  39  59  86 118 152 189 234 287 341
#
# _framework density 19.156037000000001
#
# number of rings (size 3 to 8) (size 9 to 14) (size 15 to 20)
#    0.000    1.500    0.000    4.750    0.000    8.000 
#    0.000    3.750    0.000    0.000    0.000    0.000 
#    0.000    0.000    0.000    0.000    0.000    0.000 
#
# Total GULP energy -268470.370238 kJ/mol
# GULP energy per Si atom -5593.132713 kJ/mol
# Density = 1.911244 g / cm^3
# Si number density = 19.156037 Si / 1000 Ang^3
#
#
#
# Elastic Constant Matrix: (Units=GPa)
#
#
# Indices 1 2 3 4 5 6 
#
# 1 37.5933 56.6409 52.8053 0.0000 0.0000 0.0000
# 2 56.6409 239.4769 146.4262 0.0000 0.0000 0.0000
# 3 52.8053 146.4262 238.6525 0.0000 0.0000 0.0000
# 4 0.0000 0.0000 0.0000 45.9833 0.0000 0.0000
# 5 0.0000 0.0000 0.0000 0.0000 32.4013 0.0000
# 6 0.0000 0.0000 0.0000 0.0000 0.0000 31.4742
#
#
#
# Elastic Compliance Matrix: (Units=1/GPa)
#
#
# Indices 1 2 3 4 5 6 
#
# 1 0.045492 -0.007370 -0.005544 0.000000 0.000000 0.000000
# 2 -0.007370 0.007877 -0.003202 0.000000 0.000000 0.000000
# 3 -0.005544 -0.003202 0.007382 0.000000 0.000000 0.000000
# 4 0.000000 0.000000 0.000000 0.021747 0.000000 0.000000
# 5 0.000000 0.000000 0.000000 0.000000 0.030863 0.000000
# 6 0.000000 0.000000 0.000000 0.000000 0.000000 0.031772
#
#
# Mechanical properties :
#
#
# Convention : Reuss Voigt Hill
#
# Bulk Modulus (GPa) = 35.06530 114.16305 74.61418
# Shear Modulus (GPa) = 26.75655 39.29510 33.02583
#
# Velocity S-wave (km/s) = 3.74139 4.53406 4.15666
# Velocity P-wave (km/s) = 6.08349 9.33467 7.87861
#
# Compressibility (1/GPa) = 0.02851822
#
# Stress axis : x y z
#
# Youngs Moduli (GPa) = 21.98203 126.95460 135.47296
#
# Poissons Ratio (x) = 0.93565 0.75104
# Poissons Ratio (y) = 0.16201 0.43381
# Poissons Ratio (z) = 0.12187 0.40653
#
# Static dielectric constant tensor:
#      x y z
#    x 1.654430 0.000000 0.000000 
#    y 0.000000 1.628570 0.000000 
#    z 0.000000 0.000000 1.631120 
# 
# From -- ./inp_files/6384.got.cif
#   From: 2010.05.17/outbox.cif.g08.bks.cpg/sg59_4_cif.got.tgz:6384.got - 2010.06.03 14:40:33.
