data_PCOD9452495
_publ_section_title
;
Structure prediction by ZEFSAII (Michael W. Deem and Ramdas Pophale) SiO2 
 PCOD9452495
Probable space group: P M M N
;
_chemical_formula_sum "Si O2"
_cell_formula_units_Z 48
_cell_length_a 9.240590
_cell_length_b 18.282000
_cell_length_c 15.268947
_cell_angle_alpha 90.000000
_cell_angle_beta 90.000000
_cell_angle_gamma 90.000000
_cell_volume 2579.481952
_symmetry_space_group_name_H-M "P M M N"
_symmetry_group_IT_number 59
_space_group.IT_coordinate_system_code '2'
_symmetry_cell_setting 'orthorhombic'
loop_
_space_group_symop_operation_xyz
x,y,z
1/2-x,1/2-y,z
1/2+x,-y,-z
-x,1/2+y,-z
-x,-y,-z
1/2+x,1/2+y,-z
1/2-x,y,z
x,1/2-y,z
loop_
_atom_site_type_symbol
_atom_site_label
_atom_site_fract_x
_atom_site_fract_y
_atom_site_fract_z
Si Si1 0.079348 0.750000 0.050631
Si Si2 0.415237 0.107195 0.968236
Si Si3 0.077329 0.335169 0.431238
Si Si4 0.416362 0.006173 0.140644
Si Si5 0.423413 0.957086 0.685668
Si Si6 0.077998 0.750000 0.258838
Si Si7 0.921394 0.624247 0.366124
O O1 0.250000 0.750000 0.036681
O O2 0.050676 0.750000 0.155015
O O3 0.005079 0.821064 0.011741
O O4 0.250000 0.123682 0.943869
O O5 0.495011 0.064806 0.889860
O O6 0.414049 0.056973 0.054560
O O7 0.250000 0.344425 0.415390
O O8 0.040985 0.250000 0.413680
O O9 0.051550 0.352222 0.533678
O O10 0.988748 0.393028 0.373990
O O11 0.250000 0.988498 0.163770
O O12 0.498891 0.043881 0.220263
O O13 0.250000 0.949946 0.693246
O O14 0.454947 0.038469 0.647387
O O15 0.250000 0.750000 0.272699
O O16 0.009141 0.678222 0.303275
O O17 0.750000 0.634125 0.348855
#
# Coordination Sequence:
#
# PCOD9452495 Si02
#       7
#     4   8   8   8   8   4   8
#     4  11  23  37  55  86 121 154 191 237 292 349
#     4  10  21  38  61  86 115 153 194 240 292 346
#     4  10  21  40  62  82 114 159 197 238 295 349
#     4  10  21  39  61  85 116 154 194 239 291 350
#     4  11  23  37  60  91 118 151 198 246 290 346
#     4  11  23  35  55  88 121 152 189 239 292 343
#     4  10  21  39  60  84 117 156 194 236 292 351
#
# _framework density 18.608385999999999
#
# number of rings (size 3 to 8) (size 9 to 14) (size 15 to 20)
#    0.000    1.667    0.833    3.500    0.000    8.333 
#    1.500    0.000    0.000    0.000    0.000    0.000 
#    0.000    0.000    0.000    0.000    0.000    0.000 
#
# Total GULP energy -268218.616277 kJ/mol
# GULP energy per Si atom -5587.887839 kJ/mol
# Density = 1.856603 g / cm^3
# Si number density = 18.608386 Si / 1000 Ang^3
#
#
#
# Elastic Constant Matrix: (Units=GPa)
#
#
# Indices 1 2 3 4 5 6 
#
# 1 85.1377 46.3624 27.0710 0.0000 0.0000 0.0000
# 2 46.3624 86.0684 13.0212 0.0000 0.0000 0.0000
# 3 27.0710 13.0212 33.2283 0.0000 0.0000 0.0000
# 4 0.0000 0.0000 0.0000 2.6190 0.0000 0.0000
# 5 0.0000 0.0000 0.0000 0.0000 27.4663 0.0000
# 6 0.0000 0.0000 0.0000 0.0000 0.0000 38.1450
#
#
#
# Elastic Compliance Matrix: (Units=1/GPa)
#
#
# Indices 1 2 3 4 5 6 
#
# 1 0.021144 -0.009337 -0.013567 0.000000 0.000000 0.000000
# 2 -0.009337 0.016474 0.001151 0.000000 0.000000 0.000000
# 3 -0.013567 0.001151 0.040697 0.000000 0.000000 0.000000
# 4 0.000000 0.000000 0.000000 0.381819 0.000000 0.000000
# 5 0.000000 0.000000 0.000000 0.000000 0.036408 0.000000
# 6 0.000000 0.000000 0.000000 0.000000 0.000000 0.026216
#
#
# Mechanical properties :
#
#
# Convention : Reuss Voigt Hill
#
# Bulk Modulus (GPa) = 28.72821 41.92705 35.32763
# Shear Modulus (GPa) = 8.65251 21.51139 15.08195
#
# Velocity S-wave (km/s) = 2.15868 3.40370 2.85000
# Velocity P-wave (km/s) = 4.65672 6.16661 5.46407
#
# Compressibility (1/GPa) = 0.03480899
#
# Stress axis : x y z
#
# Youngs Moduli (GPa) = 47.29418 60.70114 24.57193
#
# Poissons Ratio (x) = 0.56678 0.33337
# Poissons Ratio (y) = 0.44160 -0.02829
# Poissons Ratio (z) = 0.64165 -0.06988
#
# Static dielectric constant tensor:
#      x y z
#    x 1.623410 0.000000 0.000000 
#    y 0.000000 1.689530 0.000000 
#    z 0.000000 0.000000 1.621510 
# 
# From -- ./inp_files/20509.got.cif
#   From: 2010.05.17/outbox.cif.g08.bks.cpg/sg59_11_cif.got.tgz:20509.got - 2010.06.03 14:40:33.
