data_PCOD9452358
_publ_section_title
;
Structure prediction by ZEFSAII (Michael W. Deem and Ramdas Pophale) SiO2 
 PCOD9452358
Probable space group: P M M N
;
_chemical_formula_sum "Si O2"
_cell_formula_units_Z 48
_cell_length_a 15.773518
_cell_length_b 17.886723
_cell_length_c 9.235365
_cell_angle_alpha 90.000000
_cell_angle_beta 90.000000
_cell_angle_gamma 90.000000
_cell_volume 2605.633993
_symmetry_space_group_name_H-M "P M M N"
_symmetry_group_IT_number 59
_space_group.IT_coordinate_system_code '2'
_symmetry_cell_setting 'orthorhombic'
loop_
_space_group_symop_operation_xyz
x,y,z
1/2-x,1/2-y,z
1/2+x,-y,-z
-x,1/2+y,-z
-x,-y,-z
1/2+x,1/2+y,-z
1/2-x,y,z
x,1/2-y,z
loop_
_atom_site_type_symbol
_atom_site_label
_atom_site_fract_x
_atom_site_fract_y
_atom_site_fract_z
Si Si1 0.250000 0.337325 0.695840
Si Si2 0.014575 0.662276 0.644631
Si Si3 0.473094 0.561892 0.202484
Si Si4 0.250000 0.336483 0.044166
Si Si5 0.894230 0.563229 0.446502
Si Si6 0.347531 0.597563 0.440405
Si Si7 0.434830 0.401750 0.080681
O O1 0.250000 0.250000 0.653571
O O2 0.329192 0.382356 0.632633
O O3 0.250000 0.340904 0.869469
O O4 0.000474 0.750000 0.624269
O O5 0.103382 0.639716 0.569981
O O6 0.945032 0.613203 0.560154
O O7 0.998639 0.640505 0.810878
O O8 0.538675 0.535589 0.326460
O O9 0.401600 0.606310 0.292218
O O10 0.434988 0.489107 0.124740
O O11 0.527087 0.605075 0.080989
O O12 0.250000 0.250000 0.088703
O O13 0.338770 0.372434 0.093924
O O14 0.853367 0.490889 0.520328
O O15 0.250000 0.619628 0.426548
#
# Coordination Sequence:
#
# PCOD9452358 Si02
#       7
#     4   8   8   4   8   8   8
#     4  11  22  35  57  91 126 163 198 243 303 370
#     4  11  23  39  60  87 121 158 199 252 307 357
#     4  10  21  37  61  85 119 158 202 244 292 360
#     4  11  24  37  55  87 129 163 190 235 304 376
#     4  11  19  40  60  88 120 158 201 244 300 363
#     4  11  22  40  64  88 117 157 208 257 298 352
#     4  11  21  38  59  88 124 158 197 243 300 363
#
# _framework density 18.421619
#
# number of rings (size 3 to 8) (size 9 to 14) (size 15 to 20)
#    0.000    1.167    5.833    2.000    1.167    1.000 
#    0.000    3.333    0.000    0.000    0.000    0.000 
#    0.000    0.000    0.000    0.000    0.000    0.000 
#
# Total GULP energy -267957.707947 kJ/mol
# GULP energy per Si atom -5582.452249 kJ/mol
# Density = 1.837969 g / cm^3
# Si number density = 18.421619 Si / 1000 Ang^3
#
#
#
# Elastic Constant Matrix: (Units=GPa)
#
#
# Indices 1 2 3 4 5 6 
#
# 1 121.2066 14.5561 35.4013 0.0000 0.0000 0.0000
# 2 14.5561 66.6060 10.8959 0.0000 0.0000 0.0000
# 3 35.4013 10.8959 87.5673 0.0000 0.0000 0.0000
# 4 0.0000 0.0000 0.0000 16.2186 0.0000 0.0000
# 5 0.0000 0.0000 0.0000 0.0000 23.5779 0.0000
# 6 0.0000 0.0000 0.0000 0.0000 0.0000 12.7848
#
#
#
# Elastic Compliance Matrix: (Units=1/GPa)
#
#
# Indices 1 2 3 4 5 6 
#
# 1 0.009495 -0.001477 -0.003655 0.000000 0.000000 0.000000
# 2 -0.001477 0.015555 -0.001338 0.000000 0.000000 0.000000
# 3 -0.003655 -0.001338 0.013064 0.000000 0.000000 0.000000
# 4 0.000000 0.000000 0.000000 0.061658 0.000000 0.000000
# 5 0.000000 0.000000 0.000000 0.000000 0.042413 0.000000
# 6 0.000000 0.000000 0.000000 0.000000 0.000000 0.078218
#
#
# Mechanical properties :
#
#
# Convention : Reuss Voigt Hill
#
# Bulk Modulus (GPa) = 39.72397 44.12071 41.92234
# Shear Modulus (GPa) = 20.68381 24.81802 22.75091
#
# Velocity S-wave (km/s) = 3.35446 3.67443 3.51809
# Velocity P-wave (km/s) = 6.05093 6.48109 6.26970
#
# Compressibility (1/GPa) = 0.02517372
#
# Stress axis : x y z
#
# Youngs Moduli (GPa) = 105.31543 64.28621 76.54683
#
# Poissons Ratio (x) = 0.09496 0.27977
# Poissons Ratio (y) = 0.15557 0.10245
# Poissons Ratio (z) = 0.38492 0.08604
#
# Static dielectric constant tensor:
#      x y z
#    x 1.634250 0.000000 0.000000 
#    y 0.000000 1.621000 0.000000 
#    z 0.000000 0.000000 1.658100 
# 
# From -- ./inp_files/9067.got.cif
#   From: 2010.05.17/outbox.cif.g08.bks.cpg/sg59_5_cif.got.tgz:9067.got - 2010.06.03 14:40:33.
