data_PCOD9452117
_publ_section_title
;
Structure prediction by ZEFSAII (Michael W. Deem and Ramdas Pophale) SiO2 
 PCOD9452117
Probable space group: P M M N
;
_chemical_formula_sum "Si O2"
_cell_formula_units_Z 64
_cell_length_a 7.781629
_cell_length_b 19.541211
_cell_length_c 21.638043
_cell_angle_alpha 90.000000
_cell_angle_beta 90.000000
_cell_angle_gamma 90.000000
_cell_volume 3290.333923
_symmetry_space_group_name_H-M "P M M N"
_symmetry_group_IT_number 59
_space_group.IT_coordinate_system_code '2'
_symmetry_cell_setting 'orthorhombic'
loop_
_space_group_symop_operation_xyz
x,y,z
1/2-x,1/2-y,z
1/2+x,-y,-z
-x,1/2+y,-z
-x,-y,-z
1/2+x,1/2+y,-z
1/2-x,y,z
x,1/2-y,z
loop_
_atom_site_type_symbol
_atom_site_label
_atom_site_fract_x
_atom_site_fract_y
_atom_site_fract_z
Si Si1 0.952457 0.920651 0.001899
Si Si2 0.045693 0.827722 0.886130
Si Si3 0.460247 0.171056 0.886431
Si Si4 0.457595 0.419701 0.365260
Si Si5 0.956536 0.919320 0.500154
Si Si6 0.956564 0.672051 0.747500
Si Si7 0.959739 0.828939 0.252605
Si Si8 0.957195 0.920009 0.365725
O O1 0.750000 0.918501 0.009968
O O2 0.992295 0.879699 0.939332
O O3 0.026549 0.879154 0.060516
O O4 0.000000 0.000000 0.000000
O O5 0.250000 0.823234 0.888223
O O6 0.975251 0.750000 0.895509
O O7 0.996558 0.851019 0.817153
O O8 0.250000 0.170611 0.886611
O O9 0.510966 0.250000 0.898173
O O10 0.513962 0.151505 0.816867
O O11 0.250000 0.415027 0.365786
O O12 0.519632 0.393941 0.432940
O O13 0.522416 0.376366 0.307117
O O14 0.501740 0.499727 0.359296
O O15 0.750000 0.911405 0.500119
O O16 0.020377 0.894308 0.433243
O O17 0.000000 0.000000 0.500000
O O18 0.750000 0.674179 0.742216
O O19 0.021609 0.750000 0.741271
O O20 0.750000 0.831027 0.252927
O O21 0.008876 0.750000 0.262946
O O22 0.022424 0.877295 0.307441
O O23 0.750000 0.913929 0.366400
#
# Coordination Sequence:
#
# PCOD9452117 Si02
#       8
#     8   8   8   8   8   8   8   8
#     4  11  22  35  52  76 105 133 163 202 246 290
#     4  10  21  37  56  76  98 127 164 205 249 299
#     4   8  15  29  49  70  92 123 160 192 227 278
#     4   9  17  29  45  65  91 124 159 196 235 277
#     4   8  14  25  40  61  90 121 155 191 229 277
#     4   9  18  33  51  70  94 126 162 198 241 295
#     4   8  14  26  44  67  93 117 146 187 229 268
#     4   9  16  26  44  69  93 121 156 193 235 281
#
# _framework density 19.450913
#
# number of rings (size 3 to 8) (size 9 to 14) (size 15 to 20)
#    0.000    3.000    0.000    1.875    0.000    2.750 
#    0.000    1.875    0.000    4.875    0.000    3.500 
#    0.000   10.000    0.000    0.000    0.000    0.000 
#
# Total GULP energy -356622.211910 kJ/mol
# GULP energy per Si atom -5572.222061 kJ/mol
# Density = 1.940664 g / cm^3
# Si number density = 19.450913 Si / 1000 Ang^3
#
#
#
# Elastic Constant Matrix: (Units=GPa)
#
#
# Indices 1 2 3 4 5 6 
#
# 1 28.0676 5.2246 8.7531 0.0000 0.0000 0.0000
# 2 5.2246 91.5834 125.5386 0.0000 0.0000 0.0000
# 3 8.7531 125.5386 240.0689 0.0000 0.0000 0.0000
# 4 0.0000 0.0000 0.0000 37.0786 0.0000 0.0000
# 5 0.0000 0.0000 0.0000 0.0000 6.5661 0.0000
# 6 0.0000 0.0000 0.0000 0.0000 0.0000 17.0079
#
#
#
# Elastic Compliance Matrix: (Units=1/GPa)
#
#
# Indices 1 2 3 4 5 6 
#
# 1 0.036059 -0.000900 -0.000844 0.000000 0.000000 0.000000
# 2 -0.000900 0.038579 -0.020141 0.000000 0.000000 0.000000
# 3 -0.000844 -0.020141 0.014729 0.000000 0.000000 0.000000
# 4 0.000000 0.000000 0.000000 0.026970 0.000000 0.000000
# 5 0.000000 0.000000 0.000000 0.000000 0.152298 0.000000
# 6 0.000000 0.000000 0.000000 0.000000 0.000000 0.058796
#
#
# Mechanical properties :
#
#
# Convention : Reuss Voigt Hill
#
# Bulk Modulus (GPa) = 21.93174 70.97249 46.45211
# Shear Modulus (GPa) = 12.93993 26.81075 19.87534
#
# Velocity S-wave (km/s) = 2.58206 3.71668 3.20006
# Velocity P-wave (km/s) = 4.49325 7.41522 6.13086
#
# Compressibility (1/GPa) = 0.04559603
#
# Stress axis : x y z
#
# Youngs Moduli (GPa) = 27.73230 25.92076 67.89485
#
# Poissons Ratio (x) = 0.02333 0.05731
# Poissons Ratio (y) = 0.02496 1.36749
# Poissons Ratio (z) = 0.02341 0.52208
#
# Static dielectric constant tensor:
#      x y z
#    x 1.712660 0.000000 0.000000 
#    y 0.000000 1.640650 0.000000 
#    z 0.000000 0.000000 1.719920 
# 
# From -- ./inp_files/29407.got.cif
#   From: 2010.05.17/outbox.cif.g08.bks.cpg/sg59_15_cif.got.tgz:29407.got - 2010.06.03 14:40:33.
