data_PCOD9452109
_publ_section_title
;
Structure prediction by ZEFSAII (Michael W. Deem and Ramdas Pophale) SiO2 
 PCOD9452109
Probable space group: P M M N
;
_chemical_formula_sum "Si O2"
_cell_formula_units_Z 48
_cell_length_a 8.345967
_cell_length_b 31.741401
_cell_length_c 9.378580
_cell_angle_alpha 90.000000
_cell_angle_beta 90.000000
_cell_angle_gamma 90.000000
_cell_volume 2484.504812
_symmetry_space_group_name_H-M "P M M N"
_symmetry_group_IT_number 59
_space_group.IT_coordinate_system_code '2'
_symmetry_cell_setting 'orthorhombic'
loop_
_space_group_symop_operation_xyz
x,y,z
1/2-x,1/2-y,z
1/2+x,-y,-z
-x,1/2+y,-z
-x,-y,-z
1/2+x,1/2+y,-z
1/2-x,y,z
x,1/2-y,z
loop_
_atom_site_type_symbol
_atom_site_label
_atom_site_fract_x
_atom_site_fract_y
_atom_site_fract_z
Si Si1 0.443564 0.702467 0.409750
Si Si2 0.442006 0.877877 0.586578
Si Si3 0.057900 0.040836 0.585651
Si Si4 0.943658 0.702521 0.087841
Si Si5 0.443743 0.459293 0.913641
Si Si6 0.443732 0.122521 0.090292
O O1 0.250000 0.702418 0.410359
O O2 0.497487 0.750000 0.447623
O O3 0.499746 0.665843 0.515279
O O4 0.500312 0.693633 0.248843
O O5 0.250000 0.877753 0.585834
O O6 0.500313 0.917137 0.493133
O O7 0.500127 0.881806 0.748189
O O8 0.250000 0.040743 0.587042
O O9 0.000646 0.039712 0.749700
O O10 0.000000 0.000000 0.500000
O O11 0.750000 0.702302 0.087497
O O12 0.997417 0.750000 0.050125
O O13 0.999626 0.666161 0.981348
O O14 0.250000 0.459108 0.912150
O O15 0.500000 0.500000 0.000000
O O16 0.497617 0.417016 0.994682
O O17 0.250000 0.122621 0.089306
#
# Coordination Sequence:
#
# PCOD9452109 Si02
#       6
#     8   8   8   8   8   8
#     4   9  19  36  56  79 110 147 186 229 277 328
#     4  11  23  37  55  82 113 147 188 230 274 327
#     4  11  23  40  61  85 113 145 182 225 275 329
#     4   9  18  34  57  83 109 140 183 232 280 332
#     4  10  22  38  57  80 107 140 177 218 265 319
#     4  10  21  37  55  78 110 145 180 223 275 326
#
# _framework density 19.319745000000001
#
# number of rings (size 3 to 8) (size 9 to 14) (size 15 to 20)
#    0.000    2.000    0.000    3.000    0.000    8.667 
#    0.000    0.000    0.000    0.000    0.000    0.000 
#    0.000    0.000    0.000    0.000    0.000    0.000 
#
# Total GULP energy -268153.728706 kJ/mol
# GULP energy per Si atom -5586.536015 kJ/mol
# Density = 1.927577 g / cm^3
# Si number density = 19.319745 Si / 1000 Ang^3
#
#
#
# Elastic Constant Matrix: (Units=GPa)
#
#
# Indices 1 2 3 4 5 6 
#
# 1 12.7877 24.2328 21.1185 0.0000 0.0000 0.0000
# 2 24.2328 176.4993 133.8368 0.0000 0.0000 0.0000
# 3 21.1185 133.8368 198.1560 0.0000 0.0000 0.0000
# 4 0.0000 0.0000 0.0000 43.9522 0.0000 0.0000
# 5 0.0000 0.0000 0.0000 0.0000 29.2997 0.0000
# 6 0.0000 0.0000 0.0000 0.0000 0.0000 25.9358
#
#
#
# Elastic Compliance Matrix: (Units=1/GPa)
#
#
# Indices 1 2 3 4 5 6 
#
# 1 0.106579 -0.012340 -0.003024 0.000000 0.000000 0.000000
# 2 -0.012340 0.013042 -0.007494 0.000000 0.000000 0.000000
# 3 -0.003024 -0.007494 0.010430 0.000000 0.000000 0.000000
# 4 0.000000 0.000000 0.000000 0.022752 0.000000 0.000000
# 5 0.000000 0.000000 0.000000 0.000000 0.034130 0.000000
# 6 0.000000 0.000000 0.000000 0.000000 0.000000 0.038557
#
#
# Mechanical properties :
#
#
# Convention : Reuss Voigt Hill
#
# Bulk Modulus (GPa) = 11.85735 82.86878 47.36306
# Shear Modulus (GPa) = 16.70463 33.72119 25.21291
#
# Velocity S-wave (km/s) = 2.94367 4.18236 3.61644
# Velocity P-wave (km/s) = 4.20765 8.14305 6.48127
#
# Compressibility (1/GPa) = 0.08433588
#
# Stress axis : x y z
#
# Youngs Moduli (GPa) = 9.38272 76.67247 95.87418
#
# Poissons Ratio (x) = 0.94611 0.28995
# Poissons Ratio (y) = 0.11578 0.71848
# Poissons Ratio (z) = 0.02838 0.57458
#
# Static dielectric constant tensor:
#      x y z
#    x 1.660200 0.000000 0.000000 
#    y 0.000000 1.670920 0.000000 
#    z 0.000000 0.000000 1.628100 
# 
# From -- ./inp_files/6237.got.cif
#   From: 2010.05.17/outbox.cif.g08.bks.cpg/sg59_4_cif.got.tgz:6237.got - 2010.06.03 14:40:33.
