data_PCOD9452437
_publ_section_title
;
Structure prediction by ZEFSAII (Michael W. Deem and Ramdas Pophale) SiO2 
 PCOD9452437
Probable space group: P M M N
;
_chemical_formula_sum "Si O2"
_cell_formula_units_Z 56
_cell_length_a 13.447518
_cell_length_b 24.942348
_cell_length_c 7.730697
_cell_angle_alpha 90.000000
_cell_angle_beta 90.000000
_cell_angle_gamma 90.000000
_cell_volume 2592.973750
_symmetry_space_group_name_H-M "P M M N"
_symmetry_group_IT_number 59
_space_group.IT_coordinate_system_code '2'
_symmetry_cell_setting 'orthorhombic'
loop_
_space_group_symop_operation_xyz
x,y,z
1/2-x,1/2-y,z
1/2+x,-y,-z
-x,1/2+y,-z
-x,-y,-z
1/2+x,1/2+y,-z
1/2-x,y,z
x,1/2-y,z
loop_
_atom_site_type_symbol
_atom_site_label
_atom_site_fract_x
_atom_site_fract_y
_atom_site_fract_z
Si Si1 0.632482 0.692694 0.246899
Si Si2 0.131530 0.617446 0.948830
Si Si3 0.130138 0.536582 0.641463
Si Si4 0.861387 0.585377 0.745067
Si Si5 0.637062 0.578033 0.334993
Si Si6 0.627851 0.468008 0.757805
Si Si7 0.958413 0.690627 0.877828
O O1 0.750000 0.691994 0.290127
O O2 0.592307 0.750000 0.315266
O O3 0.588555 0.635496 0.301604
O O4 0.614396 0.693629 0.042433
O O5 0.250000 0.627147 0.959103
O O6 0.110415 0.584792 0.771383
O O7 0.065999 0.670966 0.945115
O O8 0.101464 0.578210 0.106524
O O9 0.250000 0.531397 0.635216
O O10 0.093945 0.479386 0.718080
O O11 0.097274 0.544123 0.442167
O O12 0.750000 0.593302 0.814220
O O13 0.855590 0.573871 0.541353
O O14 0.900915 0.528566 0.815663
O O15 0.917965 0.640819 0.768961
O O16 0.750000 0.580870 0.261676
O O17 0.750000 0.469580 0.756426
O O18 0.961866 0.750000 0.797915
#
# Coordination Sequence:
#
# PCOD9452437 Si02
#       7
#     8   8   8   8   8   8   8
#     4   9  18  33  52  74 105 145 182 218 262 315
#     4  10  21  38  60  80 104 146 186 227 285 327
#     4   8  15  31  55  83 111 136 172 223 274 326
#     4   9  18  34  56  83 115 145 172 213 272 332
#     4   8  15  30  53  81 112 144 174 210 262 327
#     4   8  16  33  57  86 114 138 174 224 276 336
#     4  11  24  38  51  77 109 141 190 234 266 315
#
# _framework density 21.596824000000002
#
# number of rings (size 3 to 8) (size 9 to 14) (size 15 to 20)
#    0.000    3.000    0.000    2.143    2.000    2.286 
#    2.571    2.857    0.000    0.000    0.000    4.000 
#    0.000    0.000    0.000    0.000    0.000    0.000 
#
# Total GULP energy -312229.929878 kJ/mol
# GULP energy per Si atom -5575.534462 kJ/mol
# Density = 2.154767 g / cm^3
# Si number density = 21.596824 Si / 1000 Ang^3
#
#
#
# Elastic Constant Matrix: (Units=GPa)
#
#
# Indices 1 2 3 4 5 6 
#
# 1 68.0235 40.3548 0.4591 0.0000 0.0000 0.0000
# 2 40.3548 113.2373 17.3065 0.0000 0.0000 0.0000
# 3 0.4591 17.3065 51.4615 0.0000 0.0000 0.0000
# 4 0.0000 0.0000 0.0000 -0.0822 0.0000 0.0000
# 5 0.0000 0.0000 0.0000 0.0000 5.8184 0.0000
# 6 0.0000 0.0000 0.0000 0.0000 0.0000 12.1431
#
#
#
# Elastic Compliance Matrix: (Units=1/GPa)
#
#
# Indices 1 2 3 4 5 6 
#
# 1 0.018877 -0.007065 0.002207 0.000000 0.000000 0.000000
# 2 -0.007065 0.011953 -0.003957 0.000000 0.000000 0.000000
# 3 0.002207 -0.003957 0.020743 0.000000 0.000000 0.000000
# 4 0.000000 0.000000 0.000000-12.160073 0.000000 0.000000
# 5 0.000000 0.000000 0.000000 0.000000 0.171868 0.000000
# 6 0.000000 0.000000 0.000000 0.000000 0.000000 0.082351
#
#
# Mechanical properties :
#
#
# Convention : Reuss Voigt Hill
#
# Bulk Modulus (GPa) = 29.45927 38.77369 34.11648
# Shear Modulus (GPa) = -0.42282 15.21598 7.39658
#
# Velocity S-wave (km/s) = -0.44295 2.65721 1.85264
# Velocity P-wave (km/s) = 3.66177 5.23515 4.51748
#
# Compressibility (1/GPa) = 0.03394518
#
# Stress axis : x y z
#
# Youngs Moduli (GPa) = 52.97456 83.65808 48.20898
#
# Poissons Ratio (x) = 0.59101 -0.10642
# Poissons Ratio (y) = 0.37425 0.19076
# Poissons Ratio (z) = -0.11694 0.33103
#
# Static dielectric constant tensor:
#      x y z
#    x 1.868120 0.000000 0.000000 
#    y 0.000000 1.819600 0.000000 
#    z 0.000000 0.000000 1.781600 
# 
# From -- ./inp_files/9330.got.cif
#   From: 2010.05.17/outbox.cif.g08.bks.cpg/sg59_5_cif.got.tgz:9330.got - 2010.06.03 14:40:33.
