data_PCOD9452645
_publ_section_title
;
Structure prediction by ZEFSAII (Michael W. Deem and Ramdas Pophale) SiO2 
 PCOD9452645
Probable space group: P M M N
;
_chemical_formula_sum "Si O2"
_cell_formula_units_Z 36
_cell_length_a 14.908314
_cell_length_b 14.139636
_cell_length_c 8.058126
_cell_angle_alpha 90.000000
_cell_angle_beta 90.000000
_cell_angle_gamma 90.000000
_cell_volume 1698.637919
_symmetry_space_group_name_H-M "P M M N"
_symmetry_group_IT_number 59
_space_group.IT_coordinate_system_code '2'
_symmetry_cell_setting 'orthorhombic'
loop_
_space_group_symop_operation_xyz
x,y,z
1/2-x,1/2-y,z
1/2+x,-y,-z
-x,1/2+y,-z
-x,-y,-z
1/2+x,1/2+y,-z
1/2-x,y,z
x,1/2-y,z
loop_
_atom_site_type_symbol
_atom_site_label
_atom_site_fract_x
_atom_site_fract_y
_atom_site_fract_z
Si Si1 0.924233 0.638099 0.550151
Si Si2 0.097421 0.644806 0.331419
Si Si3 0.750000 0.641182 0.026558
Si Si4 0.080299 0.468911 0.120598
Si Si5 0.250000 0.437749 0.622180
Si Si6 0.750000 0.146892 0.391050
O O1 0.906016 0.750000 0.567449
O O2 0.954422 0.594306 0.725016
O O3 0.836429 0.582736 0.489966
O O4 0.000000 0.626166 0.410525
O O5 0.098542 0.750000 0.257240
O O6 0.119385 0.564518 0.200875
O O7 0.165175 0.644952 0.485590
O O8 0.750000 0.750000 0.970954
O O9 0.750000 0.633890 0.225131
O O10 0.660205 0.589348 0.964143
O O11 0.000000 0.500000 0.000000
O O12 0.250000 0.544658 0.695169
O O13 0.750000 0.250000 0.303278
#
# Coordination Sequence:
#
# PCOD9452645 Si02
#       6
#     8   8   4   8   4   4
#     4  11  23  41  68  99 130 174 229 278 327 399
#     4  10  22  42  67  94 128 174 224 272 325 394
#     4  12  28  47  67 101 142 183 224 279 347 406
#     4  12  25  41  66  99 141 179 217 277 345 412
#     4  12  23  42  73  95 128 174 229 279 330 394
#     4  10  21  39  66  92 120 163 219 274 321 380
#
# _framework density 21.193453000000002
#
# number of rings (size 3 to 8) (size 9 to 14) (size 15 to 20)
#    0.000    0.889    2.222    5.000    3.111    3.556 
#    0.000    1.111    0.000    0.000    0.000    0.000 
#    0.000    0.000    0.000    0.000    0.000    0.000 
#
# Total GULP energy -201335.780255 kJ/mol
# GULP energy per Si atom -5592.660563 kJ/mol
# Density = 2.114522 g / cm^3
# Si number density = 21.193453 Si / 1000 Ang^3
#
#
#
# Elastic Constant Matrix: (Units=GPa)
#
#
# Indices 1 2 3 4 5 6 
#
# 1 96.0340 48.3609 3.8574 0.0000 0.0000 0.0000
# 2 48.3609 157.8278 38.4899 0.0000 0.0000 0.0000
# 3 3.8574 38.4899 57.5663 0.0000 0.0000 0.0000
# 4 0.0000 0.0000 0.0000 34.2023 0.0000 0.0000
# 5 0.0000 0.0000 0.0000 0.0000 19.6514 0.0000
# 6 0.0000 0.0000 0.0000 0.0000 0.0000 28.0753
#
#
#
# Elastic Compliance Matrix: (Units=1/GPa)
#
#
# Indices 1 2 3 4 5 6 
#
# 1 0.012514 -0.004337 0.002061 0.000000 0.000000 0.000000
# 2 -0.004337 0.009074 -0.005776 0.000000 0.000000 0.000000
# 3 0.002061 -0.005776 0.021095 0.000000 0.000000 0.000000
# 4 0.000000 0.000000 0.000000 0.029238 0.000000 0.000000
# 5 0.000000 0.000000 0.000000 0.000000 0.050887 0.000000
# 6 0.000000 0.000000 0.000000 0.000000 0.000000 0.035618
#
#
# Mechanical properties :
#
#
# Convention : Reuss Voigt Hill
#
# Bulk Modulus (GPa) = 37.62349 54.76050 46.19200
# Shear Modulus (GPa) = 27.26423 31.10046 29.18234
#
# Velocity S-wave (km/s) = 3.59060 3.83489 3.71475
# Velocity P-wave (km/s) = 5.91446 6.74560 6.34365
#
# Compressibility (1/GPa) = 0.02657914
#
# Stress axis : x y z
#
# Youngs Moduli (GPa) = 79.90809 110.20855 47.40408
#
# Poissons Ratio (x) = 0.47801 -0.09772
# Poissons Ratio (y) = 0.34659 0.27382
# Poissons Ratio (z) = -0.16473 0.63659
#
# Static dielectric constant tensor:
#      x y z
#    x 1.736670 0.000000 0.000000 
#    y 0.000000 1.799110 0.000000 
#    z 0.000000 0.000000 1.725880 
# 
# From -- ./inp_files/8532.got.cif
#   From: 2010.05.17/outbox.cif.g08.bks.cpg/sg59_5_cif.got.tgz:8532.got - 2010.06.03 14:40:33.
