data_PCOD9452199
_publ_section_title
;
Structure prediction by ZEFSAII (Michael W. Deem and Ramdas Pophale) SiO2 
 PCOD9452199
Probable space group: P M M N
;
_chemical_formula_sum "Si O2"
_cell_formula_units_Z 48
_cell_length_a 30.910058
_cell_length_b 8.883957
_cell_length_c 9.677508
_cell_angle_alpha 90.000000
_cell_angle_beta 90.000000
_cell_angle_gamma 90.000000
_cell_volume 2657.478789
_symmetry_space_group_name_H-M "P M M N"
_symmetry_group_IT_number 59
_space_group.IT_coordinate_system_code '2'
_symmetry_cell_setting 'orthorhombic'
loop_
_space_group_symop_operation_xyz
x,y,z
1/2-x,1/2-y,z
1/2+x,-y,-z
-x,1/2+y,-z
-x,-y,-z
1/2+x,1/2+y,-z
1/2-x,y,z
x,1/2-y,z
loop_
_atom_site_type_symbol
_atom_site_label
_atom_site_fract_x
_atom_site_fract_y
_atom_site_fract_z
Si Si1 0.300746 0.570805 0.346762
Si Si2 0.799805 0.569223 0.355445
Si Si3 0.378111 0.431386 0.842431
Si Si4 0.454628 0.570188 0.663766
Si Si5 0.625449 0.930487 0.835977
Si Si6 0.951689 0.429945 0.658698
O O1 0.250000 0.538683 0.321517
O O2 0.307220 0.750000 0.343685
O O3 0.311079 0.509370 0.499885
O O4 0.331532 0.492544 0.236563
O O5 0.750000 0.530463 0.320531
O O6 0.801817 0.750000 0.374996
O O7 0.833949 0.527835 0.237645
O O8 0.382787 0.250000 0.834447
O O9 0.418007 0.506763 0.763707
O O10 0.376376 0.473791 0.003018
O O11 0.458182 0.750000 0.676657
O O12 0.443311 0.535216 0.503440
O O13 0.501045 0.495365 0.692633
O O14 0.624756 0.750000 0.826735
O O15 0.584812 0.997424 0.753512
O O16 0.951674 0.250000 0.674484
#
# Coordination Sequence:
#
# PCOD9452199 Si02
#       6
#     8   8   8   8   8   8
#     4  10  21  37  57  82 111 143 182 227 273 322
#     4   9  18  35  59  83 107 140 183 228 271 317
#     4  10  22  37  54  80 113 147 182 223 272 324
#     4  10  21  37  59  84 108 140 183 227 272 323
#     4  11  23  37  55  81 113 148 184 222 269 325
#     4  10  21  38  60  84 110 141 180 226 273 322
#
# _framework density 18.062232000000002
#
# number of rings (size 3 to 8) (size 9 to 14) (size 15 to 20)
#    0.000    2.000    0.000    3.000    0.000    9.000 
#    0.000    1.667    0.000    2.000    0.000    0.000 
#    0.000    0.000    0.000    0.000    0.000    0.000 
#
# Total GULP energy -268168.855342 kJ/mol
# GULP energy per Si atom -5586.851153 kJ/mol
# Density = 1.802112 g / cm^3
# Si number density = 18.062232 Si / 1000 Ang^3
#
#
#
# Elastic Constant Matrix: (Units=GPa)
#
#
# Indices 1 2 3 4 5 6 
#
# 1 132.2058 64.4272 122.9252 0.0000 0.0000 0.0000
# 2 64.4272 51.7762 71.5442 0.0000 0.0000 0.0000
# 3 122.9252 71.5442 160.2279 0.0000 0.0000 0.0000
# 4 0.0000 0.0000 0.0000 24.4501 0.0000 0.0000
# 5 0.0000 0.0000 0.0000 0.0000 -15.4751 0.0000
# 6 0.0000 0.0000 0.0000 0.0000 0.0000 30.3637
#
#
#
# Elastic Compliance Matrix: (Units=1/GPa)
#
#
# Indices 1 2 3 4 5 6 
#
# 1 0.030021 -0.014441 -0.016584 0.000000 0.000000 0.000000
# 2 -0.014441 0.057374 -0.014539 0.000000 0.000000 0.000000
# 3 -0.016584 -0.014539 0.025456 0.000000 0.000000 0.000000
# 4 0.000000 0.000000 0.000000 0.040900 0.000000 0.000000
# 5 0.000000 0.000000 0.000000 0.000000 -0.064620 0.000000
# 6 0.000000 0.000000 0.000000 0.000000 0.000000 0.032934
#
#
# Mechanical properties :
#
#
# Convention : Reuss Voigt Hill
#
# Bulk Modulus (GPa) = 46.03468 95.77815 70.90642
# Shear Modulus (GPa) = 22.68265 13.55529 18.11897
#
# Velocity S-wave (km/s) = 3.54758 2.74246 3.17068
# Velocity P-wave (km/s) = 6.50557 7.94795 7.26266
#
# Compressibility (1/GPa) = 0.02172275
#
# Stress axis : x y z
#
# Youngs Moduli (GPa) = 33.31012 17.42959 39.28376
#
# Poissons Ratio (x) = 0.25170 0.65146
# Poissons Ratio (y) = 0.48103 0.57115
# Poissons Ratio (z) = 0.55240 0.25341
#
# Static dielectric constant tensor:
#      x y z
#    x 1.598830 0.000000 0.000000 
#    y 0.000000 1.602370 0.000000 
#    z 0.000000 0.000000 1.589430 
# 
# From -- ./inp_files/6189.got.cif
#   From: 2010.05.17/outbox.cif.g08.bks.cpg/sg59_4_cif.got.tgz:6189.got - 2010.06.03 14:40:33.
