data_PCOD9452591
_publ_section_title
;
Structure prediction by ZEFSAII (Michael W. Deem and Ramdas Pophale) SiO2 
 PCOD9452591
Probable space group: P M M N
;
_chemical_formula_sum "Si O2"
_cell_formula_units_Z 38
_cell_length_a 26.540967
_cell_length_b 13.529281
_cell_length_c 4.929909
_cell_angle_alpha 90.000000
_cell_angle_beta 90.000000
_cell_angle_gamma 90.000000
_cell_volume 1770.232712
_symmetry_space_group_name_H-M "P M M N"
_symmetry_group_IT_number 59
_space_group.IT_coordinate_system_code '2'
_symmetry_cell_setting 'orthorhombic'
loop_
_space_group_symop_operation_xyz
x,y,z
1/2-x,1/2-y,z
1/2+x,-y,-z
-x,1/2+y,-z
-x,-y,-z
1/2+x,1/2+y,-z
1/2-x,y,z
x,1/2-y,z
loop_
_atom_site_type_symbol
_atom_site_label
_atom_site_fract_x
_atom_site_fract_y
_atom_site_fract_z
Si Si1 0.571960 0.366734 0.745113
Si Si2 0.006613 0.866825 0.742721
Si Si3 0.594400 0.866872 0.036386
Si Si4 0.750000 0.594545 0.434641
Si Si5 0.250000 0.250000 0.067054
Si Si6 0.142103 0.464146 0.442660
O O1 0.580914 0.250000 0.694481
O O2 0.525143 0.398691 0.551822
O O3 0.618876 0.434048 0.666779
O O4 0.553380 0.376812 0.052646
O O5 0.995330 0.750000 0.712741
O O6 0.956752 0.904970 0.892082
O O7 0.590695 0.750000 0.094089
O O8 0.636504 0.887660 0.808653
O O9 0.608115 0.921756 0.312137
O O10 0.750000 0.664894 0.695314
O O11 0.698715 0.531812 0.451718
O O12 0.750000 0.663599 0.171418
#
# Coordination Sequence:
#
# PCOD9452591 Si02
#       6
#     8   8   8   4   2   8
#     4  10  21  39  61  85 119 160 197 244 293 350
#     4   9  19  37  58  85 123 157 195 237 294 353
#     4  11  24  38  58  91 124 156 192 246 293 360
#     4  11  26  42  61  90 116 154 203 250 295 358
#     4  10  24  42  68  78 114 166 180 242 316 350
#     4  12  25  38  61  88 117 155 208 243 295 358
#
# _framework density 21.466104000000001
#
# number of rings (size 3 to 8) (size 9 to 14) (size 15 to 20)
#    0.000    1.474    0.000    4.421    8.842    8.421 
#    0.000    0.526    0.000    0.000    0.000    8.842 
#    0.000    0.000    0.000    0.000    0.000    0.000 
#
# Total GULP energy -212110.126973 kJ/mol
# GULP energy per Si atom -5581.845447 kJ/mol
# Density = 2.141725 g / cm^3
# Si number density = 21.466104 Si / 1000 Ang^3
#
#
#
# Elastic Constant Matrix: (Units=GPa)
#
#
# Indices 1 2 3 4 5 6 
#
# 1 75.4386 18.6009 -9.6687 0.0000 0.0000 0.0000
# 2 18.6009 74.1177 -8.0740 0.0000 0.0000 0.0000
# 3 -9.6687 -8.0740 124.1389 0.0000 0.0000 0.0000
# 4 0.0000 0.0000 0.0000 14.1426 0.0000 0.0000
# 5 0.0000 0.0000 0.0000 0.0000 13.8885 0.0000
# 6 0.0000 0.0000 0.0000 0.0000 0.0000 -16.6331
#
#
#
# Elastic Compliance Matrix: (Units=1/GPa)
#
#
# Indices 1 2 3 4 5 6 
#
# 1 0.014225 -0.003474 0.000882 0.000000 0.000000 0.000000
# 2 -0.003474 0.014437 0.000668 0.000000 0.000000 0.000000
# 3 0.000882 0.000668 0.008168 0.000000 0.000000 0.000000
# 4 0.000000 0.000000 0.000000 0.070708 0.000000 0.000000
# 5 0.000000 0.000000 0.000000 0.000000 0.072002 0.000000
# 6 0.000000 0.000000 0.000000 0.000000 0.000000 -0.060121
#
#
# Mechanical properties :
#
#
# Convention : Reuss Voigt Hill
#
# Bulk Modulus (GPa) = 30.31897 30.60127 30.46012
# Shear Modulus (GPa) = 37.24104 20.46874 28.85489
#
# Velocity S-wave (km/s) = 4.16970 3.09129 3.67032
# Velocity P-wave (km/s) = 6.11037 5.19885 5.67295
#
# Compressibility (1/GPa) = 0.03298266
#
# Stress axis : x y z
#
# Youngs Moduli (GPa) = 70.29660 69.26786 122.43408
#
# Poissons Ratio (x) = 0.24064 -0.10799
# Poissons Ratio (y) = 0.24421 -0.08183
# Poissons Ratio (z) = -0.06200 -0.04630
#
# Static dielectric constant tensor:
#      x y z
#    x 1.827710 0.000000 0.000000 
#    y 0.000000 1.813000 0.000000 
#    z 0.000000 0.000000 1.751530 
# 
# From -- ./inp_files/3754.got.cif
#   From: 2010.05.17/outbox.cif.g08.bks.cpg/sg59_2_cif.got.tgz:3754.got - 2010.06.03 14:40:33.
