data_PCOD9452947
_publ_section_title
;
Structure prediction by ZEFSAII (Michael W. Deem and Ramdas Pophale) SiO2 
 PCOD9452947
Probable space group: P M M N
;
_chemical_formula_sum "Si O2"
_cell_formula_units_Z 48
_cell_length_a 16.414229
_cell_length_b 8.527466
_cell_length_c 17.296487
_cell_angle_alpha 90.000000
_cell_angle_beta 90.000000
_cell_angle_gamma 90.000000
_cell_volume 2421.020068
_symmetry_space_group_name_H-M "P M M N"
_symmetry_group_IT_number 59
_space_group.IT_coordinate_system_code '2'
_symmetry_cell_setting 'orthorhombic'
loop_
_space_group_symop_operation_xyz
x,y,z
1/2-x,1/2-y,z
1/2+x,-y,-z
-x,1/2+y,-z
-x,-y,-z
1/2+x,1/2+y,-z
1/2-x,y,z
x,1/2-y,z
loop_
_atom_site_type_symbol
_atom_site_label
_atom_site_fract_x
_atom_site_fract_y
_atom_site_fract_z
Si Si1 0.413882 0.561561 0.532079
Si Si2 0.618113 0.065276 0.849246
Si Si3 0.250000 0.435835 0.449615
Si Si4 0.440841 0.564270 0.843629
Si Si5 0.250000 0.938902 0.277249
Si Si6 0.342618 0.559306 0.693220
Si Si7 0.656445 0.565327 0.016688
O O1 0.500000 0.500000 0.500000
O O2 0.415697 0.750000 0.528958
O O3 0.333052 0.505332 0.486470
O O4 0.398421 0.511089 0.621083
O O5 0.631196 0.250000 0.862356
O O6 0.672576 0.019493 0.775893
O O7 0.524556 0.027404 0.834367
O O8 0.643537 0.977254 0.927362
O O9 0.250000 0.250000 0.461533
O O10 0.250000 0.477347 0.359041
O O11 0.456152 0.750000 0.836331
O O12 0.379136 0.514279 0.775845
O O13 0.402645 0.528828 0.926998
O O14 0.250000 0.750000 0.289744
O O15 0.250000 0.503113 0.682842
O O16 0.340079 0.750000 0.692030
O O17 0.750000 0.529689 0.037302
O O18 0.641781 0.750000 0.027536
#
# Coordination Sequence:
#
# PCOD9452947 Si02
#       7
#     8   8   4   8   4   8   8
#     4  11  23  43  69  98 134 173 217 271 329 392
#     4  11  23  42  64  89 122 160 207 258 315 372
#     4  12  26  44  68  99 132 173 220 267 326 395
#     4  11  23  38  62  93 125 162 206 254 307 369
#     4  10  24  44  66  91 122 163 206 261 322 375
#     4   9  19  39  65  91 122 163 207 255 310 368
#     4  11  23  40  62  89 123 163 206 255 310 366
#
# _framework density 19.826355
#
# number of rings (size 3 to 8) (size 9 to 14) (size 15 to 20)
#    0.000    1.333    1.667    3.750    2.333    3.000 
#    0.000    2.500    0.000    0.000    0.000    0.000 
#    0.000    0.000    0.000    0.000    0.000    0.000 
#
# Total GULP energy -268347.161809 kJ/mol
# GULP energy per Si atom -5590.565871 kJ/mol
# Density = 1.978123 g / cm^3
# Si number density = 19.826355 Si / 1000 Ang^3
#
#
#
# Elastic Constant Matrix: (Units=GPa)
#
#
# Indices 1 2 3 4 5 6 
#
# 1 92.8337 17.1106 17.4227 0.0000 0.0000 0.0000
# 2 17.1106 31.1239 3.7070 0.0000 0.0000 0.0000
# 3 17.4227 3.7070 79.0956 0.0000 0.0000 0.0000
# 4 0.0000 0.0000 0.0000 19.5523 0.0000 0.0000
# 5 0.0000 0.0000 0.0000 0.0000 51.2669 0.0000
# 6 0.0000 0.0000 0.0000 0.0000 0.0000 44.1713
#
#
#
# Elastic Compliance Matrix: (Units=1/GPa)
#
#
# Indices 1 2 3 4 5 6 
#
# 1 0.012435 -0.006547 -0.002432 0.000000 0.000000 0.000000
# 2 -0.006547 0.035756 -0.000234 0.000000 0.000000 0.000000
# 3 -0.002432 -0.000234 0.013190 0.000000 0.000000 0.000000
# 4 0.000000 0.000000 0.000000 0.051145 0.000000 0.000000
# 5 0.000000 0.000000 0.000000 0.000000 0.019506 0.000000
# 6 0.000000 0.000000 0.000000 0.000000 0.000000 0.022639
#
#
# Mechanical properties :
#
#
# Convention : Reuss Voigt Hill
#
# Bulk Modulus (GPa) = 23.27968 31.05932 27.16950
# Shear Modulus (GPa) = 26.67877 33.98562 30.33220
#
# Velocity S-wave (km/s) = 3.67225 4.14474 3.91563
# Velocity P-wave (km/s) = 5.45416 6.21328 5.84605
#
# Compressibility (1/GPa) = 0.04295591
#
# Stress axis : x y z
#
# Youngs Moduli (GPa) = 80.41777 27.96697 75.81696
#
# Poissons Ratio (x) = 0.18309 0.18441
# Poissons Ratio (y) = 0.52646 0.01772
# Poissons Ratio (z) = 0.19560 0.00654
#
# Static dielectric constant tensor:
#      x y z
#    x 1.683440 0.000000 0.000000 
#    y 0.000000 1.673910 0.000000 
#    z 0.000000 0.000000 1.677060 
# 
# From -- ./inp_files/27449.got.cif
#   From: 2010.05.17/outbox.cif.g08.bks.cpg/sg59_14_cif.got.tgz:27449.got - 2010.06.03 14:40:33.
