data_PCOD9452190
_publ_section_title
;
Structure prediction by ZEFSAII (Michael W. Deem and Ramdas Pophale) SiO2 
 PCOD9452190
Probable space group: P M M N
;
_chemical_formula_sum "Si O2"
_cell_formula_units_Z 48
_cell_length_a 8.917141
_cell_length_b 9.188173
_cell_length_c 31.552401
_cell_angle_alpha 90.000000
_cell_angle_beta 90.000000
_cell_angle_gamma 90.000000
_cell_volume 2585.158707
_symmetry_space_group_name_H-M "P M M N"
_symmetry_group_IT_number 59
_space_group.IT_coordinate_system_code '2'
_symmetry_cell_setting 'orthorhombic'
loop_
_space_group_symop_operation_xyz
x,y,z
1/2-x,1/2-y,z
1/2+x,-y,-z
-x,1/2+y,-z
-x,-y,-z
1/2+x,1/2+y,-z
1/2-x,y,z
x,1/2-y,z
loop_
_atom_site_type_symbol
_atom_site_label
_atom_site_fract_x
_atom_site_fract_y
_atom_site_fract_z
Si Si1 0.928129 0.077849 0.292727
Si Si2 0.571412 0.922927 0.797425
Si Si3 0.569135 0.919407 0.540228
Si Si4 0.070370 0.078009 0.040747
Si Si5 0.069961 0.578996 0.373020
Si Si6 0.570795 0.921966 0.122043
O O1 0.750000 0.057763 0.288621
O O2 0.957547 0.250000 0.299794
O O3 0.007671 0.036580 0.248688
O O4 0.991470 0.988866 0.332159
O O5 0.750000 0.944718 0.798714
O O6 0.541905 0.750000 0.803604
O O7 0.492749 0.012449 0.834477
O O8 0.750000 0.927897 0.537610
O O9 0.525845 0.750000 0.540591
O O10 0.500000 0.000000 0.500000
O O11 0.523526 0.996383 0.584082
O O12 0.250000 0.061566 0.040126
O O13 0.035868 0.250000 0.040019
O O14 0.004387 0.005329 0.082900
O O15 0.000000 0.000000 0.000000
O O16 0.250000 0.561693 0.368491
O O17 0.037252 0.750000 0.376845
O O18 0.750000 0.941182 0.120380
O O19 0.538181 0.750000 0.119256
#
# Coordination Sequence:
#
# PCOD9452190 Si02
#       6
#     8   8   8   8   8   8
#     4  10  21  37  58  84 113 147 187 231 281 335
#     4  10  21  38  61  87 114 148 191 236 283 337
#     4  10  21  37  58  83 111 145 185 229 278 332
#     4  11  24  41  62  89 119 152 193 238 285 339
#     4  10  21  37  57  81 110 146 187 230 278 332
#     4  11  24  40  59  86 119 154 193 236 283 337
#
# _framework density 18.567526000000001
#
# number of rings (size 3 to 8) (size 9 to 14) (size 15 to 20)
#    0.000    1.667    0.000    4.000    0.000   12.000 
#    0.000    0.000    0.000    0.000    0.000    0.000 
#    0.000    0.000    0.000    0.000    0.000    0.000 
#
# Total GULP energy -268379.549178 kJ/mol
# GULP energy per Si atom -5591.240608 kJ/mol
# Density = 1.852527 g / cm^3
# Si number density = 18.567526 Si / 1000 Ang^3
#
#
#
# Elastic Constant Matrix: (Units=GPa)
#
#
# Indices 1 2 3 4 5 6 
#
# 1 62.5198 84.6211 74.5916 0.0000 0.0000 0.0000
# 2 84.6211 147.1927 121.8896 0.0000 0.0000 0.0000
# 3 74.5916 121.8896 196.9999 0.0000 0.0000 0.0000
# 4 0.0000 0.0000 0.0000 43.2300 0.0000 0.0000
# 5 0.0000 0.0000 0.0000 0.0000 43.0370 0.0000
# 6 0.0000 0.0000 0.0000 0.0000 0.0000 31.3875
#
#
#
# Elastic Compliance Matrix: (Units=1/GPa)
#
#
# Indices 1 2 3 4 5 6 
#
# 1 0.073213 -0.039239 -0.003443 0.000000 0.000000 0.000000
# 2 -0.039239 0.034963 -0.006775 0.000000 0.000000 0.000000
# 3 -0.003443 -0.006775 0.010572 0.000000 0.000000 0.000000
# 4 0.000000 0.000000 0.000000 0.023132 0.000000 0.000000
# 5 0.000000 0.000000 0.000000 0.000000 0.023236 0.000000
# 6 0.000000 0.000000 0.000000 0.000000 0.000000 0.031860
#
#
# Mechanical properties :
#
#
# Convention : Reuss Voigt Hill
#
# Bulk Modulus (GPa) = 50.41994 107.65746 79.03870
# Shear Modulus (GPa) = 16.52887 31.90493 24.21690
#
# Velocity S-wave (km/s) = 2.98686 4.14976 3.61537
# Velocity P-wave (km/s) = 6.25372 9.00378 7.75168
#
# Compressibility (1/GPa) = 0.01983342
#
# Stress axis : x y z
#
# Youngs Moduli (GPa) = 13.65873 28.60173 94.59263
#
# Poissons Ratio (x) = 1.12231 0.32566
# Poissons Ratio (y) = 0.53596 0.64087
# Poissons Ratio (z) = 0.04702 0.19378
#
# Static dielectric constant tensor:
#      x y z
#    x 1.621780 0.000000 0.000000 
#    y 0.000000 1.622720 0.000000 
#    z 0.000000 0.000000 1.594700 
# 
# From -- ./inp_files/32775.got.cif
#   From: 2010.05.17/outbox.cif.g08.bks.cpg/sg59_17_cif.got.tgz:32775.got - 2010.06.03 14:40:33.
