data_PCOD9452562
_publ_section_title
;
Structure prediction by ZEFSAII (Michael W. Deem and Ramdas Pophale) SiO2 
 PCOD9452562
Probable space group: P M M N
;
_chemical_formula_sum "Si O2"
_cell_formula_units_Z 48
_cell_length_a 8.768499
_cell_length_b 19.330688
_cell_length_c 15.382661
_cell_angle_alpha 90.000000
_cell_angle_beta 90.000000
_cell_angle_gamma 90.000000
_cell_volume 2607.378243
_symmetry_space_group_name_H-M "P M M N"
_symmetry_group_IT_number 59
_space_group.IT_coordinate_system_code '2'
_symmetry_cell_setting 'orthorhombic'
loop_
_space_group_symop_operation_xyz
x,y,z
1/2-x,1/2-y,z
1/2+x,-y,-z
-x,1/2+y,-z
-x,-y,-z
1/2+x,1/2+y,-z
1/2-x,y,z
x,1/2-y,z
loop_
_atom_site_type_symbol
_atom_site_label
_atom_site_fract_x
_atom_site_fract_y
_atom_site_fract_z
Si Si1 0.432410 0.931231 0.724215
Si Si2 0.568405 0.422110 0.780172
Si Si3 0.432527 0.925013 0.523674
Si Si4 0.067798 0.331432 0.626230
Si Si5 0.568133 0.573643 0.030142
Si Si6 0.433339 0.669448 0.882050
O O1 0.250000 0.944983 0.729884
O O2 0.466121 0.911096 0.624995
O O3 0.469588 0.871776 0.793501
O O4 0.518453 0.001401 0.749206
O O5 0.750000 0.418225 0.785992
O O6 0.506443 0.368388 0.709331
O O7 0.495210 0.409964 0.874378
O O8 0.250000 0.926487 0.512242
O O9 0.503953 0.869128 0.459215
O O10 0.500000 0.000000 0.500000
O O11 0.250000 0.341030 0.630024
O O12 0.034062 0.250000 0.625026
O O13 0.750000 0.568455 0.032489
O O14 0.500000 0.500000 0.000000
O O15 0.514835 0.630735 0.961100
O O16 0.250000 0.664601 0.894670
O O17 0.474268 0.750000 0.876737
#
# Coordination Sequence:
#
# PCOD9452562 Si02
#       6
#     8   8   8   8   8   8
#     4  10  21  38  63  92 126 166 207 255 307 369
#     4  12  24  39  65  95 123 162 209 261 314 375
#     4  11  22  37  63  95 128 165 211 259 309 375
#     4  11  25  44  64  90 128 169 210 263 321 374
#     4  12  24  40  64  93 126 164 210 259 310 374
#     4  10  22  41  64  92 127 165 207 257 312 370
#
# _framework density 18.409296000000001
#
# number of rings (size 3 to 8) (size 9 to 14) (size 15 to 20)
#    0.000    1.000    3.333    4.000    0.000    3.667 
#    0.000    1.667    0.000    0.000    0.000    0.000 
#    0.000    0.000    0.000    0.000    0.000    0.000 
#
# Total GULP energy -268490.377887 kJ/mol
# GULP energy per Si atom -5593.549539 kJ/mol
# Density = 1.836740 g / cm^3
# Si number density = 18.409296 Si / 1000 Ang^3
#
#
#
# Elastic Constant Matrix: (Units=GPa)
#
#
# Indices 1 2 3 4 5 6 
#
# 1 108.5091 95.0658 98.3573 0.0000 0.0000 0.0000
# 2 95.0658 165.4267 108.3167 0.0000 0.0000 0.0000
# 3 98.3573 108.3167 204.7805 0.0000 0.0000 0.0000
# 4 0.0000 0.0000 0.0000 34.0087 0.0000 0.0000
# 5 0.0000 0.0000 0.0000 0.0000 34.2769 0.0000
# 6 0.0000 0.0000 0.0000 0.0000 0.0000 26.6417
#
#
#
# Elastic Compliance Matrix: (Units=1/GPa)
#
#
# Indices 1 2 3 4 5 6 
#
# 1 0.022657 -0.009018 -0.006112 0.000000 0.000000 0.000000
# 2 -0.009018 0.012837 -0.002459 0.000000 0.000000 0.000000
# 3 -0.006112 -0.002459 0.009120 0.000000 0.000000 0.000000
# 4 0.000000 0.000000 0.000000 0.029404 0.000000 0.000000
# 5 0.000000 0.000000 0.000000 0.000000 0.029174 0.000000
# 6 0.000000 0.000000 0.000000 0.000000 0.000000 0.037535
#
#
# Mechanical properties :
#
#
# Convention : Reuss Voigt Hill
#
# Bulk Modulus (GPa) = 105.98062 120.24398 113.11230
# Shear Modulus (GPa) = 27.92492 30.78389 29.35441
#
# Velocity S-wave (km/s) = 3.89896 4.09368 3.99750
# Velocity P-wave (km/s) = 8.82968 9.37033 9.10402
#
# Compressibility (1/GPa) = 0.00943569
#
# Stress axis : x y z
#
# Youngs Moduli (GPa) = 44.13594 77.89744 109.65478
#
# Poissons Ratio (x) = 0.70250 0.67024
# Poissons Ratio (y) = 0.39803 0.26960
# Poissons Ratio (z) = 0.26977 0.19152
#
# Static dielectric constant tensor:
#      x y z
#    x 1.619940 0.000000 0.000000 
#    y 0.000000 1.595470 0.000000 
#    z 0.000000 0.000000 1.616430 
# 
# From -- ./inp_files/20346.got.cif
#   From: 2010.05.17/outbox.cif.g08.bks.cpg/sg59_11_cif.got.tgz:20346.got - 2010.06.03 14:40:33.
