data_PCOD9452809
_publ_section_title
;
Structure prediction by ZEFSAII (Michael W. Deem and Ramdas Pophale) SiO2 
 PCOD9452809
Probable space group: P M M N
;
_chemical_formula_sum "Si O2"
_cell_formula_units_Z 40
_cell_length_a 18.932821
_cell_length_b 8.837926
_cell_length_c 12.764208
_cell_angle_alpha 90.000000
_cell_angle_beta 90.000000
_cell_angle_gamma 90.000000
_cell_volume 2135.794985
_symmetry_space_group_name_H-M "P M M N"
_symmetry_group_IT_number 59
_space_group.IT_coordinate_system_code '2'
_symmetry_cell_setting 'orthorhombic'
loop_
_space_group_symop_operation_xyz
x,y,z
1/2-x,1/2-y,z
1/2+x,-y,-z
-x,1/2+y,-z
-x,-y,-z
1/2+x,1/2+y,-z
1/2-x,y,z
x,1/2-y,z
loop_
_atom_site_type_symbol
_atom_site_label
_atom_site_fract_x
_atom_site_fract_y
_atom_site_fract_z
Si Si1 0.667693 0.067504 0.528233
Si Si2 0.928073 0.569678 0.952690
Si Si3 0.166570 0.930054 0.872141
Si Si4 0.911074 0.930747 0.328948
Si Si5 0.927865 0.068645 0.723701
O O1 0.750000 0.024269 0.525081
O O2 0.663541 0.250000 0.517378
O O3 0.630910 0.027524 0.638151
O O4 0.624921 0.993659 0.433339
O O5 0.932124 0.750000 0.958072
O O6 0.919711 0.514678 0.833794
O O7 0.865229 0.508648 0.025369
O O8 0.000000 0.500000 0.000000
O O9 0.250000 0.957217 0.861984
O O10 0.154637 0.750000 0.878575
O O11 0.126355 0.995263 0.771395
O O12 0.902826 0.750000 0.323881
O O13 0.994493 0.965206 0.322797
O O14 0.924445 0.250000 0.741996
#
# Coordination Sequence:
#
# PCOD9452809 Si02
#       5
#     8   8   8   8   8
#     4  10  22  40  61  86 121 163 205 251 305 368
#     4  12  24  40  64  92 124 162 204 253 307 365
#     4  11  24  41  63  91 124 163 206 254 310 369
#     4  11  22  37  61  90 122 160 204 258 307 361
#     4  10  22  40  62  89 121 161 208 253 306 367
#
# _framework density 18.728389
#
# number of rings (size 3 to 8) (size 9 to 14) (size 15 to 20)
#    0.000    1.200    2.000    4.200    0.000    6.800 
#    0.000    2.000    0.000    0.000    0.000    0.000 
#    0.000    0.000    0.000    0.000    0.000    0.000 
#
# Total GULP energy -223734.791880 kJ/mol
# GULP energy per Si atom -5593.369797 kJ/mol
# Density = 1.868576 g / cm^3
# Si number density = 18.728389 Si / 1000 Ang^3
#
#
#
# Elastic Constant Matrix: (Units=GPa)
#
#
# Indices 1 2 3 4 5 6 
#
# 1 39.5630 26.0681 25.5662 0.0000 0.0000 0.0000
# 2 26.0681 47.6818 36.8100 0.0000 0.0000 0.0000
# 3 25.5662 36.8100 121.4235 0.0000 0.0000 0.0000
# 4 0.0000 0.0000 0.0000 38.9586 0.0000 0.0000
# 5 0.0000 0.0000 0.0000 0.0000 21.4357 0.0000
# 6 0.0000 0.0000 0.0000 0.0000 0.0000 28.1906
#
#
#
# Elastic Compliance Matrix: (Units=1/GPa)
#
#
# Indices 1 2 3 4 5 6 
#
# 1 0.040011 -0.020067 -0.002341 0.000000 0.000000 0.000000
# 2 -0.020067 0.037445 -0.007126 0.000000 0.000000 0.000000
# 3 -0.002341 -0.007126 0.010889 0.000000 0.000000 0.000000
# 4 0.000000 0.000000 0.000000 0.025668 0.000000 0.000000
# 5 0.000000 0.000000 0.000000 0.000000 0.046651 0.000000
# 6 0.000000 0.000000 0.000000 0.000000 0.000000 0.035473
#
#
# Mechanical properties :
#
#
# Convention : Reuss Voigt Hill
#
# Bulk Modulus (GPa) = 34.15798 42.83966 38.49882
# Shear Modulus (GPa) = 18.87040 25.73191 22.30116
#
# Velocity S-wave (km/s) = 3.17769 3.71071 3.45449
# Velocity P-wave (km/s) = 5.63399 6.42518 6.04255
#
# Compressibility (1/GPa) = 0.02927574
#
# Stress axis : x y z
#
# Youngs Moduli (GPa) = 24.99291 26.70597 91.83642
#
# Poissons Ratio (x) = 0.53592 0.21499
# Poissons Ratio (y) = 0.50154 0.65445
# Poissons Ratio (z) = 0.05851 0.19031
#
# Static dielectric constant tensor:
#      x y z
#    x 1.632880 0.000000 0.000000 
#    y 0.000000 1.629520 0.000000 
#    z 0.000000 0.000000 1.608310 
# 
# From -- ./inp_files/13813.got.cif
#   From: 2010.05.17/outbox.cif.g08.bks.cpg/sg59_7_cif.got.tgz:13813.got - 2010.06.03 14:40:33.
