data_PCOD9452061
_publ_section_title
;
Structure prediction by ZEFSAII (Michael W. Deem and Ramdas Pophale) SiO2 
 PCOD9452061
Probable space group: P M M N
;
_chemical_formula_sum "Si O2"
_cell_formula_units_Z 64
_cell_length_a 8.431531
_cell_length_b 28.689533
_cell_length_c 13.483439
_cell_angle_alpha 90.000000
_cell_angle_beta 90.000000
_cell_angle_gamma 90.000000
_cell_volume 3261.599222
_symmetry_space_group_name_H-M "P M M N"
_symmetry_group_IT_number 59
_space_group.IT_coordinate_system_code '2'
_symmetry_cell_setting 'orthorhombic'
loop_
_space_group_symop_operation_xyz
x,y,z
1/2-x,1/2-y,z
1/2+x,-y,-z
-x,1/2+y,-z
-x,-y,-z
1/2+x,1/2+y,-z
1/2-x,y,z
x,1/2-y,z
loop_
_atom_site_type_symbol
_atom_site_label
_atom_site_fract_x
_atom_site_fract_y
_atom_site_fract_z
Si Si1 0.060670 0.053823 0.784127
Si Si2 0.558924 0.804542 0.896701
Si Si3 0.441305 0.553911 0.784456
Si Si4 0.441052 0.695730 0.108794
Si Si5 0.059621 0.946647 0.003263
Si Si6 0.441727 0.303651 0.500318
Si Si7 0.560320 0.357114 0.693417
Si Si8 0.941202 0.643796 0.697900
O O1 0.250000 0.053945 0.780873
O O2 0.007255 0.071506 0.893233
O O3 0.992920 0.089467 0.704256
O O4 0.006875 0.999947 0.772104
O O5 0.750000 0.806647 0.898389
O O6 0.512386 0.750000 0.890133
O O7 0.501596 0.830550 0.798149
O O8 0.497344 0.822967 0.002282
O O9 0.250000 0.554064 0.782529
O O10 0.505931 0.590326 0.705588
O O11 0.491658 0.571285 0.895017
O O12 0.250000 0.694122 0.108486
O O13 0.490862 0.750000 0.115271
O O14 0.497659 0.669101 0.206620
O O15 0.250000 0.944690 0.008036
O O16 0.000000 0.000000 0.000000
O O17 0.250000 0.303037 0.498415
O O18 0.496683 0.250000 0.503154
O O19 0.495719 0.331474 0.596965
O O20 0.496590 0.329561 0.400295
O O21 0.750000 0.354867 0.692280
O O22 0.750000 0.645573 0.698524
#
# Coordination Sequence:
#
# PCOD9452061 Si02
#       8
#     8   8   8   8   8   8   8   8
#     4  10  21  37  56  81 115 155 198 241 289 347
#     4   9  18  33  53  80 113 146 182 226 278 339
#     4   9  20  36  54  80 116 154 192 237 285 340
#     4   9  19  35  53  77 112 148 179 221 281 344
#     4   9  17  31  51  78 113 154 195 237 285 336
#     4  10  22  42  65  87 114 149 191 240 291 345
#     4  11  23  38  59  86 115 149 193 243 294 347
#     4  10  21  36  58  86 113 147 192 239 287 340
#
# _framework density 19.622277
#
# number of rings (size 3 to 8) (size 9 to 14) (size 15 to 20)
#    0.000    2.375    0.000    2.625    1.750    7.250 
#    0.000    1.875    0.000    2.250    0.000    0.000 
#    0.000    0.000    0.000    0.000    0.000    0.000 
#
# Total GULP energy -357217.045313 kJ/mol
# GULP energy per Si atom -5581.516333 kJ/mol
# Density = 1.957762 g / cm^3
# Si number density = 19.622277 Si / 1000 Ang^3
#
#
#
# Elastic Constant Matrix: (Units=GPa)
#
#
# Indices 1 2 3 4 5 6 
#
# 1 10.1129 16.4515 21.9996 0.0000 0.0000 0.0000
# 2 16.4515 129.4794 94.1207 0.0000 0.0000 0.0000
# 3 21.9996 94.1207 158.3196 0.0000 0.0000 0.0000
# 4 0.0000 0.0000 0.0000 39.7996 0.0000 0.0000
# 5 0.0000 0.0000 0.0000 0.0000 33.5115 0.0000
# 6 0.0000 0.0000 0.0000 0.0000 0.0000 20.6602
#
#
#
# Elastic Compliance Matrix: (Units=1/GPa)
#
#
# Indices 1 2 3 4 5 6 
#
# 1 0.144903 -0.006647 -0.016184 0.000000 0.000000 0.000000
# 2 -0.006647 0.013906 -0.007343 0.000000 0.000000 0.000000
# 3 -0.016184 -0.007343 0.012931 0.000000 0.000000 0.000000
# 4 0.000000 0.000000 0.000000 0.025126 0.000000 0.000000
# 5 0.000000 0.000000 0.000000 0.000000 0.029841 0.000000
# 6 0.000000 0.000000 0.000000 0.000000 0.000000 0.048402
#
#
# Mechanical properties :
#
#
# Convention : Reuss Voigt Hill
#
# Bulk Modulus (GPa) = 8.97734 62.56174 35.76954
# Shear Modulus (GPa) = 13.41969 29.81693 21.61831
#
# Velocity S-wave (km/s) = 2.61799 3.90236 3.32282
# Velocity P-wave (km/s) = 3.70452 7.22889 5.74370
#
# Compressibility (1/GPa) = 0.11139163
#
# Stress axis : x y z
#
# Youngs Moduli (GPa) = 6.90116 71.91250 77.33516
#
# Poissons Ratio (x) = 0.47801 1.25156
# Poissons Ratio (y) = 0.04587 0.56790
# Poissons Ratio (z) = 0.11169 0.52807
#
# Static dielectric constant tensor:
#      x y z
#    x 1.672310 0.000000 0.000000 
#    y 0.000000 1.708790 0.000000 
#    z 0.000000 0.000000 1.679780 
# 
# From -- ./inp_files/14869.got.cif
#   From: 2010.05.17/outbox.cif.g08.bks.cpg/sg59_8_cif.got.tgz:14869.got - 2010.06.03 14:40:33.
