data_PCOD9452307
_publ_section_title
;
Structure prediction by ZEFSAII (Michael W. Deem and Ramdas Pophale) SiO2 
 PCOD9452307
Probable space group: P M M N
;
_chemical_formula_sum "Si O2"
_cell_formula_units_Z 48
_cell_length_a 9.776195
_cell_length_b 9.385318
_cell_length_c 28.468972
_cell_angle_alpha 90.000000
_cell_angle_beta 90.000000
_cell_angle_gamma 90.000000
_cell_volume 2612.105016
_symmetry_space_group_name_H-M "P M M N"
_symmetry_group_IT_number 59
_space_group.IT_coordinate_system_code '2'
_symmetry_cell_setting 'orthorhombic'
loop_
_space_group_symop_operation_xyz
x,y,z
1/2-x,1/2-y,z
1/2+x,-y,-z
-x,1/2+y,-z
-x,-y,-z
1/2+x,1/2+y,-z
1/2-x,y,z
x,1/2-y,z
loop_
_atom_site_type_symbol
_atom_site_label
_atom_site_fract_x
_atom_site_fract_y
_atom_site_fract_z
Si Si1 0.091876 0.585072 0.299246
Si Si2 0.591081 0.918553 0.794022
Si Si3 0.583283 0.750000 0.573611
Si Si4 0.498014 0.576239 0.897276
Si Si5 0.412412 0.250000 0.534375
Si Si6 0.250000 0.925578 0.051468
Si Si7 0.083806 0.486912 0.611080
Si Si8 0.750000 0.924800 0.050761
O O1 0.250000 0.542738 0.312845
O O2 0.098156 0.750000 0.286020
O O3 0.049577 0.496862 0.253463
O O4 0.982141 0.570265 0.340849
O O5 0.750000 0.957990 0.803651
O O6 0.587347 0.750000 0.785359
O O7 0.506381 0.945593 0.841175
O O8 0.750000 0.750000 0.576780
O O9 0.536350 0.750000 0.518747
O O10 0.509957 0.879906 0.598932
O O11 0.497872 0.750000 0.905657
O O12 0.624385 0.495723 0.920976
O O13 0.375222 0.491598 0.920730
O O14 0.250000 0.250000 0.528911
O O15 0.445230 0.383203 0.567129
O O16 0.250000 0.750000 0.049998
O O17 0.250000 0.997584 0.999925
O O18 0.250000 0.507550 0.614295
O O19 0.750000 0.750000 0.047440
#
# Coordination Sequence:
#
# PCOD9452307 Si02
#       8
#     8   8   4   8   4   4   8   4
#     4  10  21  37  59  88 118 155 202 254 306 367
#     4   9  19  38  64  91 118 156 204 256 309 364
#     4  11  23  39  61  91 121 161 209 257 300 363
#     4  11  22  42  66  91 125 166 210 264 319 378
#     4   9  20  39  63  87 123 161 203 249 310 369
#     4  12  24  40  66  96 126 168 214 258 315 376
#     4  11  22  40  61  88 124 163 201 253 312 371
#     4  12  26  42  60  92 132 170 210 262 315 382
#
# _framework density 18.375983999999999
#
# number of rings (size 3 to 8) (size 9 to 14) (size 15 to 20)
#    0.000    1.500    1.667    3.750    1.167    1.333 
#    1.500    2.500    0.000    0.000    0.000    0.000 
#    0.000    0.000    0.000    0.000    0.000    0.000 
#
# Total GULP energy -267411.785967 kJ/mol
# GULP energy per Si atom -5571.078874 kJ/mol
# Density = 1.833416 g / cm^3
# Si number density = 18.375984 Si / 1000 Ang^3
#
#
#
# Elastic Constant Matrix: (Units=GPa)
#
#
# Indices 1 2 3 4 5 6 
#
# 1 98.6724 25.5184 20.3734 0.0000 0.0000 0.0000
# 2 25.5184 91.5919 21.5068 0.0000 0.0000 0.0000
# 3 20.3734 21.5068 89.6284 0.0000 0.0000 0.0000
# 4 0.0000 0.0000 0.0000 46.2841 0.0000 0.0000
# 5 0.0000 0.0000 0.0000 0.0000 43.4724 0.0000
# 6 0.0000 0.0000 0.0000 0.0000 0.0000 102.6914
#
#
#
# Elastic Compliance Matrix: (Units=1/GPa)
#
#
# Indices 1 2 3 4 5 6 
#
# 1 0.011221 -0.002678 -0.001908 0.000000 0.000000 0.000000
# 2 -0.002678 0.012209 -0.002321 0.000000 0.000000 0.000000
# 3 -0.001908 -0.002321 0.012148 0.000000 0.000000 0.000000
# 4 0.000000 0.000000 0.000000 0.021606 0.000000 0.000000
# 5 0.000000 0.000000 0.000000 0.000000 0.023003 0.000000
# 6 0.000000 0.000000 0.000000 0.000000 0.000000 0.009738
#
#
# Mechanical properties :
#
#
# Convention : Reuss Voigt Hill
#
# Bulk Modulus (GPa) = 45.94789 46.07667 46.01228
# Shear Modulus (GPa) = 45.04757 52.65584 48.85171
#
# Velocity S-wave (km/s) = 4.95657 5.35882 5.16161
# Velocity P-wave (km/s) = 7.60364 7.96354 7.78567
#
# Compressibility (1/GPa) = 0.02176379
#
# Stress axis : x y z
#
# Youngs Moduli (GPa) = 89.11735 81.90569 82.31953
#
# Poissons Ratio (x) = 0.21937 0.15707
# Poissons Ratio (y) = 0.23868 0.19105
# Poissons Ratio (z) = 0.17004 0.19009
#
# Static dielectric constant tensor:
#      x y z
#    x 2.011100 0.000000 0.000000 
#    y 0.000000 1.605100 0.000000 
#    z 0.000000 0.000000 1.626310 
# 
# From -- ./inp_files/33114.got.cif
#   From: 2010.05.17/outbox.cif.g08.bks.cpg/sg59_17_cif.got.tgz:33114.got - 2010.06.03 14:40:33.
