data_PCOD9452325
_publ_section_title
;
Structure prediction by ZEFSAII (Michael W. Deem and Ramdas Pophale) SiO2 
 PCOD9452325
Probable space group: P M M N
;
_chemical_formula_sum "Si O2"
_cell_formula_units_Z 64
_cell_length_a 31.774453
_cell_length_b 8.579732
_cell_length_c 12.207408
_cell_angle_alpha 90.000000
_cell_angle_beta 90.000000
_cell_angle_gamma 90.000000
_cell_volume 3327.938294
_symmetry_space_group_name_H-M "P M M N"
_symmetry_group_IT_number 59
_space_group.IT_coordinate_system_code '2'
_symmetry_cell_setting 'orthorhombic'
loop_
_space_group_symop_operation_xyz
x,y,z
1/2-x,1/2-y,z
1/2+x,-y,-z
-x,1/2+y,-z
-x,-y,-z
1/2+x,1/2+y,-z
1/2-x,y,z
x,1/2-y,z
loop_
_atom_site_type_symbol
_atom_site_label
_atom_site_fract_x
_atom_site_fract_y
_atom_site_fract_z
Si Si1 0.921026 0.438514 0.503467
Si Si2 0.326208 0.436700 0.502572
Si Si3 0.376353 0.063364 0.864147
Si Si4 0.546317 0.063762 0.742243
Si Si5 0.544239 0.436255 0.269354
Si Si6 0.876338 0.938478 0.882590
Si Si7 0.296872 0.439870 0.260487
Si Si8 0.797099 0.063767 0.267832
O O1 0.916465 0.250000 0.502415
O O2 0.874980 0.513667 0.497049
O O3 0.942663 0.484937 0.617345
O O4 0.947003 0.484296 0.395569
O O5 0.322847 0.250000 0.512311
O O6 0.306679 0.484402 0.385915
O O7 0.304142 0.514051 0.606427
O O8 0.379557 0.250000 0.859944
O O9 0.416316 0.992582 0.801669
O O10 0.333814 0.012118 0.803559
O O11 0.375656 0.013144 0.990866
O O12 0.547253 0.250000 0.746759
O O13 0.499860 0.004982 0.770149
O O14 0.582319 0.997752 0.820846
O O15 0.542145 0.250000 0.265812
O O16 0.876568 0.750000 0.879219
O O17 0.834661 0.993082 0.817673
O O18 0.250000 0.491710 0.228587
O O19 0.297115 0.250000 0.257787
O O20 0.750000 0.016759 0.233240
O O21 0.800705 0.250000 0.260025
#
# Coordination Sequence:
#
# PCOD9452325 Si02
#       8
#     8   8   8   8   8   8   8   8
#     4  10  21  37  59  89 123 158 193 239 300 361
#     4  11  20  33  61  92 122 157 196 244 294 354
#     4  11  24  41  63  89 117 155 206 256 299 350
#     4  11  23  39  62  91 123 156 198 246 295 358
#     4  11  23  40  63  88 121 160 197 242 303 362
#     4  10  22  41  62  86 118 157 202 251 302 353
#     4   9  18  34  58  89 121 153 191 239 296 351
#     4  11  24  41  61  87 124 164 199 242 299 359
#
# _framework density 19.231127000000001
#
# number of rings (size 3 to 8) (size 9 to 14) (size 15 to 20)
#    0.000    1.500    2.500    2.625    0.000    4.500 
#    0.000    1.250    0.000    1.125    0.000    0.000 
#    0.000    0.000    0.000    0.000    0.000    0.000 
#
# Total GULP energy -357748.299308 kJ/mol
# GULP energy per Si atom -5589.817177 kJ/mol
# Density = 1.918736 g / cm^3
# Si number density = 19.231127 Si / 1000 Ang^3
#
#
#
# Elastic Constant Matrix: (Units=GPa)
#
#
# Indices 1 2 3 4 5 6 
#
# 1 149.7236 8.9189 60.1766 0.0000 0.0000 0.0000
# 2 8.9189 10.1442 16.0017 0.0000 0.0000 0.0000
# 3 60.1766 16.0017 136.3920 0.0000 0.0000 0.0000
# 4 0.0000 0.0000 0.0000 15.6855 0.0000 0.0000
# 5 0.0000 0.0000 0.0000 0.0000 7.0048 0.0000
# 6 0.0000 0.0000 0.0000 0.0000 0.0000 22.1638
#
#
#
# Elastic Compliance Matrix: (Units=1/GPa)
#
#
# Indices 1 2 3 4 5 6 
#
# 1 0.008146 -0.001832 -0.003379 0.000000 0.000000 0.000000
# 2 -0.001832 0.121377 -0.013432 0.000000 0.000000 0.000000
# 3 -0.003379 -0.013432 0.010399 0.000000 0.000000 0.000000
# 4 0.000000 0.000000 0.000000 0.063753 0.000000 0.000000
# 5 0.000000 0.000000 0.000000 0.000000 0.142759 0.000000
# 6 0.000000 0.000000 0.000000 0.000000 0.000000 0.045119
#
#
# Mechanical properties :
#
#
# Convention : Reuss Voigt Hill
#
# Bulk Modulus (GPa) = 9.74319 51.82825 30.78572
# Shear Modulus (GPa) = 10.79797 23.04833 16.92315
#
# Velocity S-wave (km/s) = 2.37214 3.46568 2.96968
# Velocity P-wave (km/s) = 3.54684 6.55921 5.27273
#
# Compressibility (1/GPa) = 0.10263580
#
# Stress axis : x y z
#
# Youngs Moduli (GPa) = 122.75550 8.23881 96.16694
#
# Poissons Ratio (x) = 0.01509 0.32497
# Poissons Ratio (y) = 0.22487 1.29170
# Poissons Ratio (z) = 0.41482 0.11066
#
# Static dielectric constant tensor:
#      x y z
#    x 1.647310 0.000000 0.000000 
#    y 0.000000 1.649960 0.000000 
#    z 0.000000 0.000000 1.658140 
# 
# From -- ./inp_files/14974.got.cif
#   From: 2010.05.17/outbox.cif.g08.bks.cpg/sg59_8_cif.got.tgz:14974.got - 2010.06.03 14:40:33.
