data_PCOD9452553
_publ_section_title
;
Structure prediction by ZEFSAII (Michael W. Deem and Ramdas Pophale) SiO2 
 PCOD9452553
Probable space group: P M M N
;
_chemical_formula_sum "Si O2"
_cell_formula_units_Z 40
_cell_length_a 9.012067
_cell_length_b 15.728235
_cell_length_c 14.952734
_cell_angle_alpha 90.000000
_cell_angle_beta 90.000000
_cell_angle_gamma 90.000000
_cell_volume 2119.458947
_symmetry_space_group_name_H-M "P M M N"
_symmetry_group_IT_number 59
_space_group.IT_coordinate_system_code '2'
_symmetry_cell_setting 'orthorhombic'
loop_
_space_group_symop_operation_xyz
x,y,z
1/2-x,1/2-y,z
1/2+x,-y,-z
-x,1/2+y,-z
-x,-y,-z
1/2+x,1/2+y,-z
1/2-x,y,z
x,1/2-y,z
loop_
_atom_site_type_symbol
_atom_site_label
_atom_site_fract_x
_atom_site_fract_y
_atom_site_fract_z
Si Si1 0.575100 0.112040 0.586802
Si Si2 0.427541 0.250000 0.712963
Si Si3 0.570739 0.250000 0.909107
Si Si4 0.573232 0.087197 0.030712
Si Si5 0.078193 0.350793 0.206650
Si Si6 0.925791 0.590966 0.597627
O O1 0.750000 0.130826 0.592622
O O2 0.487816 0.168564 0.658101
O O3 0.514340 0.127074 0.486752
O O4 0.553950 0.011051 0.602415
O O5 0.250000 0.250000 0.715306
O O6 0.493648 0.250000 0.812825
O O7 0.750000 0.250000 0.897466
O O8 0.530246 0.166279 0.966544
O O9 0.750000 0.080116 0.027590
O O10 0.519553 0.106948 0.130667
O O11 0.500000 0.000000 0.000000
O O12 0.250000 0.380068 0.198424
O O13 0.075125 0.250000 0.193091
O O14 0.029100 0.371003 0.307313
O O15 0.750000 0.607644 0.584100
#
# Coordination Sequence:
#
# PCOD9452553 Si02
#       6
#     8   4   4   8   8   8
#     4  10  21  39  60  87 123 161 202 246 298 358
#     4  12  26  40  61  88 119 156 205 254 300 358
#     4  10  24  46  65  86 123 162 201 254 312 368
#     4  11  24  43  66  92 123 161 205 255 311 369
#     4  10  21  38  62  92 124 160 202 250 304 363
#     4   9  20  38  61  89 123 161 200 245 298 356
#
# _framework density 18.87274
#
# number of rings (size 3 to 8) (size 9 to 14) (size 15 to 20)
#    0.000    1.800    1.000    2.100    4.200    3.200 
#    0.000    0.000    0.000    0.000    0.000    0.000 
#    0.000    0.000    0.000    0.000    0.000    0.000 
#
# Total GULP energy -223537.678723 kJ/mol
# GULP energy per Si atom -5588.441968 kJ/mol
# Density = 1.882978 g / cm^3
# Si number density = 18.872740 Si / 1000 Ang^3
#
#
#
# Elastic Constant Matrix: (Units=GPa)
#
#
# Indices 1 2 3 4 5 6 
#
# 1 69.2351 42.5448 51.1949 0.0000 0.0000 0.0000
# 2 42.5448 75.8121 46.3877 0.0000 0.0000 0.0000
# 3 51.1949 46.3877 121.0870 0.0000 0.0000 0.0000
# 4 0.0000 0.0000 0.0000 32.3309 0.0000 0.0000
# 5 0.0000 0.0000 0.0000 0.0000 41.6074 0.0000
# 6 0.0000 0.0000 0.0000 0.0000 0.0000 29.3152
#
#
#
# Elastic Compliance Matrix: (Units=1/GPa)
#
#
# Indices 1 2 3 4 5 6 
#
# 1 0.025954 -0.010255 -0.007045 0.000000 0.000000 0.000000
# 2 -0.010255 0.021281 -0.003817 0.000000 0.000000 0.000000
# 3 -0.007045 -0.003817 0.012699 0.000000 0.000000 0.000000
# 4 0.000000 0.000000 0.000000 0.030930 0.000000 0.000000
# 5 0.000000 0.000000 0.000000 0.000000 0.024034 0.000000
# 6 0.000000 0.000000 0.000000 0.000000 0.000000 0.034112
#
#
# Mechanical properties :
#
#
# Convention : Reuss Voigt Hill
#
# Bulk Modulus (GPa) = 56.49238 60.70990 58.60114
# Shear Modulus (GPa) = 25.36222 29.05116 27.20669
#
# Velocity S-wave (km/s) = 3.66984 3.92767 3.80094
# Velocity P-wave (km/s) = 6.92497 7.26682 7.09796
#
# Compressibility (1/GPa) = 0.01770150
#
# Stress axis : x y z
#
# Youngs Moduli (GPa) = 38.52952 46.99086 78.74461
#
# Poissons Ratio (x) = 0.48187 0.55474
# Poissons Ratio (y) = 0.39510 0.30056
# Poissons Ratio (z) = 0.27143 0.17936
#
# Static dielectric constant tensor:
#      x y z
#    x 1.635540 0.000000 0.000000 
#    y 0.000000 1.658310 0.000000 
#    z 0.000000 0.000000 1.618690 
# 
# From -- ./inp_files/20009.got.cif
#   From: 2010.05.17/outbox.cif.g08.bks.cpg/sg59_11_cif.got.tgz:20009.got - 2010.06.03 14:40:33.
