data_PCOD9452154
_publ_section_title
;
Structure prediction by ZEFSAII (Michael W. Deem and Ramdas Pophale) SiO2 
 PCOD9452154
Probable space group: P M M N
;
_chemical_formula_sum "Si O2"
_cell_formula_units_Z 64
_cell_length_a 15.173592
_cell_length_b 15.996625
_cell_length_c 12.683626
_cell_angle_alpha 90.000000
_cell_angle_beta 90.000000
_cell_angle_gamma 90.000000
_cell_volume 3078.649117
_symmetry_space_group_name_H-M "P M M N"
_symmetry_group_IT_number 59
_space_group.IT_coordinate_system_code '2'
_symmetry_cell_setting 'orthorhombic'
loop_
_space_group_symop_operation_xyz
x,y,z
1/2-x,1/2-y,z
1/2+x,-y,-z
-x,1/2+y,-z
-x,-y,-z
1/2+x,1/2+y,-z
1/2-x,y,z
x,1/2-y,z
loop_
_atom_site_type_symbol
_atom_site_label
_atom_site_fract_x
_atom_site_fract_y
_atom_site_fract_z
Si Si1 0.146305 0.648978 0.793736
Si Si2 0.147803 0.914427 0.222763
Si Si3 0.910057 0.446130 0.998945
Si Si4 0.503250 0.148912 0.620406
Si Si5 0.149747 0.348583 0.770632
Si Si6 0.987030 0.152118 0.383172
Si Si7 0.848032 0.877495 0.997896
Si Si8 0.146943 0.383916 0.234189
O O1 0.250000 0.628043 0.785333
O O2 0.139501 0.750000 0.800076
O O3 0.088714 0.618037 0.694258
O O4 0.105277 0.608532 0.898424
O O5 0.250000 0.888948 0.224964
O O6 0.105161 0.896023 0.108605
O O7 0.089839 0.874925 0.314483
O O8 0.143857 0.015215 0.234651
O O9 0.841627 0.522437 0.997816
O O10 0.111227 0.355814 0.889473
O O11 0.496396 0.250000 0.617803
O O12 0.418615 0.116068 0.685960
O O13 0.507174 0.116492 0.500781
O O14 0.250000 0.383902 0.768040
O O15 0.157579 0.250000 0.749682
O O16 0.965806 0.250000 0.396038
O O17 0.080100 0.145962 0.322767
O O18 0.750000 0.841536 0.001464
O O19 0.884755 0.854751 0.882822
O O20 0.000000 0.000000 0.000000
O O21 0.250000 0.359601 0.247369
#
# Coordination Sequence:
#
# PCOD9452154 Si02
#       8
#     8   8   8   8   8   8   8   8
#     4  10  21  37  57  82 114 150 189 235 281 328
#     4  10  21  37  56  80 111 144 180 225 273 326
#     4  11  20  34  58  85 113 144 176 220 278 336
#     4  10  22  38  55  77 106 145 191 234 279 329
#     4   9  18  33  53  79 111 144 182 231 283 338
#     4  10  22  38  55  78 108 145 191 236 277 328
#     4   9  17  31  52  78 108 140 173 212 267 336
#     4   9  19  36  57  82 112 143 176 223 284 341
#
# _framework density 20.788339000000001
#
# number of rings (size 3 to 8) (size 9 to 14) (size 15 to 20)
#    0.000    2.250    0.000    4.125    0.000    3.000 
#    0.000    6.875    0.000    1.500    0.000    0.000 
#    0.000    0.000    0.000    0.000    0.000    0.000 
#
# Total GULP energy -357011.707679 kJ/mol
# GULP energy per Si atom -5578.307932 kJ/mol
# Density = 2.074102 g / cm^3
# Si number density = 20.788339 Si / 1000 Ang^3
#
#
#
# Elastic Constant Matrix: (Units=GPa)
#
#
# Indices 1 2 3 4 5 6 
#
# 1 148.5151 9.1357 95.6560 0.0000 0.0000 0.0000
# 2 9.1357 24.2338 16.9874 0.0000 0.0000 0.0000
# 3 95.6560 16.9874 224.9600 0.0000 0.0000 0.0000
# 4 0.0000 0.0000 0.0000 33.6438 0.0000 0.0000
# 5 0.0000 0.0000 0.0000 0.0000 6.6785 0.0000
# 6 0.0000 0.0000 0.0000 0.0000 0.0000 24.2440
#
#
#
# Elastic Compliance Matrix: (Units=1/GPa)
#
#
# Indices 1 2 3 4 5 6 
#
# 1 0.009287 -0.000774 -0.003890 0.000000 0.000000 0.000000
# 2 -0.000774 0.043635 -0.002966 0.000000 0.000000 0.000000
# 3 -0.003890 -0.002966 0.006323 0.000000 0.000000 0.000000
# 4 0.000000 0.000000 0.000000 0.029723 0.000000 0.000000
# 5 0.000000 0.000000 0.000000 0.000000 0.149733 0.000000
# 6 0.000000 0.000000 0.000000 0.000000 0.000000 0.041247
#
#
# Mechanical properties :
#
#
# Convention : Reuss Voigt Hill
#
# Bulk Modulus (GPa) = 22.73494 71.25192 46.99343
# Shear Modulus (GPa) = 16.13573 31.30861 23.72217
#
# Velocity S-wave (km/s) = 2.78904 3.88502 3.38172
# Velocity P-wave (km/s) = 4.61864 7.38064 6.15653
#
# Compressibility (1/GPa) = 0.04398516
#
# Stress axis : x y z
#
# Youngs Moduli (GPa) = 107.68156 22.91713 158.14169
#
# Poissons Ratio (x) = 0.01773 0.61523
# Poissons Ratio (y) = 0.08333 0.46905
# Poissons Ratio (z) = 0.41892 0.06797
#
# Static dielectric constant tensor:
#      x y z
#    x 1.802240 0.000000 0.000000 
#    y 0.000000 1.770090 0.000000 
#    z 0.000000 0.000000 1.761430 
# 
# From -- ./inp_files/16267.got.cif
#   From: 2010.05.17/outbox.cif.g08.bks.cpg/sg59_9_cif.got.tgz:16267.got - 2010.06.03 14:40:33.
