data_PCOD9452093
_publ_section_title
;
Structure prediction by ZEFSAII (Michael W. Deem and Ramdas Pophale) SiO2 
 PCOD9452093
Probable space group: P M M N
;
_chemical_formula_sum "Si O2"
_cell_formula_units_Z 64
_cell_length_a 14.194316
_cell_length_b 9.108831
_cell_length_c 29.611465
_cell_angle_alpha 90.000000
_cell_angle_beta 90.000000
_cell_angle_gamma 90.000000
_cell_volume 3828.573669
_symmetry_space_group_name_H-M "P M M N"
_symmetry_group_IT_number 59
_space_group.IT_coordinate_system_code '2'
_symmetry_cell_setting 'orthorhombic'
loop_
_space_group_symop_operation_xyz
x,y,z
1/2-x,1/2-y,z
1/2+x,-y,-z
-x,1/2+y,-z
-x,-y,-z
1/2+x,1/2+y,-z
1/2-x,y,z
x,1/2-y,z
loop_
_atom_site_type_symbol
_atom_site_label
_atom_site_fract_x
_atom_site_fract_y
_atom_site_fract_z
Si Si1 0.364794 0.417559 0.479536
Si Si2 0.861921 0.076719 0.613811
Si Si3 0.858466 0.926343 0.979549
Si Si4 0.638496 0.075652 0.429215
Si Si5 0.973767 0.926594 0.069874
Si Si6 0.524049 0.425565 0.338690
Si Si7 0.357716 0.071347 0.844022
Si Si8 0.861151 0.926026 0.259205
O O1 0.250000 0.416017 0.481156
O O2 0.397799 0.250000 0.475571
O O3 0.388683 0.507769 0.434728
O O4 0.395674 0.491092 0.526286
O O5 0.750000 0.054807 0.619851
O O6 0.881012 0.250000 0.613729
O O7 0.922682 0.996092 0.651721
O O8 0.750000 0.972908 0.976010
O O9 0.862299 0.750000 0.974603
O O10 0.927785 0.000496 0.943598
O O11 0.901126 0.960907 0.029071
O O12 0.750000 0.045766 0.423469
O O13 0.628079 0.250000 0.436864
O O14 0.585387 0.036342 0.383322
O O15 0.984516 0.750000 0.071098
O O16 0.928870 0.977056 0.117078
O O17 0.518256 0.250000 0.335751
O O18 0.575277 0.491474 0.295255
O O19 0.250000 0.024281 0.853536
O O20 0.356695 0.250000 0.844985
O O21 0.382089 0.030135 0.792662
O O22 0.750000 0.955755 0.267175
O O23 0.874217 0.750000 0.263134
#
# Coordination Sequence:
#
# PCOD9452093 Si02
#       8
#     8   8   8   8   8   8   8   8
#     4   9  17  30  49  72  96 122 154 192 231 272
#     4  10  21  37  55  72  92 121 157 197 239 283
#     4   9  17  28  42  64  98 136 167 199 244 292
#     4   9  18  32  48  68  97 130 158 183 218 271
#     4   9  16  27  46  70  94 125 168 210 242 280
#     4  11  22  34  51  74  99 127 157 193 238 287
#     4   8  14  27  49  74  97 124 160 200 239 280
#     4   9  18  33  53  76 101 127 156 194 240 289
#
# _framework density 16.716408000000001
#
# number of rings (size 3 to 8) (size 9 to 14) (size 15 to 20)
#    0.000    2.750    0.000    2.625    0.000    6.250 
#    0.000    1.875    0.000    2.625    0.000    1.750 
#    0.000    0.000    0.000    0.000    0.000    0.000 
#
# Total GULP energy -357037.986938 kJ/mol
# GULP energy per Si atom -5578.718546 kJ/mol
# Density = 1.667836 g / cm^3
# Si number density = 16.716408 Si / 1000 Ang^3
#
#
#
# Elastic Constant Matrix: (Units=GPa)
#
#
# Indices 1 2 3 4 5 6 
#
# 1 106.0026 45.4358 75.7604 0.0000 0.0000 0.0000
# 2 45.4358 43.5878 51.7981 0.0000 0.0000 0.0000
# 3 75.7604 51.7981 128.1305 0.0000 0.0000 0.0000
# 4 0.0000 0.0000 0.0000 24.5358 0.0000 0.0000
# 5 0.0000 0.0000 0.0000 0.0000 31.5569 0.0000
# 6 0.0000 0.0000 0.0000 0.0000 0.0000 21.3071
#
#
#
# Elastic Compliance Matrix: (Units=1/GPa)
#
#
# Indices 1 2 3 4 5 6 
#
# 1 0.019408 -0.012691 -0.006345 0.000000 0.000000 0.000000
# 2 -0.012691 0.052452 -0.013701 0.000000 0.000000 0.000000
# 3 -0.006345 -0.013701 0.017095 0.000000 0.000000 0.000000
# 4 0.000000 0.000000 0.000000 0.040757 0.000000 0.000000
# 5 0.000000 0.000000 0.000000 0.000000 0.031689 0.000000
# 6 0.000000 0.000000 0.000000 0.000000 0.000000 0.046933
#
#
# Mechanical properties :
#
#
# Convention : Reuss Voigt Hill
#
# Bulk Modulus (GPa) = 42.58534 69.30106 55.94320
# Shear Modulus (GPa) = 17.75350 22.46173 20.10762
#
# Velocity S-wave (km/s) = 3.26243 3.66962 3.47200
# Velocity P-wave (km/s) = 6.30252 7.71374 7.04356
#
# Compressibility (1/GPa) = 0.02348226
#
# Stress axis : x y z
#
# Youngs Moduli (GPa) = 51.52431 19.06497 58.49634
#
# Poissons Ratio (x) = 0.24194 0.37118
# Poissons Ratio (y) = 0.65387 0.80144
# Poissons Ratio (z) = 0.32694 0.26120
#
# Static dielectric constant tensor:
#      x y z
#    x 1.580750 0.000000 0.000000 
#    y 0.000000 1.557840 0.000000 
#    z 0.000000 0.000000 1.542360 
# 
# From -- ./inp_files/33341.got.cif
#   From: 2010.05.17/outbox.cif.g08.bks.cpg/sg59_17_cif.got.tgz:33341.got - 2010.06.03 14:40:33.
