data_PCOD9452944
_publ_section_title
;
Structure prediction by ZEFSAII (Michael W. Deem and Ramdas Pophale) SiO2 
 PCOD9452944
Probable space group: P M M N
;
_chemical_formula_sum "Si O2"
_cell_formula_units_Z 32
_cell_length_a 8.155411
_cell_length_b 32.443141
_cell_length_c 4.820453
_cell_angle_alpha 90.000000
_cell_angle_beta 90.000000
_cell_angle_gamma 90.000000
_cell_volume 1275.429916
_symmetry_space_group_name_H-M "P M M N"
_symmetry_group_IT_number 59
_space_group.IT_coordinate_system_code '2'
_symmetry_cell_setting 'orthorhombic'
loop_
_space_group_symop_operation_xyz
x,y,z
1/2-x,1/2-y,z
1/2+x,-y,-z
-x,1/2+y,-z
-x,-y,-z
1/2+x,1/2+y,-z
1/2-x,y,z
x,1/2-y,z
loop_
_atom_site_type_symbol
_atom_site_label
_atom_site_fract_x
_atom_site_fract_y
_atom_site_fract_z
Si Si1 0.250000 0.548105 0.965755
Si Si2 0.250000 0.007646 0.467310
Si Si3 0.940590 0.204496 0.899647
Si Si4 0.934227 0.921178 0.264348
Si Si5 0.940112 0.660100 0.600995
O O1 0.250000 0.505672 0.148919
O O2 0.415401 0.571416 0.057867
O O3 0.250000 0.533700 0.650326
O O4 0.399586 0.037072 0.561519
O O5 0.750000 0.204637 0.969927
O O6 0.010314 0.250000 0.955828
O O7 0.023709 0.168834 0.079862
O O8 0.960521 0.193065 0.579288
O O9 0.750000 0.912466 0.138608
O O10 0.975982 0.884739 0.477945
O O11 0.750000 0.668000 0.549762
#
# Coordination Sequence:
#
# PCOD9452944 Si02
#       5
#     4   4   8   8   8
#     4  12  22  42  66  92 123 178 213 264 328 382
#     4  10  24  42  64  92 131 164 221 268 320 384
#     4  11  25  43  68  98 133 171 218 271 324 393
#     4   9  24  42  63  97 129 169 215 271 319 384
#     4  11  24  44  66  98 134 173 217 272 328 392
#
# _framework density 25.089580000000002
#
# number of rings (size 3 to 8) (size 9 to 14) (size 15 to 20)
#    0.750    0.750    0.000    3.750    3.500    9.000 
#    0.000    0.000    0.000    0.000    0.000    0.000 
#    0.000    0.000    0.000    0.000    0.000    0.000 
#
# Total GULP energy -179260.512655 kJ/mol
# GULP energy per Si atom -5601.891020 kJ/mol
# Density = 2.503248 g / cm^3
# Si number density = 25.089580 Si / 1000 Ang^3
#
#
#
# Elastic Constant Matrix: (Units=GPa)
#
#
# Indices 1 2 3 4 5 6 
#
# 1 97.0977 36.3668 14.3444 0.0000 0.0000 0.0000
# 2 36.3668 89.8532 9.6479 0.0000 0.0000 0.0000
# 3 14.3444 9.6479 76.2560 0.0000 0.0000 0.0000
# 4 0.0000 0.0000 0.0000 29.6095 0.0000 0.0000
# 5 0.0000 0.0000 0.0000 0.0000 29.2927 0.0000
# 6 0.0000 0.0000 0.0000 0.0000 0.0000 25.9560
#
#
#
# Elastic Compliance Matrix: (Units=1/GPa)
#
#
# Indices 1 2 3 4 5 6 
#
# 1 0.012356 -0.004817 -0.001715 0.000000 0.000000 0.000000
# 2 -0.004817 0.013160 -0.000759 0.000000 0.000000 0.000000
# 3 -0.001715 -0.000759 0.013532 0.000000 0.000000 0.000000
# 4 0.000000 0.000000 0.000000 0.033773 0.000000 0.000000
# 5 0.000000 0.000000 0.000000 0.000000 0.034138 0.000000
# 6 0.000000 0.000000 0.000000 0.000000 0.000000 0.038527
#
#
# Mechanical properties :
#
#
# Convention : Reuss Voigt Hill
#
# Bulk Modulus (GPa) = 40.87054 42.65835 41.76445
# Shear Modulus (GPa) = 29.72221 30.49482 30.10852
#
# Velocity S-wave (km/s) = 3.44560 3.49009 3.46792
# Velocity P-wave (km/s) = 5.67052 5.76891 5.71993
#
# Compressibility (1/GPa) = 0.02446750
#
# Stress axis : x y z
#
# Youngs Moduli (GPa) = 80.92986 75.98585 73.89710
#
# Poissons Ratio (x) = 0.36602 0.12673
# Poissons Ratio (y) = 0.38983 0.05608
# Poissons Ratio (z) = 0.13879 0.05767
#
# Static dielectric constant tensor:
#      x y z
#    x 1.967550 0.000000 0.000000 
#    y 0.000000 1.992280 0.000000 
#    z 0.000000 0.000000 1.880270 
# 
# From -- ./inp_files/612.got.cif
#   From: 2010.05.17/outbox.cif.g08.bks.cpg/sg59_1_cif.got.tgz:612.got - 2010.06.03 14:40:33.
