data_PCOD9452942
_publ_section_title
;
Structure prediction by ZEFSAII (Michael W. Deem and Ramdas Pophale) SiO2 
 PCOD9452942
Probable space group: P M M N
;
_chemical_formula_sum "Si O2"
_cell_formula_units_Z 60
_cell_length_a 25.036878
_cell_length_b 21.348739
_cell_length_c 4.944218
_cell_angle_alpha 90.000000
_cell_angle_beta 90.000000
_cell_angle_gamma 90.000000
_cell_volume 2642.713068
_symmetry_space_group_name_H-M "P M M N"
_symmetry_group_IT_number 59
_space_group.IT_coordinate_system_code '2'
_symmetry_cell_setting 'orthorhombic'
loop_
_space_group_symop_operation_xyz
x,y,z
1/2-x,1/2-y,z
1/2+x,-y,-z
-x,1/2+y,-z
-x,-y,-z
1/2+x,1/2+y,-z
1/2-x,y,z
x,1/2-y,z
loop_
_atom_site_type_symbol
_atom_site_label
_atom_site_fract_x
_atom_site_fract_y
_atom_site_fract_z
Si Si1 0.808719 0.901728 0.791523
Si Si2 0.750000 0.021196 0.751609
Si Si3 0.475782 0.873965 0.028188
Si Si4 0.153796 0.902628 0.521397
Si Si5 0.137470 0.821686 0.010101
Si Si6 0.028999 0.177586 0.462491
Si Si7 0.121443 0.111504 0.723270
Si Si8 0.053228 0.986742 0.678310
O O1 0.750000 0.871031 0.786689
O O2 0.832667 0.905040 0.492815
O O3 0.795897 0.973106 0.881496
O O4 0.850246 0.872857 0.997471
O O5 0.703283 0.059321 0.591270
O O6 0.425196 0.831347 0.947388
O O7 0.523457 0.851395 0.834034
O O8 0.462240 0.944342 0.938008
O O9 0.489389 0.859440 0.336163
O O10 0.165596 0.871547 0.812445
O O11 0.100683 0.945934 0.537316
O O12 0.144261 0.845438 0.314848
O O13 0.153734 0.750000 0.972864
O O14 0.015065 0.250000 0.459975
O O15 0.086663 0.165999 0.589971
O O16 0.081616 0.052134 0.752154
O O17 0.000000 0.000000 0.500000
#
# Coordination Sequence:
#
# PCOD9452942 Si02
#       8
#     8   4   8   8   8   8   8   8
#     4  10  24  41  70  92 126 165 207 264 327 390
#     4  10  24  44  67  96 129 164 212 270 316 404
#     4  11  24  39  64  90 127 179 216 259 315 385
#     4  11  25  41  66  95 124 171 216 268 328 381
#     4  11  24  43  63  89 127 171 225 268 310 377
#     4  12  25  42  62  91 132 178 218 256 309 388
#     4  12  24  41  65  99 131 166 213 261 330 386
#     4  11  23  41  63 102 138 166 208 272 338 388
#
# _framework density 22.703942999999999
#
# number of rings (size 3 to 8) (size 9 to 14) (size 15 to 20)
#    0.400    0.533    2.667    4.400    3.733    3.200 
#    0.000    2.000    0.000    2.400    0.000    0.000 
#    0.000    0.000    0.000    0.000    0.000    0.000 
#
# Total GULP energy -334554.702497 kJ/mol
# GULP energy per Si atom -5575.911708 kJ/mol
# Density = 2.265227 g / cm^3
# Si number density = 22.703943 Si / 1000 Ang^3
#
#
#
# Elastic Constant Matrix: (Units=GPa)
#
#
# Indices 1 2 3 4 5 6 
#
# 1 88.7825 -4.6093 8.8041 0.0000 0.0000 0.0000
# 2 -4.6093 47.9706 11.4333 0.0000 0.0000 0.0000
# 3 8.8041 11.4333 74.1167 0.0000 0.0000 0.0000
# 4 0.0000 0.0000 0.0000 22.7388 0.0000 0.0000
# 5 0.0000 0.0000 0.0000 0.0000 -13.6657 0.0000
# 6 0.0000 0.0000 0.0000 0.0000 0.0000 20.8345
#
#
#
# Elastic Compliance Matrix: (Units=1/GPa)
#
#
# Indices 1 2 3 4 5 6 
#
# 1 0.011499 0.001485 -0.001595 0.000000 0.000000 0.000000
# 2 0.001485 0.021834 -0.003544 0.000000 0.000000 0.000000
# 3 -0.001595 -0.003544 0.014228 0.000000 0.000000 0.000000
# 4 0.000000 0.000000 0.000000 0.043978 0.000000 0.000000
# 5 0.000000 0.000000 0.000000 0.000000 -0.073176 0.000000
# 6 0.000000 0.000000 0.000000 0.000000 0.000000 0.047997
#
#
# Mechanical properties :
#
#
# Convention : Reuss Voigt Hill
#
# Bulk Modulus (GPa) = 24.84353 26.90288 25.87320
# Shear Modulus (GPa) = 57.41470 18.99765 38.20617
#
# Velocity S-wave (km/s) = 5.03422 2.89581 4.10664
# Velocity P-wave (km/s) = 6.69009 4.80168 5.82294
#
# Compressibility (1/GPa) = 0.04025193
#
# Stress axis : x y z
#
# Youngs Moduli (GPa) = 86.96598 45.80105 70.28161
#
# Poissons Ratio (x) = -0.06801 0.11210
# Poissons Ratio (y) = -0.12915 0.24911
# Poissons Ratio (z) = 0.13871 0.16234
#
# Static dielectric constant tensor:
#      x y z
#    x 2.012570 0.000000 0.000000 
#    y 0.000000 1.823820 0.000000 
#    z 0.000000 0.000000 1.830710 
# 
# From -- ./inp_files/3488.got.cif
#   From: 2010.05.17/outbox.cif.g08.bks.cpg/sg59_2_cif.got.tgz:3488.got - 2010.06.03 14:40:33.
