data_PCOD9452726
_publ_section_title
;
Structure prediction by ZEFSAII (Michael W. Deem and Ramdas Pophale) SiO2 
 PCOD9452726
Probable space group: P M M N
;
_chemical_formula_sum "Si O2"
_cell_formula_units_Z 40
_cell_length_a 17.481715
_cell_length_b 9.480538
_cell_length_c 12.839888
_cell_angle_alpha 90.000000
_cell_angle_beta 90.000000
_cell_angle_gamma 90.000000
_cell_volume 2128.032491
_symmetry_space_group_name_H-M "P M M N"
_symmetry_group_IT_number 59
_space_group.IT_coordinate_system_code '2'
_symmetry_cell_setting 'orthorhombic'
loop_
_space_group_symop_operation_xyz
x,y,z
1/2-x,1/2-y,z
1/2+x,-y,-z
-x,1/2+y,-z
-x,-y,-z
1/2+x,1/2+y,-z
1/2-x,y,z
x,1/2-y,z
loop_
_atom_site_type_symbol
_atom_site_label
_atom_site_fract_x
_atom_site_fract_y
_atom_site_fract_z
Si Si1 0.836768 0.088539 0.663526
Si Si2 0.928072 0.084569 0.451808
Si Si3 0.663321 0.588068 0.843888
Si Si4 0.431163 0.412268 0.948920
Si Si5 0.157734 0.420833 0.735428
O O1 0.750000 0.035711 0.652860
O O2 0.836107 0.250000 0.698866
O O3 0.871716 0.084558 0.550228
O O4 0.877843 0.000018 0.753690
O O5 0.945667 0.250000 0.426214
O O6 0.886085 0.004108 0.356814
O O7 0.000000 0.000000 0.500000
O O8 0.750000 0.535310 0.852439
O O9 0.663464 0.750000 0.809465
O O10 0.629694 0.583716 0.958014
O O11 0.456564 0.250000 0.933179
O O12 0.388025 0.456430 0.842670
O O13 0.500000 0.500000 0.000000
O O14 0.250000 0.452757 0.740215
O O15 0.151909 0.250000 0.720709
#
# Coordination Sequence:
#
# PCOD9452726 Si02
#       5
#     8   8   8   8   8
#     4   9  19  36  57  81 111 147 186 234 291 348
#     4  11  24  40  60  87 122 159 201 252 306 362
#     4   9  18  34  57  83 111 146 189 235 283 342
#     4  10  22  38  58  86 120 156 197 246 300 355
#     4  10  22  42  66  90 121 164 210 254 306 370
#
# _framework density 18.796703999999998
#
# number of rings (size 3 to 8) (size 9 to 14) (size 15 to 20)
#    0.000    2.200    0.000    1.800    2.800    6.800 
#    0.000    2.000    0.000    3.600    0.000    0.000 
#    0.000    0.000    0.000    0.000    0.000    0.000 
#
# Total GULP energy -222697.235774 kJ/mol
# GULP energy per Si atom -5567.430894 kJ/mol
# Density = 1.875392 g / cm^3
# Si number density = 18.796704 Si / 1000 Ang^3
#
#
#
# Elastic Constant Matrix: (Units=GPa)
#
#
# Indices 1 2 3 4 5 6 
#
# 1 95.8553 53.6157 47.6434 0.0000 0.0000 0.0000
# 2 53.6157 71.4938 76.4279 0.0000 0.0000 0.0000
# 3 47.6434 76.4279 142.3890 0.0000 0.0000 0.0000
# 4 0.0000 0.0000 0.0000 55.1626 0.0000 0.0000
# 5 0.0000 0.0000 0.0000 0.0000 26.2514 0.0000
# 6 0.0000 0.0000 0.0000 0.0000 0.0000 19.2102
#
#
#
# Elastic Compliance Matrix: (Units=1/GPa)
#
#
# Indices 1 2 3 4 5 6 
#
# 1 0.018482 -0.017010 0.002946 0.000000 0.000000 0.000000
# 2 -0.017010 0.048473 -0.020326 0.000000 0.000000 0.000000
# 3 0.002946 -0.020326 0.016948 0.000000 0.000000 0.000000
# 4 0.000000 0.000000 0.000000 0.018128 0.000000 0.000000
# 5 0.000000 0.000000 0.000000 0.000000 0.038093 0.000000
# 6 0.000000 0.000000 0.000000 0.000000 0.000000 0.052056
#
#
# Mechanical properties :
#
#
# Convention : Reuss Voigt Hill
#
# Bulk Modulus (GPa) = 66.12870 73.90133 70.01501
# Shear Modulus (GPa) = 18.79692 28.92827 23.86260
#
# Velocity S-wave (km/s) = 3.16573 3.92727 3.56688
# Velocity P-wave (km/s) = 6.97279 7.74378 7.36838
#
# Compressibility (1/GPa) = 0.01512203
#
# Stress axis : x y z
#
# Youngs Moduli (GPa) = 54.10548 20.63020 59.00528
#
# Poissons Ratio (x) = 0.35091 -0.17382
# Poissons Ratio (y) = 0.92032 1.19937
# Poissons Ratio (z) = -0.15938 0.41934
#
# Static dielectric constant tensor:
#      x y z
#    x 1.408100 0.000000 0.000000 
#    y 0.000000 1.674970 0.000000 
#    z 0.000000 0.000000 1.680840 
# 
# From -- ./inp_files/13829.got.cif
#   From: 2010.05.17/outbox.cif.g08.bks.cpg/sg59_7_cif.got.tgz:13829.got - 2010.06.03 14:40:33.
