data_PCOD9452092
_publ_section_title
;
Structure prediction by ZEFSAII (Michael W. Deem and Ramdas Pophale) SiO2 
 PCOD9452092
Probable space group: P M M N
;
_chemical_formula_sum "Si O2"
_cell_formula_units_Z 64
_cell_length_a 14.997542
_cell_length_b 9.405621
_cell_length_c 21.785824
_cell_angle_alpha 90.000000
_cell_angle_beta 90.000000
_cell_angle_gamma 90.000000
_cell_volume 3073.134389
_symmetry_space_group_name_H-M "P M M N"
_symmetry_group_IT_number 59
_space_group.IT_coordinate_system_code '2'
_symmetry_cell_setting 'orthorhombic'
loop_
_space_group_symop_operation_xyz
x,y,z
1/2-x,1/2-y,z
1/2+x,-y,-z
-x,1/2+y,-z
-x,-y,-z
1/2+x,1/2+y,-z
1/2-x,y,z
x,1/2-y,z
loop_
_atom_site_type_symbol
_atom_site_label
_atom_site_fract_x
_atom_site_fract_y
_atom_site_fract_z
Si Si1 0.914406 0.919277 0.317967
Si Si2 0.598660 0.918700 0.685441
Si Si3 0.391738 0.913044 0.196809
Si Si4 0.390006 0.087806 0.813680
Si Si5 0.597358 0.418537 0.070073
Si Si6 0.143564 0.408283 0.543951
Si Si7 0.591532 0.080012 0.936340
Si Si8 0.355046 0.906883 0.433829
O O1 0.940221 0.750000 0.313904
O O2 0.859202 0.945786 0.255555
O O3 0.871693 0.939401 0.384479
O O4 0.997036 0.025950 0.315355
O O5 0.606915 0.750000 0.684304
O O6 0.637070 0.984747 0.748425
O O7 0.636399 0.991058 0.624399
O O8 0.368488 0.750000 0.211986
O O9 0.500768 0.919238 0.191385
O O10 0.359333 0.947273 0.128000
O O11 0.366702 0.250000 0.828203
O O12 0.361076 0.989647 0.869764
O O13 0.592773 0.250000 0.078922
O O14 0.498034 0.485789 0.065521
O O15 0.637316 0.445804 0.002129
O O16 0.250000 0.402656 0.535208
O O17 0.107965 0.250000 0.530799
O O18 0.107043 0.521154 0.495253
O O19 0.568309 0.250000 0.935145
O O20 0.250000 0.890181 0.444102
O O21 0.393641 0.750000 0.421292
#
# Coordination Sequence:
#
# PCOD9452092 Si02
#       8
#     8   8   8   8   8   8   8   8
#     4   9  18  32  48  67  95 127 154 184 228 279
#     4  11  21  31  47  71  96 122 154 191 227 265
#     4   8  14  26  40  54  80 116 149 183 225 271
#     4   8  14  24  36  52  79 115 147 176 217 265
#     4   9  14  19  30  49  73 104 144 184 218 256
#     4   9  18  34  55  75  93 116 150 192 232 267
#     4   8  14  22  31  46  72 108 144 177 219 266
#     4  10  21  37  55  72  92 120 150 181 224 277
#
# _framework density 20.825642999999999
#
# number of rings (size 3 to 8) (size 9 to 14) (size 15 to 20)
#    0.000    3.000    0.000    3.375    0.000    6.750 
#    0.000    0.000    0.000    0.000    0.000    0.000 
#    0.000    1.000    0.000    6.750    0.000    4.750 
#
# Total GULP energy -356589.834881 kJ/mol
# GULP energy per Si atom -5571.716170 kJ/mol
# Density = 2.077824 g / cm^3
# Si number density = 20.825643 Si / 1000 Ang^3
#
#
#
# Elastic Constant Matrix: (Units=GPa)
#
#
# Indices 1 2 3 4 5 6 
#
# 1 38.9484 14.5985 7.7579 0.0000 0.0000 0.0000
# 2 14.5985 129.0125 112.4879 0.0000 0.0000 0.0000
# 3 7.7579 112.4879 219.3867 0.0000 0.0000 0.0000
# 4 0.0000 0.0000 0.0000 53.7758 0.0000 0.0000
# 5 0.0000 0.0000 0.0000 0.0000 43.7694 0.0000
# 6 0.0000 0.0000 0.0000 0.0000 0.0000 2.8872
#
#
#
# Elastic Compliance Matrix: (Units=1/GPa)
#
#
# Indices 1 2 3 4 5 6 
#
# 1 0.026959 -0.004014 0.001105 0.000000 0.000000 0.000000
# 2 -0.004014 0.014616 -0.007352 0.000000 0.000000 0.000000
# 3 0.001105 -0.007352 0.008289 0.000000 0.000000 0.000000
# 4 0.000000 0.000000 0.000000 0.018596 0.000000 0.000000
# 5 0.000000 0.000000 0.000000 0.000000 0.022847 0.000000
# 6 0.000000 0.000000 0.000000 0.000000 0.000000 0.346357
#
#
# Mechanical properties :
#
#
# Convention : Reuss Voigt Hill
#
# Bulk Modulus (GPa) = 34.08141 73.00401 53.54271
# Shear Modulus (GPa) = 10.68452 36.92003 23.80227
#
# Velocity S-wave (km/s) = 2.26751 4.21505 3.38439
# Velocity P-wave (km/s) = 4.82246 7.66941 6.40609
#
# Compressibility (1/GPa) = 0.02934151
#
# Stress axis : x y z
#
# Youngs Moduli (GPa) = 37.09284 68.41906 120.64446
#
# Poissons Ratio (x) = 0.27462 -0.13328
# Poissons Ratio (y) = 0.14888 0.88700
# Poissons Ratio (z) = -0.04098 0.50303
#
# Static dielectric constant tensor:
#      x y z
#    x 1.784600 0.000000 0.000000 
#    y 0.000000 1.719240 0.000000 
#    z 0.000000 0.000000 1.807050 
# 
# From -- ./inp_files/30831.got.cif
#   From: 2010.05.17/outbox.cif.g08.bks.cpg/sg59_16_cif.got.tgz:30831.got - 2010.06.03 14:40:33.
