data_PCOD9452824
_publ_section_title
;
Structure prediction by ZEFSAII (Michael W. Deem and Ramdas Pophale) SiO2 
 PCOD9452824
Probable space group: P M M N
;
_chemical_formula_sum "Si O2"
_cell_formula_units_Z 56
_cell_length_a 15.127337
_cell_length_b 8.746123
_cell_length_c 22.036092
_cell_angle_alpha 90.000000
_cell_angle_beta 90.000000
_cell_angle_gamma 90.000000
_cell_volume 2915.497273
_symmetry_space_group_name_H-M "P M M N"
_symmetry_group_IT_number 59
_space_group.IT_coordinate_system_code '2'
_symmetry_cell_setting 'orthorhombic'
loop_
_space_group_symop_operation_xyz
x,y,z
1/2-x,1/2-y,z
1/2+x,-y,-z
-x,1/2+y,-z
-x,-y,-z
1/2+x,1/2+y,-z
1/2-x,y,z
x,1/2-y,z
loop_
_atom_site_type_symbol
_atom_site_label
_atom_site_fract_x
_atom_site_fract_y
_atom_site_fract_z
Si Si1 0.848868 0.930299 0.622214
Si Si2 0.559091 0.567285 0.055116
Si Si3 0.596349 0.568188 0.487348
Si Si4 0.058034 0.068233 0.161402
Si Si5 0.989110 0.428945 0.710231
Si Si6 0.852012 0.428884 0.359557
Si Si7 0.750000 0.067658 0.026063
Si Si8 0.750000 0.566895 0.891752
O O1 0.750000 0.959096 0.645078
O O2 0.869544 0.750000 0.631273
O O3 0.852036 0.957500 0.550098
O O4 0.919982 0.029662 0.657201
O O5 0.562884 0.750000 0.049172
O O6 0.507976 0.518238 0.115950
O O7 0.658661 0.500967 0.052506
O O8 0.500000 0.500000 0.000000
O O9 0.500000 0.500000 0.500000
O O10 0.591603 0.750000 0.476662
O O11 0.635745 0.489366 0.428059
O O12 0.046332 0.250000 0.153265
O O13 0.159789 0.031766 0.144090
O O14 0.037478 0.021056 0.229896
O O15 0.987498 0.250000 0.723333
O O16 0.083737 0.479929 0.684695
O O17 0.750000 0.444951 0.342133
O O18 0.876563 0.250000 0.358200
O O19 0.750000 0.250000 0.033309
O O20 0.750000 0.022099 0.955053
O O21 0.750000 0.750000 0.904514
#
# Coordination Sequence:
#
# PCOD9452824 Si02
#       8
#     8   8   8   8   8   8   4   4
#     4  10  22  40  62  88 123 165 207 253 312 379
#     4  12  24  42  67  99 136 172 216 267 321 380
#     4  11  21  36  62  93 125 162 205 257 321 380
#     4  11  24  44  68  96 132 173 218 264 320 384
#     4  12  26  43  64  92 127 167 211 263 319 379
#     4  11  24  43  67  92 121 163 215 268 323 384
#     4  12  24  40  68 102 136 176 217 266 323 378
#     4  10  22  40  68 100 132 172 215 260 315 380
#
# _framework density 19.207701
#
# number of rings (size 3 to 8) (size 9 to 14) (size 15 to 20)
#    0.000    0.857    2.857    4.929    1.000    3.143 
#    1.286    0.000    0.000    0.000    0.000    0.000 
#    0.000    0.000    0.000    0.000    0.000    0.000 
#
# Total GULP energy -313252.521069 kJ/mol
# GULP energy per Si atom -5593.795019 kJ/mol
# Density = 1.916398 g / cm^3
# Si number density = 19.207701 Si / 1000 Ang^3
#
#
#
# Elastic Constant Matrix: (Units=GPa)
#
#
# Indices 1 2 3 4 5 6 
#
# 1 125.0153 52.9326 34.1535 0.0000 0.0000 0.0000
# 2 52.9326 91.3074 27.0147 0.0000 0.0000 0.0000
# 3 34.1535 27.0147 71.6482 0.0000 0.0000 0.0000
# 4 0.0000 0.0000 0.0000 36.8073 0.0000 0.0000
# 5 0.0000 0.0000 0.0000 0.0000 -15.2193 0.0000
# 6 0.0000 0.0000 0.0000 0.0000 0.0000 19.4811
#
#
#
# Elastic Compliance Matrix: (Units=1/GPa)
#
#
# Indices 1 2 3 4 5 6 
#
# 1 0.011241 -0.005551 -0.003266 0.000000 0.000000 0.000000
# 2 -0.005551 0.015068 -0.003035 0.000000 0.000000 0.000000
# 3 -0.003266 -0.003035 0.016658 0.000000 0.000000 0.000000
# 4 0.000000 0.000000 0.000000 0.027169 0.000000 0.000000
# 5 0.000000 0.000000 0.000000 0.000000 -0.065706 0.000000
# 6 0.000000 0.000000 0.000000 0.000000 0.000000 0.051332
#
#
# Mechanical properties :
#
#
# Convention : Reuss Voigt Hill
#
# Bulk Modulus (GPa) = 51.91018 57.35250 54.63134
# Shear Modulus (GPa) = 58.21627 19.80516 39.01072
#
# Velocity S-wave (km/s) = 5.51132 3.21457 4.51154
# Velocity P-wave (km/s) = 8.22094 6.61074 7.45941
#
# Compressibility (1/GPa) = 0.01926404
#
# Stress axis : x y z
#
# Youngs Moduli (GPa) = 88.95702 66.36626 60.03015
#
# Poissons Ratio (x) = 0.36837 0.19604
# Poissons Ratio (y) = 0.49377 0.18222
# Poissons Ratio (z) = 0.29051 0.20145
#
# Static dielectric constant tensor:
#      x y z
#    x 1.671160 0.000000 0.000000 
#    y 0.000000 1.651840 0.000000 
#    z 0.000000 0.000000 1.639970 
# 
# From -- ./inp_files/30482.got.cif
#   From: 2010.05.17/outbox.cif.g08.bks.cpg/sg59_16_cif.got.tgz:30482.got - 2010.06.03 14:40:33.
