data_PCOD9452015
_publ_section_title
;
Structure prediction by ZEFSAII (Michael W. Deem and Ramdas Pophale) SiO2 
 PCOD9452015
Probable space group: P M M N
;
_chemical_formula_sum "Si O2"
_cell_formula_units_Z 48
_cell_length_a 7.522913
_cell_length_b 19.514504
_cell_length_c 14.112515
_cell_angle_alpha 90.000000
_cell_angle_beta 90.000000
_cell_angle_gamma 90.000000
_cell_volume 2071.800689
_symmetry_space_group_name_H-M "P M M N"
_symmetry_group_IT_number 59
_space_group.IT_coordinate_system_code '2'
_symmetry_cell_setting 'orthorhombic'
loop_
_space_group_symop_operation_xyz
x,y,z
1/2-x,1/2-y,z
1/2+x,-y,-z
-x,1/2+y,-z
-x,-y,-z
1/2+x,1/2+y,-z
1/2-x,y,z
x,1/2-y,z
loop_
_atom_site_type_symbol
_atom_site_label
_atom_site_fract_x
_atom_site_fract_y
_atom_site_fract_z
Si Si1 0.467149 0.416209 0.104605
Si Si2 0.965978 0.828601 0.714042
Si Si3 0.534998 0.050511 0.803707
Si Si4 0.947457 0.036364 0.597402
Si Si5 0.034866 0.170594 0.500022
Si Si6 0.961161 0.672610 0.072130
O O1 0.250000 0.416398 0.101060
O O2 0.520847 0.376866 0.200711
O O3 0.525593 0.494610 0.118748
O O4 0.532757 0.373049 0.015035
O O5 0.750000 0.828814 0.712926
O O6 0.021155 0.750000 0.730891
O O7 0.021047 0.848254 0.607631
O O8 0.750000 0.048362 0.801099
O O9 0.463794 0.029414 0.699985
O O10 0.486488 0.126756 0.834849
O O11 0.750000 0.009760 0.613218
O O12 0.955223 0.116767 0.572475
O O13 0.000000 0.000000 0.500000
O O14 0.250000 0.165337 0.504914
O O15 0.988079 0.250000 0.515896
O O16 0.750000 0.678364 0.056564
O O17 0.032249 0.750000 0.076364
#
# Coordination Sequence:
#
# PCOD9452015 Si02
#       6
#     8   8   8   8   8   8
#     4   9  16  30  53  79 107 137 174 220 266 315
#     4   8  13  24  47  78 108 138 174 218 266 315
#     4  10  22  38  56  78 106 143 181 218 265 324
#     4  11  23  38  57  81 109 143 185 230 277 329
#     4   9  18  33  54  80 110 146 187 228 273 327
#     4  10  21  36  56  83 110 137 174 220 267 315
#
# _framework density 23.16825
#
# number of rings (size 3 to 8) (size 9 to 14) (size 15 to 20)
#    0.000    2.500    0.000    3.500    0.000    7.333 
#    0.000    3.333    0.000    1.000    0.000    4.667 
#    0.000    0.000    0.000    0.000    0.000    0.000 
#
# Total GULP energy -268057.487956 kJ/mol
# GULP energy per Si atom -5584.530999 kJ/mol
# Density = 2.311552 g / cm^3
# Si number density = 23.168250 Si / 1000 Ang^3
#
#
#
# Elastic Constant Matrix: (Units=GPa)
#
#
# Indices 1 2 3 4 5 6 
#
# 1 54.9582 2.0324 2.1343 0.0000 0.0000 0.0000
# 2 2.0324 132.9481 67.3886 0.0000 0.0000 0.0000
# 3 2.1343 67.3886 115.0552 0.0000 0.0000 0.0000
# 4 0.0000 0.0000 0.0000 37.7176 0.0000 0.0000
# 5 0.0000 0.0000 0.0000 0.0000 11.6836 0.0000
# 6 0.0000 0.0000 0.0000 0.0000 0.0000 15.8453
#
#
#
# Elastic Compliance Matrix: (Units=1/GPa)
#
#
# Indices 1 2 3 4 5 6 
#
# 1 0.018211 -0.000152 -0.000249 0.000000 0.000000 0.000000
# 2 -0.000152 0.010699 -0.006264 0.000000 0.000000 0.000000
# 3 -0.000249 -0.006264 0.012365 0.000000 0.000000 0.000000
# 4 0.000000 0.000000 0.000000 0.026513 0.000000 0.000000
# 5 0.000000 0.000000 0.000000 0.000000 0.085590 0.000000
# 6 0.000000 0.000000 0.000000 0.000000 0.000000 0.063110
#
#
# Mechanical properties :
#
#
# Convention : Reuss Voigt Hill
#
# Bulk Modulus (GPa) = 35.78398 49.56357 42.67378
# Shear Modulus (GPa) = 20.90897 28.47639 24.69268
#
# Velocity S-wave (km/s) = 3.00740 3.50967 3.26820
# Velocity P-wave (km/s) = 5.24767 6.15330 5.71844
#
# Compressibility (1/GPa) = 0.02794547
#
# Stress axis : x y z
#
# Youngs Moduli (GPa) = 54.91208 93.46697 80.87514
#
# Poissons Ratio (x) = 0.01425 0.02010
# Poissons Ratio (y) = 0.00837 0.50657
# Poissons Ratio (z) = 0.01365 0.58544
#
# Static dielectric constant tensor:
#      x y z
#    x 1.912290 0.000000 0.000000 
#    y 0.000000 1.851530 0.000000 
#    z 0.000000 0.000000 1.867830 
# 
# From -- ./inp_files/20425.got.cif
#   From: 2010.05.17/outbox.cif.g08.bks.cpg/sg59_11_cif.got.tgz:20425.got - 2010.06.03 14:40:33.
