data_PCOD9452322
_publ_section_title
;
Structure prediction by ZEFSAII (Michael W. Deem and Ramdas Pophale) SiO2 
 PCOD9452322
Probable space group: P M M N
;
_chemical_formula_sum "Si O2"
_cell_formula_units_Z 40
_cell_length_a 14.591372
_cell_length_b 8.740859
_cell_length_c 17.491978
_cell_angle_alpha 90.000000
_cell_angle_beta 90.000000
_cell_angle_gamma 90.000000
_cell_volume 2230.946557
_symmetry_space_group_name_H-M "P M M N"
_symmetry_group_IT_number 59
_space_group.IT_coordinate_system_code '2'
_symmetry_cell_setting 'orthorhombic'
loop_
_space_group_symop_operation_xyz
x,y,z
1/2-x,1/2-y,z
1/2+x,-y,-z
-x,1/2+y,-z
-x,-y,-z
1/2+x,1/2+y,-z
1/2-x,y,z
x,1/2-y,z
loop_
_atom_site_type_symbol
_atom_site_label
_atom_site_fract_x
_atom_site_fract_y
_atom_site_fract_z
Si Si1 0.011406 0.932958 0.122310
Si Si2 0.250000 0.432475 0.357085
Si Si3 0.750000 0.067797 0.473591
Si Si4 0.947068 0.932632 0.712279
Si Si5 0.057310 0.067350 0.571086
Si Si6 0.643540 0.065589 0.017499
O O1 0.009553 0.750000 0.130271
O O2 0.917144 0.990243 0.083930
O O3 0.029517 0.009265 0.203539
O O4 0.092131 0.973444 0.061935
O O5 0.250000 0.250000 0.374436
O O6 0.250000 0.521170 0.437027
O O7 0.158286 0.467221 0.310000
O O8 0.750000 0.250000 0.466494
O O9 0.659398 0.997371 0.436303
O O10 0.959466 0.750000 0.707499
O O11 0.009980 0.012713 0.648904
O O12 0.057629 0.250000 0.565888
O O13 0.000000 0.000000 0.500000
O O14 0.750000 0.019732 0.017791
O O15 0.639278 0.250000 0.025706
#
# Coordination Sequence:
#
# PCOD9452322 Si02
#       6
#     8   4   4   8   8   8
#     4  10  21  37  59  89 121 153 193 244 298 354
#     4  10  22  38  60  88 121 156 199 250 298 352
#     4  12  24  40  64  90 117 160 205 248 306 362
#     4  11  23  40  61  89 123 159 199 246 300 358
#     4  12  24  41  63  89 122 160 203 252 301 358
#     4   9  19  38  62  86 116 156 196 238 292 357
#
# _framework density 17.929608999999999
#
# number of rings (size 3 to 8) (size 9 to 14) (size 15 to 20)
#    0.000    1.400    2.000    3.900    1.400    2.000 
#    1.800    0.000    0.000    0.000    0.000    0.000 
#    0.000    0.000    0.000    0.000    0.000    0.000 
#
# Total GULP energy -223600.883567 kJ/mol
# GULP energy per Si atom -5590.022089 kJ/mol
# Density = 1.788880 g / cm^3
# Si number density = 17.929609 Si / 1000 Ang^3
#
#
#
# Elastic Constant Matrix: (Units=GPa)
#
#
# Indices 1 2 3 4 5 6 
#
# 1 191.7328 82.1229 89.6509 0.0000 0.0000 0.0000
# 2 82.1229 106.6967 79.5348 0.0000 0.0000 0.0000
# 3 89.6509 79.5348 148.9002 0.0000 0.0000 0.0000
# 4 0.0000 0.0000 0.0000 34.6174 0.0000 0.0000
# 5 0.0000 0.0000 0.0000 0.0000 11.6500 0.0000
# 6 0.0000 0.0000 0.0000 0.0000 0.0000 28.3112
#
#
#
# Elastic Compliance Matrix: (Units=1/GPa)
#
#
# Indices 1 2 3 4 5 6 
#
# 1 0.008368 -0.004462 -0.002655 0.000000 0.000000 0.000000
# 2 -0.004462 0.017952 -0.006903 0.000000 0.000000 0.000000
# 3 -0.002655 -0.006903 0.012002 0.000000 0.000000 0.000000
# 4 0.000000 0.000000 0.000000 0.028887 0.000000 0.000000
# 5 0.000000 0.000000 0.000000 0.000000 0.085837 0.000000
# 6 0.000000 0.000000 0.000000 0.000000 0.000000 0.035322
#
#
# Mechanical properties :
#
#
# Convention : Reuss Voigt Hill
#
# Bulk Modulus (GPa) = 97.25097 105.54963 101.40030
# Shear Modulus (GPa) = 22.74446 27.98380 25.36413
#
# Velocity S-wave (km/s) = 3.56552 3.95493 3.76526
# Velocity P-wave (km/s) = 8.44445 8.93599 8.69370
#
# Compressibility (1/GPa) = 0.01028267
#
# Stress axis : x y z
#
# Youngs Moduli (GPa) = 119.50186 55.70469 83.32203
#
# Poissons Ratio (x) = 0.24853 0.22124
# Poissons Ratio (y) = 0.53316 0.57515
# Poissons Ratio (z) = 0.31730 0.38451
#
# Static dielectric constant tensor:
#      x y z
#    x 1.602830 0.000000 0.000000 
#    y 0.000000 1.604830 0.000000 
#    z 0.000000 0.000000 1.573040 
# 
# From -- ./inp_files/22977.got.cif
#   From: 2010.05.17/outbox.cif.g08.bks.cpg/sg59_12_cif.got.tgz:22977.got - 2010.06.03 14:40:33.
