data_PCOD9452607
_publ_section_title
;
Structure prediction by ZEFSAII (Michael W. Deem and Ramdas Pophale) SiO2 
 PCOD9452607
Probable space group: P M M N
;
_chemical_formula_sum "Si O2"
_cell_formula_units_Z 40
_cell_length_a 8.206826
_cell_length_b 20.081353
_cell_length_c 12.489328
_cell_angle_alpha 90.000000
_cell_angle_beta 90.000000
_cell_angle_gamma 90.000000
_cell_volume 2058.293334
_symmetry_space_group_name_H-M "P M M N"
_symmetry_group_IT_number 59
_space_group.IT_coordinate_system_code '2'
_symmetry_cell_setting 'orthorhombic'
loop_
_space_group_symop_operation_xyz
x,y,z
1/2-x,1/2-y,z
1/2+x,-y,-z
-x,1/2+y,-z
-x,-y,-z
1/2+x,1/2+y,-z
1/2-x,y,z
x,1/2-y,z
loop_
_atom_site_type_symbol
_atom_site_label
_atom_site_fract_x
_atom_site_fract_y
_atom_site_fract_z
Si Si1 0.440460 0.041304 0.397309
Si Si2 0.750000 0.330641 0.668951
Si Si3 0.750000 0.171844 0.909646
Si Si4 0.934080 0.021391 0.163869
Si Si5 0.928364 0.606826 0.015553
Si Si6 0.061398 0.329020 0.524337
O O1 0.250000 0.027701 0.382091
O O2 0.530585 0.021499 0.289051
O O3 0.459765 0.119647 0.426411
O O4 0.500000 0.000000 0.500000
O O5 0.750000 0.250000 0.672211
O O6 0.750000 0.357967 0.789147
O O7 0.582383 0.347798 0.607294
O O8 0.750000 0.250000 0.896880
O O9 0.585101 0.151827 0.968807
O O10 0.750000 0.045902 0.145074
O O11 0.941912 0.949461 0.107912
O O12 0.054474 0.068324 0.096976
O O13 0.750000 0.638775 0.023976
O O14 0.250000 0.338268 0.563398
O O15 0.044009 0.250000 0.498822
#
# Coordination Sequence:
#
# PCOD9452607 Si02
#       6
#     8   4   4   8   8   8
#     4  11  24  36  57  91 125 158 200 260 309 352
#     4   9  20  36  59  83 115 163 198 240 300 356
#     4  11  24  40  61  93 125 157 206 256 302 364
#     4  10  21  39  62  89 120 158 204 252 307 369
#     4  10  22  40  64  88 118 162 203 248 307 367
#     4   9  20  39  58  81 117 161 205 240 295 371
#
# _framework density 19.433575000000001
#
# number of rings (size 3 to 8) (size 9 to 14) (size 15 to 20)
#    0.000    2.000    1.000    1.200    8.400    1.200 
#    0.000    3.000    0.000    2.400    0.000    0.000 
#    0.000    0.000    0.000    0.000    0.000    0.000 
#
# Total GULP energy -223180.684163 kJ/mol
# GULP energy per Si atom -5579.517104 kJ/mol
# Density = 1.938934 g / cm^3
# Si number density = 19.433575 Si / 1000 Ang^3
#
#
#
# Elastic Constant Matrix: (Units=GPa)
#
#
# Indices 1 2 3 4 5 6 
#
# 1 130.7983 29.7282 27.4944 0.0000 0.0000 0.0000
# 2 29.7282 42.5381 26.7998 0.0000 0.0000 0.0000
# 3 27.4944 26.7998 93.4410 0.0000 0.0000 0.0000
# 4 0.0000 0.0000 0.0000 15.9429 0.0000 0.0000
# 5 0.0000 0.0000 0.0000 0.0000 22.9034 0.0000
# 6 0.0000 0.0000 0.0000 0.0000 0.0000 15.9249
#
#
#
# Elastic Compliance Matrix: (Units=1/GPa)
#
#
# Indices 1 2 3 4 5 6 
#
# 1 0.009173 -0.005749 -0.001050 0.000000 0.000000 0.000000
# 2 -0.005749 0.032296 -0.007571 0.000000 0.000000 0.000000
# 3 -0.001050 -0.007571 0.013182 0.000000 0.000000 0.000000
# 4 0.000000 0.000000 0.000000 0.062724 0.000000 0.000000
# 5 0.000000 0.000000 0.000000 0.000000 0.043662 0.000000
# 6 0.000000 0.000000 0.000000 0.000000 0.000000 0.062795
#
#
# Mechanical properties :
#
#
# Convention : Reuss Voigt Hill
#
# Bulk Modulus (GPa) = 38.59417 48.31355 43.45386
# Shear Modulus (GPa) = 19.14178 23.13792 21.13985
#
# Velocity S-wave (km/s) = 3.14185 3.45427 3.30176
# Velocity P-wave (km/s) = 5.75016 6.38938 6.07818
#
# Compressibility (1/GPa) = 0.02591065
#
# Stress axis : x y z
#
# Youngs Moduli (GPa) = 109.01899 30.96365 75.85838
#
# Poissons Ratio (x) = 0.17800 0.07967
# Poissons Ratio (y) = 0.62673 0.57434
# Poissons Ratio (z) = 0.11449 0.23443
#
# Static dielectric constant tensor:
#      x y z
#    x 1.635160 0.000000 0.000000 
#    y 0.000000 1.683650 0.000000 
#    z 0.000000 0.000000 1.679800 
# 
# From -- ./inp_files/14116.got.cif
#   From: 2010.05.17/outbox.cif.g08.bks.cpg/sg59_8_cif.got.tgz:14116.got - 2010.06.03 14:40:33.
