data_PCOD9452912
_publ_section_title
;
Structure prediction by ZEFSAII (Michael W. Deem and Ramdas Pophale) SiO2 
 PCOD9452912
Probable space group: P M M N
;
_chemical_formula_sum "Si O2"
_cell_formula_units_Z 48
_cell_length_a 25.993811
_cell_length_b 15.728310
_cell_length_c 5.274608
_cell_angle_alpha 90.000000
_cell_angle_beta 90.000000
_cell_angle_gamma 90.000000
_cell_volume 2156.463970
_symmetry_space_group_name_H-M "P M M N"
_symmetry_group_IT_number 59
_space_group.IT_coordinate_system_code '2'
_symmetry_cell_setting 'orthorhombic'
loop_
_space_group_symop_operation_xyz
x,y,z
1/2-x,1/2-y,z
1/2+x,-y,-z
-x,1/2+y,-z
-x,-y,-z
1/2+x,1/2+y,-z
1/2-x,y,z
x,1/2-y,z
loop_
_atom_site_type_symbol
_atom_site_label
_atom_site_fract_x
_atom_site_fract_y
_atom_site_fract_z
Si Si1 0.869411 0.848042 0.810567
Si Si2 0.479182 0.596188 0.462977
Si Si3 0.690657 0.399309 0.196034
Si Si4 0.979183 0.903812 0.962977
Si Si5 0.869411 0.348042 0.689435
Si Si6 0.809343 0.899311 0.303968
O O1 0.884538 0.750000 0.777510
O O2 0.920538 0.900630 0.876695
O O3 0.841973 0.879087 0.554763
O O4 0.832149 0.856211 0.052778
O O5 0.500000 0.500000 0.500000
O O6 0.487348 0.636787 0.738141
O O7 0.420537 0.599369 0.376695
O O8 0.512651 0.636787 0.238141
O O9 0.750000 0.374259 0.154741
O O10 0.667851 0.356210 0.447226
O O11 0.688859 0.499999 0.250000
O O12 0.658026 0.379085 0.945241
O O13 0.000000 0.000000 0.000000
O O14 0.884539 0.250000 0.722488
O O15 0.750000 0.874260 0.345260
#
# Coordination Sequence:
#
# PCOD9452912 Si02
#       6
#     8   8   8   8   8   8
#     4  12  26  43  71 106 142 181 232 296 355 412
#     4  10  23  40  65  98 130 184 227 280 336 412
#     4  11  26  46  72 102 138 187 236 284 345 430
#     4  10  23  40  65  98 130 184 227 280 336 412
#     4  12  26  43  71 106 142 181 232 296 355 412
#     4  11  26  46  72 102 138 187 236 284 345 430
#
# _framework density 22.258662000000001
#
# number of rings (size 3 to 8) (size 9 to 14) (size 15 to 20)
#    0.000    1.000    0.000    5.000   14.000    8.000 
#    0.000    0.000    0.000    0.000    0.000    0.000 
#    0.000    0.000    0.000    0.000    0.000    0.000 
#
# Total GULP energy -268589.254149 kJ/mol
# GULP energy per Si atom -5595.609461 kJ/mol
# Density = 2.220800 g / cm^3
# Si number density = 22.258662 Si / 1000 Ang^3
#
#
#
# Elastic Constant Matrix: (Units=GPa)
#
#
# Indices 1 2 3 4 5 6 
#
# 1 142.3584 51.7575 65.2898 0.0000 0.0000 0.0000
# 2 51.7575 86.1638 25.4849 0.0000 0.0000 0.0000
# 3 65.2898 25.4849 216.8952 0.0000 0.0000 0.0000
# 4 0.0000 0.0000 0.0000 2.9356 0.0000 0.0000
# 5 0.0000 0.0000 0.0000 0.0000 52.1943 0.0000
# 6 0.0000 0.0000 0.0000 0.0000 0.0000 -52.2924
#
#
#
# Elastic Compliance Matrix: (Units=1/GPa)
#
#
# Indices 1 2 3 4 5 6 
#
# 1 0.010067 -0.005336 -0.002403 0.000000 0.000000 0.000000
# 2 -0.005336 0.014852 -0.000139 0.000000 0.000000 0.000000
# 3 -0.002403 -0.000139 0.005350 0.000000 0.000000 0.000000
# 4 0.000000 0.000000 0.000000 0.340650 0.000000 0.000000
# 5 0.000000 0.000000 0.000000 0.000000 0.019159 0.000000
# 6 0.000000 0.000000 0.000000 0.000000 0.000000 -0.019123
#
#
# Mechanical properties :
#
#
# Convention : Reuss Voigt Hill
#
# Bulk Modulus (GPa) = 68.90518 81.16465 75.03491
# Shear Modulus (GPa) = 12.76977 20.75984 16.76480
#
# Velocity S-wave (km/s) = 2.39780 3.05727 2.74739
# Velocity P-wave (km/s) = 6.22010 7.00043 6.62177
#
# Compressibility (1/GPa) = 0.01451270
#
# Stress axis : x y z
#
# Youngs Moduli (GPa) = 99.33598 67.32997 186.90595
#
# Poissons Ratio (x) = 0.35928 0.44920
# Poissons Ratio (y) = 0.53007 0.02595
# Poissons Ratio (z) = 0.23874 0.00935
#
# Static dielectric constant tensor:
#      x y z
#    x 1.799460 0.000000 0.000000 
#    y 0.000000 1.771300 0.000000 
#    z 0.000000 0.000000 1.885870 
# 
# From -- ./inp_files/3810.got.cif
#   From: 2010.05.17/outbox.cif.g08.bks.cpg/sg59_2_cif.got.tgz:3810.got - 2010.06.03 14:40:33.
