data_PCOD9452895
_publ_section_title
;
Structure prediction by ZEFSAII (Michael W. Deem and Ramdas Pophale) SiO2 
 PCOD9452895
Probable space group: P M M N
;
_chemical_formula_sum "Si O2"
_cell_formula_units_Z 32
_cell_length_a 18.255177
_cell_length_b 11.821147
_cell_length_c 7.009380
_cell_angle_alpha 90.000000
_cell_angle_beta 90.000000
_cell_angle_gamma 90.000000
_cell_volume 1512.604093
_symmetry_space_group_name_H-M "P M M N"
_symmetry_group_IT_number 59
_space_group.IT_coordinate_system_code '2'
_symmetry_cell_setting 'orthorhombic'
loop_
_space_group_symop_operation_xyz
x,y,z
1/2-x,1/2-y,z
1/2+x,-y,-z
-x,1/2+y,-z
-x,-y,-z
1/2+x,1/2+y,-z
1/2-x,y,z
x,1/2-y,z
loop_
_atom_site_type_symbol
_atom_site_label
_atom_site_fract_x
_atom_site_fract_y
_atom_site_fract_z
Si Si1 0.834568 0.444201 0.717353
Si Si2 0.964215 0.127308 0.467483
Si Si3 0.421755 0.977403 0.902931
Si Si4 0.168946 0.382864 0.614656
O O1 0.750000 0.406985 0.709934
O O2 0.894535 0.370904 0.606464
O O3 0.840028 0.560272 0.593169
O O4 0.863409 0.455962 0.931382
O O5 0.003863 0.250000 0.492461
O O6 0.935683 0.120505 0.250821
O O7 0.000000 0.000000 0.500000
O O8 0.390017 0.077051 0.769204
O O9 0.500000 0.000000 0.000000
O O10 0.250000 0.421010 0.682552
O O11 0.169058 0.250000 0.597375
#
# Coordination Sequence:
#
# PCOD9452895 Si02
#       4
#     8   8   8   8
#     4  10  22  43  66  94 135 180 226 280 343 410
#     4  11  25  46  70 101 138 181 230 286 344 407
#     4  11  22  40  61  99 132 177 225 284 338 406
#     4   9  20  38  62  94 133 178 228 282 343 411
#
# _framework density 21.155570000000001
#
# number of rings (size 3 to 8) (size 9 to 14) (size 15 to 20)
#    0.000    1.750    2.500    0.750    0.000    8.500 
#    0.000    2.500    0.000    0.000    0.000    0.000 
#    0.000    0.000    0.000    0.000    0.000    0.000 
#
# Total GULP energy -178269.813829 kJ/mol
# GULP energy per Si atom -5570.931682 kJ/mol
# Density = 2.110742 g / cm^3
# Si number density = 21.155570 Si / 1000 Ang^3
#
#
#
# Elastic Constant Matrix: (Units=GPa)
#
#
# Indices 1 2 3 4 5 6 
#
# 1 127.5938 39.2973 42.8409 0.0000 0.0000 0.0000
# 2 39.2973 142.7523 40.2573 0.0000 0.0000 0.0000
# 3 42.8409 40.2573 138.8277 0.0000 0.0000 0.0000
# 4 0.0000 0.0000 0.0000 -20.7355 0.0000 0.0000
# 5 0.0000 0.0000 0.0000 0.0000 49.8791 0.0000
# 6 0.0000 0.0000 0.0000 0.0000 0.0000 19.2192
#
#
#
# Elastic Compliance Matrix: (Units=1/GPa)
#
#
# Indices 1 2 3 4 5 6 
#
# 1 0.009186 -0.001883 -0.002289 0.000000 0.000000 0.000000
# 2 -0.001883 0.008015 -0.001743 0.000000 0.000000 0.000000
# 3 -0.002289 -0.001743 0.008415 0.000000 0.000000 0.000000
# 4 0.000000 0.000000 0.000000 -0.048226 0.000000 0.000000
# 5 0.000000 0.000000 0.000000 0.000000 0.020048 0.000000
# 6 0.000000 0.000000 0.000000 0.000000 0.000000 0.052031
#
#
# Mechanical properties :
#
#
# Convention : Reuss Voigt Hill
#
# Bulk Modulus (GPa) = 72.53741 72.66274 72.60007
# Shear Modulus (GPa) = 75.87899 28.79110 52.33505
#
# Velocity S-wave (km/s) = 5.99542 3.69307 4.97915
# Velocity P-wave (km/s) = 9.07131 7.25303 8.21265
#
# Compressibility (1/GPa) = 0.01378599
#
# Stress axis : x y z
#
# Youngs Moduli (GPa) = 108.86371 124.76382 118.83760
#
# Poissons Ratio (x) = 0.23497 0.27196
# Poissons Ratio (y) = 0.20502 0.20714
# Poissons Ratio (z) = 0.24914 0.21747
#
# Static dielectric constant tensor:
#      x y z
#    x 1.856520 0.000000 0.000000 
#    y 0.000000 1.770250 0.000000 
#    z 0.000000 0.000000 1.786830 
# 
# From -- ./inp_files/1133.got.cif
#   From: 2010.05.17/outbox.cif.g08.bks.cpg/sg59_1_cif.got.tgz:1133.got - 2010.06.03 14:40:33.
