data_PCOD9452387
_publ_section_title
;
Structure prediction by ZEFSAII (Michael W. Deem and Ramdas Pophale) SiO2 
 PCOD9452387
Probable space group: P M M N
;
_chemical_formula_sum "Si O2"
_cell_formula_units_Z 48
_cell_length_a 7.957202
_cell_length_b 10.169172
_cell_length_c 29.364914
_cell_angle_alpha 90.000000
_cell_angle_beta 90.000000
_cell_angle_gamma 90.000000
_cell_volume 2376.154685
_symmetry_space_group_name_H-M "P M M N"
_symmetry_group_IT_number 59
_space_group.IT_coordinate_system_code '2'
_symmetry_cell_setting 'orthorhombic'
loop_
_space_group_symop_operation_xyz
x,y,z
1/2-x,1/2-y,z
1/2+x,-y,-z
-x,1/2+y,-z
-x,-y,-z
1/2+x,1/2+y,-z
1/2-x,y,z
x,1/2-y,z
loop_
_atom_site_type_symbol
_atom_site_label
_atom_site_fract_x
_atom_site_fract_y
_atom_site_fract_z
Si Si1 0.951503 0.750000 0.036624
Si Si2 0.544208 0.750000 0.931898
Si Si3 0.453255 0.900293 0.358077
Si Si4 0.449976 0.526700 0.106372
Si Si5 0.952050 0.397217 0.538348
Si Si6 0.449742 0.394688 0.793383
Si Si7 0.548523 0.399667 0.279490
O O1 0.750000 0.750000 0.036271
O O2 0.011113 0.876336 0.064753
O O3 0.010960 0.750000 0.984516
O O4 0.750000 0.750000 0.932295
O O5 0.488491 0.618416 0.906533
O O6 0.250000 0.900489 0.357167
O O7 0.507286 0.750000 0.346268
O O8 0.508851 0.928024 0.410081
O O9 0.514099 0.011136 0.323618
O O10 0.250000 0.522562 0.112565
O O11 0.525129 0.579192 0.153294
O O12 0.750000 0.393287 0.540211
O O13 0.012600 0.250000 0.527006
O O14 0.000000 0.500000 0.500000
O O15 0.250000 0.389545 0.784822
O O16 0.520377 0.250000 0.781657
O O17 0.518515 0.514036 0.762995
O O18 0.750000 0.389328 0.274560
O O19 0.482438 0.250000 0.281954
#
# Coordination Sequence:
#
# PCOD9452387 Si02
#       7
#     4   4   8   8   8   8   8
#     4  11  21  39  61  83 113 149 187 225 270 327
#     4   9  22  39  57  83 117 149 181 227 276 323
#     4   9  19  37  58  80 110 149 192 234 278 331
#     4  11  22  38  59  85 114 145 184 229 274 324
#     4   9  19  35  54  79 112 149 190 236 282 331
#     4  10  21  38  58  80 110 146 185 225 271 329
#     4  10  22  38  57  84 115 145 181 227 278 334
#
# _framework density 20.200704000000002
#
# number of rings (size 3 to 8) (size 9 to 14) (size 15 to 20)
#    0.000    2.167    0.833    2.750    1.167    3.667 
#    0.000    8.750    0.000    0.000    0.000    0.000 
#    0.000    0.000    0.000    0.000    0.000    0.000 
#
# Total GULP energy -268012.404491 kJ/mol
# GULP energy per Si atom -5583.591760 kJ/mol
# Density = 2.015473 g / cm^3
# Si number density = 20.200704 Si / 1000 Ang^3
#
#
#
# Elastic Constant Matrix: (Units=GPa)
#
#
# Indices 1 2 3 4 5 6 
#
# 1 15.0119 9.9849 -1.3186 0.0000 0.0000 0.0000
# 2 9.9849 184.7322 79.6384 0.0000 0.0000 0.0000
# 3 -1.3186 79.6384 104.2184 0.0000 0.0000 0.0000
# 4 0.0000 0.0000 0.0000 35.8475 0.0000 0.0000
# 5 0.0000 0.0000 0.0000 0.0000 23.7014 0.0000
# 6 0.0000 0.0000 0.0000 0.0000 0.0000 32.0092
#
#
#
# Elastic Compliance Matrix: (Units=1/GPa)
#
#
# Indices 1 2 3 4 5 6 
#
# 1 0.071328 -0.006329 0.005739 0.000000 0.000000 0.000000
# 2 -0.006329 0.008634 -0.006678 0.000000 0.000000 0.000000
# 3 0.005739 -0.006678 0.014771 0.000000 0.000000 0.000000
# 4 0.000000 0.000000 0.000000 0.027896 0.000000 0.000000
# 5 0.000000 0.000000 0.000000 0.000000 0.042192 0.000000
# 6 0.000000 0.000000 0.000000 0.000000 0.000000 0.031241
#
#
# Mechanical properties :
#
#
# Convention : Reuss Voigt Hill
#
# Bulk Modulus (GPa) = 12.46936 53.39687 32.93312
# Shear Modulus (GPa) = 21.06769 32.68882 26.87826
#
# Velocity S-wave (km/s) = 3.23293 4.02705 3.65164
# Velocity P-wave (km/s) = 4.48575 6.93638 5.84103
#
# Compressibility (1/GPa) = 0.08019655
#
# Stress axis : x y z
#
# Youngs Moduli (GPa) = 14.01973 115.81830 67.70126
#
# Poissons Ratio (x) = 0.73307 -0.38855
# Poissons Ratio (y) = 0.08874 0.45210
# Poissons Ratio (z) = -0.08046 0.77342
#
# Static dielectric constant tensor:
#      x y z
#    x 1.731490 0.000000 0.000000 
#    y 0.000000 1.724110 0.000000 
#    z 0.000000 0.000000 1.686590 
# 
# From -- ./inp_files/32998.got.cif
#   From: 2010.05.17/outbox.cif.g08.bks.cpg/sg59_17_cif.got.tgz:32998.got - 2010.06.03 14:40:33.
