data_PCOD9452621
_publ_section_title
;
Structure prediction by ZEFSAII (Michael W. Deem and Ramdas Pophale) SiO2 
 PCOD9452621
Probable space group: P M M N
;
_chemical_formula_sum "Si O2"
_cell_formula_units_Z 32
_cell_length_a 14.648185
_cell_length_b 15.550738
_cell_length_c 7.012852
_cell_angle_alpha 90.000000
_cell_angle_beta 90.000000
_cell_angle_gamma 90.000000
_cell_volume 1597.458168
_symmetry_space_group_name_H-M "P M M N"
_symmetry_group_IT_number 59
_space_group.IT_coordinate_system_code '2'
_symmetry_cell_setting 'orthorhombic'
loop_
_space_group_symop_operation_xyz
x,y,z
1/2-x,1/2-y,z
1/2+x,-y,-z
-x,1/2+y,-z
-x,-y,-z
1/2+x,1/2+y,-z
1/2-x,y,z
x,1/2-y,z
loop_
_atom_site_type_symbol
_atom_site_label
_atom_site_fract_x
_atom_site_fract_y
_atom_site_fract_z
Si Si1 0.148130 0.650994 0.661066
Si Si2 0.606285 0.984763 0.539404
Si Si3 0.527942 0.911722 0.898166
Si Si4 0.352136 0.156105 0.774873
O O1 0.250000 0.643947 0.751330
O O2 0.137371 0.750000 0.596996
O O3 0.146841 0.579452 0.493411
O O4 0.062418 0.627910 0.798059
O O5 0.604675 0.938033 0.742262
O O6 0.640499 0.919778 0.378162
O O7 0.500000 0.000000 0.500000
O O8 0.573397 0.854521 0.060855
O O9 0.500000 0.000000 0.000000
O O10 0.250000 0.152291 0.857510
O O11 0.363738 0.250000 0.681764
#
# Coordination Sequence:
#
# PCOD9452621 Si02
#       4
#     8   8   8   8
#     4  10  21  39  63  92 128 168 210 259 312 371
#     4  10  21  39  63  88 120 163 209 255 315 366
#     4  11  22  41  65  94 123 169 211 256 317 371
#     4  11  24  41  64  95 131 168 210 261 311 370
#
# _framework density 20.031821999999998
#
# number of rings (size 3 to 8) (size 9 to 14) (size 15 to 20)
#    0.000    1.500    5.000    1.500    0.000    7.000 
#    0.000    2.500    0.000    3.000    0.000    0.000 
#    0.000    0.000    0.000    0.000    0.000    0.000 
#
# Total GULP energy -178314.905826 kJ/mol
# GULP energy per Si atom -5572.340807 kJ/mol
# Density = 1.998623 g / cm^3
# Si number density = 20.031822 Si / 1000 Ang^3
#
#
#
# Elastic Constant Matrix: (Units=GPa)
#
#
# Indices 1 2 3 4 5 6 
#
# 1 104.6777 41.7837 17.9385 0.0000 0.0000 0.0000
# 2 41.7837 159.9370 35.5148 0.0000 0.0000 0.0000
# 3 17.9385 35.5148 68.5009 0.0000 0.0000 0.0000
# 4 0.0000 0.0000 0.0000 13.5888 0.0000 0.0000
# 5 0.0000 0.0000 0.0000 0.0000 27.8021 0.0000
# 6 0.0000 0.0000 0.0000 0.0000 0.0000 30.8841
#
#
#
# Elastic Compliance Matrix: (Units=1/GPa)
#
#
# Indices 1 2 3 4 5 6 
#
# 1 0.010808 -0.002481 -0.001544 0.000000 0.000000 0.000000
# 2 -0.002481 0.007635 -0.003309 0.000000 0.000000 0.000000
# 3 -0.001544 -0.003309 0.016718 0.000000 0.000000 0.000000
# 4 0.000000 0.000000 0.000000 0.073590 0.000000 0.000000
# 5 0.000000 0.000000 0.000000 0.000000 0.035969 0.000000
# 6 0.000000 0.000000 0.000000 0.000000 0.000000 0.032379
#
#
# Mechanical properties :
#
#
# Convention : Reuss Voigt Hill
#
# Bulk Modulus (GPa) = 48.79500 58.17661 53.48580
# Shear Modulus (GPa) = 25.17649 30.31358 27.74503
#
# Velocity S-wave (km/s) = 3.54902 3.89430 3.72566
# Velocity P-wave (km/s) = 6.41916 7.02324 6.72798
#
# Compressibility (1/GPa) = 0.02049390
#
# Stress axis : x y z
#
# Youngs Moduli (GPa) = 92.52437 130.97031 59.81477
#
# Poissons Ratio (x) = 0.32490 0.09236
# Poissons Ratio (y) = 0.22953 0.19792
# Poissons Ratio (z) = 0.14287 0.43338
#
# Static dielectric constant tensor:
#      x y z
#    x 1.690970 0.000000 0.000000 
#    y 0.000000 1.730220 0.000000 
#    z 0.000000 0.000000 1.731010 
# 
# From -- ./inp_files/1825.got.cif
#   From: 2010.05.17/outbox.cif.g08.bks.cpg/sg59_1_cif.got.tgz:1825.got - 2010.06.03 14:40:33.
