data_PCOD9452779
_publ_section_title
;
Structure prediction by ZEFSAII (Michael W. Deem and Ramdas Pophale) SiO2 
 PCOD9452779
Probable space group: P M M N
;
_chemical_formula_sum "Si O2"
_cell_formula_units_Z 56
_cell_length_a 28.206270
_cell_length_b 16.047442
_cell_length_c 5.351230
_cell_angle_alpha 90.000000
_cell_angle_beta 90.000000
_cell_angle_gamma 90.000000
_cell_volume 2422.172623
_symmetry_space_group_name_H-M "P M M N"
_symmetry_group_IT_number 59
_space_group.IT_coordinate_system_code '2'
_symmetry_cell_setting 'orthorhombic'
loop_
_space_group_symop_operation_xyz
x,y,z
1/2-x,1/2-y,z
1/2+x,-y,-z
-x,1/2+y,-z
-x,-y,-z
1/2+x,1/2+y,-z
1/2-x,y,z
x,1/2-y,z
loop_
_atom_site_type_symbol
_atom_site_label
_atom_site_fract_x
_atom_site_fract_y
_atom_site_fract_z
Si Si1 0.391311 0.928226 0.502220
Si Si2 0.457281 0.153653 0.070193
Si Si3 0.504557 0.403773 0.568974
Si Si4 0.698174 0.151877 0.209655
Si Si5 0.197948 0.340908 0.431820
Si Si6 0.627005 0.909546 0.223458
Si Si7 0.679265 0.492077 0.870946
O O1 0.440212 0.879743 0.471077
O O2 0.370875 0.961907 0.241241
O O3 0.347547 0.879291 0.632493
O O4 0.400925 0.014101 0.651660
O O5 0.461699 0.250000 0.014761
O O6 0.489516 0.110346 0.855838
O O7 0.472525 0.139388 0.355715
O O8 0.403979 0.126501 0.000002
O O9 0.500000 0.500000 0.500000
O O10 0.750000 0.139710 0.337549
O O11 0.693028 0.250000 0.156191
O O12 0.700592 0.095191 0.960041
O O13 0.250000 0.338322 0.559822
O O14 0.196064 0.250000 0.290999
O O15 0.197573 0.432927 0.302785
O O16 0.149676 0.343696 0.591533
O O17 0.673217 0.956926 0.124151
#
# Coordination Sequence:
#
# PCOD9452779 Si02
#       7
#     8   8   8   8   8   8   8
#     4  10  23  41  67  95 128 174 228 281 349 411
#     4  12  27  44  69 104 139 179 230 288 349 418
#     4  12  25  46  73  99 139 186 232 288 350 425
#     4  10  23  42  65  96 136 178 225 285 350 415
#     4  10  22  39  61  94 136 177 221 278 341 407
#     4  10  22  41  64  92 128 174 220 278 340 413
#     4  10  22  40  66  97 127 175 227 280 338 412
#
# _framework density 23.119741000000001
#
# number of rings (size 3 to 8) (size 9 to 14) (size 15 to 20)
#    0.000    1.429    1.429    2.571    6.000    9.143 
#    0.000    2.857    0.000    0.000    0.000    0.000 
#    0.000    0.000    0.000    0.000    0.000    0.000 
#
# Total GULP energy -311841.833532 kJ/mol
# GULP energy per Si atom -5568.604170 kJ/mol
# Density = 2.306712 g / cm^3
# Si number density = 23.119741 Si / 1000 Ang^3
#
#
#
# Elastic Constant Matrix: (Units=GPa)
#
#
# Indices 1 2 3 4 5 6 
#
# 1 109.4242 26.7933 7.8159 0.0000 0.0000 0.0000
# 2 26.7933 123.8203 9.3291 0.0000 0.0000 0.0000
# 3 7.8159 9.3291 47.8973 0.0000 0.0000 0.0000
# 4 0.0000 0.0000 0.0000 27.3196 0.0000 0.0000
# 5 0.0000 0.0000 0.0000 0.0000 10.3420 0.0000
# 6 0.0000 0.0000 0.0000 0.0000 0.0000 26.1296
#
#
#
# Elastic Compliance Matrix: (Units=1/GPa)
#
#
# Indices 1 2 3 4 5 6 
#
# 1 0.009717 -0.002013 -0.001194 0.000000 0.000000 0.000000
# 2 -0.002013 0.008613 -0.001349 0.000000 0.000000 0.000000
# 3 -0.001194 -0.001349 0.021336 0.000000 0.000000 0.000000
# 4 0.000000 0.000000 0.000000 0.036604 0.000000 0.000000
# 5 0.000000 0.000000 0.000000 0.000000 0.096693 0.000000
# 6 0.000000 0.000000 0.000000 0.000000 0.000000 0.038271
#
#
# Mechanical properties :
#
#
# Convention : Reuss Voigt Hill
#
# Bulk Modulus (GPa) = 32.72805 41.00203 36.86504
# Shear Modulus (GPa) = 21.68921 28.57180 25.13051
#
# Velocity S-wave (km/s) = 3.06621 3.51923 3.30050
# Velocity P-wave (km/s) = 5.16934 5.85547 5.52307
#
# Compressibility (1/GPa) = 0.03055483
#
# Stress axis : x y z
#
# Youngs Moduli (GPa) = 102.91430 116.09824 46.87010
#
# Poissons Ratio (x) = 0.23367 0.05594
# Poissons Ratio (y) = 0.20713 0.06324
# Poissons Ratio (z) = 0.12284 0.15664
#
# Static dielectric constant tensor:
#      x y z
#    x 1.959260 0.000000 0.000000 
#    y 0.000000 1.866260 0.000000 
#    z 0.000000 0.000000 1.945780 
# 
# From -- ./inp_files/4581.got.cif
#   From: 2010.05.17/outbox.cif.g08.bks.cpg/sg59_3_cif.got.tgz:4581.got - 2010.06.03 14:40:33.
