data_PCOD9452346
_publ_section_title
;
Structure prediction by ZEFSAII (Michael W. Deem and Ramdas Pophale) SiO2 
 PCOD9452346
Probable space group: P M M N
;
_chemical_formula_sum "Si O2"
_cell_formula_units_Z 56
_cell_length_a 16.075803
_cell_length_b 8.020795
_cell_length_c 20.813063
_cell_angle_alpha 90.000000
_cell_angle_beta 90.000000
_cell_angle_gamma 90.000000
_cell_volume 2683.651335
_symmetry_space_group_name_H-M "P M M N"
_symmetry_group_IT_number 59
_space_group.IT_coordinate_system_code '2'
_symmetry_cell_setting 'orthorhombic'
loop_
_space_group_symop_operation_xyz
x,y,z
1/2-x,1/2-y,z
1/2+x,-y,-z
-x,1/2+y,-z
-x,-y,-z
1/2+x,1/2+y,-z
1/2-x,y,z
x,1/2-y,z
loop_
_atom_site_type_symbol
_atom_site_label
_atom_site_fract_x
_atom_site_fract_y
_atom_site_fract_z
Si Si1 0.750000 0.950623 0.001042
Si Si2 0.568917 0.940986 0.800650
Si Si3 0.844897 0.951288 0.671572
Si Si4 0.393935 0.442196 0.772122
Si Si5 0.509555 0.050291 0.573991
Si Si6 0.750000 0.440663 0.143031
Si Si7 0.068716 0.049995 0.053857
Si Si8 0.338106 0.049058 0.631752
O O1 0.750000 0.750000 0.012324
O O2 0.750000 0.046857 0.067418
O O3 0.663113 0.990824 0.966613
O O4 0.598418 0.750000 0.809151
O O5 0.623308 0.014113 0.741853
O O6 0.561506 0.016171 0.872620
O O7 0.474803 0.945584 0.775428
O O8 0.750000 0.007220 0.659051
O O9 0.844315 0.750000 0.675239
O O10 0.910300 0.994546 0.615165
O O11 0.422042 0.250000 0.769790
O O12 0.332240 0.471132 0.830683
O O13 0.342779 0.475919 0.707832
O O14 0.509500 0.250000 0.578116
O O15 0.424352 0.982347 0.605147
O O16 0.500000 0.000000 0.500000
O O17 0.750000 0.250000 0.165416
O O18 0.060534 0.250000 0.057297
O O19 0.000000 0.000000 0.000000
O O20 0.250000 0.983677 0.606103
O O21 0.338222 0.250000 0.620836
#
# Coordination Sequence:
#
# PCOD9452346 Si02
#       8
#     4   8   8   8   8   4   8   8
#     4  10  22  40  60  82 112 159 208 247 296 369
#     4  10  21  37  60  89 121 156 201 259 312 360
#     4  10  22  40  64  93 125 164 209 257 311 370
#     4  11  20  35  59  86 116 154 197 242 299 364
#     4  11  23  41  65  93 126 164 203 248 301 361
#     4  12  24  36  54  86 122 155 194 249 310 365
#     4  10  22  39  59  84 117 157 204 253 306 364
#     4   9  18  35  59  86 115 150 193 238 285 347
#
# _framework density 20.867092
#
# number of rings (size 3 to 8) (size 9 to 14) (size 15 to 20)
#    0.000    1.714    2.143    2.357    1.000    4.286 
#    0.000    1.429    0.000    0.000    0.000    0.000 
#    0.000    0.000    0.000    0.000    0.000    0.000 
#
# Total GULP energy -312324.812814 kJ/mol
# GULP energy per Si atom -5577.228800 kJ/mol
# Density = 2.081960 g / cm^3
# Si number density = 20.867092 Si / 1000 Ang^3
#
#
#
# Elastic Constant Matrix: (Units=GPa)
#
#
# Indices 1 2 3 4 5 6 
#
# 1 180.9796 16.2498 79.2515 0.0000 0.0000 0.0000
# 2 16.2498 24.3407 18.3715 0.0000 0.0000 0.0000
# 3 79.2515 18.3715 135.4851 0.0000 0.0000 0.0000
# 4 0.0000 0.0000 0.0000 19.9098 0.0000 0.0000
# 5 0.0000 0.0000 0.0000 0.0000 114.3410 0.0000
# 6 0.0000 0.0000 0.0000 0.0000 0.0000 20.4447
#
#
#
# Elastic Compliance Matrix: (Units=1/GPa)
#
#
# Indices 1 2 3 4 5 6 
#
# 1 0.007506 -0.001890 -0.004134 0.000000 0.000000 0.000000
# 2 -0.001890 0.046244 -0.005165 0.000000 0.000000 0.000000
# 3 -0.004134 -0.005165 0.010499 0.000000 0.000000 0.000000
# 4 0.000000 0.000000 0.000000 0.050227 0.000000 0.000000
# 5 0.000000 0.000000 0.000000 0.000000 0.008746 0.000000
# 6 0.000000 0.000000 0.000000 0.000000 0.000000 0.048913
#
#
# Mechanical properties :
#
#
# Convention : Reuss Voigt Hill
#
# Bulk Modulus (GPa) = 23.88336 63.17235 43.52785
# Shear Modulus (GPa) = 23.98446 46.06794 35.02620
#
# Velocity S-wave (km/s) = 3.39395 4.70370 4.10144
# Velocity P-wave (km/s) = 5.17965 7.73557 6.58285
#
# Compressibility (1/GPa) = 0.04187016
#
# Stress axis : x y z
#
# Youngs Moduli (GPa) = 133.23550 21.62461 95.24392
#
# Poissons Ratio (x) = 0.04088 0.39374
# Poissons Ratio (y) = 0.25188 0.49191
# Poissons Ratio (z) = 0.55079 0.11168
#
# Static dielectric constant tensor:
#      x y z
#    x 1.751380 0.000000 0.000000 
#    y 0.000000 1.760780 0.000000 
#    z 0.000000 0.000000 1.781230 
# 
# From -- ./inp_files/30512.got.cif
#   From: 2010.05.17/outbox.cif.g08.bks.cpg/sg59_16_cif.got.tgz:30512.got - 2010.06.03 14:40:33.
