data_PCOD9452776
_publ_section_title
;
Structure prediction by ZEFSAII (Michael W. Deem and Ramdas Pophale) SiO2 
 PCOD9452776
Probable space group: P M M N
;
_chemical_formula_sum "Si O2"
_cell_formula_units_Z 48
_cell_length_a 8.819232
_cell_length_b 19.405421
_cell_length_c 15.380416
_cell_angle_alpha 90.000000
_cell_angle_beta 90.000000
_cell_angle_gamma 90.000000
_cell_volume 2632.218388
_symmetry_space_group_name_H-M "P M M N"
_symmetry_group_IT_number 59
_space_group.IT_coordinate_system_code '2'
_symmetry_cell_setting 'orthorhombic'
loop_
_space_group_symop_operation_xyz
x,y,z
1/2-x,1/2-y,z
1/2+x,-y,-z
-x,1/2+y,-z
-x,-y,-z
1/2+x,1/2+y,-z
1/2-x,y,z
x,1/2-y,z
loop_
_atom_site_type_symbol
_atom_site_label
_atom_site_fract_x
_atom_site_fract_y
_atom_site_fract_z
Si Si1 0.930695 0.065772 0.732352
Si Si2 0.930419 0.831272 0.128418
Si Si3 0.568609 0.930962 0.457713
Si Si4 0.431951 0.669803 0.941607
Si Si5 0.568371 0.082812 0.228132
Si Si6 0.068329 0.330350 0.385418
O O1 0.750000 0.064593 0.727684
O O2 0.987299 0.122603 0.800337
O O3 0.998538 0.079654 0.636956
O O4 0.991219 0.991226 0.762421
O O5 0.750000 0.841325 0.134403
O O6 0.963177 0.750000 0.141411
O O7 0.987365 0.849117 0.031549
O O8 0.750000 0.938537 0.450331
O O9 0.535862 0.868555 0.523800
O O10 0.500000 0.000000 0.500000
O O11 0.250000 0.665572 0.953649
O O12 0.468559 0.750000 0.921548
O O13 0.474102 0.621320 0.861265
O O14 0.750000 0.074724 0.230069
O O15 0.516125 0.129899 0.308529
O O16 0.250000 0.335899 0.370747
O O17 0.027680 0.250000 0.387544
#
# Coordination Sequence:
#
# PCOD9452776 Si02
#       6
#     8   8   8   8   8   8
#     4  12  25  40  61  88 120 160 201 248 302 357
#     4  10  22  41  64  89 117 153 199 250 301 357
#     4  11  22  39  62  87 119 159 199 245 299 355
#     4   9  19  37  60  87 120 157 196 243 300 357
#     4  11  22  37  60  89 122 159 200 247 297 355
#     4  10  22  39  60  88 121 156 196 244 299 359
#
# _framework density 18.235569000000002
#
# number of rings (size 3 to 8) (size 9 to 14) (size 15 to 20)
#    0.000    1.500    1.667    3.500    0.000    5.333 
#    0.000    3.333    0.000    0.000    0.000    0.000 
#    0.000    0.000    0.000    0.000    0.000    0.000 
#
# Total GULP energy -268324.230410 kJ/mol
# GULP energy per Si atom -5590.088134 kJ/mol
# Density = 1.819406 g / cm^3
# Si number density = 18.235569 Si / 1000 Ang^3
#
#
#
# Elastic Constant Matrix: (Units=GPa)
#
#
# Indices 1 2 3 4 5 6 
#
# 1 89.4354 74.0073 90.7065 0.0000 0.0000 0.0000
# 2 74.0073 114.0401 98.9774 0.0000 0.0000 0.0000
# 3 90.7065 98.9774 186.0911 0.0000 0.0000 0.0000
# 4 0.0000 0.0000 0.0000 36.4782 0.0000 0.0000
# 5 0.0000 0.0000 0.0000 0.0000 38.5349 0.0000
# 6 0.0000 0.0000 0.0000 0.0000 0.0000 23.3676
#
#
#
# Elastic Compliance Matrix: (Units=1/GPa)
#
#
# Indices 1 2 3 4 5 6 
#
# 1 0.029060 -0.012194 -0.007679 0.000000 0.000000 0.000000
# 2 -0.012194 0.021404 -0.005441 0.000000 0.000000 0.000000
# 3 -0.007679 -0.005441 0.012011 0.000000 0.000000 0.000000
# 4 0.000000 0.000000 0.000000 0.027414 0.000000 0.000000
# 5 0.000000 0.000000 0.000000 0.000000 0.025951 0.000000
# 6 0.000000 0.000000 0.000000 0.000000 0.000000 0.042794
#
#
# Mechanical properties :
#
#
# Convention : Reuss Voigt Hill
#
# Bulk Modulus (GPa) = 84.40734 101.88322 93.14528
# Shear Modulus (GPa) = 23.45114 28.06782 25.75948
#
# Velocity S-wave (km/s) = 3.58999 3.92749 3.76253
# Velocity P-wave (km/s) = 7.97319 8.74979 8.37050
#
# Compressibility (1/GPa) = 0.01184731
#
# Stress axis : x y z
#
# Youngs Moduli (GPa) = 34.41194 46.71964 83.26043
#
# Poissons Ratio (x) = 0.56969 0.63935
# Poissons Ratio (y) = 0.41961 0.45300
# Poissons Ratio (z) = 0.26425 0.25419
#
# Static dielectric constant tensor:
#      x y z
#    x 1.611700 0.000000 0.000000 
#    y 0.000000 1.603260 0.000000 
#    z 0.000000 0.000000 1.593780 
# 
# From -- ./inp_files/20384.got.cif
#   From: 2010.05.17/outbox.cif.g08.bks.cpg/sg59_11_cif.got.tgz:20384.got - 2010.06.03 14:40:33.
