data_PCOD9452863
_publ_section_title
;
Structure prediction by ZEFSAII (Michael W. Deem and Ramdas Pophale) SiO2 
 PCOD9452863
Probable space group: P M M N
;
_chemical_formula_sum "Si O2"
_cell_formula_units_Z 48
_cell_length_a 8.211846
_cell_length_b 16.322515
_cell_length_c 17.238108
_cell_angle_alpha 90.000000
_cell_angle_beta 90.000000
_cell_angle_gamma 90.000000
_cell_volume 2310.561167
_symmetry_space_group_name_H-M "P M M N"
_symmetry_group_IT_number 59
_space_group.IT_coordinate_system_code '2'
_symmetry_cell_setting 'orthorhombic'
loop_
_space_group_symop_operation_xyz
x,y,z
1/2-x,1/2-y,z
1/2+x,-y,-z
-x,1/2+y,-z
-x,-y,-z
1/2+x,1/2+y,-z
1/2-x,y,z
x,1/2-y,z
loop_
_atom_site_type_symbol
_atom_site_label
_atom_site_fract_x
_atom_site_fract_y
_atom_site_fract_z
Si Si1 0.448321 0.156441 0.497993
Si Si2 0.941374 0.339027 0.831295
Si Si3 0.444782 0.072289 0.341016
Si Si4 0.941415 0.608153 0.330263
Si Si5 0.442575 0.504649 0.911852
Si Si6 0.947479 0.341998 0.190152
O O1 0.250000 0.153957 0.498436
O O2 0.497695 0.250000 0.484101
O O3 0.500706 0.100485 0.426348
O O4 0.502191 0.129168 0.583390
O O5 0.750000 0.341151 0.848227
O O6 0.006525 0.250000 0.857292
O O7 0.968758 0.346540 0.739136
O O8 0.016683 0.419469 0.869540
O O9 0.250000 0.058968 0.342200
O O10 0.486684 0.139009 0.276065
O O11 0.532627 0.988390 0.318507
O O12 0.750000 0.628665 0.325744
O O13 0.250000 0.514052 0.912326
O O14 0.507824 0.584275 0.865354
O O15 0.500000 0.500000 0.000000
O O16 0.750000 0.344967 0.192883
O O17 0.994260 0.250000 0.165319
#
# Coordination Sequence:
#
# PCOD9452863 Si02
#       6
#     8   8   8   8   8   8
#     4   9  19  34  52  80 117 158 207 259 307 359
#     4  11  24  42  65  94 128 165 208 260 314 367
#     4  11  21  35  58  86 120 161 207 257 308 362
#     4  11  21  36  59  85 119 164 210 256 310 368
#     4  11  24  43  68  96 129 166 202 251 310 372
#     4  10  22  41  64  91 124 163 205 250 306 369
#
# _framework density 20.774173000000001
#
# number of rings (size 3 to 8) (size 9 to 14) (size 15 to 20)
#    0.000    1.500    1.667    3.500    0.000    4.333 
#    0.000    4.167    0.000    6.000    0.000    0.000 
#    0.000    0.000    0.000    0.000    0.000    0.000 
#
# Total GULP energy -268259.077570 kJ/mol
# GULP energy per Si atom -5588.730783 kJ/mol
# Density = 2.072689 g / cm^3
# Si number density = 20.774173 Si / 1000 Ang^3
#
#
#
# Elastic Constant Matrix: (Units=GPa)
#
#
# Indices 1 2 3 4 5 6 
#
# 1 17.7339 -3.3539 1.6810 0.0000 0.0000 0.0000
# 2 -3.3539 113.4134 34.3313 0.0000 0.0000 0.0000
# 3 1.6810 34.3313 110.5912 0.0000 0.0000 0.0000
# 4 0.0000 0.0000 0.0000 9.8182 0.0000 0.0000
# 5 0.0000 0.0000 0.0000 0.0000 31.4368 0.0000
# 6 0.0000 0.0000 0.0000 0.0000 0.0000 20.3884
#
#
#
# Elastic Compliance Matrix: (Units=1/GPa)
#
#
# Indices 1 2 3 4 5 6 
#
# 1 0.056941 0.002148 -0.001532 0.000000 0.000000 0.000000
# 2 0.002148 0.009813 -0.003079 0.000000 0.000000 0.000000
# 3 -0.001532 -0.003079 0.010021 0.000000 0.000000 0.000000
# 4 0.000000 0.000000 0.000000 0.101851 0.000000 0.000000
# 5 0.000000 0.000000 0.000000 0.000000 0.031810 0.000000
# 6 0.000000 0.000000 0.000000 0.000000 0.000000 0.049048
#
#
# Mechanical properties :
#
#
# Convention : Reuss Voigt Hill
#
# Bulk Modulus (GPa) = 13.91824 34.11724 24.01774
# Shear Modulus (GPa) = 17.33945 26.26737 21.80341
#
# Velocity S-wave (km/s) = 2.89219 3.55973 3.24318
# Velocity P-wave (km/s) = 4.22698 5.77531 5.06071
#
# Compressibility (1/GPa) = 0.07184818
#
# Stress axis : x y z
#
# Youngs Moduli (GPa) = 17.56212 101.90753 99.78661
#
# Poissons Ratio (x) = -0.21887 0.15289
# Poissons Ratio (y) = -0.03772 0.30723
# Poissons Ratio (z) = 0.02691 0.31376
#
# Static dielectric constant tensor:
#      x y z
#    x 1.726680 0.000000 0.000000 
#    y 0.000000 1.806850 0.000000 
#    z 0.000000 0.000000 1.730270 
# 
# From -- ./inp_files/25506.got.cif
#   From: 2010.05.17/outbox.cif.g08.bks.cpg/sg59_13_cif.got.tgz:25506.got - 2010.06.03 14:40:33.
