data_PCOD9452421
_publ_section_title
;
Structure prediction by ZEFSAII (Michael W. Deem and Ramdas Pophale) SiO2 
 PCOD9452421
Probable space group: P M M N
;
_chemical_formula_sum "Si O2"
_cell_formula_units_Z 64
_cell_length_a 8.205726
_cell_length_b 25.755561
_cell_length_c 14.757519
_cell_angle_alpha 90.000000
_cell_angle_beta 90.000000
_cell_angle_gamma 90.000000
_cell_volume 3118.899468
_symmetry_space_group_name_H-M "P M M N"
_symmetry_group_IT_number 59
_space_group.IT_coordinate_system_code '2'
_symmetry_cell_setting 'orthorhombic'
loop_
_space_group_symop_operation_xyz
x,y,z
1/2-x,1/2-y,z
1/2+x,-y,-z
-x,1/2+y,-z
-x,-y,-z
1/2+x,1/2+y,-z
1/2-x,y,z
x,1/2-y,z
loop_
_atom_site_type_symbol
_atom_site_label
_atom_site_fract_x
_atom_site_fract_y
_atom_site_fract_z
Si Si1 0.438123 0.334957 0.516429
Si Si2 0.444787 0.808070 0.283149
Si Si3 0.055297 0.943187 0.965432
Si Si4 0.550792 0.693689 0.680735
Si Si5 0.065306 0.944462 0.469941
Si Si6 0.935447 0.521770 0.292671
Si Si7 0.553302 0.098578 0.846319
Si Si8 0.057121 0.414378 0.233755
O O1 0.250000 0.320191 0.526070
O O2 0.520699 0.321756 0.611849
O O3 0.503624 0.310026 0.424185
O O4 0.455869 0.396573 0.500533
O O5 0.250000 0.806785 0.272424
O O6 0.509283 0.750000 0.265045
O O7 0.503910 0.852089 0.212952
O O8 0.250000 0.944778 0.951556
O O9 0.974487 0.925809 0.871784
O O10 0.018131 0.902945 0.047010
O O11 0.000000 0.000000 0.000000
O O12 0.750000 0.692321 0.679304
O O13 0.501547 0.750000 0.718071
O O14 0.498972 0.642442 0.734942
O O15 0.250000 0.936014 0.499309
O O16 0.053591 0.948638 0.361391
O O17 0.000000 0.000000 0.500000
O O18 0.750000 0.531143 0.321364
O O19 0.969511 0.547880 0.196535
O O20 0.970874 0.460903 0.288066
O O21 0.750000 0.093555 0.836988
O O22 0.250000 0.418450 0.251909
#
# Coordination Sequence:
#
# PCOD9452421 Si02
#       8
#     8   8   8   8   8   8   8   8
#     4  11  21  36  60  89 118 155 203 253 302 354
#     4  10  21  38  60  86 118 159 203 248 301 361
#     4  11  22  37  60  89 121 156 198 245 302 362
#     4   9  20  39  61  85 116 157 203 248 295 348
#     4  12  24  38  55  81 121 162 202 246 300 363
#     4  12  23  36  58  87 120 156 196 243 297 359
#     4  10  21  38  59  83 118 158 194 241 300 361
#     4  11  22  38  62  89 120 158 199 248 305 360
#
# _framework density 20.520057999999999
#
# number of rings (size 3 to 8) (size 9 to 14) (size 15 to 20)
#    0.000    1.250    2.500    4.500    0.000    2.250 
#    0.000    2.500    0.000    5.250    0.000    0.000 
#    0.000    0.000    0.000    0.000    0.000    0.000 
#
# Total GULP energy -357631.470783 kJ/mol
# GULP energy per Si atom -5587.991731 kJ/mol
# Density = 2.047335 g / cm^3
# Si number density = 20.520058 Si / 1000 Ang^3
#
#
#
# Elastic Constant Matrix: (Units=GPa)
#
#
# Indices 1 2 3 4 5 6 
#
# 1 36.8943 4.7089 1.5602 0.0000 0.0000 0.0000
# 2 4.7089 147.4030 34.3071 0.0000 0.0000 0.0000
# 3 1.5602 34.3071 70.2455 0.0000 0.0000 0.0000
# 4 0.0000 0.0000 0.0000 18.4606 0.0000 0.0000
# 5 0.0000 0.0000 0.0000 0.0000 28.1873 0.0000
# 6 0.0000 0.0000 0.0000 0.0000 0.0000 12.1846
#
#
#
# Elastic Compliance Matrix: (Units=1/GPa)
#
#
# Indices 1 2 3 4 5 6 
#
# 1 0.027218 -0.000822 -0.000203 0.000000 0.000000 0.000000
# 2 -0.000822 0.007679 -0.003732 0.000000 0.000000 0.000000
# 3 -0.000203 -0.003732 0.016063 0.000000 0.000000 0.000000
# 4 0.000000 0.000000 0.000000 0.054169 0.000000 0.000000
# 5 0.000000 0.000000 0.000000 0.000000 0.035477 0.000000
# 6 0.000000 0.000000 0.000000 0.000000 0.000000 0.082071
#
#
# Mechanical properties :
#
#
# Convention : Reuss Voigt Hill
#
# Bulk Modulus (GPa) = 24.12811 37.29945 30.71378
# Shear Modulus (GPa) = 20.32463 26.03094 23.17778
#
# Velocity S-wave (km/s) = 3.15060 3.56555 3.36448
# Velocity P-wave (km/s) = 5.00188 5.93021 5.48572
#
# Compressibility (1/GPa) = 0.04144543
#
# Stress axis : x y z
#
# Youngs Moduli (GPa) = 36.74039 130.22518 62.25487
#
# Poissons Ratio (x) = 0.10708 0.01263
# Poissons Ratio (y) = 0.03021 0.23234
# Poissons Ratio (z) = 0.00746 0.48601
#
# Static dielectric constant tensor:
#      x y z
#    x 1.704650 0.000000 0.000000 
#    y 0.000000 1.748470 0.000000 
#    z 0.000000 0.000000 1.771860 
# 
# From -- ./inp_files/21586.got.cif
#   From: 2010.05.17/outbox.cif.g08.bks.cpg/sg59_11_cif.got.tgz:21586.got - 2010.06.03 14:40:33.
