data_PCOD9452287
_publ_section_title
;
Structure prediction by ZEFSAII (Michael W. Deem and Ramdas Pophale) SiO2 
 PCOD9452287
Probable space group: P M M N
;
_chemical_formula_sum "Si O2"
_cell_formula_units_Z 64
_cell_length_a 23.625027
_cell_length_b 8.743877
_cell_length_c 16.978512
_cell_angle_alpha 90.000000
_cell_angle_beta 90.000000
_cell_angle_gamma 90.000000
_cell_volume 3507.324744
_symmetry_space_group_name_H-M "P M M N"
_symmetry_group_IT_number 59
_space_group.IT_coordinate_system_code '2'
_symmetry_cell_setting 'orthorhombic'
loop_
_space_group_symop_operation_xyz
x,y,z
1/2-x,1/2-y,z
1/2+x,-y,-z
-x,1/2+y,-z
-x,-y,-z
1/2+x,1/2+y,-z
1/2-x,y,z
x,1/2-y,z
loop_
_atom_site_type_symbol
_atom_site_label
_atom_site_fract_x
_atom_site_fract_y
_atom_site_fract_z
Si Si1 0.467456 0.432644 0.624369
Si Si2 0.685324 0.433023 0.632659
Si Si3 0.187527 0.428529 0.213798
Si Si4 0.423605 0.566434 0.789002
Si Si5 0.871014 0.572240 0.948107
Si Si6 0.419621 0.565183 0.464126
Si Si7 0.012348 0.568372 0.085644
Si Si8 0.316683 0.934897 0.892698
O O1 0.464699 0.250000 0.632635
O O2 0.441611 0.505634 0.703281
O O3 0.434487 0.487871 0.546643
O O4 0.532482 0.474154 0.601387
O O5 0.750000 0.491126 0.622128
O O6 0.687733 0.250000 0.631789
O O7 0.657455 0.482986 0.715947
O O8 0.642029 0.482177 0.565490
O O9 0.250000 0.495015 0.218879
O O10 0.186314 0.250000 0.235961
O O11 0.172845 0.433328 0.122880
O O12 0.426025 0.750000 0.788718
O O13 0.469886 0.503961 0.851242
O O14 0.360754 0.523031 0.822245
O O15 0.887156 0.750000 0.962870
O O16 0.922688 0.481196 0.908227
O O17 0.845005 0.502165 0.027566
O O18 0.421685 0.750000 0.473613
O O19 0.006344 0.750000 0.087153
O O20 0.000000 0.500000 0.000000
O O21 0.250000 0.981369 0.884193
O O22 0.317134 0.750000 0.898657
#
# Coordination Sequence:
#
# PCOD9452287 Si02
#       8
#     8   8   8   8   8   8   8   8
#     4  10  21  37  59  86 113 145 185 233 284 343
#     4   9  18  33  54  80 110 146 187 230 280 339
#     4   9  19  34  50  75 112 149 187 229 273 326
#     4  11  23  40  61  86 117 151 189 236 288 345
#     4  11  22  36  56  83 113 152 195 237 287 340
#     4   9  19  37  58  83 112 144 183 229 283 342
#     4  12  24  39  58  83 116 151 188 235 284 337
#     4  10  22  40  61  83 110 150 198 245 292 341
#
# _framework density 18.247525
#
# number of rings (size 3 to 8) (size 9 to 14) (size 15 to 20)
#    0.000    1.875    1.250    2.625    1.750    3.250 
#    0.000    1.875    0.000    3.750    0.000    0.000 
#    0.000    0.000    0.000    0.000    0.000    0.000 
#
# Total GULP energy -356507.810982 kJ/mol
# GULP energy per Si atom -5570.434547 kJ/mol
# Density = 1.820599 g / cm^3
# Si number density = 18.247525 Si / 1000 Ang^3
#
#
#
# Elastic Constant Matrix: (Units=GPa)
#
#
# Indices 1 2 3 4 5 6 
#
# 1 111.6276 38.2944 74.3563 0.0000 0.0000 0.0000
# 2 38.2944 48.1596 40.5903 0.0000 0.0000 0.0000
# 3 74.3563 40.5903 121.4701 0.0000 0.0000 0.0000
# 4 0.0000 0.0000 0.0000 35.6549 0.0000 0.0000
# 5 0.0000 0.0000 0.0000 0.0000 19.7987 0.0000
# 6 0.0000 0.0000 0.0000 0.0000 0.0000 21.7308
#
#
#
# Elastic Compliance Matrix: (Units=1/GPa)
#
#
# Indices 1 2 3 4 5 6 
#
# 1 0.016425 -0.006384 -0.007921 0.000000 0.000000 0.000000
# 2 -0.006384 0.031387 -0.006580 0.000000 0.000000 0.000000
# 3 -0.007921 -0.006580 0.015280 0.000000 0.000000 0.000000
# 4 0.000000 0.000000 0.000000 0.028047 0.000000 0.000000
# 5 0.000000 0.000000 0.000000 0.000000 0.050508 0.000000
# 6 0.000000 0.000000 0.000000 0.000000 0.000000 0.046018
#
#
# Mechanical properties :
#
#
# Convention : Reuss Voigt Hill
#
# Bulk Modulus (GPa) = 46.90228 65.30437 56.10332
# Shear Modulus (GPa) = 21.13799 23.97131 22.55465
#
# Velocity S-wave (km/s) = 3.40722 3.62840 3.51955
# Velocity P-wave (km/s) = 6.42169 7.30886 6.87959
#
# Compressibility (1/GPa) = 0.02132092
#
# Stress axis : x y z
#
# Youngs Moduli (GPa) = 60.88435 31.86061 65.44578
#
# Poissons Ratio (x) = 0.20341 0.51838
# Poissons Ratio (y) = 0.38870 0.43064
# Poissons Ratio (z) = 0.48225 0.20965
#
# Static dielectric constant tensor:
#      x y z
#    x 1.912890 0.000000 0.000000 
#    y 0.000000 1.612780 0.000000 
#    z 0.000000 0.000000 1.688400 
# 
# From -- ./inp_files/24681.got.cif
#   From: 2010.05.17/outbox.cif.g08.bks.cpg/sg59_13_cif.got.tgz:24681.got - 2010.06.03 14:40:33.
