data_PCOD9452432
_publ_section_title
;
Structure prediction by ZEFSAII (Michael W. Deem and Ramdas Pophale) SiO2 
 PCOD9452432
Probable space group: P M M N
;
_chemical_formula_sum "Si O2"
_cell_formula_units_Z 56
_cell_length_a 22.516081
_cell_length_b 15.444237
_cell_length_c 7.566039
_cell_angle_alpha 90.000000
_cell_angle_beta 90.000000
_cell_angle_gamma 90.000000
_cell_volume 2631.042330
_symmetry_space_group_name_H-M "P M M N"
_symmetry_group_IT_number 59
_space_group.IT_coordinate_system_code '2'
_symmetry_cell_setting 'orthorhombic'
loop_
_space_group_symop_operation_xyz
x,y,z
1/2-x,1/2-y,z
1/2+x,-y,-z
-x,1/2+y,-z
-x,-y,-z
1/2+x,1/2+y,-z
1/2-x,y,z
x,1/2-y,z
loop_
_atom_site_type_symbol
_atom_site_label
_atom_site_fract_x
_atom_site_fract_y
_atom_site_fract_z
Si Si1 0.074418 0.352890 0.868843
Si Si2 0.146609 0.846704 0.407116
Si Si3 0.082272 0.347304 0.282339
Si Si4 0.817373 0.533168 0.118366
Si Si5 0.990268 0.401032 0.558333
Si Si6 0.680567 0.342733 0.186254
Si Si7 0.185851 0.030310 0.293929
O O1 0.079792 0.250000 0.846885
O O2 0.134668 0.400647 0.807115
O O3 0.021134 0.385760 0.747200
O O4 0.066231 0.370621 0.078976
O O5 0.153663 0.750000 0.329744
O O6 0.175166 0.844482 0.601897
O O7 0.175462 0.927523 0.307374
O O8 0.077449 0.870555 0.430292
O O9 0.107789 0.250000 0.278516
O O10 0.025457 0.348826 0.407885
O O11 0.129812 0.415324 0.360296
O O12 0.750000 0.534635 0.193157
O O13 0.843331 0.435603 0.127757
O O14 0.811833 0.554527 0.911943
O O15 0.000000 0.500000 0.500000
O O16 0.750000 0.342733 0.134869
O O17 0.654150 0.250000 0.126992
O O18 0.250000 0.050977 0.375106
#
# Coordination Sequence:
#
# PCOD9452432 Si02
#       7
#     8   8   8   8   8   8   8
#     4  10  22  40  62  90 124 159 199 248 301 360
#     4  11  22  37  56  84 118 155 198 246 303 361
#     4  10  22  42  64  90 125 162 200 249 305 359
#     4   9  19  36  58  85 117 153 197 246 300 360
#     4  12  23  41  65  88 122 163 202 255 303 361
#     4   9  18  34  55  79 111 152 196 244 298 354
#     4  10  21  38  59  87 117 152 200 248 302 362
#
# _framework density 21.284341000000001
#
# number of rings (size 3 to 8) (size 9 to 14) (size 15 to 20)
#    0.000    1.857    1.429    2.571    0.000    2.571 
#    2.571    4.286    0.000    1.714    0.000    0.000 
#    0.000    0.000    0.000    0.000    0.000    0.000 
#
# Total GULP energy -312512.731995 kJ/mol
# GULP energy per Si atom -5580.584500 kJ/mol
# Density = 2.123590 g / cm^3
# Si number density = 21.284341 Si / 1000 Ang^3
#
#
#
# Elastic Constant Matrix: (Units=GPa)
#
#
# Indices 1 2 3 4 5 6 
#
# 1 69.7401 15.1048 11.7043 0.0000 0.0000 0.0000
# 2 15.1048 64.1414 -2.6551 0.0000 0.0000 0.0000
# 3 11.7043 -2.6551 57.4622 0.0000 0.0000 0.0000
# 4 0.0000 0.0000 0.0000 37.6135 0.0000 0.0000
# 5 0.0000 0.0000 0.0000 0.0000 22.0761 0.0000
# 6 0.0000 0.0000 0.0000 0.0000 0.0000-3342.4078
#
#
#
# Elastic Compliance Matrix: (Units=1/GPa)
#
#
# Indices 1 2 3 4 5 6 
#
# 1 0.015740 -0.003847 -0.003384 0.000000 0.000000 0.000000
# 2 -0.003847 0.016561 0.001549 0.000000 0.000000 0.000000
# 3 -0.003384 0.001549 0.018164 0.000000 0.000000 0.000000
# 4 0.000000 0.000000 0.000000 0.026586 0.000000 0.000000
# 5 0.000000 0.000000 0.000000 0.000000 0.045298 0.000000
# 6 0.000000 0.000000 0.000000 0.000000 0.000000 -0.000299
#
#
# Mechanical properties :
#
#
# Convention : Reuss Voigt Hill
#
# Bulk Modulus (GPa) = 25.57512 26.62798 26.10155
# Shear Modulus (GPa) = 34.14229 -645.39765 -305.62768
#
# Velocity S-wave (km/s) = 4.00947 -17.43229 -11.99602
# Velocity P-wave (km/s) = 5.78589 19.81520 13.40085
#
# Compressibility (1/GPa) = 0.03910050
#
# Stress axis : x y z
#
# Youngs Moduli (GPa) = 63.53245 60.38456 55.05537
#
# Poissons Ratio (x) = 0.23228 0.18630
# Poissons Ratio (y) = 0.24439 -0.08527
# Poissons Ratio (z) = 0.21498 -0.09352
#
# Static dielectric constant tensor:
#      x y z
#    x 1.779980 0.000000 0.000000 
#    y 0.000000 1.804540 0.000000 
#    z 0.000000 0.000000 1.773270 
# 
# From -- ./inp_files/11401.got.cif
#   From: 2010.05.17/outbox.cif.g08.bks.cpg/sg59_6_cif.got.tgz:11401.got - 2010.06.03 14:40:33.
