data_PCOD9452139
_publ_section_title
;
Structure prediction by ZEFSAII (Michael W. Deem and Ramdas Pophale) SiO2 
 PCOD9452139
Probable space group: P M M N
;
_chemical_formula_sum "Si O2"
_cell_formula_units_Z 56
_cell_length_a 14.684731
_cell_length_b 8.343715
_cell_length_c 23.413457
_cell_angle_alpha 90.000000
_cell_angle_beta 90.000000
_cell_angle_gamma 90.000000
_cell_volume 2868.738743
_symmetry_space_group_name_H-M "P M M N"
_symmetry_group_IT_number 59
_space_group.IT_coordinate_system_code '2'
_symmetry_cell_setting 'orthorhombic'
loop_
_space_group_symop_operation_xyz
x,y,z
1/2-x,1/2-y,z
1/2+x,-y,-z
-x,1/2+y,-z
-x,-y,-z
1/2+x,1/2+y,-z
1/2-x,y,z
x,1/2-y,z
loop_
_atom_site_type_symbol
_atom_site_label
_atom_site_fract_x
_atom_site_fract_y
_atom_site_fract_z
Si Si1 0.645081 0.943601 0.029805
Si Si2 0.457455 0.944256 0.083767
Si Si3 0.898944 0.559158 0.485671
Si Si4 0.469972 0.064778 0.301750
Si Si5 0.351022 0.933213 0.396343
Si Si6 0.354137 0.941901 0.197195
Si Si7 0.851744 0.055942 0.358656
O O1 0.750000 0.999499 0.039298
O O2 0.647541 0.750000 0.031205
O O3 0.606127 0.997493 0.968306
O O4 0.562739 0.995397 0.072547
O O5 0.457214 0.750000 0.083116
O O6 0.412087 0.000671 0.142707
O O7 0.892253 0.750000 0.488966
O O8 0.845298 0.479861 0.537724
O O9 0.870488 0.504414 0.422779
O O10 0.000000 0.500000 0.500000
O O11 0.476821 0.250000 0.285417
O O12 0.570432 0.998806 0.315187
O O13 0.417871 0.047040 0.362000
O O14 0.409691 0.979140 0.254406
O O15 0.250000 0.942877 0.370831
O O16 0.383910 0.750000 0.391247
O O17 0.250000 0.004499 0.198453
O O18 0.348128 0.750000 0.191938
O O19 0.750000 0.008904 0.341731
O O20 0.857171 0.250000 0.360392
#
# Coordination Sequence:
#
# PCOD9452139 Si02
#       7
#     8   8   8   8   8   8   8
#     4   9  17  30  51  81 115 147 181 227 278 321
#     4   9  18  33  53  78 110 149 189 225 269 329
#     4  12  23  36  57  84 112 142 177 220 270 326
#     4  11  23  38  58  81 106 139 180 227 271 320
#     4  11  23  38  57  81 111 144 174 215 273 329
#     4  10  21  37  56  78 108 146 183 223 272 324
#     4  10  22  41  61  80 106 141 178 221 278 335
#
# _framework density 19.520772999999998
#
# number of rings (size 3 to 8) (size 9 to 14) (size 15 to 20)
#    0.000    1.714    1.429    3.429    0.000    7.143 
#    0.000    0.714    0.000    0.857    0.000    0.000 
#    0.000    0.000    0.000    0.000    0.000    0.000 
#
# Total GULP energy -312506.498811 kJ/mol
# GULP energy per Si atom -5580.473193 kJ/mol
# Density = 1.947634 g / cm^3
# Si number density = 19.520773 Si / 1000 Ang^3
#
#
#
# Elastic Constant Matrix: (Units=GPa)
#
#
# Indices 1 2 3 4 5 6 
#
# 1 183.0564 12.4928 66.3749 0.0000 0.0000 0.0000
# 2 12.4928 16.2065 -0.8177 0.0000 0.0000 0.0000
# 3 66.3749 -0.8177 94.1928 0.0000 0.0000 0.0000
# 4 0.0000 0.0000 0.0000 25.7501 0.0000 0.0000
# 5 0.0000 0.0000 0.0000 0.0000 23.6650 0.0000
# 6 0.0000 0.0000 0.0000 0.0000 0.0000 18.5406
#
#
#
# Elastic Compliance Matrix: (Units=1/GPa)
#
#
# Indices 1 2 3 4 5 6 
#
# 1 0.007953 -0.006416 -0.005660 0.000000 0.000000 0.000000
# 2 -0.006416 0.066907 0.005102 0.000000 0.000000 0.000000
# 3 -0.005660 0.005102 0.014649 0.000000 0.000000 0.000000
# 4 0.000000 0.000000 0.000000 0.038835 0.000000 0.000000
# 5 0.000000 0.000000 0.000000 0.000000 0.042256 0.000000
# 6 0.000000 0.000000 0.000000 0.000000 0.000000 0.053936
#
#
# Mechanical properties :
#
#
# Convention : Reuss Voigt Hill
#
# Bulk Modulus (GPa) = 13.23430 49.95064 31.59247
# Shear Modulus (GPa) = 18.96303 27.95152 23.45728
#
# Velocity S-wave (km/s) = 3.12016 3.78813 3.47025
# Velocity P-wave (km/s) = 4.44689 6.69158 5.68120
#
# Compressibility (1/GPa) = 0.07556122
#
# Stress axis : x y z
#
# Youngs Moduli (GPa) = 125.74046 14.94612 68.26336
#
# Poissons Ratio (x) = 0.09590 0.38636
# Poissons Ratio (y) = 0.80676 -0.34828
# Poissons Ratio (z) = 0.71167 -0.07626
#
# Static dielectric constant tensor:
#      x y z
#    x 1.765720 0.000000 0.000000 
#    y 0.000000 1.678640 0.000000 
#    z 0.000000 0.000000 1.659100 
# 
# From -- ./inp_files/30348.got.cif
#   From: 2010.05.17/outbox.cif.g08.bks.cpg/sg59_16_cif.got.tgz:30348.got - 2010.06.03 14:40:33.
