data_PCOD9452714
_publ_section_title
;
Structure prediction by ZEFSAII (Michael W. Deem and Ramdas Pophale) SiO2 
 PCOD9452714
Probable space group: P M M N
;
_chemical_formula_sum "Si O2"
_cell_formula_units_Z 56
_cell_length_a 9.601315
_cell_length_b 14.594950
_cell_length_c 20.811125
_cell_angle_alpha 90.000000
_cell_angle_beta 90.000000
_cell_angle_gamma 90.000000
_cell_volume 2916.277771
_symmetry_space_group_name_H-M "P M M N"
_symmetry_group_IT_number 59
_space_group.IT_coordinate_system_code '2'
_symmetry_cell_setting 'orthorhombic'
loop_
_space_group_symop_operation_xyz
x,y,z
1/2-x,1/2-y,z
1/2+x,-y,-z
-x,1/2+y,-z
-x,-y,-z
1/2+x,1/2+y,-z
1/2-x,y,z
x,1/2-y,z
loop_
_atom_site_type_symbol
_atom_site_label
_atom_site_fract_x
_atom_site_fract_y
_atom_site_fract_z
Si Si1 0.088054 0.138211 0.699804
Si Si2 0.419464 0.143084 0.560146
Si Si3 0.911989 0.858865 0.825217
Si Si4 0.089035 0.362177 0.419904
Si Si5 0.414841 0.858454 0.176113
Si Si6 0.090974 0.861577 0.702236
Si Si7 0.584174 0.001837 0.934414
O O1 0.250000 0.113300 0.708146
O O2 0.083637 0.250000 0.697529
O O3 0.036870 0.105193 0.629549
O O4 0.997686 0.110218 0.760772
O O5 0.250000 0.141345 0.560393
O O6 0.461811 0.250000 0.560020
O O7 0.461519 0.105961 0.490391
O O8 0.750000 0.876988 0.808238
O O9 0.927393 0.750000 0.834209
O O10 0.942653 0.912826 0.890335
O O11 0.009754 0.888366 0.766626
O O12 0.250000 0.389971 0.410083
O O13 0.089832 0.250000 0.421450
O O14 0.991748 0.390044 0.361348
O O15 0.250000 0.873069 0.186494
O O16 0.438602 0.750000 0.167521
O O17 0.454449 0.913805 0.112381
O O18 0.250000 0.893099 0.701662
O O19 0.092026 0.750000 0.701939
O O20 0.750000 0.006758 0.947242
O O21 0.500000 0.000000 0.000000
#
# Coordination Sequence:
#
# PCOD9452714 Si02
#       7
#     8   8   8   8   8   8   8
#     4   8  13  23  41  65  92 124 165 207 239 273
#     4   7  10  17  31  54  85 120 159 202 241 275
#     4   9  18  34  54  73  95 126 163 200 236 276
#     4   8  12  19  33  54  84 124 164 199 238 283
#     4   9  18  33  51  72 101 133 159 187 232 289
#     4   9  16  25  39  63  94 125 159 200 243 286
#     4  10  22  38  55  77 102 126 156 193 233 283
#
# _framework density 19.202559000000001
#
# number of rings (size 3 to 8) (size 9 to 14) (size 15 to 20)
#    0.000    3.429    0.000    2.143    0.000    3.429 
#    0.000    0.714    0.000    4.286    0.000    1.000 
#    0.000    0.000    0.000    0.000    0.000    0.000 
#
# Total GULP energy -312177.665698 kJ/mol
# GULP energy per Si atom -5574.601173 kJ/mol
# Density = 1.915885 g / cm^3
# Si number density = 19.202559 Si / 1000 Ang^3
#
#
#
# Elastic Constant Matrix: (Units=GPa)
#
#
# Indices 1 2 3 4 5 6 
#
# 1 82.6380 30.8001 112.7423 0.0000 0.0000 0.0000
# 2 30.8001 66.6193 41.4737 0.0000 0.0000 0.0000
# 3 112.7423 41.4737 233.9663 0.0000 0.0000 0.0000
# 4 0.0000 0.0000 0.0000 67.3356 0.0000 0.0000
# 5 0.0000 0.0000 0.0000 0.0000 8.1730 0.0000
# 6 0.0000 0.0000 0.0000 0.0000 0.0000 1.5527
#
#
#
# Elastic Compliance Matrix: (Units=1/GPa)
#
#
# Indices 1 2 3 4 5 6 
#
# 1 0.037970 -0.006929 -0.017068 0.000000 0.000000 0.000000
# 2 -0.006929 0.018137 0.000124 0.000000 0.000000 0.000000
# 3 -0.017068 0.000124 0.012477 0.000000 0.000000 0.000000
# 4 0.000000 0.000000 0.000000 0.014851 0.000000 0.000000
# 5 0.000000 0.000000 0.000000 0.000000 0.122354 0.000000
# 6 0.000000 0.000000 0.000000 0.000000 0.000000 0.644057
#
#
# Mechanical properties :
#
#
# Convention : Reuss Voigt Hill
#
# Bulk Modulus (GPa) = 47.99161 83.69509 65.84335
# Shear Modulus (GPa) = 5.52768 28.62609 17.07689
#
# Velocity S-wave (km/s) = 1.69849 3.86520 2.98535
# Velocity P-wave (km/s) = 5.37522 7.97494 6.80047
#
# Compressibility (1/GPa) = 0.02083698
#
# Stress axis : x y z
#
# Youngs Moduli (GPa) = 26.33690 55.13607 80.14751
#
# Poissons Ratio (x) = 0.38201 1.36799
# Poissons Ratio (y) = 0.18248 -0.00991
# Poissons Ratio (z) = 0.44953 -0.00682
#
# Static dielectric constant tensor:
#      x y z
#    x 1.636700 0.000000 0.000000 
#    y 0.000000 1.745530 0.000000 
#    z 0.000000 0.000000 1.652210 
# 
# From -- ./inp_files/29064.got.cif
#   From: 2010.05.17/outbox.cif.g08.bks.cpg/sg59_15_cif.got.tgz:29064.got - 2010.06.03 14:40:33.
