data_PCOD9452176
_publ_section_title
;
Structure prediction by ZEFSAII (Michael W. Deem and Ramdas Pophale) SiO2 
 PCOD9452176
Probable space group: P M M N
;
_chemical_formula_sum "Si O2"
_cell_formula_units_Z 64
_cell_length_a 7.954560
_cell_length_b 18.732590
_cell_length_c 20.956581
_cell_angle_alpha 90.000000
_cell_angle_beta 90.000000
_cell_angle_gamma 90.000000
_cell_volume 3122.729889
_symmetry_space_group_name_H-M "P M M N"
_symmetry_group_IT_number 59
_space_group.IT_coordinate_system_code '2'
_symmetry_cell_setting 'orthorhombic'
loop_
_space_group_symop_operation_xyz
x,y,z
1/2-x,1/2-y,z
1/2+x,-y,-z
-x,1/2+y,-z
-x,-y,-z
1/2+x,1/2+y,-z
1/2-x,y,z
x,1/2-y,z
loop_
_atom_site_type_symbol
_atom_site_label
_atom_site_fract_x
_atom_site_fract_y
_atom_site_fract_z
Si Si1 0.553776 0.906453 0.320904
Si Si2 0.951025 0.428702 0.919850
Si Si3 0.945079 0.934447 0.702014
Si Si4 0.546635 0.590580 0.940011
Si Si5 0.949769 0.330113 0.806771
Si Si6 0.952772 0.666854 0.448811
Si Si7 0.455708 0.169474 0.186238
Si Si8 0.051788 0.667644 0.591622
O O1 0.750000 0.887833 0.320106
O O2 0.473113 0.864252 0.262461
O O3 0.487636 0.881088 0.389824
O O4 0.533109 0.990533 0.310057
O O5 0.750000 0.434309 0.912178
O O6 0.014432 0.510349 0.922813
O O7 0.019748 0.382563 0.861341
O O8 0.987265 0.393848 0.988490
O O9 0.750000 0.951036 0.715330
O O10 0.012047 0.888080 0.761420
O O11 0.960138 0.884480 0.640129
O O12 0.750000 0.589827 0.940952
O O13 0.493783 0.644206 0.884325
O O14 0.750000 0.325192 0.818340
O O15 0.020098 0.250000 0.809627
O O16 0.750000 0.661968 0.453653
O O17 0.995744 0.750000 0.436360
O O18 0.024492 0.647163 0.517889
O O19 0.250000 0.169634 0.188360
O O20 0.511617 0.250000 0.200595
O O21 0.250000 0.665121 0.605849
O O22 0.993496 0.750000 0.598735
#
# Coordination Sequence:
#
# PCOD9452176 Si02
#       8
#     8   8   8   8   8   8   8   8
#     4  11  23  38  57  82 112 143 180 230 280 323
#     4   9  18  33  51  74 107 143 178 217 264 320
#     4  11  22  37  58  81 109 147 187 225 270 329
#     4   9  17  31  52  76 103 137 178 222 265 313
#     4  10  21  37  57  80 108 144 184 224 269 327
#     4   9  19  37  59  81 107 142 181 219 266 326
#     4   9  18  33  54  79 105 136 178 225 269 317
#     4  10  21  37  58  85 115 144 178 224 273 320
#
# _framework density 20.494888
#
# number of rings (size 3 to 8) (size 9 to 14) (size 15 to 20)
#    0.000    2.250    0.000    2.625    0.000    6.500 
#    0.000    5.000    0.000    1.500    0.000    0.000 
#    0.000    0.000    0.000    0.000    0.000    0.000 
#
# Total GULP energy -357423.700548 kJ/mol
# GULP energy per Si atom -5584.745321 kJ/mol
# Density = 2.044824 g / cm^3
# Si number density = 20.494888 Si / 1000 Ang^3
#
#
#
# Elastic Constant Matrix: (Units=GPa)
#
#
# Indices 1 2 3 4 5 6 
#
# 1 14.6365 -10.1962 -16.1815 0.0000 0.0000 0.0000
# 2 -10.1962 32.6144 -1.6252 0.0000 0.0000 0.0000
# 3 -16.1815 -1.6252 42.2628 0.0000 0.0000 0.0000
# 4 0.0000 0.0000 0.0000 39.9907 0.0000 0.0000
# 5 0.0000 0.0000 0.0000 0.0000 17.7400 0.0000
# 6 0.0000 0.0000 0.0000 0.0000 0.0000 18.3953
#
#
#
# Elastic Compliance Matrix: (Units=1/GPa)
#
#
# Indices 1 2 3 4 5 6 
#
# 1 0.206374 0.068587 0.081653 0.000000 0.000000 0.000000
# 2 0.068587 0.053515 0.028318 0.000000 0.000000 0.000000
# 3 0.081653 0.028318 0.056014 0.000000 0.000000 0.000000
# 4 0.000000 0.000000 0.000000 0.025006 0.000000 0.000000
# 5 0.000000 0.000000 0.000000 0.000000 0.056370 0.000000
# 6 0.000000 0.000000 0.000000 0.000000 0.000000 0.054362
#
#
# Mechanical properties :
#
#
# Convention : Reuss Voigt Hill
#
# Bulk Modulus (GPa) = 1.48584 3.72312 2.60448
# Shear Modulus (GPa) = 15.68077 23.05964 19.37021
#
# Velocity S-wave (km/s) = 2.76906 3.35795 3.07762
# Velocity P-wave (km/s) = 3.30910 4.10548 3.72861
#
# Compressibility (1/GPa) = 0.67302001
#
# Stress axis : x y z
#
# Youngs Moduli (GPa) = 4.84557 18.68648 17.85280
#
# Poissons Ratio (x) = -1.28165 -1.45774
# Poissons Ratio (y) = -0.33234 -0.50556
# Poissons Ratio (z) = -0.39566 -0.52917
#
# Static dielectric constant tensor:
#      x y z
#    x 1.741430 0.000000 0.000000 
#    y 0.000000 1.716540 0.000000 
#    z 0.000000 0.000000 1.709520 
# 
# From -- ./inp_files/29549.got.cif
#   From: 2010.05.17/outbox.cif.g08.bks.cpg/sg59_15_cif.got.tgz:29549.got - 2010.06.03 14:40:33.
