data_PCOD9452255
_publ_section_title
;
Structure prediction by ZEFSAII (Michael W. Deem and Ramdas Pophale) SiO2 
 PCOD9452255
Probable space group: P M M N
;
_chemical_formula_sum "Si O2"
_cell_formula_units_Z 48
_cell_length_a 8.836598
_cell_length_b 9.086721
_cell_length_c 31.605872
_cell_angle_alpha 90.000000
_cell_angle_beta 90.000000
_cell_angle_gamma 90.000000
_cell_volume 2537.815636
_symmetry_space_group_name_H-M "P M M N"
_symmetry_group_IT_number 59
_space_group.IT_coordinate_system_code '2'
_symmetry_cell_setting 'orthorhombic'
loop_
_space_group_symop_operation_xyz
x,y,z
1/2-x,1/2-y,z
1/2+x,-y,-z
-x,1/2+y,-z
-x,-y,-z
1/2+x,1/2+y,-z
1/2-x,y,z
x,1/2-y,z
loop_
_atom_site_type_symbol
_atom_site_label
_atom_site_fract_x
_atom_site_fract_y
_atom_site_fract_z
Si Si1 0.432367 0.923071 0.628455
Si Si2 0.068964 0.576739 0.289300
Si Si3 0.068736 0.576296 0.124121
Si Si4 0.568788 0.076385 0.206790
Si Si5 0.431287 0.576251 0.958619
Si Si6 0.567480 0.921023 0.459120
O O1 0.250000 0.937326 0.632506
O O2 0.468971 0.750000 0.628310
O O3 0.509212 0.003400 0.667780
O O4 0.477861 0.997230 0.584113
O O5 0.250000 0.562051 0.286664
O O6 0.031160 0.750000 0.288864
O O7 0.994183 0.497113 0.249285
O O8 0.250000 0.560396 0.123332
O O9 0.032934 0.750000 0.123849
O O10 0.003393 0.501918 0.166208
O O11 0.998420 0.499048 0.083109
O O12 0.750000 0.060789 0.205323
O O13 0.532609 0.250000 0.206384
O O14 0.250000 0.560233 0.958868
O O15 0.466923 0.750000 0.958713
O O16 0.500000 0.500000 0.000000
O O17 0.750000 0.927360 0.461572
O O18 0.522016 0.750000 0.457773
O O19 0.500000 0.000000 0.500000
#
# Coordination Sequence:
#
# PCOD9452255 Si02
#       6
#     8   8   8   8   8   8
#     4  10  21  38  60  85 113 148 191 237 286 342
#     4  11  24  40  59  86 118 152 192 237 286 342
#     4  11  24  41  62  90 122 156 197 243 291 346
#     4  11  24  41  62  89 119 153 195 240 288 345
#     4  11  24  41  62  90 122 157 200 246 293 349
#     4  10  21  37  58  84 114 150 191 235 286 342
#
# _framework density 18.913903999999999
#
# number of rings (size 3 to 8) (size 9 to 14) (size 15 to 20)
#    0.000    1.333    0.000    5.000    0.000   16.000 
#    0.000    0.000    0.000    0.000    0.000    0.000 
#    0.000    0.000    0.000    0.000    0.000    0.000 
#
# Total GULP energy -268553.416738 kJ/mol
# GULP energy per Si atom -5594.862849 kJ/mol
# Density = 1.887086 g / cm^3
# Si number density = 18.913904 Si / 1000 Ang^3
#
#
#
# Elastic Constant Matrix: (Units=GPa)
#
#
# Indices 1 2 3 4 5 6 
#
# 1 57.7920 95.4279 74.2889 0.0000 0.0000 0.0000
# 2 95.4279 212.2519 136.5725 0.0000 0.0000 0.0000
# 3 74.2889 136.5725 228.1245 0.0000 0.0000 0.0000
# 4 0.0000 0.0000 0.0000 46.8948 0.0000 0.0000
# 5 0.0000 0.0000 0.0000 0.0000 43.9864 0.0000
# 6 0.0000 0.0000 0.0000 0.0000 0.0000 34.1864
#
#
#
# Elastic Compliance Matrix: (Units=1/GPa)
#
#
# Indices 1 2 3 4 5 6 
#
# 1 0.072972 -0.028494 -0.006705 0.000000 0.000000 0.000000
# 2 -0.028494 0.018790 -0.001970 0.000000 0.000000 0.000000
# 3 -0.006705 -0.001970 0.007746 0.000000 0.000000 0.000000
# 4 0.000000 0.000000 0.000000 0.021324 0.000000 0.000000
# 5 0.000000 0.000000 0.000000 0.000000 0.022734 0.000000
# 6 0.000000 0.000000 0.000000 0.000000 0.000000 0.029251
#
#
# Mechanical properties :
#
#
# Convention : Reuss Voigt Hill
#
# Bulk Modulus (GPa) = 39.72823 123.41633 81.57228
# Shear Modulus (GPa) = 19.56594 37.80546 28.68570
#
# Velocity S-wave (km/s) = 3.21981 4.47566 3.89864
# Velocity P-wave (km/s) = 5.90536 9.59698 7.96792
#
# Compressibility (1/GPa) = 0.02517102
#
# Stress axis : x y z
#
# Youngs Moduli (GPa) = 13.70381 53.22063 129.09382
#
# Poissons Ratio (x) = 1.51647 0.86555
# Poissons Ratio (y) = 0.39048 0.25429
# Poissons Ratio (z) = 0.09188 0.10484
#
# Static dielectric constant tensor:
#      x y z
#    x 1.636660 0.000000 0.000000 
#    y 0.000000 1.633500 0.000000 
#    z 0.000000 0.000000 1.602870 
# 
# From -- ./inp_files/32888.got.cif
#   From: 2010.05.17/outbox.cif.g08.bks.cpg/sg59_17_cif.got.tgz:32888.got - 2010.06.03 14:40:33.
