data_PCOD9452224
_publ_section_title
;
Structure prediction by ZEFSAII (Michael W. Deem and Ramdas Pophale) SiO2 
 PCOD9452224
Probable space group: P M M N
;
_chemical_formula_sum "Si O2"
_cell_formula_units_Z 40
_cell_length_a 13.785436
_cell_length_b 8.830626
_cell_length_c 16.053125
_cell_angle_alpha 90.000000
_cell_angle_beta 90.000000
_cell_angle_gamma 90.000000
_cell_volume 1954.211593
_symmetry_space_group_name_H-M "P M M N"
_symmetry_group_IT_number 59
_space_group.IT_coordinate_system_code '2'
_symmetry_cell_setting 'orthorhombic'
loop_
_space_group_symop_operation_xyz
x,y,z
1/2-x,1/2-y,z
1/2+x,-y,-z
-x,1/2+y,-z
-x,-y,-z
1/2+x,1/2+y,-z
1/2-x,y,z
x,1/2-y,z
loop_
_atom_site_type_symbol
_atom_site_label
_atom_site_fract_x
_atom_site_fract_y
_atom_site_fract_z
Si Si1 0.133505 0.423239 0.961344
Si Si2 0.938517 0.931002 0.376766
Si Si3 0.046544 0.571049 0.796150
Si Si4 0.857537 0.431963 0.543355
Si Si5 0.635950 0.070979 0.862565
O O1 0.250000 0.420302 0.956613
O O2 0.099084 0.250000 0.972265
O O3 0.094719 0.493607 0.876429
O O4 0.109840 0.521234 0.043090
O O5 0.931397 0.750000 0.370311
O O6 0.050532 0.972249 0.399410
O O7 0.911637 0.006830 0.289737
O O8 0.876070 0.990651 0.454238
O O9 0.057311 0.750000 0.800592
O O10 0.933958 0.521889 0.802576
O O11 0.750000 0.471143 0.575362
O O12 0.861314 0.250000 0.532567
O O13 0.750000 0.039807 0.850095
O O14 0.619957 0.250000 0.851428
#
# Coordination Sequence:
#
# PCOD9452224 Si02
#       5
#     8   8   8   8   8
#     4  10  21  38  59  82 110 146 190 236 280 330
#     4  10  21  37  57  84 114 143 182 227 272 327
#     4  12  24  37  56  82 115 151 187 231 279 327
#     4   9  19  38  62  84 109 143 179 219 273 333
#     4  10  21  38  59  82 111 148 189 232 279 331
#
# _framework density 20.468613000000001
#
# number of rings (size 3 to 8) (size 9 to 14) (size 15 to 20)
#    0.000    1.800    0.000    4.200    0.000    5.200 
#    0.000    2.000    0.000    0.000    0.000    0.000 
#    0.000    0.000    0.000    0.000    0.000    0.000 
#
# Total GULP energy -223621.797608 kJ/mol
# GULP energy per Si atom -5590.544940 kJ/mol
# Density = 2.042203 g / cm^3
# Si number density = 20.468613 Si / 1000 Ang^3
#
#
#
# Elastic Constant Matrix: (Units=GPa)
#
#
# Indices 1 2 3 4 5 6 
#
# 1 35.1895 -0.0943 -17.6840 0.0000 0.0000 0.0000
# 2 -0.0943 52.3633 3.6401 0.0000 0.0000 0.0000
# 3 -17.6840 3.6401 51.8119 0.0000 0.0000 0.0000
# 4 0.0000 0.0000 0.0000 31.2892 0.0000 0.0000
# 5 0.0000 0.0000 0.0000 0.0000 7.6421 0.0000
# 6 0.0000 0.0000 0.0000 0.0000 0.0000 28.8395
#
#
#
# Elastic Compliance Matrix: (Units=1/GPa)
#
#
# Indices 1 2 3 4 5 6 
#
# 1 0.034331 -0.000756 0.011771 0.000000 0.000000 0.000000
# 2 -0.000756 0.019208 -0.001608 0.000000 0.000000 0.000000
# 3 0.011771 -0.001608 0.023431 0.000000 0.000000 0.000000
# 4 0.000000 0.000000 0.000000 0.031960 0.000000 0.000000
# 5 0.000000 0.000000 0.000000 0.000000 0.130854 0.000000
# 6 0.000000 0.000000 0.000000 0.000000 0.000000 0.034675
#
#
# Mechanical properties :
#
#
# Convention : Reuss Voigt Hill
#
# Bulk Modulus (GPa) = 10.44034 12.34316 11.39175
# Shear Modulus (GPa) = 17.38693 23.78768 20.58730
#
# Velocity S-wave (km/s) = 2.91768 3.41274 3.17487
# Velocity P-wave (km/s) = 4.05737 4.64461 4.36088
#
# Compressibility (1/GPa) = 0.09578233
#
# Stress axis : x y z
#
# Youngs Moduli (GPa) = 29.12850 52.06236 42.67856
#
# Poissons Ratio (x) = 0.03938 -0.50235
# Poissons Ratio (y) = 0.02203 0.06861
# Poissons Ratio (z) = -0.34286 0.08370
#
# Static dielectric constant tensor:
#      x y z
#    x 1.780450 0.000000 0.000000 
#    y 0.000000 1.640220 0.000000 
#    z 0.000000 0.000000 1.690070 
# 
# From -- ./inp_files/19848.got.cif
#   From: 2010.05.17/outbox.cif.g08.bks.cpg/sg59_10_cif.got.tgz:19848.got - 2010.06.03 14:40:33.
