data_PCOD9452478
_publ_section_title
;
Structure prediction by ZEFSAII (Michael W. Deem and Ramdas Pophale) SiO2 
 PCOD9452478
Probable space group: P M M N
;
_chemical_formula_sum "Si O2"
_cell_formula_units_Z 48
_cell_length_a 7.903806
_cell_length_b 16.376392
_cell_length_c 19.459579
_cell_angle_alpha 90.000000
_cell_angle_beta 90.000000
_cell_angle_gamma 90.000000
_cell_volume 2518.766669
_symmetry_space_group_name_H-M "P M M N"
_symmetry_group_IT_number 59
_space_group.IT_coordinate_system_code '2'
_symmetry_cell_setting 'orthorhombic'
loop_
_space_group_symop_operation_xyz
x,y,z
1/2-x,1/2-y,z
1/2+x,-y,-z
-x,1/2+y,-z
-x,-y,-z
1/2+x,1/2+y,-z
1/2-x,y,z
x,1/2-y,z
loop_
_atom_site_type_symbol
_atom_site_label
_atom_site_fract_x
_atom_site_fract_y
_atom_site_fract_z
Si Si1 0.549553 0.342020 0.915795
Si Si2 0.058239 0.955266 0.309756
Si Si3 0.949136 0.061432 0.438560
Si Si4 0.546752 0.841890 0.924937
Si Si5 0.055857 0.502463 0.834458
Si Si6 0.250000 0.155790 0.495108
Si Si7 0.750000 0.847422 0.347000
O O1 0.750000 0.344763 0.901844
O O2 0.487962 0.250000 0.896876
O O3 0.468331 0.419007 0.877725
O O4 0.520575 0.351153 0.997414
O O5 0.250000 0.928734 0.326099
O O6 0.052515 0.994257 0.234413
O O7 0.919608 0.883356 0.312982
O O8 0.996555 0.019761 0.366657
O O9 0.750000 0.081335 0.442065
O O10 0.081864 0.132817 0.453704
O O11 0.000000 0.000000 0.500000
O O12 0.750000 0.844063 0.927809
O O13 0.496132 0.750000 0.901077
O O14 0.487672 0.917601 0.878970
O O15 0.250000 0.508496 0.812741
O O16 0.250000 0.250000 0.507384
O O17 0.250000 0.120943 0.573327
O O18 0.750000 0.750000 0.343650
#
# Coordination Sequence:
#
# PCOD9452478 Si02
#       7
#     8   8   8   8   8   4   4
#     4  10  21  38  60  87 120 160 205 253 311 372
#     4  12  23  41  65  92 123 170 214 252 311 378
#     4  12  20  38  67  92 122 168 212 255 308 369
#     4  10  21  39  62  88 118 156 204 259 316 371
#     4  12  24  39  60  89 124 161 208 259 310 378
#     4  11  24  40  64 100 130 159 208 267 313 364
#     4  11  24  42  62  96 134 161 208 263 309 368
#
# _framework density 19.056946
#
# number of rings (size 3 to 8) (size 9 to 14) (size 15 to 20)
#    0.000    0.833    5.000    3.000    0.000    3.333 
#    0.000    2.500    0.000    2.000    0.000    0.000 
#    0.000    0.000    0.000    0.000    0.000    0.000 
#
# Total GULP energy -268026.568474 kJ/mol
# GULP energy per Si atom -5583.886843 kJ/mol
# Density = 1.901357 g / cm^3
# Si number density = 19.056946 Si / 1000 Ang^3
#
#
#
# Elastic Constant Matrix: (Units=GPa)
#
#
# Indices 1 2 3 4 5 6 
#
# 1 137.4960 19.7780 8.0736 0.0000 0.0000 0.0000
# 2 19.7780 90.3602 43.4339 0.0000 0.0000 0.0000
# 3 8.0736 43.4339 83.0613 0.0000 0.0000 0.0000
# 4 0.0000 0.0000 0.0000 16.3180 0.0000 0.0000
# 5 0.0000 0.0000 0.0000 0.0000 29.7878 0.0000
# 6 0.0000 0.0000 0.0000 0.0000 0.0000 13.1602
#
#
#
# Elastic Compliance Matrix: (Units=1/GPa)
#
#
# Indices 1 2 3 4 5 6 
#
# 1 0.007511 -0.001727 0.000173 0.000000 0.000000 0.000000
# 2 -0.001727 0.015180 -0.007770 0.000000 0.000000 0.000000
# 3 0.000173 -0.007770 0.016085 0.000000 0.000000 0.000000
# 4 0.000000 0.000000 0.000000 0.061282 0.000000 0.000000
# 5 0.000000 0.000000 0.000000 0.000000 0.033571 0.000000
# 6 0.000000 0.000000 0.000000 0.000000 0.000000 0.075987
#
#
# Mechanical properties :
#
#
# Convention : Reuss Voigt Hill
#
# Bulk Modulus (GPa) = 49.68093 50.38759 50.03426
# Shear Modulus (GPa) = 21.27905 27.82867 24.55386
#
# Velocity S-wave (km/s) = 3.34519 3.82552 3.59339
# Velocity P-wave (km/s) = 6.40677 6.78312 6.59763
#
# Compressibility (1/GPa) = 0.02012845
#
# Stress axis : x y z
#
# Youngs Moduli (GPa) = 133.13402 65.87796 62.16831
#
# Poissons Ratio (x) = 0.11379 -0.01076
# Poissons Ratio (y) = 0.22996 0.48303
# Poissons Ratio (z) = -0.02305 0.51185
#
# Static dielectric constant tensor:
#      x y z
#    x 1.781900 0.000000 0.000000 
#    y 0.000000 1.665630 0.000000 
#    z 0.000000 0.000000 1.657250 
# 
# From -- ./inp_files/25585.got.cif
#   From: 2010.05.17/outbox.cif.g08.bks.cpg/sg59_13_cif.got.tgz:25585.got - 2010.06.03 14:40:33.
