data_PCOD9452667
_publ_section_title
;
Structure prediction by ZEFSAII (Michael W. Deem and Ramdas Pophale) SiO2 
 PCOD9452667
Probable space group: P M M N
;
_chemical_formula_sum "Si O2"
_cell_formula_units_Z 56
_cell_length_a 22.916533
_cell_length_b 8.791026
_cell_length_c 14.439484
_cell_angle_alpha 90.000000
_cell_angle_beta 90.000000
_cell_angle_gamma 90.000000
_cell_volume 2908.976099
_symmetry_space_group_name_H-M "P M M N"
_symmetry_group_IT_number 59
_space_group.IT_coordinate_system_code '2'
_symmetry_cell_setting 'orthorhombic'
loop_
_space_group_symop_operation_xyz
x,y,z
1/2-x,1/2-y,z
1/2+x,-y,-z
-x,1/2+y,-z
-x,-y,-z
1/2+x,1/2+y,-z
1/2-x,y,z
x,1/2-y,z
loop_
_atom_site_type_symbol
_atom_site_label
_atom_site_fract_x
_atom_site_fract_y
_atom_site_fract_z
Si Si1 0.655882 0.924196 0.631664
Si Si2 0.750000 0.570678 0.312138
Si Si3 0.084795 0.430454 0.059588
Si Si4 0.376185 0.932345 0.697393
Si Si5 0.750000 0.076237 0.508918
Si Si6 0.960087 0.432596 0.131178
Si Si7 0.681538 0.429967 0.824168
Si Si8 0.438144 0.074465 0.518790
O O1 0.677711 0.750000 0.624230
O O2 0.594837 0.929059 0.579423
O O3 0.695841 0.038728 0.573882
O O4 0.657597 0.976581 0.736703
O O5 0.750000 0.750000 0.294363
O O6 0.688191 0.498932 0.279835
O O7 0.750000 0.535528 0.422055
O O8 0.094997 0.250000 0.063314
O O9 0.141753 0.520680 0.090604
O O10 0.029476 0.465918 0.127060
O O11 0.066287 0.480802 0.956978
O O12 0.371416 0.750000 0.692080
O O13 0.424100 0.971133 0.776331
O O14 0.400084 0.993972 0.599017
O O15 0.750000 0.250000 0.476242
O O16 0.954541 0.250000 0.117012
O O17 0.750000 0.464704 0.836527
O O18 0.676275 0.250000 0.806862
O O19 0.444512 0.250000 0.546993
O O20 0.500000 0.000000 0.500000
#
# Coordination Sequence:
#
# PCOD9452667 Si02
#       8
#     8   4   8   8   4   8   8   8
#     4  11  23  39  60  85 119 160 202 251 299 352
#     4  12  24  40  60  87 122 161 208 256 306 364
#     4  10  21  40  67  94 121 156 201 254 311 370
#     4  11  23  41  65  91 123 163 207 253 309 373
#     4  12  22  36  60  85 114 157 204 244 292 356
#     4   9  21  42  66  93 122 156 200 251 308 372
#     4  11  24  40  60  90 126 165 209 255 306 370
#     4  11  25  41  59  88 126 164 207 256 307 359
#
# _framework density 19.250758999999999
#
# number of rings (size 3 to 8) (size 9 to 14) (size 15 to 20)
#    0.000    1.286    2.143    3.429    2.000    4.286 
#    1.286    0.000    0.000    0.000    0.000    0.000 
#    0.000    0.000    0.000    0.000    0.000    0.000 
#
# Total GULP energy -312785.413693 kJ/mol
# GULP energy per Si atom -5585.453816 kJ/mol
# Density = 1.920694 g / cm^3
# Si number density = 19.250759 Si / 1000 Ang^3
#
#
#
# Elastic Constant Matrix: (Units=GPa)
#
#
# Indices 1 2 3 4 5 6 
#
# 1 112.8533 57.0429 35.3618 0.0000 0.0000 0.0000
# 2 57.0429 85.8537 22.4693 0.0000 0.0000 0.0000
# 3 35.3618 22.4693 46.0909 0.0000 0.0000 0.0000
# 4 0.0000 0.0000 0.0000 31.7399 0.0000 0.0000
# 5 0.0000 0.0000 0.0000 0.0000 25.3261 0.0000
# 6 0.0000 0.0000 0.0000 0.0000 0.0000 20.6767
#
#
#
# Elastic Compliance Matrix: (Units=1/GPa)
#
#
# Indices 1 2 3 4 5 6 
#
# 1 0.015487 -0.008230 -0.007870 0.000000 0.000000 0.000000
# 2 -0.008230 0.017725 -0.002326 0.000000 0.000000 0.000000
# 3 -0.007870 -0.002326 0.028868 0.000000 0.000000 0.000000
# 4 0.000000 0.000000 0.000000 0.031506 0.000000 0.000000
# 5 0.000000 0.000000 0.000000 0.000000 0.039485 0.000000
# 6 0.000000 0.000000 0.000000 0.000000 0.000000 0.048364
#
#
# Mechanical properties :
#
#
# Convention : Reuss Voigt Hill
#
# Bulk Modulus (GPa) = 39.63961 52.72732 46.18346
# Shear Modulus (GPa) = 22.05589 24.21015 23.13302
#
# Velocity S-wave (km/s) = 3.38851 3.55014 3.47027
# Velocity P-wave (km/s) = 5.99544 6.65236 6.33242
#
# Compressibility (1/GPa) = 0.02522729
#
# Stress axis : x y z
#
# Youngs Moduli (GPa) = 64.57005 56.41768 34.64015
#
# Poissons Ratio (x) = 0.46433 0.27261
# Poissons Ratio (y) = 0.53143 0.08059
# Poissons Ratio (z) = 0.50815 0.13125
#
# Static dielectric constant tensor:
#      x y z
#    x 1.665720 0.000000 0.000000 
#    y 0.000000 1.649720 0.000000 
#    z 0.000000 0.000000 1.659180 
# 
# From -- ./inp_files/24318.got.cif
#   From: 2010.05.17/outbox.cif.g08.bks.cpg/sg59_13_cif.got.tgz:24318.got - 2010.06.03 14:40:33.
