data_PCOD9452941
_publ_section_title
;
Structure prediction by ZEFSAII (Michael W. Deem and Ramdas Pophale) SiO2 
 PCOD9452941
Probable space group: P M M N
;
_chemical_formula_sum "Si O2"
_cell_formula_units_Z 30
_cell_length_a 11.911000
_cell_length_b 9.091440
_cell_length_c 13.469741
_cell_angle_alpha 90.000000
_cell_angle_beta 90.000000
_cell_angle_gamma 90.000000
_cell_volume 1458.613224
_symmetry_space_group_name_H-M "P M M N"
_symmetry_group_IT_number 59
_space_group.IT_coordinate_system_code '2'
_symmetry_cell_setting 'orthorhombic'
loop_
_space_group_symop_operation_xyz
x,y,z
1/2-x,1/2-y,z
1/2+x,-y,-z
-x,1/2+y,-z
-x,-y,-z
1/2+x,1/2+y,-z
1/2-x,y,z
x,1/2-y,z
loop_
_atom_site_type_symbol
_atom_site_label
_atom_site_fract_x
_atom_site_fract_y
_atom_site_fract_z
Si Si1 0.877753 0.750000 0.631087
Si Si2 0.992115 0.750000 0.427879
Si Si3 0.750000 0.069292 0.204947
Si Si4 0.750000 0.750000 0.325939
Si Si5 0.453697 0.420386 0.902538
Si Si6 0.380415 0.944201 0.279049
O O1 0.750000 0.750000 0.587485
O O2 0.970638 0.750000 0.544679
O O3 0.887487 0.614635 0.703058
O O4 0.868200 0.750000 0.381744
O O5 0.062426 0.618212 0.379285
O O6 0.750000 0.250000 0.233287
O O7 0.750000 0.918345 0.276638
O O8 0.640736 0.029652 0.140627
O O9 0.413503 0.250000 0.919894
O O10 0.548766 0.406447 0.817627
O O11 0.500000 0.500000 0.000000
O O12 0.250000 0.903287 0.271744
#
# Coordination Sequence:
#
# PCOD9452941 Si02
#       6
#     4   4   4   2   8   8
#     4  10  24  41  67 102 135 181 235 282 354 428
#     4  12  21  44  72  91 141 178 234 288 354 411
#     4  12  24  46  70 103 137 184 249 289 360 432
#     4  12  22  44  72  98 138 190 230 308 350 408
#     4  12  26  45  70 101 143 185 235 300 359 430
#     4  11  24  43  68 100 138 181 228 288 355 426
#
# _framework density 20.56748
#
# number of rings (size 3 to 8) (size 9 to 14) (size 15 to 20)
#    0.000    0.533    6.000    2.000    5.600    0.000 
#    0.000    0.000    2.933    0.000    0.000    0.000 
#    0.000    0.000    0.000    0.000    0.000    0.000 
#
# Total GULP energy -167008.907307 kJ/mol
# GULP energy per Si atom -5566.963577 kJ/mol
# Density = 2.052067 g / cm^3
# Si number density = 20.567480 Si / 1000 Ang^3
#
#
#
# Elastic Constant Matrix: (Units=GPa)
#
#
# Indices 1 2 3 4 5 6 
#
# 1 114.4915 19.5704 28.2920 0.0000 0.0000 0.0000
# 2 19.5704 200.2921 26.8226 0.0000 0.0000 0.0000
# 3 28.2920 26.8226 72.4919 0.0000 0.0000 0.0000
# 4 0.0000 0.0000 0.0000 58.2371 0.0000 0.0000
# 5 0.0000 0.0000 0.0000 0.0000 -15.1546 0.0000
# 6 0.0000 0.0000 0.0000 0.0000 0.0000 40.1700
#
#
#
# Elastic Compliance Matrix: (Units=1/GPa)
#
#
# Indices 1 2 3 4 5 6 
#
# 1 0.009707 -0.000464 -0.003617 0.000000 0.000000 0.000000
# 2 -0.000464 0.005275 -0.001771 0.000000 0.000000 0.000000
# 3 -0.003617 -0.001771 0.015861 0.000000 0.000000 0.000000
# 4 0.000000 0.000000 0.000000 0.017171 0.000000 0.000000
# 5 0.000000 0.000000 0.000000 0.000000 -0.065986 0.000000
# 6 0.000000 0.000000 0.000000 0.000000 0.000000 0.024894
#
#
# Mechanical properties :
#
#
# Convention : Reuss Voigt Hill
#
# Bulk Modulus (GPa) = 52.24511 59.62730 55.93620
# Shear Modulus (GPa) = 199.94890 37.48988 118.71939
#
# Velocity S-wave (km/s) = 9.87052 4.27403 7.60574
# Velocity P-wave (km/s) = 12.46434 7.30824 10.21690
#
# Compressibility (1/GPa) = 0.01914055
#
# Stress axis : x y z
#
# Youngs Moduli (GPa) = 103.01457 189.56669 63.04617
#
# Poissons Ratio (x) = 0.08799 0.22803
# Poissons Ratio (y) = 0.04781 0.11164
# Poissons Ratio (z) = 0.37259 0.33567
#
# Static dielectric constant tensor:
#      x y z
#    x 1.739890 0.000000 0.000000 
#    y 0.000000 1.829330 0.000000 
#    z 0.000000 0.000000 1.708930 
# 
# From -- ./inp_files/22043.got.cif
#   From: 2010.05.17/outbox.cif.g08.bks.cpg/sg59_12_cif.got.tgz:22043.got - 2010.06.03 14:40:33.
