data_PCOD9452305
_publ_section_title
;
Structure prediction by ZEFSAII (Michael W. Deem and Ramdas Pophale) SiO2 
 PCOD9452305
Probable space group: P M M N
;
_chemical_formula_sum "Si O2"
_cell_formula_units_Z 56
_cell_length_a 11.393742
_cell_length_b 19.416276
_cell_length_c 12.436229
_cell_angle_alpha 90.000000
_cell_angle_beta 90.000000
_cell_angle_gamma 90.000000
_cell_volume 2751.192814
_symmetry_space_group_name_H-M "P M M N"
_symmetry_group_IT_number 59
_space_group.IT_coordinate_system_code '2'
_symmetry_cell_setting 'orthorhombic'
loop_
_space_group_symop_operation_xyz
x,y,z
1/2-x,1/2-y,z
1/2+x,-y,-z
-x,1/2+y,-z
-x,-y,-z
1/2+x,1/2+y,-z
1/2-x,y,z
x,1/2-y,z
loop_
_atom_site_type_symbol
_atom_site_label
_atom_site_fract_x
_atom_site_fract_y
_atom_site_fract_z
Si Si1 0.382920 0.332612 0.566871
Si Si2 0.612211 0.172847 0.153500
Si Si3 0.029968 0.576392 0.040700
Si Si4 0.375991 0.525279 0.249414
Si Si5 0.382387 0.951938 0.704199
Si Si6 0.620458 0.401738 0.519757
Si Si7 0.887394 0.826147 0.182397
O O1 0.250000 0.357920 0.538877
O O2 0.380023 0.250000 0.556419
O O3 0.498312 0.360868 0.508543
O O4 0.404825 0.347346 0.693591
O O5 0.750000 0.179735 0.132736
O O6 0.560735 0.250000 0.157821
O O7 0.603738 0.128250 0.262491
O O8 0.565708 0.124098 0.058729
O O9 0.120855 0.569182 0.139611
O O10 0.926244 0.616777 0.099429
O O11 0.000000 0.500000 0.000000
O O12 0.250000 0.485989 0.248833
O O13 0.501323 0.486858 0.249418
O O14 0.376946 0.567100 0.360817
O O15 0.250000 0.973740 0.741938
O O16 0.383511 0.958073 0.575421
O O17 0.750000 0.366648 0.505206
O O18 0.750000 0.818219 0.171222
O O19 0.943314 0.750000 0.165283
#
# Coordination Sequence:
#
# PCOD9452305 Si02
#       7
#     8   8   8   8   8   8   8
#     4   9  18  34  57  85 116 151 194 242 298 363
#     4  10  22  41  62  86 120 161 207 254 302 367
#     4  12  22  37  61  88 119 162 202 253 307 377
#     4  11  23  39  58  90 126 154 195 261 320 364
#     4  10  22  41  63  87 115 162 211 247 295 369
#     4  10  21  37  59  87 121 157 202 254 309 363
#     4   9  19  36  58  85 117 155 201 250 302 364
#
# _framework density 20.354807000000001
#
# number of rings (size 3 to 8) (size 9 to 14) (size 15 to 20)
#    0.000    1.857    2.857    2.143    0.000    3.714 
#    0.000    1.429    0.000    0.429    0.000    0.000 
#    0.000    0.000    0.000    0.000    0.000    0.000 
#
# Total GULP energy -311762.218790 kJ/mol
# GULP energy per Si atom -5567.182478 kJ/mol
# Density = 2.030848 g / cm^3
# Si number density = 20.354807 Si / 1000 Ang^3
#
#
#
# Elastic Constant Matrix: (Units=GPa)
#
#
# Indices 1 2 3 4 5 6 
#
# 1 135.7738 39.4341 28.4610 0.0000 0.0000 0.0000
# 2 39.4341 49.0386 7.3337 0.0000 0.0000 0.0000
# 3 28.4610 7.3337 73.3106 0.0000 0.0000 0.0000
# 4 0.0000 0.0000 0.0000 35.6908 0.0000 0.0000
# 5 0.0000 0.0000 0.0000 0.0000 10.2807 0.0000
# 6 0.0000 0.0000 0.0000 0.0000 0.0000 31.2057
#
#
#
# Elastic Compliance Matrix: (Units=1/GPa)
#
#
# Indices 1 2 3 4 5 6 
#
# 1 0.010308 -0.007807 -0.003221 0.000000 0.000000 0.000000
# 2 -0.007807 0.026615 0.000369 0.000000 0.000000 0.000000
# 3 -0.003221 0.000369 0.014854 0.000000 0.000000 0.000000
# 4 0.000000 0.000000 0.000000 0.028018 0.000000 0.000000
# 5 0.000000 0.000000 0.000000 0.000000 0.097270 0.000000
# 6 0.000000 0.000000 0.000000 0.000000 0.000000 0.032045
#
#
# Mechanical properties :
#
#
# Convention : Reuss Voigt Hill
#
# Bulk Modulus (GPa) = 32.83205 45.39786 39.11496
# Shear Modulus (GPa) = 20.78283 27.62838 24.20561
#
# Velocity S-wave (km/s) = 3.19882 3.68821 3.45220
# Velocity P-wave (km/s) = 5.45968 6.36308 5.92862
#
# Compressibility (1/GPa) = 0.03045804
#
# Stress axis : x y z
#
# Youngs Moduli (GPa) = 97.01289 37.57240 67.32149
#
# Poissons Ratio (x) = 0.29334 0.21683
# Poissons Ratio (y) = 0.75742 -0.02481
# Poissons Ratio (z) = 0.31246 -0.01385
#
# Static dielectric constant tensor:
#      x y z
#    x 1.791940 0.000000 0.000000 
#    y 0.000000 1.780240 0.000000 
#    z 0.000000 0.000000 1.744740 
# 
# From -- ./inp_files/16017.got.cif
#   From: 2010.05.17/outbox.cif.g08.bks.cpg/sg59_9_cif.got.tgz:16017.got - 2010.06.03 14:40:33.
