data_PCOD9452444
_publ_section_title
;
Structure prediction by ZEFSAII (Michael W. Deem and Ramdas Pophale) SiO2 
 PCOD9452444
Probable space group: P M M N
;
_chemical_formula_sum "Si O2"
_cell_formula_units_Z 56
_cell_length_a 14.917821
_cell_length_b 8.898416
_cell_length_c 22.445098
_cell_angle_alpha 90.000000
_cell_angle_beta 90.000000
_cell_angle_gamma 90.000000
_cell_volume 2979.474019
_symmetry_space_group_name_H-M "P M M N"
_symmetry_group_IT_number 59
_space_group.IT_coordinate_system_code '2'
_symmetry_cell_setting 'orthorhombic'
loop_
_space_group_symop_operation_xyz
x,y,z
1/2-x,1/2-y,z
1/2+x,-y,-z
-x,1/2+y,-z
-x,-y,-z
1/2+x,1/2+y,-z
1/2-x,y,z
x,1/2-y,z
loop_
_atom_site_type_symbol
_atom_site_label
_atom_site_fract_x
_atom_site_fract_y
_atom_site_fract_z
Si Si1 0.647648 0.932886 0.064571
Si Si2 0.644877 0.931641 0.372806
Si Si3 0.140903 0.422475 0.494356
Si Si4 0.504761 0.429815 0.843593
Si Si5 0.142677 0.072915 0.069507
Si Si6 0.499069 0.071487 0.286870
Si Si7 0.142780 0.925906 0.371777
O O1 0.750000 0.982040 0.075202
O O2 0.648478 0.750000 0.063442
O O3 0.579536 0.979686 0.115693
O O4 0.619461 0.979018 0.997790
O O5 0.750000 0.969793 0.365470
O O6 0.637911 0.750000 0.370013
O O7 0.614542 0.976226 0.439773
O O8 0.583057 0.005778 0.323550
O O9 0.250000 0.419371 0.495790
O O10 0.110915 0.250000 0.485731
O O11 0.115116 0.522227 0.438140
O O12 0.501960 0.250000 0.837361
O O13 0.591416 0.479743 0.880916
O O14 0.502836 0.504113 0.779147
O O15 0.250000 0.060789 0.074940
O O16 0.119613 0.250000 0.075226
O O17 0.503597 0.250000 0.284591
O O18 0.411470 0.019197 0.323321
O O19 0.250000 0.948218 0.366387
O O20 0.123148 0.750000 0.364067
#
# Coordination Sequence:
#
# PCOD9452444 Si02
#       7
#     8   8   8   8   8   8   8
#     4   8  16  33  58  86 112 141 178 218 266 325
#     4   9  19  38  62  85 112 146 184 229 278 329
#     4   8  15  31  57  86 112 140 176 221 278 337
#     4  11  22  36  56  81 111 146 185 229 273 321
#     4   9  18  35  59  85 113 144 178 218 268 326
#     4  12  26  40  55  78 111 152 194 232 275 331
#     4  10  21  38  60  84 110 141 182 234 285 334
#
# _framework density 18.795264
#
# number of rings (size 3 to 8) (size 9 to 14) (size 15 to 20)
#    0.000    2.429    0.000    4.286    0.000    3.714 
#    0.000    3.571    0.000    3.000    0.000    0.000 
#    0.000    0.000    0.000    0.000    0.000    0.000 
#
# Total GULP energy -312668.689049 kJ/mol
# GULP energy per Si atom -5583.369447 kJ/mol
# Density = 1.875249 g / cm^3
# Si number density = 18.795264 Si / 1000 Ang^3
#
#
#
# Elastic Constant Matrix: (Units=GPa)
#
#
# Indices 1 2 3 4 5 6 
#
# 1 62.7622 38.5102 61.7112 0.0000 0.0000 0.0000
# 2 38.5102 66.4012 65.6209 0.0000 0.0000 0.0000
# 3 61.7112 65.6209 180.0607 0.0000 0.0000 0.0000
# 4 0.0000 0.0000 0.0000 43.7857 0.0000 0.0000
# 5 0.0000 0.0000 0.0000 0.0000 513.5466 0.0000
# 6 0.0000 0.0000 0.0000 0.0000 0.0000 25.5061
#
#
#
# Elastic Compliance Matrix: (Units=1/GPa)
#
#
# Indices 1 2 3 4 5 6 
#
# 1 0.028112 -0.010600 -0.005772 0.000000 0.000000 0.000000
# 2 -0.010600 0.027534 -0.006401 0.000000 0.000000 0.000000
# 3 -0.005772 -0.006401 0.009865 0.000000 0.000000 0.000000
# 4 0.000000 0.000000 0.000000 0.022838 0.000000 0.000000
# 5 0.000000 0.000000 0.000000 0.000000 0.001947 0.000000
# 6 0.000000 0.000000 0.000000 0.000000 0.000000 0.039206
#
#
# Mechanical properties :
#
#
# Convention : Reuss Voigt Hill
#
# Bulk Modulus (GPa) = 50.08951 71.21208 60.65079
# Shear Modulus (GPa) = 27.51720 126.12648 76.82184
#
# Velocity S-wave (km/s) = 3.83044 8.20068 6.40013
# Velocity P-wave (km/s) = 6.80228 11.29773 9.32496
#
# Compressibility (1/GPa) = 0.01996426
#
# Stress axis : x y z
#
# Youngs Moduli (GPa) = 35.57153 36.31885 101.37173
#
# Poissons Ratio (x) = 0.38499 0.58508
# Poissons Ratio (y) = 0.37707 0.64892
# Poissons Ratio (z) = 0.20531 0.23249
#
# Static dielectric constant tensor:
#      x y z
#    x 1.662700 0.000000 0.000000 
#    y 0.000000 1.629130 0.000000 
#    z 0.000000 0.000000 1.627360 
# 
# From -- ./inp_files/30308.got.cif
#   From: 2010.05.17/outbox.cif.g08.bks.cpg/sg59_16_cif.got.tgz:30308.got - 2010.06.03 14:40:33.
