data_PCOD9452208
_publ_section_title
;
Structure prediction by ZEFSAII (Michael W. Deem and Ramdas Pophale) SiO2 
 PCOD9452208
Probable space group: P M M N
;
_chemical_formula_sum "Si O2"
_cell_formula_units_Z 56
_cell_length_a 8.975479
_cell_length_b 22.694840
_cell_length_c 15.250799
_cell_angle_alpha 90.000000
_cell_angle_beta 90.000000
_cell_angle_gamma 90.000000
_cell_volume 3106.542916
_symmetry_space_group_name_H-M "P M M N"
_symmetry_group_IT_number 59
_space_group.IT_coordinate_system_code '2'
_symmetry_cell_setting 'orthorhombic'
loop_
_space_group_symop_operation_xyz
x,y,z
1/2-x,1/2-y,z
1/2+x,-y,-z
-x,1/2+y,-z
-x,-y,-z
1/2+x,1/2+y,-z
1/2-x,y,z
x,1/2-y,z
loop_
_atom_site_type_symbol
_atom_site_label
_atom_site_fract_x
_atom_site_fract_y
_atom_site_fract_z
Si Si1 0.575328 0.012979 0.906642
Si Si2 0.928585 0.087468 0.202626
Si Si3 0.925607 0.818013 0.925684
Si Si4 0.570773 0.684191 0.293605
Si Si5 0.571034 0.442947 0.394987
Si Si6 0.924328 0.347124 0.889436
Si Si7 0.429448 0.078410 0.579068
O O1 0.750000 0.997237 0.910103
O O2 0.563205 0.081986 0.886826
O O3 0.491757 0.973400 0.835850
O O4 0.500000 0.000000 0.000000
O O5 0.750000 0.087734 0.194887
O O6 0.969142 0.089726 0.305091
O O7 0.996120 0.138825 0.143049
O O8 0.750000 0.831530 0.929891
O O9 0.944386 0.750000 0.899622
O O10 0.995619 0.826559 0.021892
O O11 0.750000 0.679552 0.284544
O O12 0.537079 0.750000 0.328192
O O13 0.498752 0.677600 0.198075
O O14 0.520677 0.630997 0.356941
O O15 0.750000 0.440662 0.405038
O O16 0.529509 0.512513 0.388125
O O17 0.495602 0.417194 0.481635
O O18 0.750000 0.331378 0.893152
O O19 0.250000 0.080767 0.574482
#
# Coordination Sequence:
#
# PCOD9452208 Si02
#       7
#     8   8   8   8   8   8   8
#     4  11  22  35  54  82 114 148 185 230 281 330
#     4  11  22  37  58  84 114 148 185 229 281 334
#     4  11  24  40  57  77 106 148 193 234 276 327
#     4  10  21  37  57  82 113 150 189 229 279 339
#     4   9  19  35  57  84 111 141 179 226 283 339
#     4  11  23  37  56  83 113 148 188 230 280 332
#     4   9  18  35  58  83 111 143 179 225 277 333
#
# _framework density 18.02647
#
# number of rings (size 3 to 8) (size 9 to 14) (size 15 to 20)
#    0.000    1.714    1.429    3.000    0.000    7.714 
#    0.000    3.571    0.000    2.571    0.000    0.000 
#    0.000    0.000    0.000    0.000    0.000    0.000 
#
# Total GULP energy -312810.256116 kJ/mol
# GULP energy per Si atom -5585.897431 kJ/mol
# Density = 1.798544 g / cm^3
# Si number density = 18.026470 Si / 1000 Ang^3
#
#
#
# Elastic Constant Matrix: (Units=GPa)
#
#
# Indices 1 2 3 4 5 6 
#
# 1 57.0777 39.6884 42.4548 0.0000 0.0000 0.0000
# 2 39.6884 79.3117 51.5504 0.0000 0.0000 0.0000
# 3 42.4548 51.5504 134.2450 0.0000 0.0000 0.0000
# 4 0.0000 0.0000 0.0000 12.4790 0.0000 0.0000
# 5 0.0000 0.0000 0.0000 0.0000 33.4344 0.0000
# 6 0.0000 0.0000 0.0000 0.0000 0.0000 25.9761
#
#
#
# Elastic Compliance Matrix: (Units=1/GPa)
#
#
# Indices 1 2 3 4 5 6 
#
# 1 0.029017 -0.011402 -0.004798 0.000000 0.000000 0.000000
# 2 -0.011402 0.021282 -0.004567 0.000000 0.000000 0.000000
# 3 -0.004798 -0.004567 0.010720 0.000000 0.000000 0.000000
# 4 0.000000 0.000000 0.000000 0.080135 0.000000 0.000000
# 5 0.000000 0.000000 0.000000 0.000000 0.029909 0.000000
# 6 0.000000 0.000000 0.000000 0.000000 0.000000 0.038497
#
#
# Mechanical properties :
#
#
# Convention : Reuss Voigt Hill
#
# Bulk Modulus (GPa) = 51.31869 59.78019 55.54944
# Shear Modulus (GPa) = 19.41079 23.50730 21.45904
#
# Velocity S-wave (km/s) = 3.28501 3.61507 3.45399
# Velocity P-wave (km/s) = 6.55124 7.11754 6.84025
#
# Compressibility (1/GPa) = 0.01948608
#
# Stress axis : x y z
#
# Youngs Moduli (GPa) = 34.46250 46.98761 93.28232
#
# Poissons Ratio (x) = 0.53574 0.44760
# Poissons Ratio (y) = 0.39293 0.42599
# Poissons Ratio (z) = 0.16536 0.21458
#
# Static dielectric constant tensor:
#      x y z
#    x 1.603710 0.000000 0.000000 
#    y 0.000000 1.617020 0.000000 
#    z 0.000000 0.000000 1.587400 
# 
# From -- ./inp_files/21011.got.cif
#   From: 2010.05.17/outbox.cif.g08.bks.cpg/sg59_11_cif.got.tgz:21011.got - 2010.06.03 14:40:33.
