data_PCOD9452160
_publ_section_title
;
Structure prediction by ZEFSAII (Michael W. Deem and Ramdas Pophale) SiO2 
 PCOD9452160
Probable space group: P M M N
;
_chemical_formula_sum "Si O2"
_cell_formula_units_Z 48
_cell_length_a 14.898794
_cell_length_b 8.664952
_cell_length_c 20.123673
_cell_angle_alpha 90.000000
_cell_angle_beta 90.000000
_cell_angle_gamma 90.000000
_cell_volume 2597.912552
_symmetry_space_group_name_H-M "P M M N"
_symmetry_group_IT_number 59
_space_group.IT_coordinate_system_code '2'
_symmetry_cell_setting 'orthorhombic'
loop_
_space_group_symop_operation_xyz
x,y,z
1/2-x,1/2-y,z
1/2+x,-y,-z
-x,1/2+y,-z
-x,-y,-z
1/2+x,1/2+y,-z
1/2-x,y,z
x,1/2-y,z
loop_
_atom_site_type_symbol
_atom_site_label
_atom_site_fract_x
_atom_site_fract_y
_atom_site_fract_z
Si Si1 0.647578 0.064202 0.413280
Si Si2 0.938595 0.433826 0.819425
Si Si3 0.750000 0.565728 0.027568
Si Si4 0.557057 0.065437 0.062075
Si Si5 0.854203 0.935436 0.555288
Si Si6 0.515732 0.563097 0.675595
Si Si7 0.250000 0.065633 0.130914
O O1 0.750000 0.010272 0.403645
O O2 0.647654 0.250000 0.415706
O O3 0.580760 0.018533 0.354682
O O4 0.615514 0.005063 0.485068
O O5 0.941004 0.250000 0.825832
O O6 0.962828 0.485760 0.745212
O O7 0.839622 0.494698 0.837985
O O8 0.008174 0.507753 0.871500
O O9 0.750000 0.750000 0.037363
O O10 0.841162 0.494754 0.056732
O O11 0.750000 0.535950 0.948208
O O12 0.555627 0.250000 0.059257
O O13 0.500000 0.000000 0.000000
O O14 0.750000 0.979957 0.564756
O O15 0.858908 0.750000 0.550036
O O16 0.912949 0.981049 0.618473
O O17 0.518868 0.750000 0.683286
O O18 0.250000 0.250000 0.141026
#
# Coordination Sequence:
#
# PCOD9452160 Si02
#       7
#     8   8   4   8   8   8   4
#     4   9  18  34  56  81 110 148 194 249 300 352
#     4  12  26  42  62  91 126 161 203 252 303 362
#     4  11  23  41  69  99 124 159 204 255 306 360
#     4  12  24  42  67  95 126 164 206 252 304 361
#     4   9  18  32  53  82 111 146 191 242 297 359
#     4  10  21  37  56  80 115 157 199 241 300 363
#     4  11  23  41  67  93 124 161 196 243 304 366
#
# _framework density 18.476372000000001
#
# number of rings (size 3 to 8) (size 9 to 14) (size 15 to 20)
#    0.000    1.500    1.667    4.000    1.167    2.000 
#    1.500    0.000    0.000    0.000    0.000    0.000 
#    0.000    0.000    0.000    0.000    0.000    0.000 
#
# Total GULP energy -268288.642266 kJ/mol
# GULP energy per Si atom -5589.346714 kJ/mol
# Density = 1.843432 g / cm^3
# Si number density = 18.476372 Si / 1000 Ang^3
#
#
#
# Elastic Constant Matrix: (Units=GPa)
#
#
# Indices 1 2 3 4 5 6 
#
# 1 165.9468 67.1418 101.0676 0.0000 0.0000 0.0000
# 2 67.1418 86.6533 70.5259 0.0000 0.0000 0.0000
# 3 101.0676 70.5259 149.0047 0.0000 0.0000 0.0000
# 4 0.0000 0.0000 0.0000 31.8879 0.0000 0.0000
# 5 0.0000 0.0000 0.0000 0.0000 5.2790 0.0000
# 6 0.0000 0.0000 0.0000 0.0000 0.0000 25.2488
#
#
#
# Elastic Compliance Matrix: (Units=1/GPa)
#
#
# Indices 1 2 3 4 5 6 
#
# 1 0.011062 -0.004009 -0.005606 0.000000 0.000000 0.000000
# 2 -0.004009 0.020224 -0.006853 0.000000 0.000000 0.000000
# 3 -0.005606 -0.006853 0.013757 0.000000 0.000000 0.000000
# 4 0.000000 0.000000 0.000000 0.031360 0.000000 0.000000
# 5 0.000000 0.000000 0.000000 0.000000 0.189431 0.000000
# 6 0.000000 0.000000 0.000000 0.000000 0.000000 0.039606
#
#
# Mechanical properties :
#
#
# Convention : Reuss Voigt Hill
#
# Bulk Modulus (GPa) = 82.59153 97.67503 90.13328
# Shear Modulus (GPa) = 14.60228 23.34111 18.97170
#
# Velocity S-wave (km/s) = 2.81432 3.55814 3.20786
# Velocity P-wave (km/s) = 7.44034 8.35824 7.91261
#
# Compressibility (1/GPa) = 0.01210778
#
# Stress axis : x y z
#
# Youngs Moduli (GPa) = 90.39835 49.44587 72.68849
#
# Poissons Ratio (x) = 0.19822 0.40748
# Poissons Ratio (y) = 0.36238 0.49815
# Poissons Ratio (z) = 0.50676 0.33887
#
# Static dielectric constant tensor:
#      x y z
#    x 1.638920 0.000000 0.000000 
#    y 0.000000 1.618360 0.000000 
#    z 0.000000 0.000000 1.596890 
# 
# From -- ./inp_files/27462.got.cif
#   From: 2010.05.17/outbox.cif.g08.bks.cpg/sg59_14_cif.got.tgz:27462.got - 2010.06.03 14:40:33.
