data_PCOD9452210
_publ_section_title
;
Structure prediction by ZEFSAII (Michael W. Deem and Ramdas Pophale) SiO2 
 PCOD9452210
Probable space group: P M M N
;
_chemical_formula_sum "Si O2"
_cell_formula_units_Z 64
_cell_length_a 8.805516
_cell_length_b 31.625810
_cell_length_c 12.330411
_cell_angle_alpha 90.000000
_cell_angle_beta 90.000000
_cell_angle_gamma 90.000000
_cell_volume 3433.792288
_symmetry_space_group_name_H-M "P M M N"
_symmetry_group_IT_number 59
_space_group.IT_coordinate_system_code '2'
_symmetry_cell_setting 'orthorhombic'
loop_
_space_group_symop_operation_xyz
x,y,z
1/2-x,1/2-y,z
1/2+x,-y,-z
-x,1/2+y,-z
-x,-y,-z
1/2+x,1/2+y,-z
1/2-x,y,z
x,1/2-y,z
loop_
_atom_site_type_symbol
_atom_site_label
_atom_site_fract_x
_atom_site_fract_y
_atom_site_fract_z
Si Si1 0.932357 0.373212 0.633618
Si Si2 0.932055 0.452935 0.490561
Si Si3 0.569291 0.018133 0.888847
Si Si4 0.568139 0.444885 0.243549
Si Si5 0.430547 0.110707 0.861460
Si Si6 0.426942 0.200010 0.236071
Si Si7 0.432800 0.298962 0.488957
Si Si8 0.570897 0.132956 0.085641
O O1 0.750000 0.374164 0.639233
O O2 0.983171 0.417710 0.577634
O O3 0.001623 0.369174 0.752966
O O4 0.986252 0.333895 0.561248
O O5 0.750000 0.456810 0.500821
O O6 0.965054 0.435718 0.369218
O O7 0.000000 0.500000 0.500000
O O8 0.750000 0.021144 0.898105
O O9 0.498763 0.063653 0.867840
O O10 0.520925 0.986252 0.794197
O O11 0.500000 0.000000 0.000000
O O12 0.750000 0.452186 0.234004
O O13 0.527916 0.407212 0.161150
O O14 0.250000 0.109225 0.855299
O O15 0.482552 0.132579 0.972748
O O16 0.250000 0.187589 0.221079
O O17 0.438081 0.250000 0.216393
O O18 0.466932 0.192913 0.362100
O O19 0.530867 0.173607 0.156373
O O20 0.250000 0.302123 0.501538
O O21 0.474800 0.250000 0.513348
O O22 0.750000 0.129788 0.063656
#
# Coordination Sequence:
#
# PCOD9452210 Si02
#       8
#     8   8   8   8   8   8   8   8
#     4  11  23  40  61  88 121 158 201 251 305 361
#     4  10  22  38  56  82 116 155 195 240 293 350
#     4  12  23  37  57  83 114 153 198 244 291 345
#     4  10  21  37  57  82 114 150 191 240 291 343
#     4  12  25  41  60  83 115 157 200 246 296 354
#     4   9  19  37  61  89 122 156 190 234 290 352
#     4   9  19  38  64  93 123 157 198 243 295 358
#     4  11  22  37  59  86 116 149 191 243 291 346
#
# _framework density 18.638286000000001
#
# number of rings (size 3 to 8) (size 9 to 14) (size 15 to 20)
#    0.000    1.500    1.250    5.250    0.000    6.000 
#    0.000    1.875    0.000    3.750    0.000    0.000 
#    0.000    0.000    0.000    0.000    0.000    0.000 
#
# Total GULP energy -357708.272668 kJ/mol
# GULP energy per Si atom -5589.191760 kJ/mol
# Density = 1.859586 g / cm^3
# Si number density = 18.638286 Si / 1000 Ang^3
#
#
#
# Elastic Constant Matrix: (Units=GPa)
#
#
# Indices 1 2 3 4 5 6 
#
# 1 70.7325 35.0165 52.3812 0.0000 0.0000 0.0000
# 2 35.0165 69.4138 49.7120 0.0000 0.0000 0.0000
# 3 52.3812 49.7120 107.0857 0.0000 0.0000 0.0000
# 4 0.0000 0.0000 0.0000 31.7816 0.0000 0.0000
# 5 0.0000 0.0000 0.0000 0.0000 25.7557 0.0000
# 6 0.0000 0.0000 0.0000 0.0000 0.0000 33.3685
#
#
#
# Elastic Compliance Matrix: (Units=1/GPa)
#
#
# Indices 1 2 3 4 5 6 
#
# 1 0.023453 -0.005416 -0.008958 0.000000 0.000000 0.000000
# 2 -0.005416 0.022832 -0.007950 0.000000 0.000000 0.000000
# 3 -0.008958 -0.007950 0.017411 0.000000 0.000000 0.000000
# 4 0.000000 0.000000 0.000000 0.031465 0.000000 0.000000
# 5 0.000000 0.000000 0.000000 0.000000 0.038826 0.000000
# 6 0.000000 0.000000 0.000000 0.000000 0.000000 0.029968
#
#
# Mechanical properties :
#
#
# Convention : Reuss Voigt Hill
#
# Bulk Modulus (GPa) = 52.49856 57.93903 55.21879
# Shear Modulus (GPa) = 23.26111 25.52265 24.39188
#
# Velocity S-wave (km/s) = 3.53658 3.70451 3.62152
# Velocity P-wave (km/s) = 6.70110 7.03217 6.86863
#
# Compressibility (1/GPa) = 0.01904814
#
# Stress axis : x y z
#
# Youngs Moduli (GPa) = 42.63936 43.79833 57.43590
#
# Poissons Ratio (x) = 0.23719 0.51450
# Poissons Ratio (y) = 0.23092 0.45662
# Poissons Ratio (z) = 0.38196 0.34820
#
# Static dielectric constant tensor:
#      x y z
#    x 1.624640 0.000000 0.000000 
#    y 0.000000 1.611040 0.000000 
#    z 0.000000 0.000000 1.659830 
# 
# From -- ./inp_files/14953.got.cif
#   From: 2010.05.17/outbox.cif.g08.bks.cpg/sg59_8_cif.got.tgz:14953.got - 2010.06.03 14:40:33.
