data_PCOD9452812
_publ_section_title
;
Structure prediction by ZEFSAII (Michael W. Deem and Ramdas Pophale) SiO2 
 PCOD9452812
Probable space group: P M M N
;
_chemical_formula_sum "Si O2"
_cell_formula_units_Z 64
_cell_length_a 26.055513
_cell_length_b 8.693295
_cell_length_c 14.786691
_cell_angle_alpha 90.000000
_cell_angle_beta 90.000000
_cell_angle_gamma 90.000000
_cell_volume 3349.307663
_symmetry_space_group_name_H-M "P M M N"
_symmetry_group_IT_number 59
_space_group.IT_coordinate_system_code '2'
_symmetry_cell_setting 'orthorhombic'
loop_
_space_group_symop_operation_xyz
x,y,z
1/2-x,1/2-y,z
1/2+x,-y,-z
-x,1/2+y,-z
-x,-y,-z
1/2+x,1/2+y,-z
1/2-x,y,z
x,1/2-y,z
loop_
_atom_site_type_symbol
_atom_site_label
_atom_site_fract_x
_atom_site_fract_y
_atom_site_fract_z
Si Si1 0.689190 0.933781 0.586337
Si Si2 0.494558 0.937282 0.212094
Si Si3 0.134160 0.932726 0.586007
Si Si4 0.691633 0.064656 0.231266
Si Si5 0.309853 0.435426 0.206920
Si Si6 0.600392 0.065650 0.912244
Si Si7 0.521608 0.933384 0.407297
Si Si8 0.599529 0.934445 0.113439
O O1 0.750000 0.962827 0.574000
O O2 0.681236 0.750000 0.577616
O O3 0.676203 0.978113 0.689532
O O4 0.657312 0.019632 0.510194
O O5 0.494166 0.750000 0.212480
O O6 0.447107 0.987613 0.150570
O O7 0.492603 0.988176 0.316451
O O8 0.548700 0.985517 0.168271
O O9 0.125238 0.750000 0.588377
O O10 0.173302 0.972867 0.666856
O O11 0.080744 0.018284 0.602237
O O12 0.750000 0.012503 0.215603
O O13 0.690487 0.250000 0.222712
O O14 0.650303 0.995140 0.162995
O O15 0.250000 0.475085 0.192629
O O16 0.313981 0.250000 0.200051
O O17 0.347524 0.513939 0.136622
O O18 0.598586 0.250000 0.918931
O O19 0.596569 0.995203 0.011624
O O20 0.517768 0.750000 0.411073
O O21 0.500000 0.000000 0.500000
O O22 0.600292 0.750000 0.113140
#
# Coordination Sequence:
#
# PCOD9452812 Si02
#       8
#     8   8   8   8   8   8   8   8
#     4   9  19  36  58  84 116 155 198 244 293 348
#     4   9  21  41  63  87 121 155 193 244 295 353
#     4  11  22  37  59  88 122 160 200 246 300 360
#     4  10  22  40  61  88 123 161 203 252 304 360
#     4   9  20  40  61  85 119 156 197 245 294 350
#     4  11  23  39  62  91 119 153 195 246 303 361
#     4  11  23  41  61  89 125 161 199 244 298 357
#     4  11  22  41  64  88 117 155 199 249 303 357
#
# _framework density 19.108428
#
# number of rings (size 3 to 8) (size 9 to 14) (size 15 to 20)
#    0.000    1.875    1.250    3.000    1.750    2.750 
#    0.000    5.000    0.000    0.000    0.000    0.000 
#    0.000    0.000    0.000    0.000    0.000    0.000 
#
# Total GULP energy -357585.844249 kJ/mol
# GULP energy per Si atom -5587.278816 kJ/mol
# Density = 1.906494 g / cm^3
# Si number density = 19.108428 Si / 1000 Ang^3
#
#
#
# Elastic Constant Matrix: (Units=GPa)
#
#
# Indices 1 2 3 4 5 6 
#
# 1 102.8109 27.3092 68.8226 0.0000 0.0000 0.0000
# 2 27.3092 30.2572 34.0427 0.0000 0.0000 0.0000
# 3 68.8226 34.0427 153.1627 0.0000 0.0000 0.0000
# 4 0.0000 0.0000 0.0000 29.8344 0.0000 0.0000
# 5 0.0000 0.0000 0.0000 0.0000 -123.7981 0.0000
# 6 0.0000 0.0000 0.0000 0.0000 0.0000 25.7129
#
#
#
# Elastic Compliance Matrix: (Units=1/GPa)
#
#
# Indices 1 2 3 4 5 6 
#
# 1 0.015261 -0.008079 -0.005062 0.000000 0.000000 0.000000
# 2 -0.008079 0.048348 -0.007116 0.000000 0.000000 0.000000
# 3 -0.005062 -0.007116 0.010385 0.000000 0.000000 0.000000
# 4 0.000000 0.000000 0.000000 0.033518 0.000000 0.000000
# 5 0.000000 0.000000 0.000000 0.000000 -0.008078 0.000000
# 6 0.000000 0.000000 0.000000 0.000000 0.000000 0.038891
#
#
# Mechanical properties :
#
#
# Convention : Reuss Voigt Hill
#
# Bulk Modulus (GPa) = 29.86790 60.73110 45.29950
# Shear Modulus (GPa) = 26.31596 -3.24640 11.53478
#
# Velocity S-wave (km/s) = 3.71508 -1.30485 2.45959
# Velocity P-wave (km/s) = 5.83670 5.43886 5.64129
#
# Compressibility (1/GPa) = 0.03348076
#
# Stress axis : x y z
#
# Youngs Moduli (GPa) = 65.52663 20.68345 96.29237
#
# Poissons Ratio (x) = 0.16710 0.48741
# Poissons Ratio (y) = 0.52939 0.68519
# Poissons Ratio (z) = 0.33168 0.14718
#
# Static dielectric constant tensor:
#      x y z
#    x 1.645520 0.000000 0.000000 
#    y 0.000000 1.662720 0.000000 
#    z 0.000000 0.000000 1.648910 
# 
# From -- ./inp_files/24722.got.cif
#   From: 2010.05.17/outbox.cif.g08.bks.cpg/sg59_13_cif.got.tgz:24722.got - 2010.06.03 14:40:33.
