data_PCOD9452408
_publ_section_title
;
Structure prediction by ZEFSAII (Michael W. Deem and Ramdas Pophale) SiO2 
 PCOD9452408
Probable space group: P M M N
;
_chemical_formula_sum "Si O2"
_cell_formula_units_Z 56
_cell_length_a 8.582819
_cell_length_b 20.489380
_cell_length_c 17.509644
_cell_angle_alpha 90.000000
_cell_angle_beta 90.000000
_cell_angle_gamma 90.000000
_cell_volume 3079.187161
_symmetry_space_group_name_H-M "P M M N"
_symmetry_group_IT_number 59
_space_group.IT_coordinate_system_code '2'
_symmetry_cell_setting 'orthorhombic'
loop_
_space_group_symop_operation_xyz
x,y,z
1/2-x,1/2-y,z
1/2+x,-y,-z
-x,1/2+y,-z
-x,-y,-z
1/2+x,1/2+y,-z
1/2-x,y,z
x,1/2-y,z
loop_
_atom_site_type_symbol
_atom_site_label
_atom_site_fract_x
_atom_site_fract_y
_atom_site_fract_z
Si Si1 0.072068 0.250000 0.694889
Si Si2 0.569901 0.352722 0.804928
Si Si3 0.435844 0.004029 0.379215
Si Si4 0.435957 0.393631 0.514432
Si Si5 0.431483 0.750000 0.468072
Si Si6 0.566776 0.823030 0.032152
Si Si7 0.436372 0.050734 0.063192
Si Si8 0.566114 0.505274 0.215297
O O1 0.250000 0.250000 0.667713
O O2 0.037034 0.188177 0.747808
O O3 0.959707 0.250000 0.622847
O O4 0.750000 0.339890 0.787312
O O5 0.528728 0.428066 0.796786
O O6 0.531764 0.332483 0.891346
O O7 0.250000 0.107736 0.525287
O O8 0.471044 0.060857 0.440860
O O9 0.490292 0.934582 0.415086
O O10 0.519863 0.018361 0.299506
O O11 0.750000 0.501586 0.631998
O O12 0.495295 0.319428 0.505906
O O13 0.250000 0.750000 0.487074
O O14 0.750000 0.830801 0.053569
O O15 0.544960 0.750000 0.002609
O O16 0.530793 0.878031 0.970788
O O17 0.250000 0.042024 0.070333
O O18 0.515851 0.039718 0.144669
O O19 0.500000 0.000000 0.000000
O O20 0.750000 0.518061 0.211137
#
# Coordination Sequence:
#
# PCOD9452408 Si02
#       8
#     4   8   8   8   4   8   8   8
#     4  12  24  38  54  78 119 158 193 232 286 352
#     4  12  23  35  54  82 115 151 192 237 288 345
#     4  10  21  39  63  90 119 152 195 243 292 351
#     4  10  21  39  63  90 121 156 194 236 293 355
#     4  12  24  38  58  86 121 156 195 238 284 344
#     4  10  21  38  59  81 111 151 191 233 289 351
#     4  11  22  37  59  86 117 151 196 244 293 347
#     4  12  24  38  58  84 117 154 196 244 294 344
#
# _framework density 18.186617999999999
#
# number of rings (size 3 to 8) (size 9 to 14) (size 15 to 20)
#    0.000    1.000    2.143    6.000    0.000    2.286 
#    0.000    0.000    1.571    0.000    0.000    0.000 
#    0.000    0.000    0.000    0.000    0.000    0.000 
#
# Total GULP energy -313043.041694 kJ/mol
# GULP energy per Si atom -5590.054316 kJ/mol
# Density = 1.814522 g / cm^3
# Si number density = 18.186618 Si / 1000 Ang^3
#
#
#
# Elastic Constant Matrix: (Units=GPa)
#
#
# Indices 1 2 3 4 5 6 
#
# 1 49.4809 20.9518 21.5642 0.0000 0.0000 0.0000
# 2 20.9518 98.1077 32.9502 0.0000 0.0000 0.0000
# 3 21.5642 32.9502 83.9455 0.0000 0.0000 0.0000
# 4 0.0000 0.0000 0.0000 25.4186 0.0000 0.0000
# 5 0.0000 0.0000 0.0000 0.0000 31.8398 0.0000
# 6 0.0000 0.0000 0.0000 0.0000 0.0000 34.1778
#
#
#
# Elastic Compliance Matrix: (Units=1/GPa)
#
#
# Indices 1 2 3 4 5 6 
#
# 1 0.023747 -0.003482 -0.004734 0.000000 0.000000 0.000000
# 2 -0.003482 0.012251 -0.003914 0.000000 0.000000 0.000000
# 3 -0.004734 -0.003914 0.014665 0.000000 0.000000 0.000000
# 4 0.000000 0.000000 0.000000 0.039341 0.000000 0.000000
# 5 0.000000 0.000000 0.000000 0.000000 0.031407 0.000000
# 6 0.000000 0.000000 0.000000 0.000000 0.000000 0.029259
#
#
# Mechanical properties :
#
#
# Convention : Reuss Voigt Hill
#
# Bulk Modulus (GPa) = 37.87333 42.49627 40.18480
# Shear Modulus (GPa) = 27.21372 28.69176 27.95274
#
# Velocity S-wave (km/s) = 3.87248 3.97625 3.92471
# Velocity P-wave (km/s) = 6.39256 6.67070 6.53311
#
# Compressibility (1/GPa) = 0.02640381
#
# Stress axis : x y z
#
# Youngs Moduli (GPa) = 42.11060 81.62533 68.18967
#
# Poissons Ratio (x) = 0.28418 0.32278
# Poissons Ratio (y) = 0.14661 0.26692
# Poissons Ratio (z) = 0.19934 0.31952
#
# Static dielectric constant tensor:
#      x y z
#    x 1.617540 0.000000 0.000000 
#    y 0.000000 1.623910 0.000000 
#    z 0.000000 0.000000 1.608510 
# 
# From -- ./inp_files/21146.got.cif
#   From: 2010.05.17/outbox.cif.g08.bks.cpg/sg59_11_cif.got.tgz:21146.got - 2010.06.03 14:40:33.
