data_PCOD9452677
_publ_section_title
;
Structure prediction by ZEFSAII (Michael W. Deem and Ramdas Pophale) SiO2 
 PCOD9452677
Probable space group: P M M N
;
_chemical_formula_sum "Si O2"
_cell_formula_units_Z 56
_cell_length_a 26.717055
_cell_length_b 16.318027
_cell_length_c 5.314108
_cell_angle_alpha 90.000000
_cell_angle_beta 90.000000
_cell_angle_gamma 90.000000
_cell_volume 2316.789671
_symmetry_space_group_name_H-M "P M M N"
_symmetry_group_IT_number 59
_space_group.IT_coordinate_system_code '2'
_symmetry_cell_setting 'orthorhombic'
loop_
_space_group_symop_operation_xyz
x,y,z
1/2-x,1/2-y,z
1/2+x,-y,-z
-x,1/2+y,-z
-x,-y,-z
1/2+x,1/2+y,-z
1/2-x,y,z
x,1/2-y,z
loop_
_atom_site_type_symbol
_atom_site_label
_atom_site_fract_x
_atom_site_fract_y
_atom_site_fract_z
Si Si1 0.092139 0.902159 0.193604
Si Si2 0.962117 0.347039 0.300355
Si Si3 0.555822 0.841954 0.379096
Si Si4 0.836151 0.839860 0.640383
Si Si5 0.803898 0.501999 0.359477
Si Si6 0.804941 0.342231 0.706429
Si Si7 0.110514 0.062434 0.988458
O O1 0.072026 0.868833 0.457776
O O2 0.145038 0.858020 0.135471
O O3 0.055807 0.887984 0.957022
O O4 0.099241 0.999929 0.213028
O O5 0.959905 0.250000 0.256450
O O6 0.017541 0.366841 0.403631
O O7 0.540814 0.750000 0.292775
O O8 0.611972 0.836989 0.484866
O O9 0.561783 0.905750 0.154141
O O10 0.812447 0.750000 0.626640
O O11 0.806193 0.918294 0.541663
O O12 0.856491 0.861176 0.917616
O O13 0.750000 0.505670 0.223395
O O14 0.805965 0.416698 0.508577
O O15 0.852205 0.511032 0.187198
O O16 0.750000 0.347097 0.834399
O O17 0.808236 0.250000 0.598578
#
# Coordination Sequence:
#
# PCOD9452677 Si02
#       7
#     8   8   8   8   8   8   8
#     4  12  25  42  68 100 137 175 228 287 344 406
#     4  11  25  44  67  98 138 182 228 287 347 405
#     4   9  22  42  65  93 129 180 231 276 339 413
#     4  10  21  41  67  95 133 178 227 283 341 412
#     4  10  22  42  67  98 135 175 226 283 344 409
#     4  10  21  42  71  98 130 176 225 275 338 414
#     4  11  23  39  65  94 134 177 227 285 340 410
#
# _framework density 24.171375999999999
#
# number of rings (size 3 to 8) (size 9 to 14) (size 15 to 20)
#    0.000    1.571    1.429    2.571    4.000    3.143 
#    0.000    2.143    0.000    7.714    0.000    0.000 
#    0.000    0.000    0.000    0.000    0.000    0.000 
#
# Total GULP energy -313095.933303 kJ/mol
# GULP energy per Si atom -5590.998809 kJ/mol
# Density = 2.411636 g / cm^3
# Si number density = 24.171376 Si / 1000 Ang^3
#
#
#
# Elastic Constant Matrix: (Units=GPa)
#
#
# Indices 1 2 3 4 5 6 
#
# 1 101.7757 27.0919 16.9517 0.0000 0.0000 0.0000
# 2 27.0919 155.7523 20.6454 0.0000 0.0000 0.0000
# 3 16.9517 20.6454 61.3785 0.0000 0.0000 0.0000
# 4 0.0000 0.0000 0.0000 28.3206 0.0000 0.0000
# 5 0.0000 0.0000 0.0000 0.0000 -3.1410 0.0000
# 6 0.0000 0.0000 0.0000 0.0000 0.0000 -8.3653
#
#
#
# Elastic Compliance Matrix: (Units=1/GPa)
#
#
# Indices 1 2 3 4 5 6 
#
# 1 0.010636 -0.001529 -0.002423 0.000000 0.000000 0.000000
# 2 -0.001529 0.006940 -0.001912 0.000000 0.000000 0.000000
# 3 -0.002423 -0.001912 0.017605 0.000000 0.000000 0.000000
# 4 0.000000 0.000000 0.000000 0.035310 0.000000 0.000000
# 5 0.000000 0.000000 0.000000 0.000000 -0.318366 0.000000
# 6 0.000000 0.000000 0.000000 0.000000 0.000000 -0.119541
#
#
# Mechanical properties :
#
#
# Convention : Reuss Voigt Hill
#
# Bulk Modulus (GPa) = 42.63962 49.80938 46.22450
# Shear Modulus (GPa) = -14.37317 20.31069 2.96876
#
# Velocity S-wave (km/s) = -2.44116 2.90190 1.10945
# Velocity P-wave (km/s) = 3.11980 5.64620 4.56140
#
# Compressibility (1/GPa) = 0.02345236
#
# Stress axis : x y z
#
# Youngs Moduli (GPa) = 94.01932 144.09569 56.80283
#
# Poissons Ratio (x) = 0.22030 0.13765
# Poissons Ratio (y) = 0.14374 0.10861
# Poissons Ratio (z) = 0.22783 0.27552
#
# Static dielectric constant tensor:
#      x y z
#    x 1.969320 0.000000 0.000000 
#    y 0.000000 1.912520 0.000000 
#    z 0.000000 0.000000 1.941520 
# 
# From -- ./inp_files/4572.got.cif
#   From: 2010.05.17/outbox.cif.g08.bks.cpg/sg59_3_cif.got.tgz:4572.got - 2010.06.03 14:40:33.
