data_PCOD9452240
_publ_section_title
;
Structure prediction by ZEFSAII (Michael W. Deem and Ramdas Pophale) SiO2 
 PCOD9452240
Probable space group: P M M N
;
_chemical_formula_sum "Si O2"
_cell_formula_units_Z 48
_cell_length_a 18.754526
_cell_length_b 14.333201
_cell_length_c 9.126521
_cell_angle_alpha 90.000000
_cell_angle_beta 90.000000
_cell_angle_gamma 90.000000
_cell_volume 2453.321930
_symmetry_space_group_name_H-M "P M M N"
_symmetry_group_IT_number 59
_space_group.IT_coordinate_system_code '2'
_symmetry_cell_setting 'orthorhombic'
loop_
_space_group_symop_operation_xyz
x,y,z
1/2-x,1/2-y,z
1/2+x,-y,-z
-x,1/2+y,-z
-x,-y,-z
1/2+x,1/2+y,-z
1/2-x,y,z
x,1/2-y,z
loop_
_atom_site_type_symbol
_atom_site_label
_atom_site_fract_x
_atom_site_fract_y
_atom_site_fract_z
Si Si1 0.171821 0.637795 0.092835
Si Si2 0.886878 0.861812 0.984709
Si Si3 0.934626 0.953907 0.417488
Si Si4 0.170423 0.979368 0.808424
Si Si5 0.667420 0.638030 0.656800
Si Si6 0.018295 0.860399 0.160973
O O1 0.250000 0.603984 0.146375
O O2 0.173177 0.750000 0.101643
O O3 0.098899 0.601505 0.166565
O O4 0.165328 0.603944 0.925231
O O5 0.877500 0.750000 0.011537
O O6 0.969374 0.887381 0.021129
O O7 0.842154 0.926329 0.095702
O O8 0.863212 0.880881 0.819300
O O9 0.881360 0.906847 0.532277
O O10 0.971288 0.884372 0.301551
O O11 0.888489 0.023591 0.316847
O O12 0.000000 0.000000 0.500000
O O13 0.250000 0.981332 0.746227
O O14 0.750000 0.608170 0.647837
O O15 0.665708 0.750000 0.638340
O O16 0.026023 0.750000 0.151583
#
# Coordination Sequence:
#
# PCOD9452240 Si02
#       6
#     8   8   8   8   8   8
#     4   9  19  36  59  84 106 138 188 243 288 324
#     4   9  19  34  59  91 116 142 182 232 287 339
#     4  11  24  36  52  80 117 154 186 224 279 342
#     4  10  21  37  58  82 111 146 187 232 281 336
#     4  10  21  38  58  82 115 153 191 232 282 343
#     4   9  19  37  58  80 109 143 187 233 278 335
#
# _framework density 19.565308000000002
#
# number of rings (size 3 to 8) (size 9 to 14) (size 15 to 20)
#    0.000    2.333    0.000    1.500    4.667    3.000 
#    0.000    1.667    0.000    0.000    0.000    0.000 
#    0.000    0.000    0.000    0.000    0.000    0.000 
#
# Total GULP energy -267691.902403 kJ/mol
# GULP energy per Si atom -5576.914633 kJ/mol
# Density = 1.952078 g / cm^3
# Si number density = 19.565308 Si / 1000 Ang^3
#
#
#
# Elastic Constant Matrix: (Units=GPa)
#
#
# Indices 1 2 3 4 5 6 
#
# 1 177.0055 14.1031 65.1050 0.0000 0.0000 0.0000
# 2 14.1031 24.0221 -0.7192 0.0000 0.0000 0.0000
# 3 65.1050 -0.7192 85.9111 0.0000 0.0000 0.0000
# 4 0.0000 0.0000 0.0000 22.8291 0.0000 0.0000
# 5 0.0000 0.0000 0.0000 0.0000 31.2033 0.0000
# 6 0.0000 0.0000 0.0000 0.0000 0.0000 20.7323
#
#
#
# Elastic Compliance Matrix: (Units=1/GPa)
#
#
# Indices 1 2 3 4 5 6 
#
# 1 0.008422 -0.005137 -0.006426 0.000000 0.000000 0.000000
# 2 -0.005137 0.044772 0.004268 0.000000 0.000000 0.000000
# 3 -0.006426 0.004268 0.016545 0.000000 0.000000 0.000000
# 4 0.000000 0.000000 0.000000 0.043804 0.000000 0.000000
# 5 0.000000 0.000000 0.000000 0.000000 0.032048 0.000000
# 6 0.000000 0.000000 0.000000 0.000000 0.000000 0.048234
#
#
# Mechanical properties :
#
#
# Convention : Reuss Voigt Hill
#
# Bulk Modulus (GPa) = 18.13253 49.32405 33.72829
# Shear Modulus (GPa) = 22.04609 28.84957 25.44783
#
# Velocity S-wave (km/s) = 3.36042 3.84412 3.61038
# Velocity P-wave (km/s) = 4.93400 6.70580 5.88694
#
# Compressibility (1/GPa) = 0.05514951
#
# Stress axis : x y z
#
# Youngs Moduli (GPa) = 118.73347 22.33546 60.44107
#
# Poissons Ratio (x) = 0.11474 0.38837
# Poissons Ratio (y) = 0.60993 -0.25794
# Poissons Ratio (z) = 0.76292 -0.09532
#
# Static dielectric constant tensor:
#      x y z
#    x 1.762560 0.000000 0.000000 
#    y 0.000000 1.690390 0.000000 
#    z 0.000000 0.000000 1.822440 
# 
# From -- ./inp_files/10242.got.cif
#   From: 2010.05.17/outbox.cif.g08.bks.cpg/sg59_6_cif.got.tgz:10242.got - 2010.06.03 14:40:33.
