data_PCOD9452896
_publ_section_title
;
Structure prediction by ZEFSAII (Michael W. Deem and Ramdas Pophale) SiO2 
 PCOD9452896
Probable space group: P M M N
;
_chemical_formula_sum "Si O2"
_cell_formula_units_Z 48
_cell_length_a 15.172451
_cell_length_b 8.789436
_cell_length_c 19.133521
_cell_angle_alpha 90.000000
_cell_angle_beta 90.000000
_cell_angle_gamma 90.000000
_cell_volume 2551.594452
_symmetry_space_group_name_H-M "P M M N"
_symmetry_group_IT_number 59
_space_group.IT_coordinate_system_code '2'
_symmetry_cell_setting 'orthorhombic'
loop_
_space_group_symop_operation_xyz
x,y,z
1/2-x,1/2-y,z
1/2+x,-y,-z
-x,1/2+y,-z
-x,-y,-z
1/2+x,1/2+y,-z
1/2-x,y,z
x,1/2-y,z
loop_
_atom_site_type_symbol
_atom_site_label
_atom_site_fract_x
_atom_site_fract_y
_atom_site_fract_z
Si Si1 0.854324 0.569543 0.171988
Si Si2 0.580244 0.068574 0.312725
Si Si3 0.250000 0.931627 0.083888
Si Si4 0.750000 0.931188 0.763078
Si Si5 0.892185 0.068189 0.659881
Si Si6 0.250000 0.569512 0.458668
Si Si7 0.592950 0.067663 0.022929
Si Si8 0.750000 0.569520 0.389881
O O1 0.750000 0.545999 0.184772
O O2 0.871796 0.750000 0.174286
O O3 0.907794 0.486508 0.232906
O O4 0.877850 0.504171 0.096318
O O5 0.581439 0.250000 0.316419
O O6 0.488363 0.004272 0.341589
O O7 0.663078 0.001089 0.354700
O O8 0.250000 0.750000 0.098034
O O9 0.250000 0.019206 0.156574
O O10 0.165218 0.967255 0.036407
O O11 0.750000 0.750000 0.756310
O O12 0.834932 0.999575 0.723326
O O13 0.898302 0.250000 0.668582
O O14 0.834879 0.038717 0.590114
O O15 0.250000 0.750000 0.475939
O O16 0.250000 0.472776 0.528585
O O17 0.588307 0.250000 0.030141
O O18 0.500000 0.000000 0.000000
O O19 0.750000 0.750000 0.378634
#
# Coordination Sequence:
#
# PCOD9452896 Si02
#       8
#     8   8   4   4   8   4   8   4
#     4  11  23  41  65  90 123 164 207 257 316 378
#     4  12  25  41  65  95 128 165 212 261 307 370
#     4  10  23  42  61  83 119 165 207 256 315 372
#     4  11  23  39  63  93 125 162 211 262 311 370
#     4  10  22  43  68  93 127 166 208 255 313 374
#     4   9  21  43  69  95 125 166 207 254 307 366
#     4  11  24  42  63  89 123 163 211 261 316 375
#     4  12  25  42  65  95 131 169 207 256 311 370
#
# _framework density 18.811765000000001
#
# number of rings (size 3 to 8) (size 9 to 14) (size 15 to 20)
#    0.000    1.167    1.667    5.000    2.333    4.667 
#    0.000    0.000    0.000    0.000    0.000    0.000 
#    0.000    0.000    0.000    0.000    0.000    0.000 
#
# Total GULP energy -268526.740534 kJ/mol
# GULP energy per Si atom -5594.307094 kJ/mol
# Density = 1.876895 g / cm^3
# Si number density = 18.811765 Si / 1000 Ang^3
#
#
#
# Elastic Constant Matrix: (Units=GPa)
#
#
# Indices 1 2 3 4 5 6 
#
# 1 156.7942 75.3709 50.0260 0.0000 0.0000 0.0000
# 2 75.3709 124.1636 64.3059 0.0000 0.0000 0.0000
# 3 50.0260 64.3059 104.5853 0.0000 0.0000 0.0000
# 4 0.0000 0.0000 0.0000 33.5069 0.0000 0.0000
# 5 0.0000 0.0000 0.0000 0.0000 29.8988 0.0000
# 6 0.0000 0.0000 0.0000 0.0000 0.0000 23.9116
#
#
#
# Elastic Compliance Matrix: (Units=1/GPa)
#
#
# Indices 1 2 3 4 5 6 
#
# 1 0.009145 -0.004821 -0.001410 0.000000 0.000000 0.000000
# 2 -0.004821 0.014359 -0.006522 0.000000 0.000000 0.000000
# 3 -0.001410 -0.006522 0.014246 0.000000 0.000000 0.000000
# 4 0.000000 0.000000 0.000000 0.029845 0.000000 0.000000
# 5 0.000000 0.000000 0.000000 0.000000 0.033446 0.000000
# 6 0.000000 0.000000 0.000000 0.000000 0.000000 0.041821
#
#
# Mechanical properties :
#
#
# Convention : Reuss Voigt Hill
#
# Bulk Modulus (GPa) = 81.68008 84.99430 83.33719
# Shear Modulus (GPa) = 28.99394 30.51949 29.75671
#
# Velocity S-wave (km/s) = 3.93016 4.03223 3.98152
# Velocity P-wave (km/s) = 8.00680 8.18279 8.09527
#
# Compressibility (1/GPa) = 0.01224289
#
# Stress axis : x y z
#
# Youngs Moduli (GPa) = 109.34733 69.64513 70.19275
#
# Poissons Ratio (x) = 0.33577 0.09898
# Poissons Ratio (y) = 0.52717 0.45783
# Poissons Ratio (z) = 0.15419 0.45426
#
# Static dielectric constant tensor:
#      x y z
#    x 1.628600 0.000000 0.000000 
#    y 0.000000 1.617820 0.000000 
#    z 0.000000 0.000000 1.623430 
# 
# From -- ./inp_files/27534.got.cif
#   From: 2010.05.17/outbox.cif.g08.bks.cpg/sg59_14_cif.got.tgz:27534.got - 2010.06.03 14:40:33.
