data_PCOD9452964
_publ_section_title
;
Structure prediction by ZEFSAII (Michael W. Deem and Ramdas Pophale) SiO2 
 PCOD9452964
Probable space group: P M M N
;
_chemical_formula_sum "Si O2"
_cell_formula_units_Z 56
_cell_length_a 8.448721
_cell_length_b 29.328428
_cell_length_c 14.049768
_cell_angle_alpha 90.000000
_cell_angle_beta 90.000000
_cell_angle_gamma 90.000000
_cell_volume 3481.359776
_symmetry_space_group_name_H-M "P M M N"
_symmetry_group_IT_number 59
_space_group.IT_coordinate_system_code '2'
_symmetry_cell_setting 'orthorhombic'
loop_
_space_group_symop_operation_xyz
x,y,z
1/2-x,1/2-y,z
1/2+x,-y,-z
-x,1/2+y,-z
-x,-y,-z
1/2+x,1/2+y,-z
1/2-x,y,z
x,1/2-y,z
loop_
_atom_site_type_symbol
_atom_site_label
_atom_site_fract_x
_atom_site_fract_y
_atom_site_fract_z
Si Si1 0.559119 0.465517 0.791545
Si Si2 0.438983 0.391632 0.919124
Si Si3 0.941131 0.517541 0.600737
Si Si4 0.440192 0.107098 0.296721
Si Si5 0.942322 0.554616 0.895875
Si Si6 0.059531 0.801347 0.770473
Si Si7 0.059115 0.698171 0.989950
O O1 0.750000 0.465027 0.792667
O O2 0.497605 0.416677 0.824359
O O3 0.509347 0.484657 0.688384
O O4 0.504088 0.503814 0.868327
O O5 0.250000 0.392390 0.920623
O O6 0.501042 0.422397 0.007856
O O7 0.495109 0.340645 0.940957
O O8 0.750000 0.517778 0.600885
O O9 0.993483 0.569188 0.626931
O O10 0.000000 0.500000 0.500000
O O11 0.250000 0.108713 0.300026
O O12 0.485969 0.085838 0.194259
O O13 0.503070 0.158283 0.297456
O O14 0.750000 0.553529 0.899855
O O15 0.250000 0.801462 0.771888
O O16 0.007430 0.750000 0.744777
O O17 0.006327 0.810110 0.880137
O O18 0.250000 0.696291 0.990297
O O19 0.012180 0.750000 0.014779
#
# Coordination Sequence:
#
# PCOD9452964 Si02
#       7
#     8   8   8   8   8   8   8
#     4   9  18  32  46  62  89 123 152 182 224 275
#     4  11  19  27  43  67  92 120 155 193 225 258
#     4   9  19  34  52  70  92 119 151 192 236 282
#     4   9  16  29  46  66  92 123 154 187 228 272
#     4   8  15  27  41  60  90 122 152 182 215 257
#     4   9  17  28  42  64  93 123 157 193 224 261
#     4   9  18  31  44  60  88 127 164 192 223 266
#
# _framework density 16.085668999999999
#
# number of rings (size 3 to 8) (size 9 to 14) (size 15 to 20)
#    0.000    2.857    1.429    3.429    0.000    1.714 
#    0.000    4.286    0.000    0.000    0.000    1.000 
#    0.000    5.714    0.000    0.000    0.000    0.000 
#
# Total GULP energy -311928.598122 kJ/mol
# GULP energy per Si atom -5570.153538 kJ/mol
# Density = 1.604906 g / cm^3
# Si number density = 16.085669 Si / 1000 Ang^3
#
#
#
# Elastic Constant Matrix: (Units=GPa)
#
#
# Indices 1 2 3 4 5 6 
#
# 1 11.5306 24.7093 15.9877 0.0000 0.0000 0.0000
# 2 24.7093 152.9379 67.2184 0.0000 0.0000 0.0000
# 3 15.9877 67.2184 67.0635 0.0000 0.0000 0.0000
# 4 0.0000 0.0000 0.0000 20.8381 0.0000 0.0000
# 5 0.0000 0.0000 0.0000 0.0000 17.6081 0.0000
# 6 0.0000 0.0000 0.0000 0.0000 0.0000 23.7455
#
#
#
# Elastic Compliance Matrix: (Units=1/GPa)
#
#
# Indices 1 2 3 4 5 6 
#
# 1 0.146248 -0.014844 -0.019987 0.000000 0.000000 0.000000
# 2 -0.014844 0.013194 -0.009685 0.000000 0.000000 0.000000
# 3 -0.019987 -0.009685 0.029384 0.000000 0.000000 0.000000
# 4 0.000000 0.000000 0.000000 0.047989 0.000000 0.000000
# 5 0.000000 0.000000 0.000000 0.000000 0.056792 0.000000
# 6 0.000000 0.000000 0.000000 0.000000 0.000000 0.042113
#
#
# Mechanical properties :
#
#
# Convention : Reuss Voigt Hill
#
# Bulk Modulus (GPa) = 10.02069 49.70696 29.86382
# Shear Modulus (GPa) = 10.91662 20.67944 15.79803
#
# Velocity S-wave (km/s) = 2.60793 3.58939 3.13728
# Velocity P-wave (km/s) = 3.91299 6.93879 5.63286
#
# Compressibility (1/GPa) = 0.09979350
#
# Stress axis : x y z
#
# Youngs Moduli (GPa) = 6.83769 75.79326 34.03229
#
# Poissons Ratio (x) = 1.12508 0.68019
# Poissons Ratio (y) = 0.10150 0.32962
# Poissons Ratio (z) = 0.13666 0.73410
#
# Static dielectric constant tensor:
#      x y z
#    x 1.553390 0.000000 0.000000 
#    y 0.000000 1.566880 0.000000 
#    z 0.000000 0.000000 1.521550 
# 
# From -- ./inp_files/21742.got.cif
#   From: 2010.05.17/outbox.cif.g08.bks.cpg/sg59_11_cif.got.tgz:21742.got - 2010.06.03 14:40:33.
