data_PCOD9452411
_publ_section_title
;
Structure prediction by ZEFSAII (Michael W. Deem and Ramdas Pophale) SiO2 
 PCOD9452411
Probable space group: P M M N
;
_chemical_formula_sum "Si O2"
_cell_formula_units_Z 56
_cell_length_a 14.767889
_cell_length_b 7.614613
_cell_length_c 22.540738
_cell_angle_alpha 90.000000
_cell_angle_beta 90.000000
_cell_angle_gamma 90.000000
_cell_volume 2534.745650
_symmetry_space_group_name_H-M "P M M N"
_symmetry_group_IT_number 59
_space_group.IT_coordinate_system_code '2'
_symmetry_cell_setting 'orthorhombic'
loop_
_space_group_symop_operation_xyz
x,y,z
1/2-x,1/2-y,z
1/2+x,-y,-z
-x,1/2+y,-z
-x,-y,-z
1/2+x,1/2+y,-z
1/2-x,y,z
x,1/2-y,z
loop_
_atom_site_type_symbol
_atom_site_label
_atom_site_fract_x
_atom_site_fract_y
_atom_site_fract_z
Si Si1 0.146019 0.461602 0.034475
Si Si2 0.847244 0.538323 0.644462
Si Si3 0.450680 0.460258 0.915063
Si Si4 0.454580 0.034102 0.787082
Si Si5 0.153910 0.952173 0.219338
Si Si6 0.851473 0.540747 0.330754
Si Si7 0.486333 0.541918 0.568649
O O1 0.250000 0.523471 0.047323
O O2 0.151166 0.250000 0.033149
O O3 0.058624 0.502959 0.075945
O O4 0.108649 0.527160 0.970356
O O5 0.750000 0.505545 0.615226
O O6 0.855181 0.750000 0.652788
O O7 0.845900 0.454642 0.709110
O O8 0.928989 0.469557 0.605763
O O9 0.443396 0.250000 0.916809
O O10 0.413464 0.515817 0.850653
O O11 0.457708 0.250000 0.784203
O O12 0.557298 0.966810 0.793190
O O13 0.409187 0.973480 0.725809
O O14 0.250000 0.032663 0.199586
O O15 0.153255 0.750000 0.198564
O O16 0.750000 0.469070 0.329652
O O17 0.846601 0.750000 0.322400
O O18 0.898445 0.513071 0.394301
O O19 0.500000 0.500000 0.500000
O O20 0.489826 0.750000 0.573199
#
# Coordination Sequence:
#
# PCOD9452411 Si02
#       7
#     8   8   8   8   8   8   8
#     4   9  18  33  51  73 106 144 182 228 276 318
#     4   9  18  33  52  74  99 128 164 206 255 309
#     4   9  18  32  52  78 105 140 184 226 268 322
#     4   9  17  31  52  79 109 138 175 221 270 323
#     4   9  16  27  47  73 100 129 161 204 258 315
#     4  10  21  38  59  82 111 146 182 223 272 325
#     4  11  23  38  58  82 109 142 181 225 271 321
#
# _framework density 22.092946999999999
#
# number of rings (size 3 to 8) (size 9 to 14) (size 15 to 20)
#    0.000    2.571    1.429    0.429    0.000    2.857 
#    0.000    7.143    0.000    1.714    0.000    2.000 
#    0.000    0.000    0.000    0.000    0.000    0.000 
#
# Total GULP energy -312109.051281 kJ/mol
# GULP energy per Si atom -5573.375916 kJ/mol
# Density = 2.204266 g / cm^3
# Si number density = 22.092947 Si / 1000 Ang^3
#
#
#
# Elastic Constant Matrix: (Units=GPa)
#
#
# Indices 1 2 3 4 5 6 
#
# 1 106.4713 3.8511 47.3247 0.0000 0.0000 0.0000
# 2 3.8511 50.0204 -5.9099 0.0000 0.0000 0.0000
# 3 47.3247 -5.9099 130.7523 0.0000 0.0000 0.0000
# 4 0.0000 0.0000 0.0000 7.6072 0.0000 0.0000
# 5 0.0000 0.0000 0.0000 0.0000 1.7071 0.0000
# 6 0.0000 0.0000 0.0000 0.0000 0.0000 13.5314
#
#
#
# Elastic Compliance Matrix: (Units=1/GPa)
#
#
# Indices 1 2 3 4 5 6 
#
# 1 0.011284 -0.001359 -0.004146 0.000000 0.000000 0.000000
# 2 -0.001359 0.020263 0.001408 0.000000 0.000000 0.000000
# 3 -0.004146 0.001408 0.009212 0.000000 0.000000 0.000000
# 4 0.000000 0.000000 0.000000 0.131455 0.000000 0.000000
# 5 0.000000 0.000000 0.000000 0.000000 0.585803 0.000000
# 6 0.000000 0.000000 0.000000 0.000000 0.000000 0.073902
#
#
# Mechanical properties :
#
#
# Convention : Reuss Voigt Hill
#
# Bulk Modulus (GPa) = 30.70706 41.97508 36.34107
# Shear Modulus (GPa) = 5.87567 20.70100 13.28833
#
# Velocity S-wave (km/s) = 1.63257 3.06436 2.45516
# Velocity P-wave (km/s) = 4.18126 5.61791 4.95196
#
# Compressibility (1/GPa) = 0.03256580
#
# Stress axis : x y z
#
# Youngs Moduli (GPa) = 88.62132 49.35162 108.55276
#
# Poissons Ratio (x) = 0.06705 0.45001
# Poissons Ratio (y) = 0.12040 -0.15280
# Poissons Ratio (z) = 0.36738 -0.06947
#
# Static dielectric constant tensor:
#      x y z
#    x 1.853440 0.000000 0.000000 
#    y 0.000000 1.874580 0.000000 
#    z 0.000000 0.000000 1.068600 
# 
# From -- ./inp_files/30358.got.cif
#   From: 2010.05.17/outbox.cif.g08.bks.cpg/sg59_16_cif.got.tgz:30358.got - 2010.06.03 14:40:33.
