data_PCOD9452651
_publ_section_title
;
Structure prediction by ZEFSAII (Michael W. Deem and Ramdas Pophale) SiO2 
 PCOD9452651
Probable space group: P M M N
;
_chemical_formula_sum "Si O2"
_cell_formula_units_Z 48
_cell_length_a 8.881616
_cell_length_b 16.934296
_cell_length_c 16.655728
_cell_angle_alpha 90.000000
_cell_angle_beta 90.000000
_cell_angle_gamma 90.000000
_cell_volume 2505.086687
_symmetry_space_group_name_H-M "P M M N"
_symmetry_group_IT_number 59
_space_group.IT_coordinate_system_code '2'
_symmetry_cell_setting 'orthorhombic'
loop_
_space_group_symop_operation_xyz
x,y,z
1/2-x,1/2-y,z
1/2+x,-y,-z
-x,1/2+y,-z
-x,-y,-z
1/2+x,1/2+y,-z
1/2-x,y,z
x,1/2-y,z
loop_
_atom_site_type_symbol
_atom_site_label
_atom_site_fract_x
_atom_site_fract_y
_atom_site_fract_z
Si Si1 0.069300 0.250000 0.981259
Si Si2 0.930849 0.924078 0.952745
Si Si3 0.426633 0.557204 0.779429
Si Si4 0.423520 0.658002 0.628616
Si Si5 0.574450 0.250000 0.807269
Si Si6 0.925626 0.616698 0.295610
Si Si7 0.570478 0.915797 0.478339
O O1 0.250000 0.250000 0.987583
O O2 0.018847 0.250000 0.889209
O O3 0.019692 0.335527 0.017927
O O4 0.750000 0.928124 0.961373
O O5 0.980807 0.932413 0.860412
O O6 0.000000 0.000000 0.000000
O O7 0.250000 0.576473 0.795164
O O8 0.481853 0.611189 0.705859
O O9 0.432507 0.468454 0.746147
O O10 0.250000 0.631023 0.615343
O O11 0.422560 0.750000 0.646904
O O12 0.514680 0.641831 0.548001
O O13 0.750000 0.250000 0.826272
O O14 0.527931 0.324715 0.754235
O O15 0.750000 0.642895 0.293565
O O16 0.973202 0.609860 0.388503
O O17 0.750000 0.922214 0.478874
O O18 0.500000 0.000000 0.500000
#
# Coordination Sequence:
#
# PCOD9452651 Si02
#       7
#     4   8   8   8   4   8   8
#     4  10  24  46  66  87 126 169 198 241 314 383
#     4  11  24  42  65  94 125 161 205 255 309 371
#     4  10  21  40  64  90 121 162 203 246 303 365
#     4  10  22  40  61  89 126 164 205 253 304 358
#     4  12  26  40  62  95 122 149 204 263 302 351
#     4  10  22  41  62  85 123 168 204 241 305 373
#     4  11  22  39  62  87 119 161 209 254 303 364
#
# _framework density 19.161013000000001
#
# number of rings (size 3 to 8) (size 9 to 14) (size 15 to 20)
#    0.000    1.500    1.667    2.750    2.333    8.333 
#    0.000    0.000    0.000    0.000    0.000    0.000 
#    0.000    0.000    0.000    0.000    0.000    0.000 
#
# Total GULP energy -268110.936928 kJ/mol
# GULP energy per Si atom -5585.644519 kJ/mol
# Density = 1.911740 g / cm^3
# Si number density = 19.161013 Si / 1000 Ang^3
#
#
#
# Elastic Constant Matrix: (Units=GPa)
#
#
# Indices 1 2 3 4 5 6 
#
# 1 21.4459 23.1099 22.9572 0.0000 0.0000 0.0000
# 2 23.1099 105.5796 54.7648 0.0000 0.0000 0.0000
# 3 22.9572 54.7648 138.9422 0.0000 0.0000 0.0000
# 4 0.0000 0.0000 0.0000 8.5873 0.0000 0.0000
# 5 0.0000 0.0000 0.0000 0.0000 34.3993 0.0000
# 6 0.0000 0.0000 0.0000 0.0000 0.0000 22.0982
#
#
#
# Elastic Compliance Matrix: (Units=1/GPa)
#
#
# Indices 1 2 3 4 5 6 
#
# 1 0.065365 -0.010943 -0.006487 0.000000 0.000000 0.000000
# 2 -0.010943 0.013738 -0.003607 0.000000 0.000000 0.000000
# 3 -0.006487 -0.003607 0.009691 0.000000 0.000000 0.000000
# 4 0.000000 0.000000 0.000000 0.116451 0.000000 0.000000
# 5 0.000000 0.000000 0.000000 0.000000 0.029070 0.000000
# 6 0.000000 0.000000 0.000000 0.000000 0.000000 0.045253
#
#
# Mechanical properties :
#
#
# Convention : Reuss Voigt Hill
#
# Bulk Modulus (GPa) = 21.40395 51.95906 36.68150
# Shear Modulus (GPa) = 14.82741 24.02601 19.42671
#
# Velocity S-wave (km/s) = 2.78480 3.54489 3.18758
# Velocity P-wave (km/s) = 4.64058 6.62804 5.72127
#
# Compressibility (1/GPa) = 0.04672035
#
# Stress axis : x y z
#
# Youngs Moduli (GPa) = 15.29877 72.79340 103.19191
#
# Poissons Ratio (x) = 0.79654 0.66941
# Poissons Ratio (y) = 0.16741 0.37218
# Poissons Ratio (z) = 0.09924 0.26254
#
# Static dielectric constant tensor:
#      x y z
#    x 1.669310 0.000000 0.000000 
#    y 0.000000 1.655590 0.000000 
#    z 0.000000 0.000000 1.638420 
# 
# From -- ./inp_files/20575.got.cif
#   From: 2010.05.17/outbox.cif.g08.bks.cpg/sg59_11_cif.got.tgz:20575.got - 2010.06.03 14:40:33.
