data_PCOD9452343
_publ_section_title
;
Structure prediction by ZEFSAII (Michael W. Deem and Ramdas Pophale) SiO2 
 PCOD9452343
Probable space group: P M M N
;
_chemical_formula_sum "Si O2"
_cell_formula_units_Z 40
_cell_length_a 15.625436
_cell_length_b 9.116863
_cell_length_c 14.808381
_cell_angle_alpha 90.000000
_cell_angle_beta 90.000000
_cell_angle_gamma 90.000000
_cell_volume 2109.527313
_symmetry_space_group_name_H-M "P M M N"
_symmetry_group_IT_number 59
_space_group.IT_coordinate_system_code '2'
_symmetry_cell_setting 'orthorhombic'
loop_
_space_group_symop_operation_xyz
x,y,z
1/2-x,1/2-y,z
1/2+x,-y,-z
-x,1/2+y,-z
-x,-y,-z
1/2+x,1/2+y,-z
1/2-x,y,z
x,1/2-y,z
loop_
_atom_site_type_symbol
_atom_site_label
_atom_site_fract_x
_atom_site_fract_y
_atom_site_fract_z
Si Si1 0.250000 0.074287 0.576833
Si Si2 0.149274 0.579620 0.283210
Si Si3 0.916746 0.925842 0.541878
Si Si4 0.607724 0.422647 0.083755
Si Si5 0.750000 0.073947 0.228369
Si Si6 0.903641 0.578065 0.897847
O O1 0.250000 0.250000 0.588000
O O2 0.334277 0.035285 0.519345
O O3 0.250000 0.000478 0.674539
O O4 0.250000 0.571310 0.304554
O O5 0.123081 0.750000 0.285254
O O6 0.099276 0.487411 0.358133
O O7 0.134445 0.512187 0.184793
O O8 0.924969 0.750000 0.543932
O O9 0.000000 0.000000 0.500000
O O10 0.623575 0.250000 0.064900
O O11 0.667269 0.465261 0.167700
O O12 0.507049 0.438983 0.104785
O O13 0.626429 0.515008 0.993988
O O14 0.750000 0.250000 0.240415
O O15 0.883330 0.750000 0.889869
#
# Coordination Sequence:
#
# PCOD9452343 Si02
#       6
#     4   8   8   8   4   8
#     4  10  24  44  63  90 125 158 201 256 306 360
#     4  11  24  41  63  91 122 161 204 251 305 365
#     4  11  24  44  67  93 125 162 205 257 311 368
#     4   9  20  39  58  85 120 159 201 245 294 353
#     4  10  22  38  61  86 117 158 203 246 292 354
#     4  10  21  37  60  88 121 159 199 248 303 358
#
# _framework density 18.961593000000001
#
# number of rings (size 3 to 8) (size 9 to 14) (size 15 to 20)
#    0.000    1.800    1.000    1.800    4.200    4.400 
#    0.000    0.000    0.000    0.000    0.000    0.000 
#    0.000    0.000    0.000    0.000    0.000    0.000 
#
# Total GULP energy -223574.364191 kJ/mol
# GULP energy per Si atom -5589.359105 kJ/mol
# Density = 1.891844 g / cm^3
# Si number density = 18.961593 Si / 1000 Ang^3
#
#
#
# Elastic Constant Matrix: (Units=GPa)
#
#
# Indices 1 2 3 4 5 6 
#
# 1 65.6737 42.6657 29.2581 0.0000 0.0000 0.0000
# 2 42.6657 79.1463 47.2080 0.0000 0.0000 0.0000
# 3 29.2581 47.2080 107.9073 0.0000 0.0000 0.0000
# 4 0.0000 0.0000 0.0000 44.3979 0.0000 0.0000
# 5 0.0000 0.0000 0.0000 0.0000 27.3207 0.0000
# 6 0.0000 0.0000 0.0000 0.0000 0.0000 27.6369
#
#
#
# Elastic Compliance Matrix: (Units=1/GPa)
#
#
# Indices 1 2 3 4 5 6 
#
# 1 0.023534 -0.012016 -0.001124 0.000000 0.000000 0.000000
# 2 -0.012016 0.023231 -0.006905 0.000000 0.000000 0.000000
# 3 -0.001124 -0.006905 0.012593 0.000000 0.000000 0.000000
# 4 0.000000 0.000000 0.000000 0.022524 0.000000 0.000000
# 5 0.000000 0.000000 0.000000 0.000000 0.036602 0.000000
# 6 0.000000 0.000000 0.000000 0.000000 0.000000 0.036183
#
#
# Mechanical properties :
#
#
# Convention : Reuss Voigt Hill
#
# Bulk Modulus (GPa) = 51.90184 54.55456 53.22820
# Shear Modulus (GPa) = 24.85326 28.77746 26.81536
#
# Velocity S-wave (km/s) = 3.62431 3.89996 3.76466
# Velocity P-wave (km/s) = 6.70415 7.00807 6.85780
#
# Compressibility (1/GPa) = 0.01926714
#
# Stress axis : x y z
#
# Youngs Moduli (GPa) = 42.49172 43.04567 79.40929
#
# Poissons Ratio (x) = 0.51724 0.08927
# Poissons Ratio (y) = 0.51058 0.54834
# Poissons Ratio (z) = 0.04777 0.29724
#
# Static dielectric constant tensor:
#      x y z
#    x 1.664230 0.000000 0.000000 
#    y 0.000000 1.631960 0.000000 
#    z 0.000000 0.000000 1.608670 
# 
# From -- ./inp_files/19975.got.cif
#   From: 2010.05.17/outbox.cif.g08.bks.cpg/sg59_10_cif.got.tgz:19975.got - 2010.06.03 14:40:33.
