data_PCOD9452544
_publ_section_title
;
Structure prediction by ZEFSAII (Michael W. Deem and Ramdas Pophale) SiO2 
 PCOD9452544
Probable space group: P M M N
;
_chemical_formula_sum "Si O2"
_cell_formula_units_Z 64
_cell_length_a 8.907020
_cell_length_b 30.887375
_cell_length_c 11.781757
_cell_angle_alpha 90.000000
_cell_angle_beta 90.000000
_cell_angle_gamma 90.000000
_cell_volume 3241.331796
_symmetry_space_group_name_H-M "P M M N"
_symmetry_group_IT_number 59
_space_group.IT_coordinate_system_code '2'
_symmetry_cell_setting 'orthorhombic'
loop_
_space_group_symop_operation_xyz
x,y,z
1/2-x,1/2-y,z
1/2+x,-y,-z
-x,1/2+y,-z
-x,-y,-z
1/2+x,1/2+y,-z
1/2-x,y,z
x,1/2-y,z
loop_
_atom_site_type_symbol
_atom_site_label
_atom_site_fract_x
_atom_site_fract_y
_atom_site_fract_z
Si Si1 0.078417 0.934812 0.540696
Si Si2 0.421944 0.027468 0.667875
Si Si3 0.423441 0.697374 0.359558
Si Si4 0.567428 0.300955 0.891847
Si Si5 0.069808 0.698965 0.607265
Si Si6 0.071899 0.375147 0.271345
Si Si7 0.070557 0.966455 0.090218
Si Si8 0.430312 0.381519 0.012634
O O1 0.250000 0.921642 0.520623
O O2 0.993203 0.938971 0.421401
O O3 0.001987 0.903760 0.631118
O O4 0.078541 0.981851 0.601104
O O5 0.250000 0.038775 0.695550
O O6 0.516348 0.023158 0.782507
O O7 0.250000 0.682965 0.359203
O O8 0.421094 0.750000 0.361714
O O9 0.486129 0.686211 0.236140
O O10 0.487120 0.684124 0.481726
O O11 0.750000 0.304489 0.895211
O O12 0.532438 0.250000 0.910949
O O13 0.492192 0.334604 0.976647
O O14 0.250000 0.692176 0.611311
O O15 0.043714 0.750000 0.617199
O O16 0.989127 0.672712 0.704904
O O17 0.250000 0.376670 0.281994
O O18 0.032363 0.389863 0.144732
O O19 0.250000 0.968204 0.082941
O O20 0.009608 0.918798 0.059858
O O21 0.000000 0.000000 0.000000
O O22 0.250000 0.383267 0.999270
#
# Coordination Sequence:
#
# PCOD9452544 Si02
#       8
#     8   8   8   8   8   8   8   8
#     4  10  21  38  62  90 119 152 190 234 284 340
#     4  10  21  39  64  93 123 154 190 233 283 342
#     4   7  12  27  52  80 107 136 174 223 281 342
#     4   9  18  35  60  87 116 152 194 243 299 357
#     4   9  18  34  57  82 108 142 186 236 290 351
#     4  11  24  39  55  77 111 154 194 240 295 347
#     4  12  25  42  65  91 121 157 198 245 298 352
#     4  11  25  42  58  81 116 158 204 249 297 356
#
# _framework density 19.744969999999999
#
# number of rings (size 3 to 8) (size 9 to 14) (size 15 to 20)
#    0.000    2.125    0.000    4.875    0.000    7.500 
#    0.000    6.875    0.000    2.250    0.000    0.000 
#    0.000    0.000    0.000    0.000    0.000    0.000 
#
# Total GULP energy -357262.137803 kJ/mol
# GULP energy per Si atom -5582.220903 kJ/mol
# Density = 1.970003 g / cm^3
# Si number density = 19.744970 Si / 1000 Ang^3
#
#
#
# Elastic Constant Matrix: (Units=GPa)
#
#
# Indices 1 2 3 4 5 6 
#
# 1 80.7870 25.8576 40.1403 0.0000 0.0000 0.0000
# 2 25.8576 37.6182 11.1104 0.0000 0.0000 0.0000
# 3 40.1403 11.1104 75.9727 0.0000 0.0000 0.0000
# 4 0.0000 0.0000 0.0000 27.3860 0.0000 0.0000
# 5 0.0000 0.0000 0.0000 0.0000 32.6716 0.0000
# 6 0.0000 0.0000 0.0000 0.0000 0.0000 24.9924
#
#
#
# Elastic Compliance Matrix: (Units=1/GPa)
#
#
# Indices 1 2 3 4 5 6 
#
# 1 0.020627 -0.011454 -0.009223 0.000000 0.000000 0.000000
# 2 -0.011454 0.034144 0.001059 0.000000 0.000000 0.000000
# 3 -0.009223 0.001059 0.017881 0.000000 0.000000 0.000000
# 4 0.000000 0.000000 0.000000 0.036515 0.000000 0.000000
# 5 0.000000 0.000000 0.000000 0.000000 0.030608 0.000000
# 6 0.000000 0.000000 0.000000 0.000000 0.000000 0.040012
#
#
# Mechanical properties :
#
#
# Convention : Reuss Voigt Hill
#
# Bulk Modulus (GPa) = 29.92782 38.73273 34.33028
# Shear Modulus (GPa) = 21.72381 24.82800 23.27590
#
# Velocity S-wave (km/s) = 3.32055 3.54988 3.43713
# Velocity P-wave (km/s) = 5.46732 6.03832 5.75990
#
# Compressibility (1/GPa) = 0.03341372
#
# Stress axis : x y z
#
# Youngs Moduli (GPa) = 48.47971 29.28812 55.92545
#
# Poissons Ratio (x) = 0.33548 0.51582
# Poissons Ratio (y) = 0.55531 -0.05921
# Poissons Ratio (z) = 0.44714 -0.03101
#
# Static dielectric constant tensor:
#      x y z
#    x 1.669310 0.000000 0.000000 
#    y 0.000000 1.707790 0.000000 
#    z 0.000000 0.000000 1.712450 
# 
# From -- ./inp_files/14998.got.cif
#   From: 2010.05.17/outbox.cif.g08.bks.cpg/sg59_8_cif.got.tgz:14998.got - 2010.06.03 14:40:33.
