data_PCOD9452331
_publ_section_title
;
Structure prediction by ZEFSAII (Michael W. Deem and Ramdas Pophale) SiO2 
 PCOD9452331
Probable space group: P M M N
;
_chemical_formula_sum "Si O2"
_cell_formula_units_Z 56
_cell_length_a 8.724264
_cell_length_b 22.923886
_cell_length_c 12.686396
_cell_angle_alpha 90.000000
_cell_angle_beta 90.000000
_cell_angle_gamma 90.000000
_cell_volume 2537.203505
_symmetry_space_group_name_H-M "P M M N"
_symmetry_group_IT_number 59
_space_group.IT_coordinate_system_code '2'
_symmetry_cell_setting 'orthorhombic'
loop_
_space_group_symop_operation_xyz
x,y,z
1/2-x,1/2-y,z
1/2+x,-y,-z
-x,1/2+y,-z
-x,-y,-z
1/2+x,1/2+y,-z
1/2-x,y,z
x,1/2-y,z
loop_
_atom_site_type_symbol
_atom_site_label
_atom_site_fract_x
_atom_site_fract_y
_atom_site_fract_z
Si Si1 0.431414 0.750000 0.103695
Si Si2 0.931534 0.341684 0.310754
Si Si3 0.580993 0.462003 0.816646
Si Si4 0.571472 0.907382 0.852361
Si Si5 0.432584 0.317189 0.535127
Si Si6 0.065296 0.750000 0.863707
Si Si7 0.426972 0.947180 0.429983
Si Si8 0.426074 0.362727 0.923287
O O1 0.250000 0.750000 0.107561
O O2 0.493984 0.811129 0.142175
O O3 0.491955 0.750000 0.981862
O O4 0.750000 0.336153 0.329704
O O5 0.978752 0.303225 0.209975
O O6 0.978985 0.402122 0.257899
O O7 0.023054 0.321075 0.411518
O O8 0.750000 0.435373 0.840638
O O9 0.573783 0.523828 0.873132
O O10 0.572226 0.467583 0.691010
O O11 0.449201 0.420749 0.857746
O O12 0.750000 0.889678 0.835065
O O13 0.509449 0.877006 0.959467
O O14 0.250000 0.319315 0.551221
O O15 0.482623 0.250000 0.570206
O O16 0.501372 0.380809 0.570755
O O17 0.250000 0.750000 0.871893
O O18 0.250000 0.940174 0.465621
O O19 0.500000 0.000000 0.500000
O O20 0.250000 0.347282 0.936719
#
# Coordination Sequence:
#
# PCOD9452331 Si02
#       8
#     4   8   8   8   8   4   8   8
#     4  11  21  39  61  84 123 170 209 249 302 366
#     4  11  20  34  58  90 125 161 205 252 308 374
#     4  10  23  43  63  87 120 162 207 253 309 372
#     4  10  21  37  59  90 128 163 202 252 306 369
#     4  11  24  41  62  91 127 168 213 268 333 389
#     4   9  18  31  51  82 119 158 199 245 294 356
#     4  11  24  44  71  98 127 166 215 270 326 390
#     4  11  23  38  60  92 125 161 206 255 304 361
#
# _framework density 22.071543999999999
#
# number of rings (size 3 to 8) (size 9 to 14) (size 15 to 20)
#    0.000    1.429    2.143    3.214    0.000    4.286 
#    1.286    0.000    0.000    0.000    0.000    0.000 
#    0.000    0.000    0.000    0.000    0.000    0.000 
#
# Total GULP energy -311984.081536 kJ/mol
# GULP energy per Si atom -5571.144313 kJ/mol
# Density = 2.202131 g / cm^3
# Si number density = 22.071544 Si / 1000 Ang^3
#
#
#
# Elastic Constant Matrix: (Units=GPa)
#
#
# Indices 1 2 3 4 5 6 
#
# 1 61.9895 39.2907 -5.0873 0.0000 0.0000 0.0000
# 2 39.2907 119.1353 -0.1782 0.0000 0.0000 0.0000
# 3 -5.0873 -0.1782 18.8827 0.0000 0.0000 0.0000
# 4 0.0000 0.0000 0.0000 36.0071 0.0000 0.0000
# 5 0.0000 0.0000 0.0000 0.0000 24.5602 0.0000
# 6 0.0000 0.0000 0.0000 0.0000 0.0000 26.3955
#
#
#
# Elastic Compliance Matrix: (Units=1/GPa)
#
#
# Indices 1 2 3 4 5 6 
#
# 1 0.020968 -0.006907 0.005584 0.000000 0.000000 0.000000
# 2 -0.006907 0.010669 -0.001760 0.000000 0.000000 0.000000
# 3 0.005584 -0.001760 0.054446 0.000000 0.000000 0.000000
# 4 0.000000 0.000000 0.000000 0.027772 0.000000 0.000000
# 5 0.000000 0.000000 0.000000 0.000000 0.040716 0.000000
# 6 0.000000 0.000000 0.000000 0.000000 0.000000 0.037885
#
#
# Mechanical properties :
#
#
# Convention : Reuss Voigt Hill
#
# Bulk Modulus (GPa) = 12.51298 29.78422 21.14860
# Shear Modulus (GPa) = 22.19636 28.45804 25.32720
#
# Velocity S-wave (km/s) = 3.17465 3.59465 3.39116
# Velocity P-wave (km/s) = 4.37258 5.54548 4.99359
#
# Compressibility (1/GPa) = 0.07991702
#
# Stress axis : x y z
#
# Youngs Moduli (GPa) = 47.69234 93.72918 18.36669
#
# Poissons Ratio (x) = 0.64737 -0.10256
# Poissons Ratio (y) = 0.32940 0.03233
# Poissons Ratio (z) = -0.26631 0.16497
#
# Static dielectric constant tensor:
#      x y z
#    x 1.795760 0.000000 0.000000 
#    y 0.000000 2.048920 0.000000 
#    z 0.000000 0.000000 1.805880 
# 
# From -- ./inp_files/21226.got.cif
#   From: 2010.05.17/outbox.cif.g08.bks.cpg/sg59_11_cif.got.tgz:21226.got - 2010.06.03 14:40:33.
