data_PCOD9452531
_publ_section_title
;
Structure prediction by ZEFSAII (Michael W. Deem and Ramdas Pophale) SiO2 
 PCOD9452531
Probable space group: P M M N
;
_chemical_formula_sum "Si O2"
_cell_formula_units_Z 40
_cell_length_a 8.783736
_cell_length_b 14.569000
_cell_length_c 17.475656
_cell_angle_alpha 90.000000
_cell_angle_beta 90.000000
_cell_angle_gamma 90.000000
_cell_volume 2236.364063
_symmetry_space_group_name_H-M "P M M N"
_symmetry_group_IT_number 59
_space_group.IT_coordinate_system_code '2'
_symmetry_cell_setting 'orthorhombic'
loop_
_space_group_symop_operation_xyz
x,y,z
1/2-x,1/2-y,z
1/2+x,-y,-z
-x,1/2+y,-z
-x,-y,-z
1/2+x,1/2+y,-z
1/2-x,y,z
x,1/2-y,z
loop_
_atom_site_type_symbol
_atom_site_label
_atom_site_fract_x
_atom_site_fract_y
_atom_site_fract_z
Si Si1 0.931498 0.440068 0.286155
Si Si2 0.933098 0.643183 0.017558
Si Si3 0.431721 0.010681 0.122977
Si Si4 0.930280 0.250000 0.513557
Si Si5 0.568297 0.050640 0.573989
Si Si6 0.068760 0.250000 0.345184
O O1 0.750000 0.435559 0.289409
O O2 0.987379 0.471194 0.203010
O O3 0.992577 0.509551 0.350649
O O4 0.000403 0.340835 0.306803
O O5 0.750000 0.637920 0.027737
O O6 0.977229 0.750000 0.017155
O O7 0.012642 0.583111 0.083117
O O8 0.968504 0.592079 0.937506
O O9 0.250000 0.008769 0.133613
O O10 0.750000 0.250000 0.493099
O O11 0.960730 0.341656 0.561319
O O12 0.022429 0.250000 0.434566
O O13 0.750000 0.035460 0.576886
O O14 0.500000 0.000000 0.500000
O O15 0.250000 0.250000 0.337687
#
# Coordination Sequence:
#
# PCOD9452531 Si02
#       6
#     8   8   8   4   8   4
#     4  12  25  41  60  88 124 160 199 249 300 355
#     4   9  19  38  63  89 119 156 195 240 296 358
#     4  10  21  38  61  90 121 156 198 245 296 353
#     4  10  22  40  62  86 117 154 201 250 302 358
#     4  11  22  39  62  88 119 159 201 248 299 355
#     4  12  24  38  62  90 119 154 199 250 302 358
#
# _framework density 17.886175999999999
#
# number of rings (size 3 to 8) (size 9 to 14) (size 15 to 20)
#    0.000    1.400    2.000    3.900    1.400    2.000 
#    1.800    0.000    0.000    0.000    0.000    0.000 
#    0.000    0.000    0.000    0.000    0.000    0.000 
#
# Total GULP energy -223592.921743 kJ/mol
# GULP energy per Si atom -5589.823044 kJ/mol
# Density = 1.784547 g / cm^3
# Si number density = 17.886176 Si / 1000 Ang^3
#
#
#
# Elastic Constant Matrix: (Units=GPa)
#
#
# Indices 1 2 3 4 5 6 
#
# 1 119.5798 88.4616 91.2994 0.0000 0.0000 0.0000
# 2 88.4616 176.2542 92.3486 0.0000 0.0000 0.0000
# 3 91.2994 92.3486 163.3018 0.0000 0.0000 0.0000
# 4 0.0000 0.0000 0.0000 5.3420 0.0000 0.0000
# 5 0.0000 0.0000 0.0000 0.0000 33.2140 0.0000
# 6 0.0000 0.0000 0.0000 0.0000 0.0000 26.8469
#
#
#
# Elastic Compliance Matrix: (Units=1/GPa)
#
#
# Indices 1 2 3 4 5 6 
#
# 1 0.017361 -0.005156 -0.006791 0.000000 0.000000 0.000000
# 2 -0.005156 0.009593 -0.002543 0.000000 0.000000 0.000000
# 3 -0.006791 -0.002543 0.011358 0.000000 0.000000 0.000000
# 4 0.000000 0.000000 0.000000 0.187196 0.000000 0.000000
# 5 0.000000 0.000000 0.000000 0.000000 0.030108 0.000000
# 6 0.000000 0.000000 0.000000 0.000000 0.000000 0.037248
#
#
# Mechanical properties :
#
#
# Convention : Reuss Voigt Hill
#
# Bulk Modulus (GPa) = 107.12851 111.48387 109.30619
# Shear Modulus (GPa) = 15.38671 25.54900 20.46786
#
# Velocity S-wave (km/s) = 2.93620 3.78355 3.38648
# Velocity P-wave (km/s) = 8.45693 9.03061 8.74847
#
# Compressibility (1/GPa) = 0.00933458
#
# Stress axis : x y z
#
# Youngs Moduli (GPa) = 57.59873 104.23734 88.04069
#
# Poissons Ratio (x) = 0.53740 0.59789
# Poissons Ratio (y) = 0.29695 0.22387
# Poissons Ratio (z) = 0.39116 0.26506
#
# Static dielectric constant tensor:
#      x y z
#    x 1.601450 0.000000 0.000000 
#    y 0.000000 1.601570 0.000000 
#    z 0.000000 0.000000 1.572190 
# 
# From -- ./inp_files/19917.got.cif
#   From: 2010.05.17/outbox.cif.g08.bks.cpg/sg59_10_cif.got.tgz:19917.got - 2010.06.03 14:40:33.
