data_PCOD9452269
_publ_section_title
;
Structure prediction by ZEFSAII (Michael W. Deem and Ramdas Pophale) SiO2 
 PCOD9452269
Probable space group: P M M N
;
_chemical_formula_sum "Si O2"
_cell_formula_units_Z 48
_cell_length_a 9.765442
_cell_length_b 7.787954
_cell_length_c 29.461948
_cell_angle_alpha 90.000000
_cell_angle_beta 90.000000
_cell_angle_gamma 90.000000
_cell_volume 2240.664024
_symmetry_space_group_name_H-M "P M M N"
_symmetry_group_IT_number 59
_space_group.IT_coordinate_system_code '2'
_symmetry_cell_setting 'orthorhombic'
loop_
_space_group_symop_operation_xyz
x,y,z
1/2-x,1/2-y,z
1/2+x,-y,-z
-x,1/2+y,-z
-x,-y,-z
1/2+x,1/2+y,-z
1/2-x,y,z
x,1/2-y,z
loop_
_atom_site_type_symbol
_atom_site_label
_atom_site_fract_x
_atom_site_fract_y
_atom_site_fract_z
Si Si1 0.904991 0.457037 0.285459
Si Si2 0.908955 0.956891 0.456086
Si Si3 0.250000 0.461014 0.931540
Si Si4 0.408168 0.956676 0.371306
Si Si5 0.750000 0.544340 0.964424
Si Si6 0.398079 0.452474 0.209546
Si Si7 0.529690 0.452787 0.890806
O O1 0.750000 0.523131 0.292413
O O2 0.894841 0.250000 0.283841
O O3 0.010214 0.501306 0.325484
O O4 0.975392 0.520973 0.238824
O O5 0.750000 0.019225 0.457954
O O6 0.901249 0.750000 0.452926
O O7 0.996322 0.020273 0.412741
O O8 0.000000 0.000000 0.500000
O O9 0.250000 0.250000 0.932456
O O10 0.382015 0.519729 0.904525
O O11 0.250000 0.518029 0.983888
O O12 0.250000 0.020048 0.372090
O O13 0.400973 0.750000 0.375212
O O14 0.750000 0.750000 0.965448
O O15 0.622384 0.484154 0.934702
O O16 0.250000 0.528464 0.222522
O O17 0.392526 0.250000 0.219572
O O18 0.416070 0.469893 0.155728
O O19 0.523642 0.250000 0.882779
#
# Coordination Sequence:
#
# PCOD9452269 Si02
#       7
#     8   8   4   8   4   8   8
#     4  10  22  39  60  87 117 150 190 235 284 343
#     4  10  21  37  58  85 118 157 201 248 298 350
#     4   9  22  39  57  83 117 149 185 233 282 333
#     4  10  21  38  60  86 117 154 197 243 292 346
#     4  11  21  39  61  83 113 151 189 229 280 337
#     4  10  21  38  58  81 113 149 187 230 281 339
#     4  11  22  38  59  85 115 147 187 234 281 335
#
# _framework density 21.422219999999999
#
# number of rings (size 3 to 8) (size 9 to 14) (size 15 to 20)
#    0.000    1.833    0.833    2.750    1.167    4.333 
#    0.000    3.750    0.000    0.000    0.000    0.000 
#    0.000    0.000    0.000    0.000    0.000    0.000 
#
# Total GULP energy -268062.665192 kJ/mol
# GULP energy per Si atom -5584.638858 kJ/mol
# Density = 2.137346 g / cm^3
# Si number density = 21.422220 Si / 1000 Ang^3
#
#
#
# Elastic Constant Matrix: (Units=GPa)
#
#
# Indices 1 2 3 4 5 6 
#
# 1 217.4430 11.6142 62.3316 0.0000 0.0000 0.0000
# 2 11.6142 25.8714 -1.5087 0.0000 0.0000 0.0000
# 3 62.3316 -1.5087 103.5548 0.0000 0.0000 0.0000
# 4 0.0000 0.0000 0.0000 23.9477 0.0000 0.0000
# 5 0.0000 0.0000 0.0000 0.0000 39.7540 0.0000
# 6 0.0000 0.0000 0.0000 0.0000 0.0000 22.2173
#
#
#
# Elastic Compliance Matrix: (Units=1/GPa)
#
#
# Indices 1 2 3 4 5 6 
#
# 1 0.005752 -0.002786 -0.003503 0.000000 0.000000 0.000000
# 2 -0.002786 0.040035 0.002260 0.000000 0.000000 0.000000
# 3 -0.003503 0.002260 0.011798 0.000000 0.000000 0.000000
# 4 0.000000 0.000000 0.000000 0.041758 0.000000 0.000000
# 5 0.000000 0.000000 0.000000 0.000000 0.025155 0.000000
# 6 0.000000 0.000000 0.000000 0.000000 0.000000 0.045010
#
#
# Mechanical properties :
#
#
# Convention : Reuss Voigt Hill
#
# Bulk Modulus (GPa) = 20.19064 54.63815 37.41440
# Shear Modulus (GPa) = 25.76335 35.47927 30.62131
#
# Velocity S-wave (km/s) = 3.47168 4.07405 3.78487
# Velocity P-wave (km/s) = 5.05130 6.90588 6.05008
#
# Compressibility (1/GPa) = 0.04952790
#
# Stress axis : x y z
#
# Youngs Moduli (GPa) = 173.85830 24.97792 84.76004
#
# Poissons Ratio (x) = 0.06960 0.29689
# Poissons Ratio (y) = 0.48443 -0.19159
# Poissons Ratio (z) = 0.60898 -0.05646
#
# Static dielectric constant tensor:
#      x y z
#    x 1.706190 0.000000 0.000000 
#    y 0.000000 1.791960 0.000000 
#    z 0.000000 0.000000 1.735810 
# 
# From -- ./inp_files/33019.got.cif
#   From: 2010.05.17/outbox.cif.g08.bks.cpg/sg59_17_cif.got.tgz:33019.got - 2010.06.03 14:40:33.
