data_PCOD9452891
_publ_section_title
;
Structure prediction by ZEFSAII (Michael W. Deem and Ramdas Pophale) SiO2 
 PCOD9452891
Probable space group: P M M N
;
_chemical_formula_sum "Si O2"
_cell_formula_units_Z 34
_cell_length_a 18.652104
_cell_length_b 8.496158
_cell_length_c 9.670321
_cell_angle_alpha 90.000000
_cell_angle_beta 90.000000
_cell_angle_gamma 90.000000
_cell_volume 1532.467592
_symmetry_space_group_name_H-M "P M M N"
_symmetry_group_IT_number 59
_space_group.IT_coordinate_system_code '2'
_symmetry_cell_setting 'orthorhombic'
loop_
_space_group_symop_operation_xyz
x,y,z
1/2-x,1/2-y,z
1/2+x,-y,-z
-x,1/2+y,-z
-x,-y,-z
1/2+x,1/2+y,-z
1/2-x,y,z
x,1/2-y,z
loop_
_atom_site_type_symbol
_atom_site_label
_atom_site_fract_x
_atom_site_fract_y
_atom_site_fract_z
Si Si1 0.961966 0.431629 0.780336
Si Si2 0.886314 0.433387 0.220008
Si Si3 0.669700 0.935827 0.948589
Si Si4 0.110001 0.075421 0.477133
Si Si5 0.250000 0.250000 0.392588
O O1 0.981882 0.250000 0.796268
O O2 0.893494 0.472347 0.873360
O O3 0.938193 0.473233 0.624602
O O4 0.030250 0.537451 0.817255
O O5 0.868523 0.250000 0.209781
O O6 0.877645 0.496519 0.375218
O O7 0.840115 0.532202 0.111188
O O8 0.750000 0.982935 0.906598
O O9 0.662740 0.750000 0.917768
O O10 0.076446 0.250000 0.497835
O O11 0.186043 0.115510 0.405795
#
# Coordination Sequence:
#
# PCOD9452891 Si02
#       5
#     8   8   8   8   2
#     4  12  25  43  67  98 132 171 219 272 324 383
#     4  12  25  43  67  98 132 171 219 272 324 383
#     4  11  26  45  68  93 131 175 216 265 330 393
#     4  10  22  42  68  96 130 171 214 258 324 386
#     4   8  24  40  70  94 140 168 212 258 340 372
#
# _framework density 22.186439
#
# number of rings (size 3 to 8) (size 9 to 14) (size 15 to 20)
#    0.706    0.235    0.000    7.059    3.294    1.882 
#    0.000    1.176    0.000    0.000    0.000    0.000 
#    0.000    0.000    0.000    0.000    0.000    0.000 
#
# Total GULP energy -189791.263903 kJ/mol
# GULP energy per Si atom -5582.095997 kJ/mol
# Density = 2.213594 g / cm^3
# Si number density = 22.186439 Si / 1000 Ang^3
#
#
#
# Elastic Constant Matrix: (Units=GPa)
#
#
# Indices 1 2 3 4 5 6 
#
# 1 76.3629 -2.6630 5.3293 0.0000 0.0000 0.0000
# 2 -2.6630 60.2344 -2.4147 0.0000 0.0000 0.0000
# 3 5.3293 -2.4147 87.0891 0.0000 0.0000 0.0000
# 4 0.0000 0.0000 0.0000 35.9616 0.0000 0.0000
# 5 0.0000 0.0000 0.0000 0.0000 16.6212 0.0000
# 6 0.0000 0.0000 0.0000 0.0000 0.0000 31.5811
#
#
#
# Elastic Compliance Matrix: (Units=1/GPa)
#
#
# Indices 1 2 3 4 5 6 
#
# 1 0.013170 0.000551 -0.000791 0.000000 0.000000 0.000000
# 2 0.000551 0.016643 0.000428 0.000000 0.000000 0.000000
# 3 -0.000791 0.000428 0.011543 0.000000 0.000000 0.000000
# 4 0.000000 0.000000 0.000000 0.027807 0.000000 0.000000
# 5 0.000000 0.000000 0.000000 0.000000 0.060164 0.000000
# 6 0.000000 0.000000 0.000000 0.000000 0.000000 0.031664
#
#
# Mechanical properties :
#
#
# Convention : Reuss Voigt Hill
#
# Bulk Modulus (GPa) = 23.96291 24.90995 24.43643
# Shear Modulus (GPa) = 28.64886 31.72842 30.18864
#
# Velocity S-wave (km/s) = 3.59733 3.78574 3.69274
# Velocity P-wave (km/s) = 5.29892 5.51009 5.40554
#
# Compressibility (1/GPa) = 0.04173115
#
# Stress axis : x y z
#
# Youngs Moduli (GPa) = 75.93160 60.08424 86.63457
#
# Poissons Ratio (x) = -0.03308 0.06850
# Poissons Ratio (y) = -0.04180 -0.03706
# Poissons Ratio (z) = 0.06003 -0.02570
#
# Static dielectric constant tensor:
#      x y z
#    x 1.791270 0.000000 0.000000 
#    y 0.000000 1.961420 0.000000 
#    z 0.000000 0.000000 1.862940 
# 
# From -- ./inp_files/10958.got.cif
#   From: 2010.05.17/outbox.cif.g08.bks.cpg/sg59_6_cif.got.tgz:10958.got - 2010.06.03 14:40:33.
