data_PCOD9452873
_publ_section_title
;
Structure prediction by ZEFSAII (Michael W. Deem and Ramdas Pophale) SiO2 
 PCOD9452873
Probable space group: P M M N
;
_chemical_formula_sum "Si O2"
_cell_formula_units_Z 40
_cell_length_a 8.767156
_cell_length_b 24.919287
_cell_length_c 8.451992
_cell_angle_alpha 90.000000
_cell_angle_beta 90.000000
_cell_angle_gamma 90.000000
_cell_volume 1846.517482
_symmetry_space_group_name_H-M "P M M N"
_symmetry_group_IT_number 59
_space_group.IT_coordinate_system_code '2'
_symmetry_cell_setting 'orthorhombic'
loop_
_space_group_symop_operation_xyz
x,y,z
1/2-x,1/2-y,z
1/2+x,-y,-z
-x,1/2+y,-z
-x,-y,-z
1/2+x,1/2+y,-z
1/2-x,y,z
x,1/2-y,z
loop_
_atom_site_type_symbol
_atom_site_label
_atom_site_fract_x
_atom_site_fract_y
_atom_site_fract_z
Si Si1 0.067798 0.864762 0.315554
Si Si2 0.575932 0.834763 0.993337
Si Si3 0.927535 0.981970 0.340021
Si Si4 0.423082 0.455862 0.108427
Si Si5 0.928093 0.687046 0.633809
O O1 0.250000 0.863582 0.316061
O O2 0.010907 0.926421 0.292420
O O3 0.006271 0.843920 0.486846
O O4 0.008525 0.829875 0.162918
O O5 0.750000 0.813999 0.008464
O O6 0.583156 0.898576 0.967910
O O7 0.515009 0.816939 0.818403
O O8 0.750000 0.969958 0.339576
O O9 0.000000 0.000000 0.500000
O O10 0.960192 0.037852 0.249139
O O11 0.250000 0.471049 0.153861
O O12 0.500000 0.500000 0.000000
O O13 0.750000 0.668650 0.641122
O O14 0.932172 0.750000 0.593830
#
# Coordination Sequence:
#
# PCOD9452873 Si02
#       5
#     8   8   8   8   8
#     4  12  25  41  65  96 132 172 215 265 326 392
#     4  10  22  41  66  95 129 171 218 268 323 385
#     4  12  24  39  60  89 128 171 217 265 316 382
#     4  11  21  35  58  89 127 168 209 257 311 373
#     4  10  23  45  71  96 125 165 217 275 333 393
#
# _framework density 21.662400000000002
#
# number of rings (size 3 to 8) (size 9 to 14) (size 15 to 20)
#    0.000    1.000    2.000    5.400    0.000    4.400 
#    0.000    2.000    0.000    0.000    0.000    0.000 
#    0.000    0.000    0.000    0.000    0.000    0.000 
#
# Total GULP energy -222700.736101 kJ/mol
# GULP energy per Si atom -5567.518403 kJ/mol
# Density = 2.161309 g / cm^3
# Si number density = 21.662400 Si / 1000 Ang^3
#
#
#
# Elastic Constant Matrix: (Units=GPa)
#
#
# Indices 1 2 3 4 5 6 
#
# 1 126.0207 22.0295 52.9957 0.0000 0.0000 0.0000
# 2 22.0295 67.0576 20.3857 0.0000 0.0000 0.0000
# 3 52.9957 20.3857 145.8148 0.0000 0.0000 0.0000
# 4 0.0000 0.0000 0.0000 27.3576 0.0000 0.0000
# 5 0.0000 0.0000 0.0000 0.0000 32.9870 0.0000
# 6 0.0000 0.0000 0.0000 0.0000 0.0000 6.4436
#
#
#
# Elastic Compliance Matrix: (Units=1/GPa)
#
#
# Indices 1 2 3 4 5 6 
#
# 1 0.009668 -0.002202 -0.003206 0.000000 0.000000 0.000000
# 2 -0.002202 0.016076 -0.001447 0.000000 0.000000 0.000000
# 3 -0.003206 -0.001447 0.008226 0.000000 0.000000 0.000000
# 4 0.000000 0.000000 0.000000 0.036553 0.000000 0.000000
# 5 0.000000 0.000000 0.000000 0.000000 0.030315 0.000000
# 6 0.000000 0.000000 0.000000 0.000000 0.000000 0.155192
#
#
# Mechanical properties :
#
#
# Convention : Reuss Voigt Hill
#
# Bulk Modulus (GPa) = 49.35901 58.85722 54.10811
# Shear Modulus (GPa) = 18.08364 29.58979 23.83671
#
# Velocity S-wave (km/s) = 2.89241 3.69989 3.32079
# Velocity P-wave (km/s) = 5.83008 6.74399 6.30362
#
# Compressibility (1/GPa) = 0.02025973
#
# Stress axis : x y z
#
# Youngs Moduli (GPa) = 103.43058 62.20536 121.57146
#
# Poissons Ratio (x) = 0.13695 0.38977
# Poissons Ratio (y) = 0.22770 0.17596
# Poissons Ratio (z) = 0.33161 0.09003
#
# Static dielectric constant tensor:
#      x y z
#    x 1.746890 0.000000 0.000000 
#    y 0.000000 1.713810 0.000000 
#    z 0.000000 0.000000 1.701330 
# 
# From -- ./inp_files/5853.got.cif
#   From: 2010.05.17/outbox.cif.g08.bks.cpg/sg59_3_cif.got.tgz:5853.got - 2010.06.03 14:40:33.
