data_PCOD9452999
_publ_section_title
;
Structure prediction by ZEFSAII (Michael W. Deem and Ramdas Pophale) SiO2 
 PCOD9452999
Probable space group: P M M N
;
_chemical_formula_sum "Si O2"
_cell_formula_units_Z 32
_cell_length_a 17.166801
_cell_length_b 10.169481
_cell_length_c 8.505798
_cell_angle_alpha 90.000000
_cell_angle_beta 90.000000
_cell_angle_gamma 90.000000
_cell_volume 1484.920581
_symmetry_space_group_name_H-M "P M M N"
_symmetry_group_IT_number 59
_space_group.IT_coordinate_system_code '2'
_symmetry_cell_setting 'orthorhombic'
loop_
_space_group_symop_operation_xyz
x,y,z
1/2-x,1/2-y,z
1/2+x,-y,-z
-x,1/2+y,-z
-x,-y,-z
1/2+x,1/2+y,-z
1/2-x,y,z
x,1/2-y,z
loop_
_atom_site_type_symbol
_atom_site_label
_atom_site_fract_x
_atom_site_fract_y
_atom_site_fract_z
Si Si1 0.250000 0.250000 0.380256
Si Si2 0.750000 0.250000 0.689650
Si Si3 0.974322 0.973610 0.783590
Si Si4 0.750000 0.981755 0.881987
Si Si5 0.394464 0.101493 0.912327
Si Si6 0.077730 0.750000 0.320848
Si Si7 0.573669 0.750000 0.545412
O O1 0.250000 0.373902 0.258948
O O2 0.168220 0.250000 0.477384
O O3 0.750000 0.122098 0.800281
O O4 0.664937 0.250000 0.604731
O O5 0.930715 0.114152 0.775143
O O6 0.065635 0.011517 0.780570
O O7 0.956976 0.897759 0.945133
O O8 0.943802 0.880619 0.647324
O O9 0.821600 0.956917 0.998257
O O10 0.379725 0.250000 0.858732
O O11 0.998438 0.750000 0.423525
#
# Coordination Sequence:
#
# PCOD9452999 Si02
#       7
#     2   2   8   4   8   4   4
#     4  12  20  42  62  90 116 166 230 256 300 388
#     4  12  24  38  58  96 122 160 224 264 304 386
#     4  11  22  38  61  93 121 162 205 257 324 378
#     4  12  20  36  64  93 125 157 211 264 316 381
#     4  11  20  36  64  93 127 155 200 265 322 379
#     4  12  24  42  61  89 128 173 213 262 315 371
#     4  12  24  42  65  89 126 173 219 266 309 373
#
# _framework density 21.549973000000001
#
# number of rings (size 3 to 8) (size 9 to 14) (size 15 to 20)
#    0.000    0.500    8.750    0.750    0.000    1.000 
#    0.000    2.500    0.000    0.000    0.000    0.000 
#    0.000    0.000    0.000    0.000    0.000    0.000 
#
# Total GULP energy -178403.779508 kJ/mol
# GULP energy per Si atom -5575.118110 kJ/mol
# Density = 2.150092 g / cm^3
# Si number density = 21.549973 Si / 1000 Ang^3
#
#
#
# Elastic Constant Matrix: (Units=GPa)
#
#
# Indices 1 2 3 4 5 6 
#
# 1 184.7562 33.0590 42.5716 0.0000 0.0000 0.0000
# 2 33.0590 153.7172 16.3877 0.0000 0.0000 0.0000
# 3 42.5716 16.3877 31.8377 0.0000 0.0000 0.0000
# 4 0.0000 0.0000 0.0000 3.1530 0.0000 0.0000
# 5 0.0000 0.0000 0.0000 0.0000 40.4924 0.0000
# 6 0.0000 0.0000 0.0000 0.0000 0.0000 21.5626
#
#
#
# Elastic Compliance Matrix: (Units=1/GPa)
#
#
# Indices 1 2 3 4 5 6 
#
# 1 0.007875 -0.000604 -0.010220 0.000000 0.000000 0.000000
# 2 -0.000604 0.006930 -0.002759 0.000000 0.000000 0.000000
# 3 -0.010220 -0.002759 0.046494 0.000000 0.000000 0.000000
# 4 0.000000 0.000000 0.000000 0.317161 0.000000 0.000000
# 5 0.000000 0.000000 0.000000 0.000000 0.024696 0.000000
# 6 0.000000 0.000000 0.000000 0.000000 0.000000 0.046377
#
#
# Mechanical properties :
#
#
# Convention : Reuss Voigt Hill
#
# Bulk Modulus (GPa) = 29.29632 61.59420 45.44526
# Shear Modulus (GPa) = 10.24430 31.59445 20.91937
#
# Velocity S-wave (km/s) = 2.18267 3.83312 3.11905
# Velocity P-wave (km/s) = 4.46947 6.94511 5.83998
#
# Compressibility (1/GPa) = 0.03413399
#
# Stress axis : x y z
#
# Youngs Moduli (GPa) = 126.97663 144.31011 21.50795
#
# Poissons Ratio (x) = 0.08719 0.21980
# Poissons Ratio (y) = 0.07672 0.05934
# Poissons Ratio (z) = 1.29765 0.39813
#
# Static dielectric constant tensor:
#      x y z
#    x 1.917690 0.000000 0.000000 
#    y 0.000000 1.796560 0.000000 
#    z 0.000000 0.000000 1.820510 
# 
# From -- ./inp_files/16519.got.cif
#   From: 2010.05.17/outbox.cif.g08.bks.cpg/sg59_9_cif.got.tgz:16519.got - 2010.06.03 14:40:33.
