data_PCOD9452829
_publ_section_title
;
Structure prediction by ZEFSAII (Michael W. Deem and Ramdas Pophale) SiO2 
 PCOD9452829
Probable space group: P M M N
;
_chemical_formula_sum "Si O2"
_cell_formula_units_Z 64
_cell_length_a 8.407993
_cell_length_b 25.673454
_cell_length_c 14.824034
_cell_angle_alpha 90.000000
_cell_angle_beta 90.000000
_cell_angle_gamma 90.000000
_cell_volume 3199.948911
_symmetry_space_group_name_H-M "P M M N"
_symmetry_group_IT_number 59
_space_group.IT_coordinate_system_code '2'
_symmetry_cell_setting 'orthorhombic'
loop_
_space_group_symop_operation_xyz
x,y,z
1/2-x,1/2-y,z
1/2+x,-y,-z
-x,1/2+y,-z
-x,-y,-z
1/2+x,1/2+y,-z
1/2-x,y,z
x,1/2-y,z
loop_
_atom_site_type_symbol
_atom_site_label
_atom_site_fract_x
_atom_site_fract_y
_atom_site_fract_z
Si Si1 0.435533 0.335516 0.514099
Si Si2 0.440926 0.808249 0.287427
Si Si3 0.061129 0.058554 0.021133
Si Si4 0.557521 0.692777 0.683416
Si Si5 0.066917 0.945227 0.467393
Si Si6 0.936280 0.519749 0.290072
Si Si7 0.940337 0.098117 0.843679
Si Si8 0.939794 0.410182 0.217793
O O1 0.250000 0.323134 0.523327
O O2 0.515420 0.320560 0.608731
O O3 0.496039 0.310500 0.421364
O O4 0.463243 0.396992 0.500760
O O5 0.250000 0.807850 0.282034
O O6 0.500174 0.750000 0.265729
O O7 0.494350 0.852447 0.216549
O O8 0.250000 0.058550 0.011000
O O9 0.984038 0.097952 0.948569
O O10 0.016692 0.076653 0.121688
O O11 0.000000 0.000000 0.000000
O O12 0.750000 0.688975 0.682505
O O13 0.513635 0.750000 0.719372
O O14 0.492646 0.644211 0.739435
O O15 0.250000 0.937899 0.493136
O O16 0.045862 0.949496 0.359971
O O17 0.000000 0.000000 0.500000
O O18 0.750000 0.524989 0.315014
O O19 0.978479 0.459062 0.283375
O O20 0.969393 0.547736 0.195896
O O21 0.750000 0.092021 0.834068
O O22 0.750000 0.410886 0.206870
#
# Coordination Sequence:
#
# PCOD9452829 Si02
#       8
#     8   8   8   8   8   8   8   8
#     4  11  22  38  62  90 122 162 211 259 307 368
#     4  10  22  40  62  90 125 166 210 255 305 363
#     4  12  24  40  65  94 126 162 203 254 311 376
#     4  10  23  43  64  89 123 163 208 258 310 363
#     4  12  24  37  54  82 122 165 208 255 312 373
#     4  11  22  37  59  88 124 161 201 250 307 370
#     4  11  22  38  62  91 126 164 203 251 308 367
#     4  11  24  41  64  94 124 159 205 254 310 375
#
# _framework density 20.000319000000001
#
# number of rings (size 3 to 8) (size 9 to 14) (size 15 to 20)
#    0.000    1.000    2.500    4.875    0.000    6.000 
#    0.000    0.625    0.000    2.250    0.000    0.000 
#    0.000    0.000    0.000    0.000    0.000    0.000 
#
# Total GULP energy -357726.808194 kJ/mol
# GULP energy per Si atom -5589.481378 kJ/mol
# Density = 1.995480 g / cm^3
# Si number density = 20.000319 Si / 1000 Ang^3
#
#
#
# Elastic Constant Matrix: (Units=GPa)
#
#
# Indices 1 2 3 4 5 6 
#
# 1 40.6823 19.7186 12.7255 0.0000 0.0000 0.0000
# 2 19.7186 140.7447 37.0692 0.0000 0.0000 0.0000
# 3 12.7255 37.0692 80.4960 0.0000 0.0000 0.0000
# 4 0.0000 0.0000 0.0000 17.5193 0.0000 0.0000
# 5 0.0000 0.0000 0.0000 0.0000 32.0776 0.0000
# 6 0.0000 0.0000 0.0000 0.0000 0.0000 19.2886
#
#
#
# Elastic Compliance Matrix: (Units=1/GPa)
#
#
# Indices 1 2 3 4 5 6 
#
# 1 0.026941 -0.003019 -0.002869 0.000000 0.000000 0.000000
# 2 -0.003019 0.008424 -0.003402 0.000000 0.000000 0.000000
# 3 -0.002869 -0.003402 0.014443 0.000000 0.000000 0.000000
# 4 0.000000 0.000000 0.000000 0.057080 0.000000 0.000000
# 5 0.000000 0.000000 0.000000 0.000000 0.031174 0.000000
# 6 0.000000 0.000000 0.000000 0.000000 0.000000 0.051844
#
#
# Mechanical properties :
#
#
# Convention : Reuss Voigt Hill
#
# Bulk Modulus (GPa) = 32.02171 44.54997 38.28584
# Shear Modulus (GPa) = 22.84184 26.60441 24.72312
#
# Velocity S-wave (km/s) = 3.38312 3.65115 3.51969
# Velocity P-wave (km/s) = 5.59518 6.33226 5.97510
#
# Compressibility (1/GPa) = 0.03122881
#
# Stress axis : x y z
#
# Youngs Moduli (GPa) = 37.11764 118.70748 69.23662
#
# Poissons Ratio (x) = 0.35837 0.19863
# Poissons Ratio (y) = 0.11206 0.23555
# Poissons Ratio (z) = 0.10649 0.40386
#
# Static dielectric constant tensor:
#      x y z
#    x 1.677400 0.000000 0.000000 
#    y 0.000000 1.725050 0.000000 
#    z 0.000000 0.000000 1.764510 
# 
# From -- ./inp_files/21584.got.cif
#   From: 2010.05.17/outbox.cif.g08.bks.cpg/sg59_11_cif.got.tgz:21584.got - 2010.06.03 14:40:33.
