data_PCOD9452031
_publ_section_title
;
Structure prediction by ZEFSAII (Michael W. Deem and Ramdas Pophale) SiO2 
 PCOD9452031
Probable space group: P M M N
;
_chemical_formula_sum "Si O2"
_cell_formula_units_Z 48
_cell_length_a 8.744803
_cell_length_b 10.028303
_cell_length_c 29.511080
_cell_angle_alpha 90.000000
_cell_angle_beta 90.000000
_cell_angle_gamma 90.000000
_cell_volume 2587.989924
_symmetry_space_group_name_H-M "P M M N"
_symmetry_group_IT_number 59
_space_group.IT_coordinate_system_code '2'
_symmetry_cell_setting 'orthorhombic'
loop_
_space_group_symop_operation_xyz
x,y,z
1/2-x,1/2-y,z
1/2+x,-y,-z
-x,1/2+y,-z
-x,-y,-z
1/2+x,1/2+y,-z
1/2-x,y,z
x,1/2-y,z
loop_
_atom_site_type_symbol
_atom_site_label
_atom_site_fract_x
_atom_site_fract_y
_atom_site_fract_z
Si Si1 0.568083 0.097580 0.202621
Si Si2 0.434308 0.403498 0.622603
Si Si3 0.935145 0.093315 0.460091
Si Si4 0.567531 0.095315 0.721978
Si Si5 0.066212 0.031513 0.104587
Si Si6 0.435508 0.750000 0.066287
Si Si7 0.434010 0.750000 0.961848
O O1 0.750000 0.081698 0.198292
O O2 0.535782 0.250000 0.216209
O O3 0.493208 0.072559 0.153763
O O4 0.504293 0.998399 0.240218
O O5 0.250000 0.405284 0.625844
O O6 0.478421 0.250000 0.609586
O O7 0.479498 0.515080 0.586025
O O8 0.503610 0.432310 0.671812
O O9 0.750000 0.092728 0.462713
O O10 0.983550 0.250000 0.461889
O O11 0.000000 0.000000 0.500000
O O12 0.750000 0.080358 0.721896
O O13 0.530995 0.250000 0.732149
O O14 0.250000 0.041779 0.103754
O O15 0.997234 0.124487 0.065695
O O16 0.017789 0.881765 0.092686
O O17 0.250000 0.750000 0.064958
O O18 0.486219 0.750000 0.014021
O O19 0.250000 0.750000 0.960746
#
# Coordination Sequence:
#
# PCOD9452031 Si02
#       7
#     8   8   8   8   8   4   4
#     4  11  24  41  60  84 115 150 190 238 289 343
#     4   9  18  35  57  81 114 155 196 239 289 344
#     4  10  21  36  56  84 118 157 200 246 295 346
#     4  10  22  39  61  89 119 151 189 236 288 346
#     4  11  22  39  61  86 115 151 191 236 288 341
#     4   9  22  39  59  87 117 149 189 237 286 337
#     4  11  21  39  61  85 119 153 189 233 282 343
#
# _framework density 18.547212999999999
#
# number of rings (size 3 to 8) (size 9 to 14) (size 15 to 20)
#    0.000    1.833    0.833    2.750    1.167    4.333 
#    0.000    7.083    0.000    0.000    0.000    0.000 
#    0.000    0.000    0.000    0.000    0.000    0.000 
#
# Total GULP energy -268065.654970 kJ/mol
# GULP energy per Si atom -5584.701145 kJ/mol
# Density = 1.850500 g / cm^3
# Si number density = 18.547213 Si / 1000 Ang^3
#
#
#
# Elastic Constant Matrix: (Units=GPa)
#
#
# Indices 1 2 3 4 5 6 
#
# 1 39.2321 46.3511 42.4442 0.0000 0.0000 0.0000
# 2 46.3511 123.7283 61.4060 0.0000 0.0000 0.0000
# 3 42.4442 61.4060 101.3924 0.0000 0.0000 0.0000
# 4 0.0000 0.0000 0.0000 41.9219 0.0000 0.0000
# 5 0.0000 0.0000 0.0000 0.0000 24.5381 0.0000
# 6 0.0000 0.0000 0.0000 0.0000 0.0000 35.0624
#
#
#
# Elastic Compliance Matrix: (Units=1/GPa)
#
#
# Indices 1 2 3 4 5 6 
#
# 1 0.060464 -0.014425 -0.016575 0.000000 0.000000 0.000000
# 2 -0.014425 0.014997 -0.003044 0.000000 0.000000 0.000000
# 3 -0.016575 -0.003044 0.018645 0.000000 0.000000 0.000000
# 4 0.000000 0.000000 0.000000 0.023854 0.000000 0.000000
# 5 0.000000 0.000000 0.000000 0.000000 0.040753 0.000000
# 6 0.000000 0.000000 0.000000 0.000000 0.000000 0.028521
#
#
# Mechanical properties :
#
#
# Convention : Reuss Voigt Hill
#
# Bulk Modulus (GPa) = 38.43537 62.75060 50.59298
# Shear Modulus (GPa) = 18.93993 27.91458 23.42726
#
# Velocity S-wave (km/s) = 3.19905 3.88371 3.55789
# Velocity P-wave (km/s) = 5.86628 7.34965 6.64945
#
# Compressibility (1/GPa) = 0.02601770
#
# Stress axis : x y z
#
# Youngs Moduli (GPa) = 16.53885 66.68075 53.63466
#
# Poissons Ratio (x) = 0.96186 0.88898
# Poissons Ratio (y) = 0.23857 0.16327
# Poissons Ratio (z) = 0.27413 0.20298
#
# Static dielectric constant tensor:
#      x y z
#    x 1.630880 0.000000 0.000000 
#    y 0.000000 1.570120 0.000000 
#    z 0.000000 0.000000 1.598550 
# 
# From -- ./inp_files/32960.got.cif
#   From: 2010.05.17/outbox.cif.g08.bks.cpg/sg59_17_cif.got.tgz:32960.got - 2010.06.03 14:40:33.
