data_PCOD9452703
_publ_section_title
;
Structure prediction by ZEFSAII (Michael W. Deem and Ramdas Pophale) SiO2 
 PCOD9452703
Probable space group: P M M N
;
_chemical_formula_sum "Si O2"
_cell_formula_units_Z 40
_cell_length_a 29.219965
_cell_length_b 8.894144
_cell_length_c 7.970912
_cell_angle_alpha 90.000000
_cell_angle_beta 90.000000
_cell_angle_gamma 90.000000
_cell_volume 2071.533030
_symmetry_space_group_name_H-M "P M M N"
_symmetry_group_IT_number 59
_space_group.IT_coordinate_system_code '2'
_symmetry_cell_setting 'orthorhombic'
loop_
_space_group_symop_operation_xyz
x,y,z
1/2-x,1/2-y,z
1/2+x,-y,-z
-x,1/2+y,-z
-x,-y,-z
1/2+x,1/2+y,-z
1/2-x,y,z
x,1/2-y,z
loop_
_atom_site_type_symbol
_atom_site_label
_atom_site_fract_x
_atom_site_fract_y
_atom_site_fract_z
Si Si1 0.048411 0.071175 0.950985
Si Si2 0.452468 0.428298 0.555263
Si Si3 0.858877 0.430121 0.925254
Si Si4 0.145059 0.069373 0.421888
Si Si5 0.196156 0.930038 0.738025
O O1 0.048111 0.250000 0.983274
O O2 0.055463 0.045595 0.752572
O O3 0.090239 0.994704 0.047295
O O4 0.000000 0.000000 0.000000
O O5 0.500000 0.500000 0.500000
O O6 0.456292 0.250000 0.529187
O O7 0.407516 0.481060 0.456521
O O8 0.860079 0.250000 0.913134
O O9 0.839552 0.499300 0.753921
O O10 0.829547 0.472100 0.089717
O O11 0.145917 0.250000 0.413976
O O12 0.174434 0.013260 0.579199
O O13 0.250000 0.961529 0.751294
O O14 0.190257 0.750000 0.715433
#
# Coordination Sequence:
#
# PCOD9452703 Si02
#       5
#     8   8   8   8   8
#     4  11  22  38  58  87 125 167 213 262 314 375
#     4  10  22  37  56  84 122 163 206 255 307 368
#     4  11  23  40  64  94 127 168 212 261 318 378
#     4  11  23  41  64  93 128 166 209 262 317 376
#     4  10  23  44  68  93 124 165 213 264 316 375
#
# _framework density 19.309370999999999
#
# number of rings (size 3 to 8) (size 9 to 14) (size 15 to 20)
#    0.000    1.400    2.000    3.000    0.000    8.400 
#    0.000    2.000    0.000    0.000    0.000    0.000 
#    0.000    0.000    0.000    0.000    0.000    0.000 
#
# Total GULP energy -223660.837069 kJ/mol
# GULP energy per Si atom -5591.520927 kJ/mol
# Density = 1.926542 g / cm^3
# Si number density = 19.309371 Si / 1000 Ang^3
#
#
#
# Elastic Constant Matrix: (Units=GPa)
#
#
# Indices 1 2 3 4 5 6 
#
# 1 99.9851 37.6130 70.8563 0.0000 0.0000 0.0000
# 2 37.6130 53.6258 74.2934 0.0000 0.0000 0.0000
# 3 70.8563 74.2934 157.0172 0.0000 0.0000 0.0000
# 4 0.0000 0.0000 0.0000 35.4509 0.0000 0.0000
# 5 0.0000 0.0000 0.0000 0.0000 26.2554 0.0000
# 6 0.0000 0.0000 0.0000 0.0000 0.0000 29.0990
#
#
#
# Elastic Compliance Matrix: (Units=1/GPa)
#
#
# Indices 1 2 3 4 5 6 
#
# 1 0.014902 -0.003297 -0.005165 0.000000 0.000000 0.000000
# 2 -0.003297 0.054861 -0.024470 0.000000 0.000000 0.000000
# 3 -0.005165 -0.024470 0.020277 0.000000 0.000000 0.000000
# 4 0.000000 0.000000 0.000000 0.028208 0.000000 0.000000
# 5 0.000000 0.000000 0.000000 0.000000 0.038087 0.000000
# 6 0.000000 0.000000 0.000000 0.000000 0.000000 0.034365
#
#
# Mechanical properties :
#
#
# Convention : Reuss Voigt Hill
#
# Bulk Modulus (GPa) = 41.36141 75.12817 58.24479
# Shear Modulus (GPa) = 18.89479 26.68541 22.79010
#
# Velocity S-wave (km/s) = 3.13154 3.72155 3.43922
# Velocity P-wave (km/s) = 5.87727 7.58015 6.78236
#
# Compressibility (1/GPa) = 0.02417712
#
# Stress axis : x y z
#
# Youngs Moduli (GPa) = 67.10601 18.22792 49.31582
#
# Poissons Ratio (x) = 0.06009 0.25470
# Poissons Ratio (y) = 0.22124 1.20676
# Poissons Ratio (z) = 0.34659 0.44604
#
# Static dielectric constant tensor:
#      x y z
#    x 1.667310 0.000000 0.000000 
#    y 0.000000 1.648460 0.000000 
#    z 0.000000 0.000000 1.692460 
# 
# From -- ./inp_files/12377.got.cif
#   From: 2010.05.17/outbox.cif.g08.bks.cpg/sg59_7_cif.got.tgz:12377.got - 2010.06.03 14:40:33.
