data_PCOD9452556
_publ_section_title
;
Structure prediction by ZEFSAII (Michael W. Deem and Ramdas Pophale) SiO2 
 PCOD9452556
Probable space group: P M M N
;
_chemical_formula_sum "Si O2"
_cell_formula_units_Z 64
_cell_length_a 20.238733
_cell_length_b 18.939521
_cell_length_c 7.602530
_cell_angle_alpha 90.000000
_cell_angle_beta 90.000000
_cell_angle_gamma 90.000000
_cell_volume 2914.140285
_symmetry_space_group_name_H-M "P M M N"
_symmetry_group_IT_number 59
_space_group.IT_coordinate_system_code '2'
_symmetry_cell_setting 'orthorhombic'
loop_
_space_group_symop_operation_xyz
x,y,z
1/2-x,1/2-y,z
1/2+x,-y,-z
-x,1/2+y,-z
-x,-y,-z
1/2+x,1/2+y,-z
1/2-x,y,z
x,1/2-y,z
loop_
_atom_site_type_symbol
_atom_site_label
_atom_site_fract_x
_atom_site_fract_y
_atom_site_fract_z
Si Si1 0.175840 0.962025 0.440265
Si Si2 0.323222 0.980049 0.045697
Si Si3 0.416147 0.167361 0.885063
Si Si4 0.565838 0.109009 0.376961
Si Si5 0.674736 0.610106 0.405670
Si Si6 0.825920 0.330724 0.106448
Si Si7 0.575672 0.832171 0.694390
Si Si8 0.452544 0.475925 0.846571
O O1 0.250000 0.930408 0.452037
O O2 0.171016 0.997649 0.249795
O O3 0.114845 0.909063 0.463284
O O4 0.172432 0.024321 0.585261
O O5 0.250000 0.000376 0.982561
O O6 0.328365 0.894645 0.032611
O O7 0.380361 0.013876 0.932391
O O8 0.432936 0.250000 0.860980
O O9 0.350899 0.148654 0.771246
O O10 0.464061 0.106328 0.806561
O O11 0.416074 0.152610 0.095886
O O12 0.617060 0.146987 0.242540
O O13 0.498428 0.152106 0.373543
O O14 0.542174 0.031847 0.308375
O O15 0.750000 0.630428 0.440257
O O16 0.626565 0.631305 0.563888
O O17 0.750000 0.333458 0.178006
O O18 0.836499 0.250000 0.045691
O O19 0.588561 0.750000 0.677786
O O20 0.500000 0.500000 0.000000
#
# Coordination Sequence:
#
# PCOD9452556 Si02
#       8
#     8   8   8   8   8   8   8   8
#     4  10  21  38  62  94 126 164 220 275 323 384
#     4   9  20  37  59  87 122 163 214 274 325 381
#     4  11  24  43  65  93 128 166 213 269 325 388
#     4  11  21  37  63  89 128 163 209 261 323 386
#     4  11  25  45  68  94 127 170 221 276 333 392
#     4   9  18  35  59  87 122 167 214 261 317 382
#     4  11  25  43  64  95 133 171 215 268 329 397
#     4  11  21  38  62  91 118 161 215 257 318 387
#
# _framework density 21.961880000000001
#
# number of rings (size 3 to 8) (size 9 to 14) (size 15 to 20)
#    0.000    1.625    2.500    1.875    0.000    4.000 
#    0.000    2.500    0.000    3.000    0.000    0.000 
#    0.000    0.000    0.000    0.000    0.000    0.000 
#
# Total GULP energy -357000.823751 kJ/mol
# GULP energy per Si atom -5578.137871 kJ/mol
# Density = 2.191189 g / cm^3
# Si number density = 21.961880 Si / 1000 Ang^3
#
#
#
# Elastic Constant Matrix: (Units=GPa)
#
#
# Indices 1 2 3 4 5 6 
#
# 1 82.5265 12.7638 20.1954 0.0000 0.0000 0.0000
# 2 12.7638 89.3467 0.3735 0.0000 0.0000 0.0000
# 3 20.1954 0.3735 52.6367 0.0000 0.0000 0.0000
# 4 0.0000 0.0000 0.0000 18.6964 0.0000 0.0000
# 5 0.0000 0.0000 0.0000 0.0000 21.1401 0.0000
# 6 0.0000 0.0000 0.0000 0.0000 0.0000 27.4665
#
#
#
# Elastic Compliance Matrix: (Units=1/GPa)
#
#
# Indices 1 2 3 4 5 6 
#
# 1 0.013700 -0.001935 -0.005242 0.000000 0.000000 0.000000
# 2 -0.001935 0.011466 0.000661 0.000000 0.000000 0.000000
# 3 -0.005242 0.000661 0.021005 0.000000 0.000000 0.000000
# 4 0.000000 0.000000 0.000000 0.053486 0.000000 0.000000
# 5 0.000000 0.000000 0.000000 0.000000 0.047304 0.000000
# 6 0.000000 0.000000 0.000000 0.000000 0.000000 0.036408
#
#
# Mechanical properties :
#
#
# Convention : Reuss Voigt Hill
#
# Bulk Modulus (GPa) = 30.17736 32.35282 31.26509
# Shear Modulus (GPa) = 24.10254 26.20574 25.15414
#
# Velocity S-wave (km/s) = 3.31640 3.45807 3.38798
# Velocity P-wave (km/s) = 5.33248 5.54145 5.43797
#
# Compressibility (1/GPa) = 0.03313743
#
# Stress axis : x y z
#
# Youngs Moduli (GPa) = 72.99533 87.21407 47.60808
#
# Poissons Ratio (x) = 0.16877 0.24958
# Poissons Ratio (y) = 0.14126 -0.03147
# Poissons Ratio (z) = 0.38267 -0.05766
#
# Static dielectric constant tensor:
#      x y z
#    x 1.811430 0.000000 0.000000 
#    y 0.000000 1.849830 0.000000 
#    z 0.000000 0.000000 1.838630 
# 
# From -- ./inp_files/10697.got.cif
#   From: 2010.05.17/outbox.cif.g08.bks.cpg/sg59_6_cif.got.tgz:10697.got - 2010.06.03 14:40:33.
