data_PCOD9452174
_publ_section_title
;
Structure prediction by ZEFSAII (Michael W. Deem and Ramdas Pophale) SiO2 
 PCOD9452174
Probable space group: P M M N
;
_chemical_formula_sum "Si O2"
_cell_formula_units_Z 64
_cell_length_a 7.916420
_cell_length_b 15.704718
_cell_length_c 24.909564
_cell_angle_alpha 90.000000
_cell_angle_beta 90.000000
_cell_angle_gamma 90.000000
_cell_volume 3096.885123
_symmetry_space_group_name_H-M "P M M N"
_symmetry_group_IT_number 59
_space_group.IT_coordinate_system_code '2'
_symmetry_cell_setting 'orthorhombic'
loop_
_space_group_symop_operation_xyz
x,y,z
1/2-x,1/2-y,z
1/2+x,-y,-z
-x,1/2+y,-z
-x,-y,-z
1/2+x,1/2+y,-z
1/2-x,y,z
x,1/2-y,z
loop_
_atom_site_type_symbol
_atom_site_label
_atom_site_fract_x
_atom_site_fract_y
_atom_site_fract_z
Si Si1 0.456933 0.151784 0.383431
Si Si2 0.553106 0.902356 0.991464
Si Si3 0.042200 0.500616 0.307298
Si Si4 0.954238 0.155781 0.892122
Si Si5 0.553344 0.155913 0.122925
Si Si6 0.944269 0.646520 0.499093
Si Si7 0.449333 0.846457 0.381741
Si Si8 0.051493 0.991389 0.185672
O O1 0.250000 0.152571 0.385562
O O2 0.509407 0.250000 0.374387
O O3 0.509325 0.085441 0.338060
O O4 0.514421 0.121073 0.442743
O O5 0.750000 0.899286 0.978271
O O6 0.459706 0.862950 0.940528
O O7 0.519412 0.856345 0.047582
O O8 0.500000 0.000000 0.000000
O O9 0.250000 0.500246 0.307542
O O10 0.983763 0.582936 0.340939
O O11 0.982896 0.504471 0.245928
O O12 0.750000 0.149085 0.895296
O O13 0.997192 0.250000 0.872183
O O14 0.020288 0.081973 0.853047
O O15 0.750000 0.154629 0.137821
O O16 0.483318 0.250000 0.133696
O O17 0.466357 0.080726 0.155429
O O18 0.750000 0.618449 0.495514
O O19 0.946079 0.750000 0.501185
O O20 0.030847 0.623296 0.443361
O O21 0.250000 0.839937 0.371175
O O22 0.521014 0.750000 0.376994
O O23 0.250000 0.971725 0.191244
#
# Coordination Sequence:
#
# PCOD9452174 Si02
#       8
#     8   8   8   8   8   8   8   8
#     4   8  14  26  45  69  97 128 164 214 268 311
#     4  12  23  37  61  90 119 149 181 222 273 325
#     4   9  18  31  48  73 101 132 175 218 258 309
#     4  10  21  37  57  83 115 149 184 225 275 326
#     4  11  24  41  61  85 115 150 183 222 275 328
#     4   8  14  26  45  68  94 126 166 210 259 314
#     4   9  17  29  46  70 102 135 165 205 258 313
#     4  10  21  37  57  80 107 143 187 233 273 318
#
# _framework density 20.665925000000001
#
# number of rings (size 3 to 8) (size 9 to 14) (size 15 to 20)
#    0.000    2.375    1.250    2.625    0.000    4.250 
#    0.000    4.375    0.000    0.750    0.000    3.500 
#    0.000    0.000    0.000    0.000    0.000    0.000 
#
# Total GULP energy -357201.538233 kJ/mol
# GULP energy per Si atom -5581.274035 kJ/mol
# Density = 2.061889 g / cm^3
# Si number density = 20.665925 Si / 1000 Ang^3
#
#
#
# Elastic Constant Matrix: (Units=GPa)
#
#
# Indices 1 2 3 4 5 6 
#
# 1 19.9242 1.3054 -3.3609 0.0000 0.0000 0.0000
# 2 1.3054 81.6454 33.4512 0.0000 0.0000 0.0000
# 3 -3.3609 33.4512 125.6412 0.0000 0.0000 0.0000
# 4 0.0000 0.0000 0.0000 -261.3602 0.0000 0.0000
# 5 0.0000 0.0000 0.0000 0.0000 34.4117 0.0000
# 6 0.0000 0.0000 0.0000 0.0000 0.0000 10.3716
#
#
#
# Elastic Compliance Matrix: (Units=1/GPa)
#
#
# Indices 1 2 3 4 5 6 
#
# 1 0.050587 -0.001530 0.001761 0.000000 0.000000 0.000000
# 2 -0.001530 0.013794 -0.003714 0.000000 0.000000 0.000000
# 3 0.001761 -0.003714 0.008995 0.000000 0.000000 0.000000
# 4 0.000000 0.000000 0.000000 -0.003826 0.000000 0.000000
# 5 0.000000 0.000000 0.000000 0.000000 0.029060 0.000000
# 6 0.000000 0.000000 0.000000 0.000000 0.000000 0.096417
#
#
# Mechanical properties :
#
#
# Convention : Reuss Voigt Hill
#
# Bulk Modulus (GPa) = 15.05791 32.22249 23.64020
# Shear Modulus (GPa) = 22.30849 -30.26104 -3.97628
#
# Velocity S-wave (km/s) = 3.28911 -3.83076 -1.38861
# Velocity P-wave (km/s) = 4.66117 1.98504 2.98212
#
# Compressibility (1/GPa) = 0.06641029
#
# Stress axis : x y z
#
# Youngs Moduli (GPa) = 19.76774 72.49512 111.17324
#
# Poissons Ratio (x) = 0.11093 -0.19573
# Poissons Ratio (y) = 0.03025 0.41284
# Poissons Ratio (z) = -0.03480 0.26921
#
# Static dielectric constant tensor:
#      x y z
#    x 1.752830 0.000000 0.000000 
#    y 0.000000 1.743710 0.000000 
#    z 0.000000 0.000000 1.715270 
# 
# From -- ./inp_files/31684.got.cif
#   From: 2010.05.17/outbox.cif.g08.bks.cpg/sg59_16_cif.got.tgz:31684.got - 2010.06.03 14:40:33.
