data_PCOD9452439
_publ_section_title
;
Structure prediction by ZEFSAII (Michael W. Deem and Ramdas Pophale) SiO2 
 PCOD9452439
Probable space group: P M M N
;
_chemical_formula_sum "Si O2"
_cell_formula_units_Z 48
_cell_length_a 30.621466
_cell_length_b 8.745099
_cell_length_c 9.710180
_cell_angle_alpha 90.000000
_cell_angle_beta 90.000000
_cell_angle_gamma 90.000000
_cell_volume 2600.267271
_symmetry_space_group_name_H-M "P M M N"
_symmetry_group_IT_number 59
_space_group.IT_coordinate_system_code '2'
_symmetry_cell_setting 'orthorhombic'
loop_
_space_group_symop_operation_xyz
x,y,z
1/2-x,1/2-y,z
1/2+x,-y,-z
-x,1/2+y,-z
-x,-y,-z
1/2+x,1/2+y,-z
1/2-x,y,z
x,1/2-y,z
loop_
_atom_site_type_symbol
_atom_site_label
_atom_site_fract_x
_atom_site_fract_y
_atom_site_fract_z
Si Si1 0.074020 0.932707 0.652391
Si Si2 0.323981 0.431418 0.344054
Si Si3 0.926571 0.933070 0.650319
Si Si4 0.999579 0.433009 0.846660
Si Si5 0.669745 0.565326 0.338847
Si Si6 0.750000 0.429846 0.844188
Si Si7 0.750000 0.934182 0.147668
O O1 0.070271 0.750000 0.652521
O O2 0.063559 0.997275 0.499965
O O3 0.123497 0.984672 0.684159
O O4 0.041043 0.005205 0.761600
O O5 0.316517 0.250000 0.326073
O O6 0.375318 0.461653 0.320396
O O7 0.315357 0.468307 0.504576
O O8 0.292207 0.519215 0.242838
O O9 0.933143 0.750000 0.645451
O O10 0.957324 0.007364 0.764008
O O11 0.000077 0.250000 0.850603
O O12 0.000000 0.500000 0.000000
O O13 0.663302 0.750000 0.331851
O O14 0.706802 0.518296 0.231494
O O15 0.750000 0.250000 0.862585
O O16 0.750000 0.507707 0.992999
O O17 0.750000 0.750000 0.147472
#
# Coordination Sequence:
#
# PCOD9452439 Si02
#       7
#     8   8   8   8   8   4   4
#     4  11  22  38  61  89 119 153 191 236 286 340
#     4   9  19  38  63  85 110 145 188 234 284 339
#     4  10  21  40  64  89 115 149 193 241 287 339
#     4  12  25  41  60  85 118 155 193 237 288 345
#     4   9  19  38  63  88 110 143 192 242 287 338
#     4  12  25  36  52  82 120 154 189 232 280 336
#     4  10  21  38  60  82 112 152 191 232 286 346
#
# _framework density 18.459641000000001
#
# number of rings (size 3 to 8) (size 9 to 14) (size 15 to 20)
#    0.000    1.667    0.000    6.250    0.000    6.667 
#    0.000    2.500    0.000    0.000    0.000    0.000 
#    0.000    0.000    0.000    0.000    0.000    0.000 
#
# Total GULP energy -268341.618339 kJ/mol
# GULP energy per Si atom -5590.450382 kJ/mol
# Density = 1.841763 g / cm^3
# Si number density = 18.459641 Si / 1000 Ang^3
#
#
#
# Elastic Constant Matrix: (Units=GPa)
#
#
# Indices 1 2 3 4 5 6 
#
# 1 94.0693 63.3367 95.7848 0.0000 0.0000 0.0000
# 2 63.3367 108.8806 69.6979 0.0000 0.0000 0.0000
# 3 95.7848 69.6979 150.4377 0.0000 0.0000 0.0000
# 4 0.0000 0.0000 0.0000 28.2747 0.0000 0.0000
# 5 0.0000 0.0000 0.0000 0.0000 -34.3573 0.0000
# 6 0.0000 0.0000 0.0000 0.0000 0.0000 33.7847
#
#
#
# Elastic Compliance Matrix: (Units=1/GPa)
#
#
# Indices 1 2 3 4 5 6 
#
# 1 0.035225 -0.008720 -0.018388 0.000000 0.000000 0.000000
# 2 -0.008720 0.015215 -0.001497 0.000000 0.000000 0.000000
# 3 -0.018388 -0.001497 0.019049 0.000000 0.000000 0.000000
# 4 0.000000 0.000000 0.000000 0.035367 0.000000 0.000000
# 5 0.000000 0.000000 0.000000 0.000000 -0.029106 0.000000
# 6 0.000000 0.000000 0.000000 0.000000 0.000000 0.029599
#
#
# Mechanical properties :
#
#
# Convention : Reuss Voigt Hill
#
# Bulk Modulus (GPa) = 81.44239 90.11403 85.77821
# Shear Modulus (GPa) = 30.00255 13.84497 21.92376
#
# Velocity S-wave (km/s) = 4.03588 2.74161 3.44998
# Velocity P-wave (km/s) = 8.11990 7.67754 7.90182
#
# Compressibility (1/GPa) = 0.01227862
#
# Stress axis : x y z
#
# Youngs Moduli (GPa) = 28.38901 65.72382 52.49693
#
# Poissons Ratio (x) = 0.57310 0.96532
# Poissons Ratio (y) = 0.24755 0.07860
# Poissons Ratio (z) = 0.52202 0.09840
#
# Static dielectric constant tensor:
#      x y z
#    x 1.626810 0.000000 0.000000 
#    y 0.000000 1.615010 0.000000 
#    z 0.000000 0.000000 1.601020 
# 
# From -- ./inp_files/13075.got.cif
#   From: 2010.05.17/outbox.cif.g08.bks.cpg/sg59_7_cif.got.tgz:13075.got - 2010.06.03 14:40:33.
