data_PCOD9452211
_publ_section_title
;
Structure prediction by ZEFSAII (Michael W. Deem and Ramdas Pophale) SiO2 
 PCOD9452211
Probable space group: P M M N
;
_chemical_formula_sum "Si O2"
_cell_formula_units_Z 64
_cell_length_a 31.692481
_cell_length_b 7.745358
_cell_length_c 12.258191
_cell_angle_alpha 90.000000
_cell_angle_beta 90.000000
_cell_angle_gamma 90.000000
_cell_volume 3009.013379
_symmetry_space_group_name_H-M "P M M N"
_symmetry_group_IT_number 59
_space_group.IT_coordinate_system_code '2'
_symmetry_cell_setting 'orthorhombic'
loop_
_space_group_symop_operation_xyz
x,y,z
1/2-x,1/2-y,z
1/2+x,-y,-z
-x,1/2+y,-z
-x,-y,-z
1/2+x,1/2+y,-z
1/2-x,y,z
x,1/2-y,z
loop_
_atom_site_type_symbol
_atom_site_label
_atom_site_fract_x
_atom_site_fract_y
_atom_site_fract_z
Si Si1 0.202548 0.958788 0.766641
Si Si2 0.953701 0.447979 0.745920
Si Si3 0.454280 0.462283 0.774177
Si Si4 0.432485 0.449228 0.015052
Si Si5 0.371632 0.048374 0.380849
Si Si6 0.377426 0.044378 0.624178
Si Si7 0.663605 0.045509 0.004099
Si Si8 0.702607 0.959276 0.773834
O O1 0.250000 0.019868 0.743794
O O2 0.203256 0.750000 0.767042
O O3 0.187342 0.014750 0.887013
O O4 0.167492 0.015641 0.680789
O O5 0.952355 0.250000 0.709508
O O6 0.914864 0.538360 0.686886
O O7 0.000708 0.517406 0.726278
O O8 0.946669 0.455191 0.876141
O O9 0.454061 0.250000 0.777133
O O10 0.449583 0.518120 0.899977
O O11 0.414718 0.522611 0.702495
O O12 0.445640 0.250000 0.027029
O O13 0.381760 0.457317 0.007868
O O14 0.361126 0.250000 0.396392
O O15 0.377353 0.972706 0.501508
O O16 0.333406 0.974607 0.308578
O O17 0.384971 0.250000 0.617437
O O18 0.655701 0.250000 0.014782
O O19 0.690601 0.014488 0.895904
O O20 0.750000 0.015028 0.745549
O O21 0.701647 0.750000 0.772751
#
# Coordination Sequence:
#
# PCOD9452211 Si02
#       8
#     8   8   8   8   8   8   8   8
#     4  10  22  39  58  85 121 152 183 232 288 339
#     4  11  22  37  58  85 117 152 189 231 287 347
#     4   9  20  37  58  85 117 150 187 237 285 336
#     4  11  20  35  59  85 117 150 186 234 286 341
#     4  10  22  39  59  83 114 150 193 242 285 329
#     4  10  21  40  62  83 111 151 199 241 280 331
#     4  11  21  35  58  87 117 150 186 230 286 344
#     4  10  21  37  57  82 114 151 189 232 283 336
#
# _framework density 21.26943
#
# number of rings (size 3 to 8) (size 9 to 14) (size 15 to 20)
#    0.000    1.750    2.500    1.875    0.000    3.000 
#    0.000    4.375    0.000    0.000    0.000    0.000 
#    0.000    0.000    0.000    0.000    0.000    0.000 
#
# Total GULP energy -357671.223886 kJ/mol
# GULP energy per Si atom -5588.612873 kJ/mol
# Density = 2.122102 g / cm^3
# Si number density = 21.269430 Si / 1000 Ang^3
#
#
#
# Elastic Constant Matrix: (Units=GPa)
#
#
# Indices 1 2 3 4 5 6 
#
# 1 141.0889 -13.1964 54.3468 0.0000 0.0000 0.0000
# 2 -13.1964 32.4916 -5.3913 0.0000 0.0000 0.0000
# 3 54.3468 -5.3913 135.8406 0.0000 0.0000 0.0000
# 4 0.0000 0.0000 0.0000 -5.8627 0.0000 0.0000
# 5 0.0000 0.0000 0.0000 0.0000 -2.7066 0.0000
# 6 0.0000 0.0000 0.0000 0.0000 0.0000 7.9003
#
#
#
# Elastic Compliance Matrix: (Units=1/GPa)
#
#
# Indices 1 2 3 4 5 6 
#
# 1 0.008653 0.002959 -0.003344 0.000000 0.000000 0.000000
# 2 0.002959 0.031993 0.000086 0.000000 0.000000 0.000000
# 3 -0.003344 0.000086 0.008703 0.000000 0.000000 0.000000
# 4 0.000000 0.000000 0.000000 -0.170571 0.000000 0.000000
# 5 0.000000 0.000000 0.000000 0.000000 -0.369462 0.000000
# 6 0.000000 0.000000 0.000000 0.000000 0.000000 0.126577
#
#
# Mechanical properties :
#
#
# Convention : Reuss Voigt Hill
#
# Bulk Modulus (GPa) = 20.51248 42.32658 31.41953
# Shear Modulus (GPa) = -14.39850 18.11033 1.85592
#
# Velocity S-wave (km/s) = -2.60466 2.92117 0.93513
# Velocity P-wave (km/s) = 0.78699 5.59652 3.99627
#
# Compressibility (1/GPa) = 0.04875082
#
# Stress axis : x y z
#
# Youngs Moduli (GPa) = 115.57022 31.25644 114.90336
#
# Poissons Ratio (x) = -0.09250 0.38427
# Poissons Ratio (y) = -0.34202 -0.00986
# Poissons Ratio (z) = 0.38650 -0.00268
#
# Static dielectric constant tensor:
#      x y z
#    x 1.752240 0.000000 0.000000 
#    y 0.000000 1.804030 0.000000 
#    z 0.000000 0.000000 1.740050 
# 
# From -- ./inp_files/14908.got.cif
#   From: 2010.05.17/outbox.cif.g08.bks.cpg/sg59_8_cif.got.tgz:14908.got - 2010.06.03 14:40:33.
