data_PCOD9452056
_publ_section_title
;
Structure prediction by ZEFSAII (Michael W. Deem and Ramdas Pophale) SiO2 
 PCOD9452056
Probable space group: P M M N
;
_chemical_formula_sum "Si O2"
_cell_formula_units_Z 56
_cell_length_a 14.094111
_cell_length_b 14.507420
_cell_length_c 12.961416
_cell_angle_alpha 90.000000
_cell_angle_beta 90.000000
_cell_angle_gamma 90.000000
_cell_volume 2650.210202
_symmetry_space_group_name_H-M "P M M N"
_symmetry_group_IT_number 59
_space_group.IT_coordinate_system_code '2'
_symmetry_cell_setting 'orthorhombic'
loop_
_space_group_symop_operation_xyz
x,y,z
1/2-x,1/2-y,z
1/2+x,-y,-z
-x,1/2+y,-z
-x,-y,-z
1/2+x,1/2+y,-z
1/2-x,y,z
x,1/2-y,z
loop_
_atom_site_type_symbol
_atom_site_label
_atom_site_fract_x
_atom_site_fract_y
_atom_site_fract_z
Si Si1 0.865507 0.644179 0.965774
Si Si2 0.635250 0.145876 0.979906
Si Si3 0.365137 0.007007 0.858393
Si Si4 0.536997 0.536639 0.359948
Si Si5 0.636516 0.360565 0.740661
Si Si6 0.354526 0.140397 0.252194
Si Si7 0.519339 0.855133 0.545968
O O1 0.750000 0.638621 0.960428
O O2 0.891694 0.750000 0.977776
O O3 0.895081 0.589365 0.065771
O O4 0.897247 0.604170 0.854940
O O5 0.750000 0.144437 0.981846
O O6 0.603792 0.250000 0.998065
O O7 0.605235 0.081674 0.074055
O O8 0.613331 0.120848 0.861435
O O9 0.250000 0.006253 0.849860
O O10 0.408303 0.020300 0.746089
O O11 0.431181 0.573394 0.327029
O O12 0.547904 0.441657 0.425772
O O13 0.568553 0.617342 0.438459
O O14 0.750000 0.374219 0.724844
O O15 0.618331 0.250000 0.722387
O O16 0.250000 0.100569 0.266526
O O17 0.345826 0.250000 0.231182
O O18 0.411633 0.136251 0.356413
O O19 0.482432 0.750000 0.542362
#
# Coordination Sequence:
#
# PCOD9452056 Si02
#       7
#     8   8   8   8   8   8   8
#     4   8  15  29  50  80 117 153 188 227 278 347
#     4   8  16  33  56  83 118 158 198 241 287 344
#     4  10  21  36  57  87 125 160 190 233 296 364
#     4  11  24  39  61  87 116 154 202 255 302 361
#     4   9  19  38  63  89 118 155 200 249 296 343
#     4   8  15  31  56  81 107 147 193 232 281 347
#     4  10  23  42  57  78 116 155 197 257 311 353
#
# _framework density 21.130399000000001
#
# number of rings (size 3 to 8) (size 9 to 14) (size 15 to 20)
#    0.000    2.857    0.000    2.143    2.000    3.429 
#    0.000    2.143    0.000    0.857    0.000    0.000 
#    0.000    0.000    0.000    0.000    0.000    0.000 
#
# Total GULP energy -312135.250937 kJ/mol
# GULP energy per Si atom -5573.843767 kJ/mol
# Density = 2.108231 g / cm^3
# Si number density = 21.130399 Si / 1000 Ang^3
#
#
#
# Elastic Constant Matrix: (Units=GPa)
#
#
# Indices 1 2 3 4 5 6 
#
# 1 52.4342 12.9807 7.0489 0.0000 0.0000 0.0000
# 2 12.9807 131.4888 59.2904 0.0000 0.0000 0.0000
# 3 7.0489 59.2904 137.3782 0.0000 0.0000 0.0000
# 4 0.0000 0.0000 0.0000 44.0108 0.0000 0.0000
# 5 0.0000 0.0000 0.0000 0.0000 43.2618 0.0000
# 6 0.0000 0.0000 0.0000 0.0000 0.0000 0.0313
#
#
#
# Elastic Compliance Matrix: (Units=1/GPa)
#
#
# Indices 1 2 3 4 5 6 
#
# 1 0.019554 -0.001835 -0.000211 0.000000 0.000000 0.000000
# 2 -0.001835 0.009615 -0.004056 0.000000 0.000000 0.000000
# 3 -0.000211 -0.004056 0.009040 0.000000 0.000000 0.000000
# 4 0.000000 0.000000 0.000000 0.022722 0.000000 0.000000
# 5 0.000000 0.000000 0.000000 0.000000 0.023115 0.000000
# 6 0.000000 0.000000 0.000000 0.000000 0.000000 31.917459
#
#
# Mechanical properties :
#
#
# Convention : Reuss Voigt Hill
#
# Bulk Modulus (GPa) = 38.45319 53.32678 45.88999
# Shear Modulus (GPa) = 0.15614 33.59288 16.87451
#
# Velocity S-wave (km/s) = 0.27213 3.99154 2.82900
# Velocity P-wave (km/s) = 4.28209 6.82166 5.69523
#
# Compressibility (1/GPa) = 0.02600564
#
# Stress axis : x y z
#
# Youngs Moduli (GPa) = 51.13984 104.00308 110.61527
#
# Poissons Ratio (x) = 0.19086 0.02337
# Poissons Ratio (y) = 0.09385 0.44861
# Poissons Ratio (z) = 0.01081 0.42179
#
# Static dielectric constant tensor:
#      x y z
#    x 1.792930 0.000000 0.000000 
#    y 0.000000 1.829960 0.000000 
#    z 0.000000 0.000000 1.744250 
# 
# From -- ./inp_files/16939.got.cif
#   From: 2010.05.17/outbox.cif.g08.bks.cpg/sg59_9_cif.got.tgz:16939.got - 2010.06.03 14:40:33.
