data_PCOD9452136
_publ_section_title
;
Structure prediction by ZEFSAII (Michael W. Deem and Ramdas Pophale) SiO2 
 PCOD9452136
Probable space group: P M M N
;
_chemical_formula_sum "Si O2"
_cell_formula_units_Z 56
_cell_length_a 8.997996
_cell_length_b 13.499143
_cell_length_c 21.534485
_cell_angle_alpha 90.000000
_cell_angle_beta 90.000000
_cell_angle_gamma 90.000000
_cell_volume 2615.691275
_symmetry_space_group_name_H-M "P M M N"
_symmetry_group_IT_number 59
_space_group.IT_coordinate_system_code '2'
_symmetry_cell_setting 'orthorhombic'
loop_
_space_group_symop_operation_xyz
x,y,z
1/2-x,1/2-y,z
1/2+x,-y,-z
-x,1/2+y,-z
-x,-y,-z
1/2+x,1/2+y,-z
1/2-x,y,z
x,1/2-y,z
loop_
_atom_site_type_symbol
_atom_site_label
_atom_site_fract_x
_atom_site_fract_y
_atom_site_fract_z
Si Si1 0.071674 0.058047 0.409886
Si Si2 0.419871 0.371097 0.025291
Si Si3 0.080899 0.630929 0.849028
Si Si4 0.074483 0.366519 0.771434
Si Si5 0.426792 0.052707 0.273980
Si Si6 0.428965 0.140656 0.542127
Si Si7 0.581920 0.129762 0.899814
O O1 0.250000 0.047656 0.409927
O O2 0.000722 0.950902 0.422425
O O3 0.029905 0.094963 0.341400
O O4 0.032883 0.125217 0.469122
O O5 0.250000 0.402914 0.016700
O O6 0.419232 0.250000 0.025498
O O7 0.485169 0.402224 0.091683
O O8 0.520305 0.400776 0.966808
O O9 0.250000 0.594146 0.853516
O O10 0.085475 0.750000 0.852147
O O11 0.008354 0.602192 0.783915
O O12 0.250000 0.383423 0.762946
O O13 0.045095 0.250000 0.761493
O O14 0.978395 0.438233 0.728499
O O15 0.025323 0.392276 0.842011
O O16 0.250000 0.060922 0.266036
O O17 0.250000 0.134595 0.547779
O O18 0.475933 0.250000 0.562923
O O19 0.750000 0.094460 0.887926
O O20 0.587824 0.250000 0.901797
#
# Coordination Sequence:
#
# PCOD9452136 Si02
#       7
#     8   8   8   8   8   8   8
#     4   9  20  37  56  82 115 148 182 222 267 317
#     4   9  16  28  49  76 105 139 181 228 280 337
#     4  10  21  37  56  79 109 145 186 232 281 333
#     4  10  21  37  56  78 107 145 188 233 282 336
#     4  11  23  38  57  81 112 150 188 227 273 326
#     4   9  18  35  60  87 114 145 181 221 265 314
#     4   9  16  28  49  76 105 138 179 229 284 338
#
# _framework density 21.409255999999999
#
# number of rings (size 3 to 8) (size 9 to 14) (size 15 to 20)
#    0.000    2.429    0.000    2.143    0.000    7.714 
#    0.000    5.000    0.000    0.000    0.000    0.000 
#    0.000    0.000    0.000    0.000    0.000    0.000 
#
# Total GULP energy -313040.930707 kJ/mol
# GULP energy per Si atom -5590.016620 kJ/mol
# Density = 2.136053 g / cm^3
# Si number density = 21.409256 Si / 1000 Ang^3
#
#
#
# Elastic Constant Matrix: (Units=GPa)
#
#
# Indices 1 2 3 4 5 6 
#
# 1 72.4923 -5.5171 24.2937 0.0000 0.0000 0.0000
# 2 -5.5171 44.5344 -15.7030 0.0000 0.0000 0.0000
# 3 24.2937 -15.7030 86.6064 0.0000 0.0000 0.0000
# 4 0.0000 0.0000 0.0000 10.9769 0.0000 0.0000
# 5 0.0000 0.0000 0.0000 0.0000 27.9748 0.0000
# 6 0.0000 0.0000 0.0000 0.0000 0.0000 27.7392
#
#
#
# Elastic Compliance Matrix: (Units=1/GPa)
#
#
# Indices 1 2 3 4 5 6 
#
# 1 0.015233 0.000406 -0.004199 0.000000 0.000000 0.000000
# 2 0.000406 0.023999 0.004237 0.000000 0.000000 0.000000
# 3 -0.004199 0.004237 0.013493 0.000000 0.000000 0.000000
# 4 0.000000 0.000000 0.000000 0.091101 0.000000 0.000000
# 5 0.000000 0.000000 0.000000 0.000000 0.035746 0.000000
# 6 0.000000 0.000000 0.000000 0.000000 0.000000 0.036050
#
#
# Mechanical properties :
#
#
# Convention : Reuss Voigt Hill
#
# Bulk Modulus (GPa) = 18.65196 23.30892 20.98044
# Shear Modulus (GPa) = 21.49581 26.70882 24.10231
#
# Velocity S-wave (km/s) = 3.17210 3.53588 3.35892
# Velocity P-wave (km/s) = 4.70609 5.25175 4.98639
#
# Compressibility (1/GPa) = 0.05361366
#
# Stress axis : x y z
#
# Youngs Moduli (GPa) = 65.64811 41.66840 74.11420
#
# Poissons Ratio (x) = -0.01694 0.31122
# Poissons Ratio (y) = -0.02668 -0.31405
# Poissons Ratio (z) = 0.27567 -0.17656
#
# Static dielectric constant tensor:
#      x y z
#    x 1.721790 0.000000 0.000000 
#    y 0.000000 1.836800 0.000000 
#    z 0.000000 0.000000 1.762910 
# 
# From -- ./inp_files/29087.got.cif
#   From: 2010.05.17/outbox.cif.g08.bks.cpg/sg59_15_cif.got.tgz:29087.got - 2010.06.03 14:40:33.
