data_PCOD9452451
_publ_section_title
;
Structure prediction by ZEFSAII (Michael W. Deem and Ramdas Pophale) SiO2 
 PCOD9452451
Probable space group: P M M N
;
_chemical_formula_sum "Si O2"
_cell_formula_units_Z 48
_cell_length_a 15.321704
_cell_length_b 13.931645
_cell_length_c 11.808624
_cell_angle_alpha 90.000000
_cell_angle_beta 90.000000
_cell_angle_gamma 90.000000
_cell_volume 2520.628032
_symmetry_space_group_name_H-M "P M M N"
_symmetry_group_IT_number 59
_space_group.IT_coordinate_system_code '2'
_symmetry_cell_setting 'orthorhombic'
loop_
_space_group_symop_operation_xyz
x,y,z
1/2-x,1/2-y,z
1/2+x,-y,-z
-x,1/2+y,-z
-x,-y,-z
1/2+x,1/2+y,-z
1/2-x,y,z
x,1/2-y,z
loop_
_atom_site_type_symbol
_atom_site_label
_atom_site_fract_x
_atom_site_fract_y
_atom_site_fract_z
Si Si1 0.523211 0.861952 0.783276
Si Si2 0.645820 0.357950 0.720340
Si Si3 0.852468 0.474888 0.184584
Si Si4 0.586546 0.968397 0.563969
Si Si5 0.852015 0.998490 0.915703
Si Si6 0.148136 0.357999 0.651332
O O1 0.531090 0.750000 0.799791
O O2 0.422111 0.893790 0.783959
O O3 0.564477 0.895638 0.664685
O O4 0.579590 0.918450 0.876852
O O5 0.750000 0.349983 0.718354
O O6 0.609511 0.250000 0.706841
O O7 0.622225 0.435161 0.623560
O O8 0.624085 0.407600 0.840987
O O9 0.750000 0.456696 0.215018
O O10 0.885426 0.570155 0.251177
O O11 0.856132 0.486871 0.049579
O O12 0.640721 0.913194 0.468044
O O13 0.500000 0.000000 0.500000
O O14 0.750000 0.974262 0.887379
O O15 0.250000 0.347867 0.677457
O O16 0.110076 0.250000 0.647533
#
# Coordination Sequence:
#
# PCOD9452451 Si02
#       6
#     8   8   8   8   8   8
#     4  11  23  38  58  88 120 155 200 243 295 352
#     4   9  19  36  59  85 110 145 192 237 287 348
#     4  10  21  40  61  86 121 159 198 242 294 351
#     4  11  21  38  56  80 117 151 190 242 291 344
#     4   9  20  39  62  87 120 154 193 247 299 349
#     4  10  21  38  60  84 113 154 200 243 294 355
#
# _framework density 19.042874000000001
#
# number of rings (size 3 to 8) (size 9 to 14) (size 15 to 20)
#    0.000    2.000    1.667    1.500    0.000    4.000 
#    0.000    3.333    0.000    0.000    0.000    0.000 
#    0.000    0.000    0.000    0.000    0.000    0.000 
#
# Total GULP energy -267631.187821 kJ/mol
# GULP energy per Si atom -5575.649746 kJ/mol
# Density = 1.899953 g / cm^3
# Si number density = 19.042874 Si / 1000 Ang^3
#
#
#
# Elastic Constant Matrix: (Units=GPa)
#
#
# Indices 1 2 3 4 5 6 
#
# 1 44.2400 38.7735 3.3200 0.0000 0.0000 0.0000
# 2 38.7735 154.3184 36.6527 0.0000 0.0000 0.0000
# 3 3.3200 36.6527 78.2439 0.0000 0.0000 0.0000
# 4 0.0000 0.0000 0.0000 2.2441 0.0000 0.0000
# 5 0.0000 0.0000 0.0000 0.0000 21.0335 0.0000
# 6 0.0000 0.0000 0.0000 0.0000 0.0000 27.2864
#
#
#
# Elastic Compliance Matrix: (Units=1/GPa)
#
#
# Indices 1 2 3 4 5 6 
#
# 1 0.029413 -0.007982 0.002491 0.000000 0.000000 0.000000
# 2 -0.007982 0.009457 -0.004092 0.000000 0.000000 0.000000
# 3 0.002491 -0.004092 0.014591 0.000000 0.000000 0.000000
# 4 0.000000 0.000000 0.000000 0.445605 0.000000 0.000000
# 5 0.000000 0.000000 0.000000 0.000000 0.047543 0.000000
# 6 0.000000 0.000000 0.000000 0.000000 0.000000 0.036648
#
#
# Mechanical properties :
#
#
# Convention : Reuss Voigt Hill
#
# Bulk Modulus (GPa) = 29.15727 48.25496 38.70611
# Shear Modulus (GPa) = 8.14524 23.31656 15.73090
#
# Velocity S-wave (km/s) = 2.07041 3.50297 2.87728
# Velocity P-wave (km/s) = 4.58913 6.46191 5.60430
#
# Compressibility (1/GPa) = 0.03429677
#
# Stress axis : x y z
#
# Youngs Moduli (GPa) = 33.99913 105.73760 68.53305
#
# Poissons Ratio (x) = 0.84397 -0.17071
# Poissons Ratio (y) = 0.27137 0.28041
# Poissons Ratio (z) = -0.08469 0.43263
#
# Static dielectric constant tensor:
#      x y z
#    x 1.673180 0.000000 0.000000 
#    y 0.000000 1.667720 0.000000 
#    z 0.000000 0.000000 1.682950 
# 
# From -- ./inp_files/16845.got.cif
#   From: 2010.05.17/outbox.cif.g08.bks.cpg/sg59_9_cif.got.tgz:16845.got - 2010.06.03 14:40:33.
