data_PCOD9452534
_publ_section_title
;
Structure prediction by ZEFSAII (Michael W. Deem and Ramdas Pophale) SiO2 
 PCOD9452534
Probable space group: P M M N
;
_chemical_formula_sum "Si O2"
_cell_formula_units_Z 40
_cell_length_a 8.770102
_cell_length_b 15.815567
_cell_length_c 14.957709
_cell_angle_alpha 90.000000
_cell_angle_beta 90.000000
_cell_angle_gamma 90.000000
_cell_volume 2074.696100
_symmetry_space_group_name_H-M "P M M N"
_symmetry_group_IT_number 59
_space_group.IT_coordinate_system_code '2'
_symmetry_cell_setting 'orthorhombic'
loop_
_space_group_symop_operation_xyz
x,y,z
1/2-x,1/2-y,z
1/2+x,-y,-z
-x,1/2+y,-z
-x,-y,-z
1/2+x,1/2+y,-z
1/2-x,y,z
x,1/2-y,z
loop_
_atom_site_type_symbol
_atom_site_label
_atom_site_fract_x
_atom_site_fract_y
_atom_site_fract_z
Si Si1 0.566922 0.105740 0.588116
Si Si2 0.564946 0.250000 0.726950
Si Si3 0.432445 0.250000 0.926016
Si Si4 0.569485 0.088838 0.030044
Si Si5 0.071651 0.349513 0.206513
Si Si6 0.933276 0.590714 0.598917
O O1 0.750000 0.108416 0.583800
O O2 0.520763 0.168459 0.667370
O O3 0.502811 0.129523 0.490873
O O4 0.520889 0.008272 0.604180
O O5 0.750000 0.250000 0.737361
O O6 0.489106 0.250000 0.823679
O O7 0.250000 0.250000 0.930813
O O8 0.495876 0.166636 0.975513
O O9 0.750000 0.089663 0.016304
O O10 0.527666 0.102791 0.133717
O O11 0.500000 0.000000 0.000000
O O12 0.250000 0.375798 0.198181
O O13 0.063836 0.250000 0.187575
O O14 0.023219 0.365972 0.308281
O O15 0.750000 0.594745 0.591303
#
# Coordination Sequence:
#
# PCOD9452534 Si02
#       6
#     8   4   4   8   8   8
#     4   9  19  36  55  82 118 157 200 249 302 363
#     4  10  22  38  59  86 119 160 203 250 310 368
#     4  12  26  46  67  96 129 164 213 266 318 380
#     4  12  26  45  69  96 127 167 211 262 321 380
#     4  10  21  38  61  90 124 161 205 258 314 373
#     4   9  19  35  57  84 116 157 201 249 305 361
#
# _framework density 19.279933
#
# number of rings (size 3 to 8) (size 9 to 14) (size 15 to 20)
#    0.000    1.800    1.000    2.700    4.200    1.600 
#    0.000    0.000    0.000    0.000    0.000    0.000 
#    0.000    0.000    0.000    0.000    0.000    0.000 
#
# Total GULP energy -223497.733002 kJ/mol
# GULP energy per Si atom -5587.443325 kJ/mol
# Density = 1.923605 g / cm^3
# Si number density = 19.279933 Si / 1000 Ang^3
#
#
#
# Elastic Constant Matrix: (Units=GPa)
#
#
# Indices 1 2 3 4 5 6 
#
# 1 81.9657 43.2317 46.7330 0.0000 0.0000 0.0000
# 2 43.2317 84.7825 43.5741 0.0000 0.0000 0.0000
# 3 46.7330 43.5741 125.0302 0.0000 0.0000 0.0000
# 4 0.0000 0.0000 0.0000 36.0813 0.0000 0.0000
# 5 0.0000 0.0000 0.0000 0.0000 40.5889 0.0000
# 6 0.0000 0.0000 0.0000 0.0000 0.0000 23.0833
#
#
#
# Elastic Compliance Matrix: (Units=1/GPa)
#
#
# Indices 1 2 3 4 5 6 
#
# 1 0.018496 -0.007161 -0.004418 0.000000 0.000000 0.000000
# 2 -0.007161 0.017141 -0.003297 0.000000 0.000000 0.000000
# 3 -0.004418 -0.003297 0.010798 0.000000 0.000000 0.000000
# 4 0.000000 0.000000 0.000000 0.027715 0.000000 0.000000
# 5 0.000000 0.000000 0.000000 0.000000 0.024637 0.000000
# 6 0.000000 0.000000 0.000000 0.000000 0.000000 0.043321
#
#
# Mechanical properties :
#
#
# Convention : Reuss Voigt Hill
#
# Bulk Modulus (GPa) = 59.93861 62.09511 61.01686
# Shear Modulus (GPa) = 28.18148 30.50001 29.34075
#
# Velocity S-wave (km/s) = 3.82737 3.98170 3.90529
# Velocity P-wave (km/s) = 7.11953 7.30860 7.21468
#
# Compressibility (1/GPa) = 0.01668374
#
# Stress axis : x y z
#
# Youngs Moduli (GPa) = 54.06626 58.34002 92.60648
#
# Poissons Ratio (x) = 0.41776 0.40910
# Poissons Ratio (y) = 0.38716 0.30535
# Poissons Ratio (z) = 0.23885 0.19236
#
# Static dielectric constant tensor:
#      x y z
#    x 1.653510 0.000000 0.000000 
#    y 0.000000 1.674120 0.000000 
#    z 0.000000 0.000000 1.651840 
# 
# From -- ./inp_files/20011.got.cif
#   From: 2010.05.17/outbox.cif.g08.bks.cpg/sg59_11_cif.got.tgz:20011.got - 2010.06.03 14:40:33.
