data_PCOD9452218
_publ_section_title
;
Structure prediction by ZEFSAII (Michael W. Deem and Ramdas Pophale) SiO2 
 PCOD9452218
Probable space group: P M M N
;
_chemical_formula_sum "Si O2"
_cell_formula_units_Z 64
_cell_length_a 8.880426
_cell_length_b 14.761944
_cell_length_c 26.885727
_cell_angle_alpha 90.000000
_cell_angle_beta 90.000000
_cell_angle_gamma 90.000000
_cell_volume 3524.513169
_symmetry_space_group_name_H-M "P M M N"
_symmetry_group_IT_number 59
_space_group.IT_coordinate_system_code '2'
_symmetry_cell_setting 'orthorhombic'
loop_
_space_group_symop_operation_xyz
x,y,z
1/2-x,1/2-y,z
1/2+x,-y,-z
-x,1/2+y,-z
-x,-y,-z
1/2+x,1/2+y,-z
1/2-x,y,z
x,1/2-y,z
loop_
_atom_site_type_symbol
_atom_site_label
_atom_site_fract_x
_atom_site_fract_y
_atom_site_fract_z
Si Si1 0.069287 0.506093 0.945489
Si Si2 0.930125 0.001868 0.421226
Si Si3 0.431285 0.644334 0.493262
Si Si4 0.929160 0.857756 0.245001
Si Si5 0.572662 0.358242 0.234137
Si Si6 0.074225 0.141529 0.128635
Si Si7 0.428983 0.492147 0.312401
Si Si8 0.566904 0.853248 0.132200
O O1 0.250000 0.505647 0.948504
O O2 0.019601 0.422151 0.910423
O O3 0.011725 0.593942 0.916230
O O4 0.000000 0.500000 0.000000
O O5 0.750000 0.996415 0.417016
O O6 0.967232 0.088094 0.456514
O O7 0.002610 0.011358 0.367362
O O8 0.991829 0.912639 0.449227
O O9 0.250000 0.640602 0.486869
O O10 0.475534 0.750000 0.495211
O O11 0.750000 0.876662 0.249444
O O12 0.949335 0.750000 0.251412
O O13 0.977464 0.880314 0.188311
O O14 0.017695 0.916547 0.284677
O O15 0.750000 0.379531 0.233315
O O16 0.555128 0.250000 0.239978
O O17 0.500447 0.384295 0.181226
O O18 0.493748 0.411410 0.278460
O O19 0.250000 0.116162 0.128274
O O20 0.063785 0.250000 0.124379
O O21 0.250000 0.487660 0.314562
O O22 0.750000 0.852477 0.132703
O O23 0.517159 0.750000 0.123099
#
# Coordination Sequence:
#
# PCOD9452218 Si02
#       8
#     8   8   8   8   8   8   8   8
#     4  11  22  35  54  80 110 144 183 228 279 333
#     4  10  21  37  57  83 113 146 187 229 273 327
#     4   9  19  38  62  84 108 141 182 230 282 331
#     4   9  18  35  59  83 106 138 184 232 278 333
#     4  10  21  38  60  84 111 146 187 229 277 335
#     4  10  21  38  59  82 110 144 183 229 281 336
#     4  12  24  36  54  82 119 155 185 227 277 325
#     4   8  16  33  56  78 100 132 175 221 270 324
#
# _framework density 18.158538
#
# number of rings (size 3 to 8) (size 9 to 14) (size 15 to 20)
#    0.000    2.125    0.000    4.125    0.000    5.000 
#    0.000    3.125    0.000    2.625    0.000    0.000 
#    0.000    0.000    0.000    0.000    0.000    0.000 
#
# Total GULP energy -357425.014317 kJ/mol
# GULP energy per Si atom -5584.765849 kJ/mol
# Density = 1.811721 g / cm^3
# Si number density = 18.158538 Si / 1000 Ang^3
#
#
#
# Elastic Constant Matrix: (Units=GPa)
#
#
# Indices 1 2 3 4 5 6 
#
# 1 86.3731 53.0279 78.1254 0.0000 0.0000 0.0000
# 2 53.0279 90.4794 66.1858 0.0000 0.0000 0.0000
# 3 78.1254 66.1858 175.6216 0.0000 0.0000 0.0000
# 4 0.0000 0.0000 0.0000 58.8269 0.0000 0.0000
# 5 0.0000 0.0000 0.0000 0.0000 32.1392 0.0000
# 6 0.0000 0.0000 0.0000 0.0000 0.0000 25.4676
#
#
#
# Elastic Compliance Matrix: (Units=1/GPa)
#
#
# Indices 1 2 3 4 5 6 
#
# 1 0.023185 -0.008344 -0.007169 0.000000 0.000000 0.000000
# 2 -0.008344 0.018262 -0.003170 0.000000 0.000000 0.000000
# 3 -0.007169 -0.003170 0.010078 0.000000 0.000000 0.000000
# 4 0.000000 0.000000 0.000000 0.016999 0.000000 0.000000
# 5 0.000000 0.000000 0.000000 0.000000 0.031115 0.000000
# 6 0.000000 0.000000 0.000000 0.000000 0.000000 0.039266
#
#
# Mechanical properties :
#
#
# Convention : Reuss Voigt Hill
#
# Bulk Modulus (GPa) = 70.63365 83.01691 76.82528
# Shear Modulus (GPa) = 27.62577 33.62908 30.62743
#
# Velocity S-wave (km/s) = 3.90470 4.30812 4.11136
# Velocity P-wave (km/s) = 7.70141 8.40022 8.05839
#
# Compressibility (1/GPa) = 0.01415756
#
# Stress axis : x y z
#
# Youngs Moduli (GPa) = 43.13122 54.76001 99.22432
#
# Poissons Ratio (x) = 0.45691 0.71138
# Poissons Ratio (y) = 0.35988 0.31458
# Poissons Ratio (z) = 0.30922 0.17361
#
# Static dielectric constant tensor:
#      x y z
#    x 1.613580 0.000000 0.000000 
#    y 0.000000 1.629050 0.000000 
#    z 0.000000 0.000000 1.587550 
# 
# From -- ./inp_files/31524.got.cif
#   From: 2010.05.17/outbox.cif.g08.bks.cpg/sg59_16_cif.got.tgz:31524.got - 2010.06.03 14:40:33.
