data_PCOD9452230
_publ_section_title
;
Structure prediction by ZEFSAII (Michael W. Deem and Ramdas Pophale) SiO2 
 PCOD9452230
Probable space group: P M M N
;
_chemical_formula_sum "Si O2"
_cell_formula_units_Z 48
_cell_length_a 15.147492
_cell_length_b 16.848122
_cell_length_c 8.132688
_cell_angle_alpha 90.000000
_cell_angle_beta 90.000000
_cell_angle_gamma 90.000000
_cell_volume 2075.517225
_symmetry_space_group_name_H-M "P M M N"
_symmetry_group_IT_number 59
_space_group.IT_coordinate_system_code '2'
_symmetry_cell_setting 'orthorhombic'
loop_
_space_group_symop_operation_xyz
x,y,z
1/2-x,1/2-y,z
1/2+x,-y,-z
-x,1/2+y,-z
-x,-y,-z
1/2+x,1/2+y,-z
1/2-x,y,z
x,1/2-y,z
loop_
_atom_site_type_symbol
_atom_site_label
_atom_site_fract_x
_atom_site_fract_y
_atom_site_fract_z
Si Si1 0.355539 0.661677 0.262475
Si Si2 0.977644 0.335317 0.414297
Si Si3 0.351778 0.125785 0.614503
Si Si4 0.344609 0.951089 0.715282
Si Si5 0.099213 0.503484 0.062236
Si Si6 0.355629 0.337195 0.995959
O O1 0.250000 0.656613 0.287655
O O2 0.371619 0.750000 0.182612
O O3 0.411460 0.663027 0.429130
O O4 0.385022 0.580104 0.174502
O O5 0.969662 0.250000 0.332644
O O6 0.933393 0.401734 0.303439
O O7 0.075269 0.345311 0.487211
O O8 0.250000 0.152568 0.589662
O O9 0.379946 0.148861 0.802231
O O10 0.351388 0.030219 0.606958
O O11 0.250000 0.910545 0.678933
O O12 0.342130 0.980798 0.901587
O O13 0.119443 0.412158 0.109274
O O14 0.000000 0.500000 0.000000
O O15 0.250000 0.334887 0.996199
O O16 0.388834 0.250000 0.045323
#
# Coordination Sequence:
#
# PCOD9452230 Si02
#       6
#     8   8   8   8   8   8
#     4  10  21  37  57  84 120 161 205 250 295 348
#     4  11  22  36  58  88 120 154 196 246 296 349
#     4   9  18  33  55  82 111 146 189 238 294 357
#     4  10  21  38  58  81 113 152 196 243 292 351
#     4  11  22  36  58  87 117 153 194 243 298 357
#     4   9  17  32  55  81 110 144 185 235 290 353
#
# _framework density 23.126764000000001
#
# number of rings (size 3 to 8) (size 9 to 14) (size 15 to 20)
#    0.000    2.000    0.000    6.000    0.000    4.667 
#    0.000    0.000    0.000    2.000    0.000    1.167 
#    0.000    5.333    0.000    0.000    0.000    0.000 
#
# Total GULP energy -267926.604328 kJ/mol
# GULP energy per Si atom -5581.804257 kJ/mol
# Density = 2.307413 g / cm^3
# Si number density = 23.126764 Si / 1000 Ang^3
#
#
#
# Elastic Constant Matrix: (Units=GPa)
#
#
# Indices 1 2 3 4 5 6 
#
# 1 126.8326 41.3352 21.5994 0.0000 0.0000 0.0000
# 2 41.3352 161.0190 37.5713 0.0000 0.0000 0.0000
# 3 21.5994 37.5713 30.6271 0.0000 0.0000 0.0000
# 4 0.0000 0.0000 0.0000 14.5811 0.0000 0.0000
# 5 0.0000 0.0000 0.0000 0.0000 27.3280 0.0000
# 6 0.0000 0.0000 0.0000 0.0000 0.0000 -19.9083
#
#
#
# Elastic Compliance Matrix: (Units=1/GPa)
#
#
# Indices 1 2 3 4 5 6 
#
# 1 0.009117 -0.001177 -0.004986 0.000000 0.000000 0.000000
# 2 -0.001177 0.008853 -0.010030 0.000000 0.000000 0.000000
# 3 -0.004986 -0.010030 0.048471 0.000000 0.000000 0.000000
# 4 0.000000 0.000000 0.000000 0.068582 0.000000 0.000000
# 5 0.000000 0.000000 0.000000 0.000000 0.036592 0.000000
# 6 0.000000 0.000000 0.000000 0.000000 0.000000 -0.050230
#
#
# Mechanical properties :
#
#
# Convention : Reuss Voigt Hill
#
# Bulk Modulus (GPa) = 29.36396 57.72119 43.54257
# Shear Modulus (GPa) = 30.28047 18.93169 24.60608
#
# Velocity S-wave (km/s) = 3.62239 2.86423 3.26539
# Velocity P-wave (km/s) = 5.49728 5.99593 5.75201
#
# Compressibility (1/GPa) = 0.03405535
#
# Stress axis : x y z
#
# Youngs Moduli (GPa) = 109.68408 112.95620 20.63083
#
# Poissons Ratio (x) = 0.13296 0.10286
# Poissons Ratio (y) = 0.12911 0.20693
# Poissons Ratio (z) = 0.54686 1.13296
#
# Static dielectric constant tensor:
#      x y z
#    x 1.776430 0.000000 0.000000 
#    y 0.000000 1.949040 0.000000 
#    z 0.000000 0.000000 1.866510 
# 
# From -- ./inp_files/9050.got.cif
#   From: 2010.05.17/outbox.cif.g08.bks.cpg/sg59_5_cif.got.tgz:9050.got - 2010.06.03 14:40:33.
