data_PCOD9452135
_publ_section_title
;
Structure prediction by ZEFSAII (Michael W. Deem and Ramdas Pophale) SiO2 
 PCOD9452135
Probable space group: P M M N
;
_chemical_formula_sum "Si O2"
_cell_formula_units_Z 40
_cell_length_a 18.713392
_cell_length_b 12.720331
_cell_length_c 7.228907
_cell_angle_alpha 90.000000
_cell_angle_beta 90.000000
_cell_angle_gamma 90.000000
_cell_volume 1720.772929
_symmetry_space_group_name_H-M "P M M N"
_symmetry_group_IT_number 59
_space_group.IT_coordinate_system_code '2'
_symmetry_cell_setting 'orthorhombic'
loop_
_space_group_symop_operation_xyz
x,y,z
1/2-x,1/2-y,z
1/2+x,-y,-z
-x,1/2+y,-z
-x,-y,-z
1/2+x,1/2+y,-z
1/2-x,y,z
x,1/2-y,z
loop_
_atom_site_type_symbol
_atom_site_label
_atom_site_fract_x
_atom_site_fract_y
_atom_site_fract_z
Si Si1 0.670988 0.552874 0.820757
Si Si2 0.634400 0.369351 0.097251
Si Si3 0.479817 0.092206 0.229848
Si Si4 0.171878 0.039544 0.620545
Si Si5 0.977124 0.635455 0.336862
O O1 0.750000 0.598470 0.859565
O O2 0.597832 0.617872 0.852763
O O3 0.668142 0.531476 0.600637
O O4 0.662508 0.446394 0.937809
O O5 0.658217 0.250000 0.078118
O O6 0.548325 0.372392 0.116259
O O7 0.660604 0.426618 0.285034
O O8 0.487928 0.131940 0.440464
O O9 0.484317 0.965423 0.251723
O O10 0.250000 0.080448 0.671286
O O11 0.107173 0.112277 0.687428
O O12 0.998694 0.750000 0.269136
#
# Coordination Sequence:
#
# PCOD9452135 Si02
#       5
#     8   8   8   8   8
#     4  10  21  37  56  78 107 144 183 224 275 329
#     4  11  22  36  58  84 111 148 189 226 272 332
#     4   9  19  35  54  81 115 143 179 236 280 317
#     4   9  20  37  55  81 117 148 181 233 280 318
#     4   9  17  32  57  84 109 146 191 226 271 334
#
# _framework density 23.245369
#
# number of rings (size 3 to 8) (size 9 to 14) (size 15 to 20)
#    0.000    2.400    0.000    3.000    0.000    3.600 
#    0.000    2.000    0.000   12.600    0.000   11.200 
#    0.000    0.000    0.000    0.000    0.000    0.000 
#
# Total GULP energy -223572.676045 kJ/mol
# GULP energy per Si atom -5589.316901 kJ/mol
# Density = 2.319246 g / cm^3
# Si number density = 23.245369 Si / 1000 Ang^3
#
#
#
# Elastic Constant Matrix: (Units=GPa)
#
#
# Indices 1 2 3 4 5 6 
#
# 1 154.7191 -6.1374 12.2431 0.0000 0.0000 0.0000
# 2 -6.1374 95.2401 -3.9747 0.0000 0.0000 0.0000
# 3 12.2431 -3.9747 67.9600 0.0000 0.0000 0.0000
# 4 0.0000 0.0000 0.0000 -0.9397 0.0000 0.0000
# 5 0.0000 0.0000 0.0000 0.0000 14.4663 0.0000
# 6 0.0000 0.0000 0.0000 0.0000 0.0000 -5.8566
#
#
#
# Elastic Compliance Matrix: (Units=1/GPa)
#
#
# Indices 1 2 3 4 5 6 
#
# 1 0.006570 0.000375 -0.001162 0.000000 0.000000 0.000000
# 2 0.000375 0.010547 0.000549 0.000000 0.000000 0.000000
# 3 -0.001162 0.000549 0.014956 0.000000 0.000000 0.000000
# 4 0.000000 0.000000 0.000000 -1.064218 0.000000 0.000000
# 5 0.000000 0.000000 0.000000 0.000000 0.069126 0.000000
# 6 0.000000 0.000000 0.000000 0.000000 0.000000 -0.170748
#
#
# Mechanical properties :
#
#
# Convention : Reuss Voigt Hill
#
# Bulk Modulus (GPa) = 31.64761 35.79792 33.72277
# Shear Modulus (GPa) = -4.45331 22.58655 9.06662
#
# Velocity S-wave (km/s) = -1.38562 3.12052 1.97708
# Velocity P-wave (km/s) = 3.32930 5.33076 4.44417
#
# Compressibility (1/GPa) = 0.03159796
#
# Stress axis : x y z
#
# Youngs Moduli (GPa) = 152.20416 94.81489 66.86302
#
# Poissons Ratio (x) = -0.03555 0.07767
# Poissons Ratio (y) = -0.05706 -0.03673
# Poissons Ratio (z) = 0.17681 -0.05208
#
# Static dielectric constant tensor:
#      x y z
#    x 1.938870 0.000000 0.000000 
#    y 0.000000 1.838400 0.000000 
#    z 0.000000 0.000000 1.898670 
# 
# From -- ./inp_files/7361.got.cif
#   From: 2010.05.17/outbox.cif.g08.bks.cpg/sg59_4_cif.got.tgz:7361.got - 2010.06.03 14:40:33.
