data_PCOD9452526
_publ_section_title
;
Structure prediction by ZEFSAII (Michael W. Deem and Ramdas Pophale) SiO2 
 PCOD9452526
Probable space group: P M M N
;
_chemical_formula_sum "Si O2"
_cell_formula_units_Z 48
_cell_length_a 15.091282
_cell_length_b 8.951455
_cell_length_c 19.218694
_cell_angle_alpha 90.000000
_cell_angle_beta 90.000000
_cell_angle_gamma 90.000000
_cell_volume 2596.232841
_symmetry_space_group_name_H-M "P M M N"
_symmetry_group_IT_number 59
_space_group.IT_coordinate_system_code '2'
_symmetry_cell_setting 'orthorhombic'
loop_
_space_group_symop_operation_xyz
x,y,z
1/2-x,1/2-y,z
1/2+x,-y,-z
-x,1/2+y,-z
-x,-y,-z
1/2+x,1/2+y,-z
1/2-x,y,z
x,1/2-y,z
loop_
_atom_site_type_symbol
_atom_site_label
_atom_site_fract_x
_atom_site_fract_y
_atom_site_fract_z
Si Si1 0.096899 0.071923 0.504108
Si Si2 0.851080 0.076916 0.354158
Si Si3 0.354195 0.070009 0.995298
Si Si4 0.504099 0.071122 0.107211
Si Si5 0.351064 0.074993 0.346662
Si Si6 0.997306 0.926838 0.258786
O O1 0.091993 0.250000 0.515228
O O2 0.141276 0.045974 0.429237
O O3 0.143436 0.995779 0.569553
O O4 0.000000 0.000000 0.500000
O O5 0.750000 0.072114 0.329726
O O6 0.879780 0.250000 0.358883
O O7 0.914515 0.989357 0.302339
O O8 0.250000 0.025891 0.999410
O O9 0.356231 0.250000 0.986454
O O10 0.410490 0.994679 0.933319
O O11 0.414487 0.034969 0.063296
O O12 0.511547 0.250000 0.110301
O O13 0.498852 0.003160 0.183659
O O14 0.250000 0.054008 0.324533
O O15 0.375079 0.250000 0.336308
O O16 0.417350 0.973498 0.303753
O O17 0.991388 0.750000 0.251468
#
# Coordination Sequence:
#
# PCOD9452526 Si02
#       6
#     8   8   8   8   8   8
#     4  11  21  36  61  88 116 153 197 246 301 356
#     4  11  24  41  61  85 115 154 201 252 304 358
#     4   9  19  38  64  92 120 153 193 234 280 339
#     4  10  21  38  61  89 122 157 193 236 287 344
#     4  10  22  40  61  84 115 156 199 244 297 356
#     4  12  25  40  60  86 120 159 198 246 297 351
#
# _framework density 18.488326000000001
#
# number of rings (size 3 to 8) (size 9 to 14) (size 15 to 20)
#    0.000    1.500    1.667    3.500    0.000    5.333 
#    0.000    1.667    0.000    0.000    0.000    0.000 
#    0.000    0.000    0.000    0.000    0.000    0.000 
#
# Total GULP energy -268179.203918 kJ/mol
# GULP energy per Si atom -5587.066748 kJ/mol
# Density = 1.844625 g / cm^3
# Si number density = 18.488326 Si / 1000 Ang^3
#
#
#
# Elastic Constant Matrix: (Units=GPa)
#
#
# Indices 1 2 3 4 5 6 
#
# 1 126.4861 51.5506 47.3094 0.0000 0.0000 0.0000
# 2 51.5506 76.1379 60.0129 0.0000 0.0000 0.0000
# 3 47.3094 60.0129 119.2541 0.0000 0.0000 0.0000
# 4 0.0000 0.0000 0.0000 36.5744 0.0000 0.0000
# 5 0.0000 0.0000 0.0000 0.0000 83.4305 0.0000
# 6 0.0000 0.0000 0.0000 0.0000 0.0000 15.7031
#
#
#
# Elastic Compliance Matrix: (Units=1/GPa)
#
#
# Indices 1 2 3 4 5 6 
#
# 1 0.010993 -0.006639 -0.001020 0.000000 0.000000 0.000000
# 2 -0.006639 0.025779 -0.010339 0.000000 0.000000 0.000000
# 3 -0.001020 -0.010339 0.013993 0.000000 0.000000 0.000000
# 4 0.000000 0.000000 0.000000 0.027342 0.000000 0.000000
# 5 0.000000 0.000000 0.000000 0.000000 0.011986 0.000000
# 6 0.000000 0.000000 0.000000 0.000000 0.000000 0.063682
#
#
# Mechanical properties :
#
#
# Convention : Reuss Voigt Hill
#
# Bulk Modulus (GPa) = 67.71119 71.06934 69.39026
# Shear Modulus (GPa) = 25.68139 38.00860 31.84500
#
# Velocity S-wave (km/s) = 3.73105 4.53903 4.15473
# Velocity P-wave (km/s) = 7.43399 8.12367 7.78647
#
# Compressibility (1/GPa) = 0.01476861
#
# Stress axis : x y z
#
# Youngs Moduli (GPa) = 90.96317 38.79201 71.46433
#
# Poissons Ratio (x) = 0.25755 0.07290
# Poissons Ratio (y) = 0.60393 0.73885
# Poissons Ratio (z) = 0.09279 0.40106
#
# Static dielectric constant tensor:
#      x y z
#    x 1.621000 0.000000 0.000000 
#    y 0.000000 1.621670 0.000000 
#    z 0.000000 0.000000 1.614790 
# 
# From -- ./inp_files/25412.got.cif
#   From: 2010.05.17/outbox.cif.g08.bks.cpg/sg59_13_cif.got.tgz:25412.got - 2010.06.03 14:40:33.
