data_PCOD9452563
_publ_section_title
;
Structure prediction by ZEFSAII (Michael W. Deem and Ramdas Pophale) SiO2 
 PCOD9452563
Probable space group: P M M N
;
_chemical_formula_sum "Si O2"
_cell_formula_units_Z 48
_cell_length_a 14.338632
_cell_length_b 17.916555
_cell_length_c 9.775126
_cell_angle_alpha 90.000000
_cell_angle_beta 90.000000
_cell_angle_gamma 90.000000
_cell_volume 2511.219008
_symmetry_space_group_name_H-M "P M M N"
_symmetry_group_IT_number 59
_space_group.IT_coordinate_system_code '2'
_symmetry_cell_setting 'orthorhombic'
loop_
_space_group_symop_operation_xyz
x,y,z
1/2-x,1/2-y,z
1/2+x,-y,-z
-x,1/2+y,-z
-x,-y,-z
1/2+x,1/2+y,-z
1/2-x,y,z
x,1/2-y,z
loop_
_atom_site_type_symbol
_atom_site_label
_atom_site_fract_x
_atom_site_fract_y
_atom_site_fract_z
Si Si1 0.142697 0.160351 0.882764
Si Si2 0.143587 0.837844 0.783216
Si Si3 0.646051 0.381124 0.536140
Si Si4 0.359790 0.051019 0.373096
Si Si5 0.945210 0.836717 0.405977
Si Si6 0.024776 0.430703 0.096365
O O1 0.250000 0.136955 0.889692
O O2 0.138013 0.250000 0.889833
O O3 0.100935 0.138092 0.735899
O O4 0.085975 0.125029 0.005562
O O5 0.250000 0.850349 0.830630
O O6 0.121741 0.750000 0.798805
O O7 0.141001 0.857802 0.622353
O O8 0.069150 0.889044 0.857914
O O9 0.750000 0.360128 0.586914
O O10 0.635888 0.470077 0.554861
O O11 0.556742 0.344436 0.606271
O O12 0.250000 0.068581 0.351330
O O13 0.407484 0.112063 0.471401
O O14 0.416472 0.047676 0.231339
O O15 0.921253 0.750000 0.430853
O O16 0.000000 0.500000 0.000000
#
# Coordination Sequence:
#
# PCOD9452563 Si02
#       6
#     8   8   8   8   8   8
#     4  10  23  42  62  87 124 168 210 253 309 374
#     4  10  22  41  65  93 124 163 212 261 314 373
#     4  10  21  38  63  93 125 159 203 262 319 372
#     4  11  24  40  61  91 127 163 211 263 312 376
#     4  11  22  39  65  94 124 161 209 263 320 375
#     4  12  25  40  63  92 128 169 209 258 310 374
#
# _framework density 19.114224
#
# number of rings (size 3 to 8) (size 9 to 14) (size 15 to 20)
#    0.000    1.333    1.667    3.500    2.333    4.000 
#    0.000    0.833    0.000    1.000    0.000    0.000 
#    0.000    0.000    0.000    0.000    0.000    0.000 
#
# Total GULP energy -268296.063240 kJ/mol
# GULP energy per Si atom -5589.501317 kJ/mol
# Density = 1.907072 g / cm^3
# Si number density = 19.114224 Si / 1000 Ang^3
#
#
#
# Elastic Constant Matrix: (Units=GPa)
#
#
# Indices 1 2 3 4 5 6 
#
# 1 122.6200 32.9692 21.6367 0.0000 0.0000 0.0000
# 2 32.9692 51.1759 12.5295 0.0000 0.0000 0.0000
# 3 21.6367 12.5295 30.8835 0.0000 0.0000 0.0000
# 4 0.0000 0.0000 0.0000 27.7012 0.0000 0.0000
# 5 0.0000 0.0000 0.0000 0.0000 38.7180 0.0000
# 6 0.0000 0.0000 0.0000 0.0000 0.0000 29.4805
#
#
#
# Elastic Compliance Matrix: (Units=1/GPa)
#
#
# Indices 1 2 3 4 5 6 
#
# 1 0.010552 -0.005538 -0.005146 0.000000 0.000000 0.000000
# 2 -0.005538 0.024602 -0.006101 0.000000 0.000000 0.000000
# 3 -0.005146 -0.006101 0.038460 0.000000 0.000000 0.000000
# 4 0.000000 0.000000 0.000000 0.036100 0.000000 0.000000
# 5 0.000000 0.000000 0.000000 0.000000 0.025828 0.000000
# 6 0.000000 0.000000 0.000000 0.000000 0.000000 0.033921
#
#
# Mechanical properties :
#
#
# Convention : Reuss Voigt Hill
#
# Bulk Modulus (GPa) = 24.97251 37.66112 31.31682
# Shear Modulus (GPa) = 23.10735 28.34955 25.72845
#
# Velocity S-wave (km/s) = 3.48071 3.85537 3.67282
# Velocity P-wave (km/s) = 5.40805 6.29003 5.86564
#
# Compressibility (1/GPa) = 0.04004403
#
# Stress axis : x y z
#
# Youngs Moduli (GPa) = 94.76506 40.64695 26.00091
#
# Poissons Ratio (x) = 0.22511 0.13380
# Poissons Ratio (y) = 0.52484 0.15863
# Poissons Ratio (z) = 0.48766 0.24799
#
# Static dielectric constant tensor:
#      x y z
#    x 1.674800 0.000000 0.000000 
#    y 0.000000 1.647290 0.000000 
#    z 0.000000 0.000000 1.623030 
# 
# From -- ./inp_files/9019.got.cif
#   From: 2010.05.17/outbox.cif.g08.bks.cpg/sg59_5_cif.got.tgz:9019.got - 2010.06.03 14:40:33.
