data_PCOD9452409
_publ_section_title
;
Structure prediction by ZEFSAII (Michael W. Deem and Ramdas Pophale) SiO2 
 PCOD9452409
Probable space group: P M M N
;
_chemical_formula_sum "Si O2"
_cell_formula_units_Z 64
_cell_length_a 24.900579
_cell_length_b 8.898988
_cell_length_c 15.532249
_cell_angle_alpha 90.000000
_cell_angle_beta 90.000000
_cell_angle_gamma 90.000000
_cell_volume 3441.790337
_symmetry_space_group_name_H-M "P M M N"
_symmetry_group_IT_number 59
_space_group.IT_coordinate_system_code '2'
_symmetry_cell_setting 'orthorhombic'
loop_
_space_group_symop_operation_xyz
x,y,z
1/2-x,1/2-y,z
1/2+x,-y,-z
-x,1/2+y,-z
-x,-y,-z
1/2+x,1/2+y,-z
1/2-x,y,z
x,1/2-y,z
loop_
_atom_site_type_symbol
_atom_site_label
_atom_site_fract_x
_atom_site_fract_y
_atom_site_fract_z
Si Si1 0.843593 0.567027 0.399620
Si Si2 0.959197 0.914347 0.443505
Si Si3 0.384403 0.428311 0.284061
Si Si4 0.882369 0.567094 0.212189
Si Si5 0.690294 0.070537 0.571277
Si Si6 0.685893 0.426093 0.863217
Si Si7 0.313055 0.429907 0.953470
Si Si8 0.001174 0.919444 0.250346
O O1 0.838254 0.750000 0.402146
O O2 0.901657 0.515034 0.433627
O O3 0.848194 0.524670 0.298334
O O4 0.808009 0.494435 0.473853
O O5 0.950814 0.750000 0.481325
O O6 0.983069 0.902965 0.348968
O O7 0.000000 0.000000 0.500000
O O8 0.386829 0.250000 0.294949
O O9 0.356919 0.499384 0.369975
O O10 0.345227 0.477074 0.206793
O O11 0.443448 0.489342 0.256646
O O12 0.885908 0.750000 0.216933
O O13 0.849949 0.525659 0.126983
O O14 0.945153 0.516591 0.210253
O O15 0.750000 0.040615 0.609961
O O16 0.682706 0.250000 0.568782
O O17 0.750000 0.442792 0.852377
O O18 0.672546 0.250000 0.852714
O O19 0.672965 0.483215 0.959285
O O20 0.250000 0.457112 0.934062
O O21 0.319140 0.250000 0.967044
O O22 0.011364 0.750000 0.215464
#
# Coordination Sequence:
#
# PCOD9452409 Si02
#       8
#     8   8   8   8   8   8   8   8
#     4   9  18  33  52  76 105 138 178 218 257 304
#     4   9  17  28  45  69  96 129 170 214 255 299
#     4  12  24  37  56  81 106 136 180 229 276 325
#     4   8  16  33  57  84 114 148 183 220 264 314
#     4  11  24  39  53  74 107 145 183 223 272 329
#     4  10  21  38  59  82 108 139 176 219 271 330
#     4   9  17  32  57  87 114 140 175 220 267 316
#     4   9  18  34  53  74 106 145 181 217 262 317
#
# _framework density 18.594974000000001
#
# number of rings (size 3 to 8) (size 9 to 14) (size 15 to 20)
#    0.000    2.375    0.000    4.500    0.000    6.750 
#    0.000    5.000    0.000    1.500    0.000    0.000 
#    0.000    0.000    0.000    0.000    0.000    0.000 
#
# Total GULP energy -356388.921105 kJ/mol
# GULP energy per Si atom -5568.576892 kJ/mol
# Density = 1.855265 g / cm^3
# Si number density = 18.594974 Si / 1000 Ang^3
#
#
#
# Elastic Constant Matrix: (Units=GPa)
#
#
# Indices 1 2 3 4 5 6 
#
# 1 72.1615 37.2307 47.9240 0.0000 0.0000 0.0000
# 2 37.2307 50.9685 26.9129 0.0000 0.0000 0.0000
# 3 47.9240 26.9129 83.9163 0.0000 0.0000 0.0000
# 4 0.0000 0.0000 0.0000 19.5044 0.0000 0.0000
# 5 0.0000 0.0000 0.0000 0.0000 32.8318 0.0000
# 6 0.0000 0.0000 0.0000 0.0000 0.0000 17.1071
#
#
#
# Elastic Compliance Matrix: (Units=1/GPa)
#
#
# Indices 1 2 3 4 5 6 
#
# 1 0.029847 -0.015411 -0.012103 0.000000 0.000000 0.000000
# 2 -0.015411 0.031578 -0.001326 0.000000 0.000000 0.000000
# 3 -0.012103 -0.001326 0.019254 0.000000 0.000000 0.000000
# 4 0.000000 0.000000 0.000000 0.051270 0.000000 0.000000
# 5 0.000000 0.000000 0.000000 0.000000 0.030458 0.000000
# 6 0.000000 0.000000 0.000000 0.000000 0.000000 0.058455
#
#
# Mechanical properties :
#
#
# Convention : Reuss Voigt Hill
#
# Bulk Modulus (GPa) = 43.48215 47.90906 45.69560
# Shear Modulus (GPa) = 17.46984 20.22059 18.84521
#
# Velocity S-wave (km/s) = 3.06844 3.30119 3.18694
# Velocity P-wave (km/s) = 5.99903 6.35224 6.17816
#
# Compressibility (1/GPa) = 0.02299794
#
# Stress axis : x y z
#
# Youngs Moduli (GPa) = 33.50461 31.66803 51.93837
#
# Poissons Ratio (x) = 0.48805 0.62859
# Poissons Ratio (y) = 0.51635 0.06887
# Poissons Ratio (z) = 0.40549 0.04199
#
# Static dielectric constant tensor:
#      x y z
#    x 1.608510 0.000000 0.000000 
#    y 0.000000 1.648590 0.000000 
#    z 0.000000 0.000000 1.635020 
# 
# From -- ./inp_files/24766.got.cif
#   From: 2010.05.17/outbox.cif.g08.bks.cpg/sg59_13_cif.got.tgz:24766.got - 2010.06.03 14:40:33.
