data_PCOD9452951
_publ_section_title
;
Structure prediction by ZEFSAII (Michael W. Deem and Ramdas Pophale) SiO2 
 PCOD9452951
Probable space group: P M M N
;
_chemical_formula_sum "Si O2"
_cell_formula_units_Z 48
_cell_length_a 17.600559
_cell_length_b 8.798521
_cell_length_c 15.756997
_cell_angle_alpha 90.000000
_cell_angle_beta 90.000000
_cell_angle_gamma 90.000000
_cell_volume 2440.111033
_symmetry_space_group_name_H-M "P M M N"
_symmetry_group_IT_number 59
_space_group.IT_coordinate_system_code '2'
_symmetry_cell_setting 'orthorhombic'
loop_
_space_group_symop_operation_xyz
x,y,z
1/2-x,1/2-y,z
1/2+x,-y,-z
-x,1/2+y,-z
-x,-y,-z
1/2+x,1/2+y,-z
1/2-x,y,z
x,1/2-y,z
loop_
_atom_site_type_symbol
_atom_site_label
_atom_site_fract_x
_atom_site_fract_y
_atom_site_fract_z
Si Si1 0.452968 0.577860 0.259443
Si Si2 0.072798 0.432819 0.442728
Si Si3 0.750000 0.429468 0.320561
Si Si4 0.878001 0.579391 0.211026
Si Si5 0.838699 0.074907 0.044245
Si Si6 0.250000 0.433011 0.495129
Si Si7 0.556300 0.571415 0.926891
O O1 0.420507 0.750000 0.261447
O O2 0.434049 0.485982 0.344487
O O3 0.543550 0.591089 0.259034
O O4 0.440251 0.502041 0.166823
O O5 0.066281 0.250000 0.450277
O O6 0.162780 0.473428 0.462864
O O7 0.000000 0.500000 0.500000
O O8 0.750000 0.250000 0.316723
O O9 0.820893 0.497470 0.272070
O O10 0.750000 0.491384 0.413964
O O11 0.853086 0.750000 0.186629
O O12 0.883680 0.478166 0.127232
O O13 0.750000 0.063511 0.065308
O O14 0.855586 0.250000 0.022551
O O15 0.862337 0.965578 0.968641
O O16 0.250000 0.250000 0.496580
O O17 0.541079 0.750000 0.921073
O O18 0.500000 0.500000 0.000000
#
# Coordination Sequence:
#
# PCOD9452951 Si02
#       7
#     8   8   4   8   8   4   8
#     4  11  24  42  65  94 126 167 217 268 325 390
#     4  11  24  45  72 101 134 175 222 279 338 404
#     4  12  24  36  58  93 128 161 206 264 326 388
#     4  11  22  36  59  88 125 167 208 257 321 391
#     4  11  23  39  60  88 125 164 209 265 322 382
#     4  10  24  46  68  93 132 175 218 268 336 408
#     4  12  24  40  64  92 127 171 217 268 323 388
#
# _framework density 19.671236
#
# number of rings (size 3 to 8) (size 9 to 14) (size 15 to 20)
#    0.000    0.833    2.500    5.250    0.000    8.333 
#    1.500    0.000    0.000    0.000    0.000    0.000 
#    0.000    0.000    0.000    0.000    0.000    0.000 
#
# Total GULP energy -267427.232252 kJ/mol
# GULP energy per Si atom -5571.400672 kJ/mol
# Density = 1.962646 g / cm^3
# Si number density = 19.671236 Si / 1000 Ang^3
#
#
#
# Elastic Constant Matrix: (Units=GPa)
#
#
# Indices 1 2 3 4 5 6 
#
# 1 95.6375 26.5778 56.5329 0.0000 0.0000 0.0000
# 2 26.5778 93.8607 35.7318 0.0000 0.0000 0.0000
# 3 56.5329 35.7318 155.9340 0.0000 0.0000 0.0000
# 4 0.0000 0.0000 0.0000 34.7590 0.0000 0.0000
# 5 0.0000 0.0000 0.0000 0.0000 52.1156 0.0000
# 6 0.0000 0.0000 0.0000 0.0000 0.0000 34.0522
#
#
#
# Elastic Compliance Matrix: (Units=1/GPa)
#
#
# Indices 1 2 3 4 5 6 
#
# 1 0.013703 -0.002179 -0.004469 0.000000 0.000000 0.000000
# 2 -0.002179 0.012019 -0.001964 0.000000 0.000000 0.000000
# 3 -0.004469 -0.001964 0.008483 0.000000 0.000000 0.000000
# 4 0.000000 0.000000 0.000000 0.028770 0.000000 0.000000
# 5 0.000000 0.000000 0.000000 0.000000 0.019188 0.000000
# 6 0.000000 0.000000 0.000000 0.000000 0.000000 0.029367
#
#
# Mechanical properties :
#
#
# Convention : Reuss Voigt Hill
#
# Bulk Modulus (GPa) = 58.88751 64.79080 61.83916
# Shear Modulus (GPa) = 37.19861 39.29134 38.24498
#
# Velocity S-wave (km/s) = 4.35330 4.47408 4.41410
# Velocity P-wave (km/s) = 7.43432 7.72646 7.58180
#
# Compressibility (1/GPa) = 0.01698153
#
# Stress axis : x y z
#
# Youngs Moduli (GPa) = 72.97551 83.20285 117.88103
#
# Poissons Ratio (x) = 0.18130 0.52677
# Poissons Ratio (y) = 0.15902 0.23153
# Poissons Ratio (z) = 0.32611 0.16342
#
# Static dielectric constant tensor:
#      x y z
#    x 1.777100 0.000000 0.000000 
#    y 0.000000 1.694520 0.000000 
#    z 0.000000 0.000000 1.666740 
# 
# From -- ./inp_files/23776.got.cif
#   From: 2010.05.17/outbox.cif.g08.bks.cpg/sg59_12_cif.got.tgz:23776.got - 2010.06.03 14:40:33.
