data_PCOD9452459
_publ_section_title
;
Structure prediction by ZEFSAII (Michael W. Deem and Ramdas Pophale) SiO2 
 PCOD9452459
Probable space group: P M M N
;
_chemical_formula_sum "Si O2"
_cell_formula_units_Z 48
_cell_length_a 19.487364
_cell_length_b 8.821430
_cell_length_c 15.390640
_cell_angle_alpha 90.000000
_cell_angle_beta 90.000000
_cell_angle_gamma 90.000000
_cell_volume 2645.749784
_symmetry_space_group_name_H-M "P M M N"
_symmetry_group_IT_number 59
_space_group.IT_coordinate_system_code '2'
_symmetry_cell_setting 'orthorhombic'
loop_
_space_group_symop_operation_xyz
x,y,z
1/2-x,1/2-y,z
1/2+x,-y,-z
-x,1/2+y,-z
-x,-y,-z
1/2+x,1/2+y,-z
1/2-x,y,z
x,1/2-y,z
loop_
_atom_site_type_symbol
_atom_site_label
_atom_site_fract_x
_atom_site_fract_y
_atom_site_fract_z
Si Si1 0.441164 0.932355 0.237428
Si Si2 0.830807 0.568633 0.105553
Si Si3 0.410069 0.569397 0.729748
Si Si4 0.071105 0.931725 0.035742
Si Si5 0.830962 0.569421 0.431682
Si Si6 0.329322 0.932230 0.380870
O O1 0.450889 0.750000 0.242404
O O2 0.422937 0.968499 0.137704
O O3 0.380904 0.974655 0.303989
O O4 0.512136 0.011662 0.262178
O O5 0.750000 0.534562 0.106766
O O6 0.839798 0.750000 0.106253
O O7 0.867551 0.500446 0.190113
O O8 0.867904 0.499892 0.021506
O O9 0.407758 0.750000 0.734486
O O10 0.376066 0.511664 0.640866
O O11 0.069602 0.750000 0.026116
O O12 0.000000 0.000000 0.000000
O O13 0.750000 0.536660 0.416504
O O14 0.840473 0.750000 0.426199
O O15 0.847580 0.511029 0.528232
O O16 0.250000 0.970409 0.360284
O O17 0.332999 0.750000 0.392447
#
# Coordination Sequence:
#
# PCOD9452459 Si02
#       6
#     8   8   8   8   8   8
#     4  10  22  39  61  87 119 157 194 240 297 353
#     4  11  24  41  61  87 121 158 198 248 301 354
#     4  12  24  37  59  88 118 155 198 245 294 354
#     4  11  22  38  62  88 119 159 200 244 295 355
#     4  10  21  38  60  85 117 156 193 238 298 355
#     4   9  19  38  62  87 115 150 196 245 290 344
#
# _framework density 18.142306000000001
#
# number of rings (size 3 to 8) (size 9 to 14) (size 15 to 20)
#    0.000    1.500    1.667    3.500    0.000    7.000 
#    0.000    1.667    0.000    2.000    0.000    0.000 
#    0.000    0.000    0.000    0.000    0.000    0.000 
#
# Total GULP energy -268318.120306 kJ/mol
# GULP energy per Si atom -5589.960840 kJ/mol
# Density = 1.810101 g / cm^3
# Si number density = 18.142306 Si / 1000 Ang^3
#
#
#
# Elastic Constant Matrix: (Units=GPa)
#
#
# Indices 1 2 3 4 5 6 
#
# 1 145.2052 75.1791 120.2664 0.0000 0.0000 0.0000
# 2 75.1791 66.5790 76.6578 0.0000 0.0000 0.0000
# 3 120.2664 76.6578 180.3038 0.0000 0.0000 0.0000
# 4 0.0000 0.0000 0.0000 29.5398 0.0000 0.0000
# 5 0.0000 0.0000 0.0000 0.0000 97.3719 0.0000
# 6 0.0000 0.0000 0.0000 0.0000 0.0000 25.9577
#
#
#
# Elastic Compliance Matrix: (Units=1/GPa)
#
#
# Indices 1 2 3 4 5 6 
#
# 1 0.020846 -0.014749 -0.007634 0.000000 0.000000 0.000000
# 2 -0.014749 0.039858 -0.007108 0.000000 0.000000 0.000000
# 3 -0.007634 -0.007108 0.013660 0.000000 0.000000 0.000000
# 4 0.000000 0.000000 0.000000 0.033853 0.000000 0.000000
# 5 0.000000 0.000000 0.000000 0.000000 0.010270 0.000000
# 6 0.000000 0.000000 0.000000 0.000000 0.000000 0.038524
#
#
# Mechanical properties :
#
#
# Convention : Reuss Voigt Hill
#
# Bulk Modulus (GPa) = 65.01077 104.03271 84.52174
# Shear Modulus (GPa) = 22.61214 38.57285 30.59249
#
# Velocity S-wave (km/s) = 3.53424 4.61600 4.11085
# Velocity P-wave (km/s) = 7.25024 9.26698 8.31995
#
# Compressibility (1/GPa) = 0.01538207
#
# Stress axis : x y z
#
# Youngs Moduli (GPa) = 47.97133 25.08911 73.20470
#
# Poissons Ratio (x) = 0.37004 0.55884
# Poissons Ratio (y) = 0.70752 0.52035
# Poissons Ratio (z) = 0.36621 0.17834
#
# Static dielectric constant tensor:
#      x y z
#    x 1.596680 0.000000 0.000000 
#    y 0.000000 1.609370 0.000000 
#    z 0.000000 0.000000 1.594980 
# 
# From -- ./inp_files/20335.got.cif
#   From: 2010.05.17/outbox.cif.g08.bks.cpg/sg59_11_cif.got.tgz:20335.got - 2010.06.03 14:40:33.
