data_PCOD9452302
_publ_section_title
;
Structure prediction by ZEFSAII (Michael W. Deem and Ramdas Pophale) SiO2 
 PCOD9452302
Probable space group: P M M N
;
_chemical_formula_sum "Si O2"
_cell_formula_units_Z 64
_cell_length_a 27.030642
_cell_length_b 8.407506
_cell_length_c 13.560684
_cell_angle_alpha 90.000000
_cell_angle_beta 90.000000
_cell_angle_gamma 90.000000
_cell_volume 3081.804908
_symmetry_space_group_name_H-M "P M M N"
_symmetry_group_IT_number 59
_space_group.IT_coordinate_system_code '2'
_symmetry_cell_setting 'orthorhombic'
loop_
_space_group_symop_operation_xyz
x,y,z
1/2-x,1/2-y,z
1/2+x,-y,-z
-x,1/2+y,-z
-x,-y,-z
1/2+x,1/2+y,-z
1/2-x,y,z
x,1/2-y,z
loop_
_atom_site_type_symbol
_atom_site_label
_atom_site_fract_x
_atom_site_fract_y
_atom_site_fract_z
Si Si1 0.463957 0.430012 0.080784
Si Si2 0.009482 0.443997 0.389871
Si Si3 0.378775 0.439548 0.333827
Si Si4 0.191166 0.070861 0.717969
Si Si5 0.861073 0.067456 0.880310
Si Si6 0.857236 0.439193 0.093992
Si Si7 0.807721 0.059864 0.492978
Si Si8 0.946718 0.430420 0.222820
O O1 0.446051 0.250000 0.059219
O O2 0.419474 0.549430 0.097711
O O3 0.499377 0.418275 0.174326
O O4 0.500000 0.500000 0.000000
O O5 0.008347 0.250000 0.385036
O O6 0.064367 0.496548 0.352503
O O7 0.000000 0.500000 0.500000
O O8 0.962399 0.506538 0.325660
O O9 0.380816 0.250000 0.337130
O O10 0.356961 0.486462 0.226352
O O11 0.342844 0.500027 0.419980
O O12 0.250000 0.077180 0.709493
O O13 0.171633 0.250000 0.729664
O O14 0.179086 0.973186 0.815995
O O15 0.173685 0.998279 0.614403
O O16 0.845169 0.250000 0.869167
O O17 0.841181 0.998970 0.985604
O O18 0.863086 0.250000 0.077808
O O19 0.908921 0.501485 0.142542
O O20 0.750000 0.007333 0.506479
O O21 0.807756 0.250000 0.492497
O O22 0.927717 0.250000 0.240819
#
# Coordination Sequence:
#
# PCOD9452302 Si02
#       8
#     8   8   8   8   8   8   8   8
#     4  11  19  33  53  76 110 152 195 241 286 336
#     4  10  22  38  54  79 117 159 198 241 293 349
#     4  11  23  40  62  88 122 161 200 248 304 357
#     4  10  22  41  64  91 121 149 186 242 302 359
#     4  11  22  37  57  85 119 159 204 248 295 354
#     4  10  21  37  59  87 119 156 199 245 293 350
#     4  10  22  42  68  94 118 150 195 245 299 360
#     4   9  18  35  53  75 112 153 193 237 284 337
#
# _framework density 20.767050999999999
#
# number of rings (size 3 to 8) (size 9 to 14) (size 15 to 20)
#    0.000    1.750    2.500    1.875    1.750    3.500 
#    0.000    0.625    0.000    0.750    0.000    0.000 
#    0.000    0.000    0.000    0.000    0.000    0.000 
#
# Total GULP energy -356575.460323 kJ/mol
# GULP energy per Si atom -5571.491568 kJ/mol
# Density = 2.071978 g / cm^3
# Si number density = 20.767051 Si / 1000 Ang^3
#
#
#
# Elastic Constant Matrix: (Units=GPa)
#
#
# Indices 1 2 3 4 5 6 
#
# 1 36.3746 9.8418 27.6409 0.0000 0.0000 0.0000
# 2 9.8418 30.9559 23.8835 0.0000 0.0000 0.0000
# 3 27.6409 23.8835 170.4006 0.0000 0.0000 0.0000
# 4 0.0000 0.0000 0.0000 29.7452 0.0000 0.0000
# 5 0.0000 0.0000 0.0000 0.0000 34.1695 0.0000
# 6 0.0000 0.0000 0.0000 0.0000 0.0000 22.6127
#
#
#
# Elastic Compliance Matrix: (Units=1/GPa)
#
#
# Indices 1 2 3 4 5 6 
#
# 1 0.032679 -0.007064 -0.004311 0.000000 0.000000 0.000000
# 2 -0.007064 0.037748 -0.004145 0.000000 0.000000 0.000000
# 3 -0.004311 -0.004145 0.007149 0.000000 0.000000 0.000000
# 4 0.000000 0.000000 0.000000 0.033619 0.000000 0.000000
# 5 0.000000 0.000000 0.000000 0.000000 0.029266 0.000000
# 6 0.000000 0.000000 0.000000 0.000000 0.000000 0.044223
#
#
# Mechanical properties :
#
#
# Convention : Reuss Voigt Hill
#
# Bulk Modulus (GPa) = 21.48852 40.05147 30.77000
# Shear Modulus (GPa) = 21.62314 29.06314 25.34314
#
# Velocity S-wave (km/s) = 3.23030 3.74503 3.49715
# Velocity P-wave (km/s) = 4.92778 6.16670 5.58172
#
# Compressibility (1/GPa) = 0.04653647
#
# Stress axis : x y z
#
# Youngs Moduli (GPa) = 30.60099 26.49166 139.88476
#
# Poissons Ratio (x) = 0.18713 0.60302
# Poissons Ratio (y) = 0.21615 0.57982
# Poissons Ratio (z) = 0.13191 0.10981
#
# Static dielectric constant tensor:
#      x y z
#    x 1.766370 0.000000 0.000000 
#    y 0.000000 1.744690 0.000000 
#    z 0.000000 0.000000 1.836510 
# 
# From -- ./inp_files/19247.got.cif
#   From: 2010.05.17/outbox.cif.g08.bks.cpg/sg59_10_cif.got.tgz:19247.got - 2010.06.03 14:40:33.
