data_PCOD9452457
_publ_section_title
;
Structure prediction by ZEFSAII (Michael W. Deem and Ramdas Pophale) SiO2 
 PCOD9452457
Probable space group: P M M N
;
_chemical_formula_sum "Si O2"
_cell_formula_units_Z 64
_cell_length_a 15.300903
_cell_length_b 8.891209
_cell_length_c 24.410168
_cell_angle_alpha 90.000000
_cell_angle_beta 90.000000
_cell_angle_gamma 90.000000
_cell_volume 3320.845336
_symmetry_space_group_name_H-M "P M M N"
_symmetry_group_IT_number 59
_space_group.IT_coordinate_system_code '2'
_symmetry_cell_setting 'orthorhombic'
loop_
_space_group_symop_operation_xyz
x,y,z
1/2-x,1/2-y,z
1/2+x,-y,-z
-x,1/2+y,-z
-x,-y,-z
1/2+x,1/2+y,-z
1/2-x,y,z
x,1/2-y,z
loop_
_atom_site_type_symbol
_atom_site_label
_atom_site_fract_x
_atom_site_fract_y
_atom_site_fract_z
Si Si1 0.493107 0.569805 0.311140
Si Si2 0.346930 0.926663 0.400126
Si Si3 0.143751 0.578555 0.985299
Si Si4 0.404734 0.429027 0.509358
Si Si5 0.852642 0.570504 0.129400
Si Si6 0.147568 0.430559 0.099254
Si Si7 0.510338 0.930304 0.806538
Si Si8 0.649295 0.072119 0.375905
O O1 0.496750 0.750000 0.307235
O O2 0.420513 0.529892 0.356710
O O3 0.471459 0.499768 0.252635
O O4 0.584110 0.505561 0.333577
O O5 0.250000 0.940743 0.376064
O O6 0.360521 0.750000 0.414578
O O7 0.353063 0.022767 0.455168
O O8 0.250000 0.580600 0.986872
O O9 0.112592 0.750000 0.979807
O O10 0.121028 0.483965 0.931540
O O11 0.116540 0.506173 0.042733
O O12 0.500000 0.500000 0.500000
O O13 0.409906 0.250000 0.514847
O O14 0.365546 0.499217 0.564467
O O15 0.750000 0.530790 0.137720
O O16 0.860386 0.750000 0.133374
O O17 0.917840 0.491531 0.171420
O O18 0.250000 0.470400 0.108704
O O19 0.143856 0.250000 0.092602
O O20 0.085197 0.472932 0.149508
O O21 0.507657 0.750000 0.803127
O O22 0.750000 0.052479 0.359898
O O23 0.630296 0.250000 0.379277
#
# Coordination Sequence:
#
# PCOD9452457 Si02
#       8
#     8   8   8   8   8   8   8   8
#     4  11  24  42  63  86 117 158 201 248 295 349
#     4  10  22  41  64  91 123 159 198 243 297 354
#     4   9  17  31  55  87 119 150 187 235 291 349
#     4  12  23  37  62  94 128 163 198 242 296 353
#     4  10  21  38  60  85 115 152 193 239 292 353
#     4   9  19  37  59  84 116 154 194 237 288 347
#     4  11  24  40  60  85 115 153 198 248 296 346
#     4  11  24  42  65  92 123 159 198 245 299 354
#
# _framework density 19.272200999999999
#
# number of rings (size 3 to 8) (size 9 to 14) (size 15 to 20)
#    0.000    1.625    1.250    3.375    0.000    8.000 
#    0.000    0.000    0.000    0.000    0.000    0.000 
#    0.000    0.000    0.000    0.000    0.000    0.000 
#
# Total GULP energy -357743.223770 kJ/mol
# GULP energy per Si atom -5589.737871 kJ/mol
# Density = 1.922834 g / cm^3
# Si number density = 19.272201 Si / 1000 Ang^3
#
#
#
# Elastic Constant Matrix: (Units=GPa)
#
#
# Indices 1 2 3 4 5 6 
#
# 1 52.2888 13.8546 -8.7004 0.0000 0.0000 0.0000
# 2 13.8546 46.4325 2.6594 0.0000 0.0000 0.0000
# 3 -8.7004 2.6594 39.7228 0.0000 0.0000 0.0000
# 4 0.0000 0.0000 0.0000 36.2357 0.0000 0.0000
# 5 0.0000 0.0000 0.0000 0.0000 -22.8436 0.0000
# 6 0.0000 0.0000 0.0000 0.0000 0.0000 22.8572
#
#
#
# Elastic Compliance Matrix: (Units=1/GPa)
#
#
# Indices 1 2 3 4 5 6 
#
# 1 0.021797 -0.006803 0.005230 0.000000 0.000000 0.000000
# 2 -0.006803 0.023743 -0.003080 0.000000 0.000000 0.000000
# 3 0.005230 -0.003080 0.026526 0.000000 0.000000 0.000000
# 4 0.000000 0.000000 0.000000 0.027597 0.000000 0.000000
# 5 0.000000 0.000000 0.000000 0.000000 -0.043776 0.000000
# 6 0.000000 0.000000 0.000000 0.000000 0.000000 0.043750
#
#
# Mechanical properties :
#
#
# Convention : Reuss Voigt Hill
#
# Bulk Modulus (GPa) = 15.93382 17.11904 16.52643
# Shear Modulus (GPa) = 38.50172 15.95857 27.23015
#
# Velocity S-wave (km/s) = 4.47451 2.88073 3.76297
# Velocity P-wave (km/s) = 5.91445 4.46843 5.24154
#
# Compressibility (1/GPa) = 0.06275960
#
# Stress axis : x y z
#
# Youngs Moduli (GPa) = 45.87707 42.11760 37.69871
#
# Poissons Ratio (x) = 0.28655 -0.19715
# Poissons Ratio (y) = 0.31212 0.11610
# Poissons Ratio (z) = -0.23992 0.12971
#
# Static dielectric constant tensor:
#      x y z
#    x 1.695780 0.000000 0.000000 
#    y 0.000000 1.650710 0.000000 
#    z 0.000000 0.000000 1.638960 
# 
# From -- ./inp_files/32205.got.cif
#   From: 2010.05.17/outbox.cif.g08.bks.cpg/sg59_17_cif.got.tgz:32205.got - 2010.06.03 14:40:33.
