data_PCOD9452575
_publ_section_title
;
Structure prediction by ZEFSAII (Michael W. Deem and Ramdas Pophale) SiO2 
 PCOD9452575
Probable space group: P M M N
;
_chemical_formula_sum "Si O2"
_cell_formula_units_Z 48
_cell_length_a 8.627943
_cell_length_b 29.654082
_cell_length_c 10.203694
_cell_angle_alpha 90.000000
_cell_angle_beta 90.000000
_cell_angle_gamma 90.000000
_cell_volume 2610.653162
_symmetry_space_group_name_H-M "P M M N"
_symmetry_group_IT_number 59
_space_group.IT_coordinate_system_code '2'
_symmetry_cell_setting 'orthorhombic'
loop_
_space_group_symop_operation_xyz
x,y,z
1/2-x,1/2-y,z
1/2+x,-y,-z
-x,1/2+y,-z
-x,-y,-z
1/2+x,1/2+y,-z
1/2-x,y,z
x,1/2-y,z
loop_
_atom_site_type_symbol
_atom_site_label
_atom_site_fract_x
_atom_site_fract_y
_atom_site_fract_z
Si Si1 0.436346 0.023512 0.870500
Si Si2 0.063668 0.878829 0.210358
Si Si3 0.936829 0.372311 0.485623
Si Si4 0.562571 0.802809 0.017014
Si Si5 0.936762 0.468928 0.385442
Si Si6 0.063537 0.197757 0.280687
O O1 0.250000 0.025591 0.874951
O O2 0.499426 0.073789 0.844579
O O3 0.485230 0.991281 0.750381
O O4 0.500000 0.000000 0.000000
O O5 0.250000 0.880753 0.208307
O O6 0.012588 0.872626 0.362272
O O7 0.007362 0.837266 0.121342
O O8 0.750000 0.371690 0.486775
O O9 0.989607 0.418273 0.414523
O O10 0.995419 0.331661 0.396911
O O11 0.750000 0.805109 0.023402
O O12 0.520040 0.750000 0.038622
O O13 0.515538 0.815576 0.867665
O O14 0.750000 0.468985 0.389086
O O15 0.000000 0.500000 0.500000
O O16 0.250000 0.194780 0.284477
O O17 0.020296 0.250000 0.297090
#
# Coordination Sequence:
#
# PCOD9452575 Si02
#       6
#     8   8   8   8   8   8
#     4  11  24  40  60  87 118 154 195 239 288 343
#     4  11  23  39  59  85 119 154 193 239 287 342
#     4  10  22  38  57  85 118 151 188 235 286 337
#     4   9  20  40  62  85 116 152 192 240 291 344
#     4  10  21  39  60  83 115 153 192 232 280 338
#     4   9  20  39  61  86 114 147 190 236 285 342
#
# _framework density 18.386203999999999
#
# number of rings (size 3 to 8) (size 9 to 14) (size 15 to 20)
#    0.000    2.000    1.667    2.000    2.333    4.667 
#    0.000    5.000    0.000    0.000    0.000    0.000 
#    0.000    0.000    0.000    0.000    0.000    0.000 
#
# Total GULP energy -267956.753678 kJ/mol
# GULP energy per Si atom -5582.432368 kJ/mol
# Density = 1.834436 g / cm^3
# Si number density = 18.386204 Si / 1000 Ang^3
#
#
#
# Elastic Constant Matrix: (Units=GPa)
#
#
# Indices 1 2 3 4 5 6 
#
# 1 22.6465 34.6487 42.9794 0.0000 0.0000 0.0000
# 2 34.6487 137.0369 116.8503 0.0000 0.0000 0.0000
# 3 42.9794 116.8503 195.9482 0.0000 0.0000 0.0000
# 4 0.0000 0.0000 0.0000 42.8413 0.0000 0.0000
# 5 0.0000 0.0000 0.0000 0.0000 31.2482 0.0000
# 6 0.0000 0.0000 0.0000 0.0000 0.0000 33.4455
#
#
#
# Elastic Compliance Matrix: (Units=1/GPa)
#
#
# Indices 1 2 3 4 5 6 
#
# 1 0.083251 -0.011147 -0.011613 0.000000 0.000000 0.000000
# 2 -0.011147 0.016339 -0.007299 0.000000 0.000000 0.000000
# 3 -0.011613 -0.007299 0.012003 0.000000 0.000000 0.000000
# 4 0.000000 0.000000 0.000000 0.023342 0.000000 0.000000
# 5 0.000000 0.000000 0.000000 0.000000 0.032002 0.000000
# 6 0.000000 0.000000 0.000000 0.000000 0.000000 0.029899
#
#
# Mechanical properties :
#
#
# Convention : Reuss Voigt Hill
#
# Bulk Modulus (GPa) = 19.42651 82.73206 51.07928
# Shear Modulus (GPa) = 18.24068 32.25055 25.24561
#
# Velocity S-wave (km/s) = 3.15316 4.19270 3.70952
# Velocity P-wave (km/s) = 4.88316 8.27845 6.79625
#
# Compressibility (1/GPa) = 0.05147605
#
# Stress axis : x y z
#
# Youngs Moduli (GPa) = 12.01184 61.20251 83.31257
#
# Poissons Ratio (x) = 0.68223 0.96751
# Poissons Ratio (y) = 0.13390 0.60807
# Poissons Ratio (z) = 0.13949 0.44669
#
# Static dielectric constant tensor:
#      x y z
#    x 1.626340 0.000000 0.000000 
#    y 0.000000 1.609010 0.000000 
#    z 0.000000 0.000000 1.606820 
# 
# From -- ./inp_files/6215.got.cif
#   From: 2010.05.17/outbox.cif.g08.bks.cpg/sg59_4_cif.got.tgz:6215.got - 2010.06.03 14:40:33.
