data_PCOD9452489
_publ_section_title
;
Structure prediction by ZEFSAII (Michael W. Deem and Ramdas Pophale) SiO2 
 PCOD9452489
Probable space group: P M M N
;
_chemical_formula_sum "Si O2"
_cell_formula_units_Z 64
_cell_length_a 14.661664
_cell_length_b 9.012988
_cell_length_c 24.401412
_cell_angle_alpha 90.000000
_cell_angle_beta 90.000000
_cell_angle_gamma 90.000000
_cell_volume 3224.534391
_symmetry_space_group_name_H-M "P M M N"
_symmetry_group_IT_number 59
_space_group.IT_coordinate_system_code '2'
_symmetry_cell_setting 'orthorhombic'
loop_
_space_group_symop_operation_xyz
x,y,z
1/2-x,1/2-y,z
1/2+x,-y,-z
-x,1/2+y,-z
-x,-y,-z
1/2+x,1/2+y,-z
1/2-x,y,z
x,1/2-y,z
loop_
_atom_site_type_symbol
_atom_site_label
_atom_site_fract_x
_atom_site_fract_y
_atom_site_fract_z
Si Si1 0.645582 0.585334 0.903919
Si Si2 0.473553 0.426920 0.300277
Si Si3 0.860915 0.422200 0.796015
Si Si4 0.403793 0.925617 0.988881
Si Si5 0.144056 0.071934 0.515440
Si Si6 0.356981 0.428552 0.754056
Si Si7 0.965236 0.072672 0.583525
Si Si8 0.359259 0.083604 0.878009
O O1 0.750000 0.605576 0.887177
O O2 0.603205 0.750000 0.909729
O O3 0.605723 0.488896 0.854396
O O4 0.650113 0.500874 0.961391
O O5 0.471990 0.250000 0.301319
O O6 0.406154 0.487825 0.253265
O O7 0.574244 0.487355 0.285277
O O8 0.447730 0.494359 0.358923
O O9 0.750000 0.427611 0.792755
O O10 0.887946 0.250000 0.792547
O O11 0.401742 0.750000 0.994199
O O12 0.378362 0.974671 0.927807
O O13 0.500000 0.000000 0.000000
O O14 0.250000 0.032944 0.527058
O O15 0.140771 0.250000 0.506168
O O16 0.068965 0.040062 0.562623
O O17 0.104210 0.988808 0.462277
O O18 0.250000 0.466566 0.746844
O O19 0.364742 0.250000 0.747289
O O20 0.386538 0.462378 0.816854
O O21 0.956340 0.250000 0.588428
O O22 0.250000 0.096195 0.874669
O O23 0.395567 0.250000 0.890309
#
# Coordination Sequence:
#
# PCOD9452489 Si02
#       8
#     8   8   8   8   8   8   8   8
#     4  10  21  39  61  83 110 143 182 233 295 361
#     4  12  25  39  60  89 126 166 203 252 303 349
#     4  10  22  41  64  88 115 153 202 251 302 363
#     4  12  25  37  53  79 111 145 185 235 289 351
#     4   9  19  38  64  92 124 162 201 246 300 352
#     4   9  20  40  64  87 115 155 201 248 302 362
#     4  10  21  38  60  90 125 162 207 249 292 351
#     4   9  19  38  61  82 107 141 182 233 294 358
#
# _framework density 19.847826999999999
#
# number of rings (size 3 to 8) (size 9 to 14) (size 15 to 20)
#    0.000    1.875    0.000    4.500    1.750    5.750 
#    0.000    2.500    0.000    0.000    0.000    0.000 
#    0.000    0.000    0.000    0.000    0.000    0.000 
#
# Total GULP energy -357277.169114 kJ/mol
# GULP energy per Si atom -5582.455767 kJ/mol
# Density = 1.980265 g / cm^3
# Si number density = 19.847827 Si / 1000 Ang^3
#
#
#
# Elastic Constant Matrix: (Units=GPa)
#
#
# Indices 1 2 3 4 5 6 
#
# 1 46.8374 4.3493 -18.0837 0.0000 0.0000 0.0000
# 2 4.3493 92.5142 35.4771 0.0000 0.0000 0.0000
# 3 -18.0837 35.4771 55.0382 0.0000 0.0000 0.0000
# 4 0.0000 0.0000 0.0000 34.6669 0.0000 0.0000
# 5 0.0000 0.0000 0.0000 0.0000 32.2716 0.0000
# 6 0.0000 0.0000 0.0000 0.0000 0.0000 24.8510
#
#
#
# Elastic Compliance Matrix: (Units=1/GPa)
#
#
# Indices 1 2 3 4 5 6 
#
# 1 0.026869 -0.006175 0.012809 0.000000 0.000000 0.000000
# 2 -0.006175 0.015777 -0.012199 0.000000 0.000000 0.000000
# 3 0.012809 -0.012199 0.030241 0.000000 0.000000 0.000000
# 4 0.000000 0.000000 0.000000 0.028846 0.000000 0.000000
# 5 0.000000 0.000000 0.000000 0.000000 0.030987 0.000000
# 6 0.000000 0.000000 0.000000 0.000000 0.000000 0.040240
#
#
# Mechanical properties :
#
#
# Convention : Reuss Voigt Hill
#
# Bulk Modulus (GPa) = 16.19243 26.43058 21.31150
# Shear Modulus (GPa) = 24.42878 29.86772 27.14825
#
# Velocity S-wave (km/s) = 3.51209 3.88343 3.70242
# Velocity P-wave (km/s) = 4.96209 5.78390 5.38869
#
# Compressibility (1/GPa) = 0.06175726
#
# Stress axis : x y z
#
# Youngs Moduli (GPa) = 37.21725 63.38160 33.06768
#
# Poissons Ratio (x) = 0.39138 -0.42355
# Poissons Ratio (y) = 0.22982 0.40339
# Poissons Ratio (z) = -0.47670 0.77319
#
# Static dielectric constant tensor:
#      x y z
#    x 1.707000 0.000000 0.000000 
#    y 0.000000 1.698830 0.000000 
#    z 0.000000 0.000000 1.797860 
# 
# From -- ./inp_files/32210.got.cif
#   From: 2010.05.17/outbox.cif.g08.bks.cpg/sg59_17_cif.got.tgz:32210.got - 2010.06.03 14:40:33.
