data_PCOD9452382
_publ_section_title
;
Structure prediction by ZEFSAII (Michael W. Deem and Ramdas Pophale) SiO2 
 PCOD9452382
Probable space group: P M M N
;
_chemical_formula_sum "Si O2"
_cell_formula_units_Z 56
_cell_length_a 9.150059
_cell_length_b 13.963576
_cell_length_c 24.036770
_cell_angle_alpha 90.000000
_cell_angle_beta 90.000000
_cell_angle_gamma 90.000000
_cell_volume 3071.119075
_symmetry_space_group_name_H-M "P M M N"
_symmetry_group_IT_number 59
_space_group.IT_coordinate_system_code '2'
_symmetry_cell_setting 'orthorhombic'
loop_
_space_group_symop_operation_xyz
x,y,z
1/2-x,1/2-y,z
1/2+x,-y,-z
-x,1/2+y,-z
-x,-y,-z
1/2+x,1/2+y,-z
1/2-x,y,z
x,1/2-y,z
loop_
_atom_site_type_symbol
_atom_site_label
_atom_site_fract_x
_atom_site_fract_y
_atom_site_fract_z
Si Si1 0.924685 0.527422 0.300985
Si Si2 0.925874 0.137364 0.800211
Si Si3 0.577056 0.863371 0.415321
Si Si4 0.421767 0.364026 0.358207
Si Si5 0.425213 0.539901 0.082892
Si Si6 0.416850 0.866572 0.526961
Si Si7 0.925837 0.140283 0.033264
O O1 0.750000 0.521692 0.295810
O O2 0.959623 0.585410 0.357730
O O3 0.993939 0.581878 0.249072
O O4 0.995332 0.423861 0.311256
O O5 0.750000 0.129022 0.793527
O O6 0.962355 0.250000 0.799383
O O7 0.965154 0.091078 0.859642
O O8 0.750000 0.874817 0.425774
O O9 0.548682 0.750000 0.408762
O O10 0.489746 0.898279 0.469345
O O11 0.250000 0.386490 0.358348
O O12 0.438990 0.250000 0.350777
O O13 0.492293 0.389872 0.417896
O O14 0.250000 0.527097 0.082335
O O15 0.501423 0.437878 0.073286
O O16 0.462516 0.606315 0.029668
O O17 0.250000 0.900026 0.532253
O O18 0.414847 0.750000 0.524721
O O19 0.750000 0.135795 0.038659
O O20 0.971696 0.250000 0.042488
#
# Coordination Sequence:
#
# PCOD9452382 Si02
#       7
#     8   8   8   8   8   8   8
#     4  11  23  37  55  79 106 137 176 223 271 317
#     4  10  21  38  59  81 108 144 183 221 263 315
#     4   9  18  33  51  73 104 138 169 206 258 318
#     4  10  21  38  58  77 100 133 173 218 269 326
#     4   9  18  33  54  81 112 147 187 226 266 315
#     4   9  17  30  51  78 104 131 167 212 262 317
#     4   9  17  31  53  82 116 150 183 223 270 316
#
# _framework density 18.234396
#
# number of rings (size 3 to 8) (size 9 to 14) (size 15 to 20)
#    0.000    2.429    0.000    2.143    0.000    7.714 
#    0.000    2.143    0.000    3.429    0.000    0.000 
#    0.000    0.000    0.000    0.000    0.000    0.000 
#
# Total GULP energy -312716.500335 kJ/mol
# GULP energy per Si atom -5584.223220 kJ/mol
# Density = 1.819289 g / cm^3
# Si number density = 18.234396 Si / 1000 Ang^3
#
#
#
# Elastic Constant Matrix: (Units=GPa)
#
#
# Indices 1 2 3 4 5 6 
#
# 1 57.6050 50.1007 63.2046 0.0000 0.0000 0.0000
# 2 50.1007 103.5934 64.7461 0.0000 0.0000 0.0000
# 3 63.2046 64.7461 124.7458 0.0000 0.0000 0.0000
# 4 0.0000 0.0000 0.0000 30.4575 0.0000 0.0000
# 5 0.0000 0.0000 0.0000 0.0000 31.7346 0.0000
# 6 0.0000 0.0000 0.0000 0.0000 0.0000 25.2078
#
#
#
# Elastic Compliance Matrix: (Units=1/GPa)
#
#
# Indices 1 2 3 4 5 6 
#
# 1 0.046933 -0.011598 -0.017760 0.000000 0.000000 0.000000
# 2 -0.011598 0.017154 -0.003027 0.000000 0.000000 0.000000
# 3 -0.017760 -0.003027 0.018586 0.000000 0.000000 0.000000
# 4 0.000000 0.000000 0.000000 0.032833 0.000000 0.000000
# 5 0.000000 0.000000 0.000000 0.000000 0.031511 0.000000
# 6 0.000000 0.000000 0.000000 0.000000 0.000000 0.039670
#
#
# Mechanical properties :
#
#
# Convention : Reuss Voigt Hill
#
# Bulk Modulus (GPa) = 55.85649 71.33853 63.59751
# Shear Modulus (GPa) = 19.42317 24.67283 22.04800
#
# Velocity S-wave (km/s) = 3.26727 3.68243 3.48105
# Velocity P-wave (km/s) = 6.70316 7.56891 7.14915
#
# Compressibility (1/GPa) = 0.01790302
#
# Stress axis : x y z
#
# Youngs Moduli (GPa) = 21.30699 58.29453 53.80509
#
# Poissons Ratio (x) = 0.67612 0.95556
# Poissons Ratio (y) = 0.24712 0.16287
# Poissons Ratio (z) = 0.37840 0.17646
#
# Static dielectric constant tensor:
#      x y z
#    x 1.610220 0.000000 0.000000 
#    y 0.000000 1.654120 0.000000 
#    z 0.000000 0.000000 1.591290 
# 
# From -- ./inp_files/29163.got.cif
#   From: 2010.05.17/outbox.cif.g08.bks.cpg/sg59_15_cif.got.tgz:29163.got - 2010.06.03 14:40:33.
