data_PCOD9452971
_publ_section_title
;
Structure prediction by ZEFSAII (Michael W. Deem and Ramdas Pophale) SiO2 
 PCOD9452971
Probable space group: P M M N
;
_chemical_formula_sum "Si O2"
_cell_formula_units_Z 64
_cell_length_a 8.676992
_cell_length_b 14.359703
_cell_length_c 32.790394
_cell_angle_alpha 90.000000
_cell_angle_beta 90.000000
_cell_angle_gamma 90.000000
_cell_volume 4085.651222
_symmetry_space_group_name_H-M "P M M N"
_symmetry_group_IT_number 59
_space_group.IT_coordinate_system_code '2'
_symmetry_cell_setting 'orthorhombic'
loop_
_space_group_symop_operation_xyz
x,y,z
1/2-x,1/2-y,z
1/2+x,-y,-z
-x,1/2+y,-z
-x,-y,-z
1/2+x,1/2+y,-z
1/2-x,y,z
x,1/2-y,z
loop_
_atom_site_type_symbol
_atom_site_label
_atom_site_fract_x
_atom_site_fract_y
_atom_site_fract_z
Si Si1 0.570181 0.637743 0.970124
Si Si2 0.564751 0.357397 0.358316
Si Si3 0.933018 0.465319 0.106464
Si Si4 0.061943 0.355857 0.938506
Si Si5 0.928002 0.863054 0.727499
Si Si6 0.936125 0.032143 0.437565
Si Si7 0.436214 0.142412 0.182991
Si Si8 0.564041 0.143145 0.519189
O O1 0.750000 0.609770 0.965860
O O2 0.565728 0.750000 0.967745
O O3 0.474559 0.594458 0.933577
O O4 0.514295 0.613697 0.015797
O O5 0.750000 0.355119 0.360000
O O6 0.510556 0.250000 0.363858
O O7 0.515319 0.390561 0.313467
O O8 0.510535 0.422838 0.395112
O O9 0.750000 0.465886 0.112247
O O10 0.986359 0.569559 0.094973
O O11 0.009483 0.420605 0.145973
O O12 0.250000 0.355000 0.939649
O O13 0.011104 0.250000 0.931222
O O14 0.750000 0.892096 0.723926
O O15 0.930511 0.750000 0.728772
O O16 0.989390 0.891092 0.772103
O O17 0.750000 0.027328 0.437127
O O18 0.980388 0.100692 0.474981
O O19 0.000542 0.930354 0.448066
O O20 0.250000 0.143621 0.184296
O O21 0.486691 0.250000 0.176591
O O22 0.750000 0.142642 0.520956
O O23 0.512029 0.250000 0.523826
#
# Coordination Sequence:
#
# PCOD9452971 Si02
#       8
#     8   8   8   8   8   8   8   8
#     4   9  17  30  46  60  80 114 144 162 193 246
#     4   9  16  26  42  64  89 115 140 170 212 255
#     4  11  20  27  42  67  87 105 135 176 211 236
#     4   8  16  31  46  59  79 109 142 171 202 243
#     4   8  15  28  44  61  82 110 142 171 200 242
#     4   9  17  28  42  62  87 115 147 180 215 257
#     4   9  18  32  46  60  85 119 143 159 194 253
#     4   9  17  29  43  59  84 118 152 184 216 250
#
# _framework density 15.664577
#
# number of rings (size 3 to 8) (size 9 to 14) (size 15 to 20)
#    0.000    3.000    0.000    3.000    0.000    4.750 
#    0.000    1.875    0.000    5.250    0.000    0.875 
#    0.000    3.000    0.000    0.000    0.000    0.000 
#
# Total GULP energy -356473.996250 kJ/mol
# GULP energy per Si atom -5569.906191 kJ/mol
# Density = 1.562892 g / cm^3
# Si number density = 15.664577 Si / 1000 Ang^3
#
#
#
# Elastic Constant Matrix: (Units=GPa)
#
#
# Indices 1 2 3 4 5 6 
#
# 1 6.6925 15.7881 20.2506 0.0000 0.0000 0.0000
# 2 15.7881 91.5723 72.6298 0.0000 0.0000 0.0000
# 3 20.2506 72.6298 142.0776 0.0000 0.0000 0.0000
# 4 0.0000 0.0000 0.0000 25.2067 0.0000 0.0000
# 5 0.0000 0.0000 0.0000 0.0000 24.0969 0.0000
# 6 0.0000 0.0000 0.0000 0.0000 0.0000 17.2868
#
#
#
# Elastic Compliance Matrix: (Units=1/GPa)
#
#
# Indices 1 2 3 4 5 6 
#
# 1 0.306428 -0.030596 -0.028035 0.000000 0.000000 0.000000
# 2 -0.030596 0.021422 -0.006590 0.000000 0.000000 0.000000
# 3 -0.028035 -0.006590 0.014403 0.000000 0.000000 0.000000
# 4 0.000000 0.000000 0.000000 0.039672 0.000000 0.000000
# 5 0.000000 0.000000 0.000000 0.000000 0.041499 0.000000
# 6 0.000000 0.000000 0.000000 0.000000 0.000000 0.057848
#
#
# Mechanical properties :
#
#
# Convention : Reuss Voigt Hill
#
# Bulk Modulus (GPa) = 4.72118 50.85327 27.78723
# Shear Modulus (GPa) = 7.32795 22.09634 14.71215
#
# Velocity S-wave (km/s) = 2.16522 3.75986 3.06796
# Velocity P-wave (km/s) = 3.04490 7.16820 5.50702
#
# Compressibility (1/GPa) = 0.21181133
#
# Stress axis : x y z
#
# Youngs Moduli (GPa) = 3.26340 46.68007 69.42913
#
# Poissons Ratio (x) = 1.42823 1.94645
# Poissons Ratio (y) = 0.09985 0.45755
# Poissons Ratio (z) = 0.09149 0.30763
#
# Static dielectric constant tensor:
#      x y z
#    x 1.537540 0.000000 0.000000 
#    y 0.000000 1.521590 0.000000 
#    z 0.000000 0.000000 1.525140 
# 
# From -- ./inp_files/33223.got.cif
#   From: 2010.05.17/outbox.cif.g08.bks.cpg/sg59_17_cif.got.tgz:33223.got - 2010.06.03 14:40:33.
