data_PCOD9452045
_publ_section_title
;
Structure prediction by ZEFSAII (Michael W. Deem and Ramdas Pophale) SiO2 
 PCOD9452045
Probable space group: P M M N
;
_chemical_formula_sum "Si O2"
_cell_formula_units_Z 64
_cell_length_a 15.033981
_cell_length_b 9.021695
_cell_length_c 25.079111
_cell_angle_alpha 90.000000
_cell_angle_beta 90.000000
_cell_angle_gamma 90.000000
_cell_volume 3401.529763
_symmetry_space_group_name_H-M "P M M N"
_symmetry_group_IT_number 59
_space_group.IT_coordinate_system_code '2'
_symmetry_cell_setting 'orthorhombic'
loop_
_space_group_symop_operation_xyz
x,y,z
1/2-x,1/2-y,z
1/2+x,-y,-z
-x,1/2+y,-z
-x,-y,-z
1/2+x,1/2+y,-z
1/2-x,y,z
x,1/2-y,z
loop_
_atom_site_type_symbol
_atom_site_label
_atom_site_fract_x
_atom_site_fract_y
_atom_site_fract_z
Si Si1 0.853939 0.071118 0.003515
Si Si2 0.354640 0.085048 0.394764
Si Si3 0.145494 0.927021 0.287707
Si Si4 0.504519 0.928459 0.080763
Si Si5 0.494229 0.428400 0.795536
Si Si6 0.355084 0.415709 0.610100
Si Si7 0.643689 0.425662 0.281895
Si Si8 0.904155 0.426427 0.498125
O O1 0.750000 0.024755 0.000951
O O2 0.854635 0.250000 0.008179
O O3 0.914435 0.032020 0.951777
O O4 0.910486 0.001796 0.052022
O O5 0.250000 0.101054 0.385315
O O6 0.393573 0.250000 0.403370
O O7 0.388638 0.007494 0.341223
O O8 0.361709 0.986654 0.447509
O O9 0.250000 0.962232 0.278282
O O10 0.140310 0.750000 0.296383
O O11 0.082897 0.965751 0.238061
O O12 0.513721 0.750000 0.077479
O O13 0.498592 0.970559 0.142631
O O14 0.483084 0.250000 0.792753
O O15 0.411741 0.505402 0.766314
O O16 0.250000 0.399988 0.618285
O O17 0.394216 0.250000 0.603625
O O18 0.387944 0.496977 0.663163
O O19 0.364636 0.510352 0.556597
O O20 0.750000 0.450340 0.275463
O O21 0.629399 0.250000 0.285641
O O22 0.904538 0.250000 0.497463
O O23 0.000000 0.500000 0.500000
#
# Coordination Sequence:
#
# PCOD9452045 Si02
#       8
#     8   8   8   8   8   8   8   8
#     4   9  18  34  57  83 114 152 191 233 280 329
#     4  10  21  38  58  79 106 140 178 223 278 339
#     4   9  19  36  57  81 109 144 186 230 279 338
#     4   9  19  35  54  82 116 150 190 233 281 335
#     4  10  21  36  57  83 114 150 188 235 284 332
#     4  10  21  39  61  82 107 139 177 226 283 342
#     4  10  22  39  58  81 110 148 192 234 281 340
#     4  12  25  38  55  80 109 140 178 226 279 340
#
# _framework density 18.815064
#
# number of rings (size 3 to 8) (size 9 to 14) (size 15 to 20)
#    0.000    2.125    0.000    2.625    1.750    6.000 
#    0.000    5.000    0.000    0.000    0.000    3.500 
#    0.000    0.000    0.000    0.000    0.000    0.000 
#
# Total GULP energy -357069.074447 kJ/mol
# GULP energy per Si atom -5579.204288 kJ/mol
# Density = 1.877224 g / cm^3
# Si number density = 18.815064 Si / 1000 Ang^3
#
#
#
# Elastic Constant Matrix: (Units=GPa)
#
#
# Indices 1 2 3 4 5 6 
#
# 1 100.3068 44.6664 63.8548 0.0000 0.0000 0.0000
# 2 44.6664 86.1267 72.2410 0.0000 0.0000 0.0000
# 3 63.8548 72.2410 185.4209 0.0000 0.0000 0.0000
# 4 0.0000 0.0000 0.0000 22.9498 0.0000 0.0000
# 5 0.0000 0.0000 0.0000 0.0000 21.9014 0.0000
# 6 0.0000 0.0000 0.0000 0.0000 0.0000 27.4384
#
#
#
# Elastic Compliance Matrix: (Units=1/GPa)
#
#
# Indices 1 2 3 4 5 6 
#
# 1 0.013974 -0.004769 -0.002954 0.000000 0.000000 0.000000
# 2 -0.004769 0.018875 -0.005711 0.000000 0.000000 0.000000
# 3 -0.002954 -0.005711 0.008636 0.000000 0.000000 0.000000
# 4 0.000000 0.000000 0.000000 0.043573 0.000000 0.000000
# 5 0.000000 0.000000 0.000000 0.000000 0.045659 0.000000
# 6 0.000000 0.000000 0.000000 0.000000 0.000000 0.036445
#
#
# Mechanical properties :
#
#
# Convention : Reuss Voigt Hill
#
# Bulk Modulus (GPa) = 68.42339 81.48653 74.95496
# Shear Modulus (GPa) = 25.13796 27.19740 26.16768
#
# Velocity S-wave (km/s) = 3.65917 3.80611 3.73337
# Velocity P-wave (km/s) = 7.36872 7.91950 7.64907
#
# Compressibility (1/GPa) = 0.01461488
#
# Stress axis : x y z
#
# Youngs Moduli (GPa) = 71.56315 52.98132 115.79926
#
# Poissons Ratio (x) = 0.25267 0.34209
# Poissons Ratio (y) = 0.34129 0.66136
# Poissons Ratio (z) = 0.21141 0.30259
#
# Static dielectric constant tensor:
#      x y z
#    x 1.625620 0.000000 0.000000 
#    y 0.000000 1.662440 0.000000 
#    z 0.000000 0.000000 1.691960 
# 
# From -- ./inp_files/32220.got.cif
#   From: 2010.05.17/outbox.cif.g08.bks.cpg/sg59_17_cif.got.tgz:32220.got - 2010.06.03 14:40:33.
