data_PCOD9452983
_publ_section_title
;
Structure prediction by ZEFSAII (Michael W. Deem and Ramdas Pophale) SiO2 
 PCOD9452983
Probable space group: P M M N
;
_chemical_formula_sum "Si O2"
_cell_formula_units_Z 64
_cell_length_a 14.809500
_cell_length_b 17.164105
_cell_length_c 16.466402
_cell_angle_alpha 90.000000
_cell_angle_beta 90.000000
_cell_angle_gamma 90.000000
_cell_volume 4185.624578
_symmetry_space_group_name_H-M "P M M N"
_symmetry_group_IT_number 59
_space_group.IT_coordinate_system_code '2'
_symmetry_cell_setting 'orthorhombic'
loop_
_space_group_symop_operation_xyz
x,y,z
1/2-x,1/2-y,z
1/2+x,-y,-z
-x,1/2+y,-z
-x,-y,-z
1/2+x,1/2+y,-z
1/2-x,y,z
x,1/2-y,z
loop_
_atom_site_type_symbol
_atom_site_label
_atom_site_fract_x
_atom_site_fract_y
_atom_site_fract_z
Si Si1 0.998186 0.955686 0.586284
Si Si2 0.357394 0.937394 0.820447
Si Si3 0.491155 0.438475 0.744681
Si Si4 0.355942 0.658709 0.655452
Si Si5 0.356414 0.159808 0.468479
Si Si6 0.650794 0.657341 0.344082
Si Si7 0.359061 0.837170 0.974625
Si Si8 0.642070 0.342752 0.836820
O O1 0.085262 0.900266 0.601021
O O2 0.913971 0.897161 0.585659
O O3 0.989234 0.013689 0.662139
O O4 0.000000 0.000000 0.500000
O O5 0.250000 0.960470 0.822922
O O6 0.364438 0.873753 0.747653
O O7 0.384153 0.898080 0.905557
O O8 0.428139 0.005357 0.799433
O O9 0.424750 0.370133 0.716304
O O10 0.578953 0.400125 0.785108
O O11 0.250000 0.653629 0.633811
O O12 0.382781 0.750000 0.649843
O O13 0.250000 0.155511 0.452470
O O14 0.384413 0.250000 0.460061
O O15 0.369734 0.135658 0.562734
O O16 0.750000 0.624422 0.323582
O O17 0.656525 0.750000 0.343880
O O18 0.250000 0.833724 0.972052
O O19 0.392941 0.750000 0.955485
O O20 0.381474 0.855319 0.067937
O O21 0.750000 0.356528 0.825991
O O22 0.626884 0.250000 0.819481
#
# Coordination Sequence:
#
# PCOD9452983 Si02
#       8
#     8   8   8   8   8   8   8   8
#     4  11  21  32  45  67  94 123 153 190 238 285
#     4   9  17  28  47  76 102 122 146 184 237 290
#     4  11  20  30  47  69  99 124 148 191 242 282
#     4   9  18  32  49  69  95 124 153 190 236 284
#     4   9  18  33  51  65  80 112 159 200 226 263
#     4   9  17  30  48  66  85 115 154 191 227 271
#     4   8  14  28  50  71  94 126 160 190 221 268
#     4   9  19  35  51  67  91 126 165 197 224 267
#
# _framework density 15.290430000000001
#
# number of rings (size 3 to 8) (size 9 to 14) (size 15 to 20)
#    0.000    2.625    1.250    3.000    0.000    3.500 
#    0.000    0.000    0.000    1.500    0.000    0.000 
#    0.000    1.000    0.000    0.500    0.000    0.000 
#
# Total GULP energy -356278.944866 kJ/mol
# GULP energy per Si atom -5566.858514 kJ/mol
# Density = 1.525563 g / cm^3
# Si number density = 15.290430 Si / 1000 Ang^3
#
#
#
# Elastic Constant Matrix: (Units=GPa)
#
#
# Indices 1 2 3 4 5 6 
#
# 1 69.8154 54.0182 50.4565 0.0000 0.0000 0.0000
# 2 54.0182 78.8552 55.8841 0.0000 0.0000 0.0000
# 3 50.4565 55.8841 79.9488 0.0000 0.0000 0.0000
# 4 0.0000 0.0000 0.0000 19.3352 0.0000 0.0000
# 5 0.0000 0.0000 0.0000 0.0000 21.2051 0.0000
# 6 0.0000 0.0000 0.0000 0.0000 0.0000 28.9471
#
#
#
# Elastic Compliance Matrix: (Units=1/GPa)
#
#
# Indices 1 2 3 4 5 6 
#
# 1 0.034320 -0.016171 -0.010356 0.000000 0.000000 0.000000
# 2 -0.016171 0.032750 -0.012687 0.000000 0.000000 0.000000
# 3 -0.010356 -0.012687 0.027912 0.000000 0.000000 0.000000
# 4 0.000000 0.000000 0.000000 0.051719 0.000000 0.000000
# 5 0.000000 0.000000 0.000000 0.000000 0.047159 0.000000
# 6 0.000000 0.000000 0.000000 0.000000 0.000000 0.034546
#
#
# Mechanical properties :
#
#
# Convention : Reuss Voigt Hill
#
# Bulk Modulus (GPa) = 60.40702 61.03742 60.72222
# Shear Modulus (GPa) = 16.00767 18.44817 17.22792
#
# Velocity S-wave (km/s) = 3.23911 3.47726 3.36030
# Velocity P-wave (km/s) = 7.31992 7.49181 7.40636
#
# Compressibility (1/GPa) = 0.01655437
#
# Stress axis : x y z
#
# Youngs Moduli (GPa) = 29.13767 30.53460 35.82704
#
# Poissons Ratio (x) = 0.49376 0.37104
# Poissons Ratio (y) = 0.47118 0.45452
# Poissons Ratio (z) = 0.30176 0.38738
#
# Static dielectric constant tensor:
#      x y z
#    x 1.502060 0.000000 0.000000 
#    y 0.000000 1.520900 0.000000 
#    z 0.000000 0.000000 1.503650 
# 
# From -- ./inp_files/23493.got.cif
#   From: 2010.05.17/outbox.cif.g08.bks.cpg/sg59_12_cif.got.tgz:23493.got - 2010.06.03 14:40:33.
