data_PCOD9452820
_publ_section_title
;
Structure prediction by ZEFSAII (Michael W. Deem and Ramdas Pophale) SiO2 
 PCOD9452820
Probable space group: P M M N
;
_chemical_formula_sum "Si O2"
_cell_formula_units_Z 48
_cell_length_a 7.944328
_cell_length_b 15.253217
_cell_length_c 19.725816
_cell_angle_alpha 90.000000
_cell_angle_beta 90.000000
_cell_angle_gamma 90.000000
_cell_volume 2390.306504
_symmetry_space_group_name_H-M "P M M N"
_symmetry_group_IT_number 59
_space_group.IT_coordinate_system_code '2'
_symmetry_cell_setting 'orthorhombic'
loop_
_space_group_symop_operation_xyz
x,y,z
1/2-x,1/2-y,z
1/2+x,-y,-z
-x,1/2+y,-z
-x,-y,-z
1/2+x,1/2+y,-z
1/2-x,y,z
x,1/2-y,z
loop_
_atom_site_type_symbol
_atom_site_label
_atom_site_fract_x
_atom_site_fract_y
_atom_site_fract_z
Si Si1 0.451965 0.034453 0.832191
Si Si2 0.546079 0.843816 0.885418
Si Si3 0.952245 0.904252 0.027502
Si Si4 0.439972 0.750000 0.394821
Si Si5 0.943116 0.750000 0.542545
Si Si6 0.049396 0.422317 0.682310
Si Si7 0.952246 0.944421 0.566978
O O1 0.250000 0.044126 0.831016
O O2 0.515967 0.094387 0.895100
O O3 0.515701 0.059881 0.758153
O O4 0.487170 0.932611 0.849532
O O5 0.750000 0.846950 0.885075
O O6 0.493309 0.750000 0.855311
O O7 0.489498 0.845943 0.964491
O O8 0.750000 0.894051 0.030955
O O9 0.000000 0.000000 0.000000
O O10 0.250000 0.750000 0.421238
O O11 0.555949 0.750000 0.460859
O O12 0.470226 0.663786 0.350761
O O13 0.750000 0.750000 0.567185
O O14 0.017836 0.844166 0.563698
O O15 0.250000 0.408436 0.685181
O O16 0.014218 0.503499 0.632622
O O17 0.750000 0.941176 0.568188
O O18 0.000000 0.000000 0.500000
#
# Coordination Sequence:
#
# PCOD9452820 Si02
#       7
#     8   8   8   4   4   8   8
#     4   9  19  35  54  76 106 148 186 223 275 332
#     4   9  17  30  51  79 107 139 181 231 280 329
#     4   8  14  28  49  73  98 131 176 219 265 320
#     4  12  24  38  62  88 112 147 188 231 286 347
#     4  10  22  40  62  86 116 147 188 239 286 337
#     4  11  23  40  59  84 118 152 189 234 286 341
#     4  11  22  38  62  89 116 152 192 235 284 335
#
# _framework density 20.081105999999998
#
# number of rings (size 3 to 8) (size 9 to 14) (size 15 to 20)
#    0.000    2.167    1.667    1.750    0.000    2.333 
#    3.000    0.000    0.000    0.000    0.000    0.000 
#    0.000    0.000    0.000    0.000    0.000    0.000 
#
# Total GULP energy -267570.451868 kJ/mol
# GULP energy per Si atom -5574.384414 kJ/mol
# Density = 2.003540 g / cm^3
# Si number density = 20.081106 Si / 1000 Ang^3
#
#
#
# Elastic Constant Matrix: (Units=GPa)
#
#
# Indices 1 2 3 4 5 6 
#
# 1 32.2027 -5.8152 -8.4099 0.0000 0.0000 0.0000
# 2 -5.8152 113.6578 23.3431 0.0000 0.0000 0.0000
# 3 -8.4099 23.3431 100.8210 0.0000 0.0000 0.0000
# 4 0.0000 0.0000 0.0000 14.5713 0.0000 0.0000
# 5 0.0000 0.0000 0.0000 0.0000 18.4332 0.0000
# 6 0.0000 0.0000 0.0000 0.0000 0.0000 20.5317
#
#
#
# Elastic Compliance Matrix: (Units=1/GPa)
#
#
# Indices 1 2 3 4 5 6 
#
# 1 0.031885 0.001139 0.002396 0.000000 0.000000 0.000000
# 2 0.001139 0.009278 -0.002053 0.000000 0.000000 0.000000
# 3 0.002396 -0.002053 0.010594 0.000000 0.000000 0.000000
# 4 0.000000 0.000000 0.000000 0.068628 0.000000 0.000000
# 5 0.000000 0.000000 0.000000 0.000000 0.054250 0.000000
# 6 0.000000 0.000000 0.000000 0.000000 0.000000 0.048705
#
#
# Mechanical properties :
#
#
# Convention : Reuss Voigt Hill
#
# Bulk Modulus (GPa) = 18.27459 29.43527 23.85493
# Shear Modulus (GPa) = 20.95417 26.54482 23.74949
#
# Velocity S-wave (km/s) = 3.23379 3.63971 3.44274
# Velocity P-wave (km/s) = 4.80243 5.68800 5.26387
#
# Compressibility (1/GPa) = 0.05472079
#
# Stress axis : x y z
#
# Youngs Moduli (GPa) = 31.36299 107.77817 94.39488
#
# Poissons Ratio (x) = -0.12279 -0.22616
# Poissons Ratio (y) = -0.03573 0.19381
# Poissons Ratio (z) = -0.07514 0.22129
#
# Static dielectric constant tensor:
#      x y z
#    x 1.743420 0.000000 0.000000 
#    y 0.000000 1.699540 0.000000 
#    z 0.000000 0.000000 1.716190 
# 
# From -- ./inp_files/25520.got.cif
#   From: 2010.05.17/outbox.cif.g08.bks.cpg/sg59_13_cif.got.tgz:25520.got - 2010.06.03 14:40:33.
