data_PCOD9452125
_publ_section_title
;
Structure prediction by ZEFSAII (Michael W. Deem and Ramdas Pophale) SiO2 
 PCOD9452125
Probable space group: P M M N
;
_chemical_formula_sum "Si O2"
_cell_formula_units_Z 64
_cell_length_a 21.613122
_cell_length_b 7.921571
_cell_length_c 17.244998
_cell_angle_alpha 90.000000
_cell_angle_beta 90.000000
_cell_angle_gamma 90.000000
_cell_volume 2952.514046
_symmetry_space_group_name_H-M "P M M N"
_symmetry_group_IT_number 59
_space_group.IT_coordinate_system_code '2'
_symmetry_cell_setting 'orthorhombic'
loop_
_space_group_symop_operation_xyz
x,y,z
1/2-x,1/2-y,z
1/2+x,-y,-z
-x,1/2+y,-z
-x,-y,-z
1/2+x,1/2+y,-z
1/2-x,y,z
x,1/2-y,z
loop_
_atom_site_type_symbol
_atom_site_label
_atom_site_fract_x
_atom_site_fract_y
_atom_site_fract_z
Si Si1 0.095497 0.443510 0.338341
Si Si2 0.427037 0.452570 0.080304
Si Si3 0.976970 0.942179 0.414782
Si Si4 0.681969 0.452156 0.530447
Si Si5 0.152150 0.943334 0.638601
Si Si6 0.181355 0.052053 0.808357
Si Si7 0.562398 0.954198 0.097456
Si Si8 0.678874 0.956737 0.804671
O O1 0.079335 0.250000 0.319681
O O2 0.132405 0.452771 0.418857
O O3 0.142368 0.508480 0.273056
O O4 0.033376 0.544230 0.354679
O O5 0.423550 0.250000 0.077457
O O6 0.492513 0.495933 0.120757
O O7 0.366219 0.511723 0.125678
O O8 0.429406 0.514393 0.991554
O O9 0.955874 0.750000 0.421263
O O10 0.920538 0.048564 0.381132
O O11 0.000000 0.000000 0.500000
O O12 0.750000 0.477831 0.564057
O O13 0.668178 0.250000 0.531387
O O14 0.681344 0.507054 0.441349
O O15 0.171702 0.750000 0.649906
O O16 0.169575 0.037774 0.716570
O O17 0.250000 0.980176 0.826338
O O18 0.183857 0.250000 0.829107
O O19 0.120329 0.982311 0.851710
O O20 0.563568 0.750000 0.098428
O O21 0.750000 0.014509 0.808412
O O22 0.680782 0.750000 0.804487
#
# Coordination Sequence:
#
# PCOD9452125 Si02
#       8
#     8   8   8   8   8   8   8   8
#     4  11  22  36  56  83 114 150 191 238 292 347
#     4   9  18  35  60  87 115 152 194 237 289 346
#     4  12  24  40  60  85 113 148 193 242 295 349
#     4  10  21  37  56  77 106 147 192 238 289 344
#     4  11  23  39  59  83 113 151 194 242 292 345
#     4  10  22  39  58  85 120 156 196 243 295 353
#     4   9  19  36  58  86 118 152 192 238 290 348
#     4   9  19  35  56  86 119 149 190 240 286 338
#
# _framework density 21.676442000000002
#
# number of rings (size 3 to 8) (size 9 to 14) (size 15 to 20)
#    0.000    1.875    1.250    2.625    1.750    3.000 
#    0.000    3.125    0.000    1.875    0.000    3.500 
#    0.000    0.000    0.000    0.000    0.000    0.000 
#
# Total GULP energy -357393.916975 kJ/mol
# GULP energy per Si atom -5584.279953 kJ/mol
# Density = 2.162711 g / cm^3
# Si number density = 21.676442 Si / 1000 Ang^3
#
#
#
# Elastic Constant Matrix: (Units=GPa)
#
#
# Indices 1 2 3 4 5 6 
#
# 1 150.3662 -0.5058 38.7684 0.0000 0.0000 0.0000
# 2 -0.5058 28.2835 -5.4777 0.0000 0.0000 0.0000
# 3 38.7684 -5.4777 54.7638 0.0000 0.0000 0.0000
# 4 0.0000 0.0000 0.0000 10.3723 0.0000 0.0000
# 5 0.0000 0.0000 0.0000 0.0000 25.6106 0.0000
# 6 0.0000 0.0000 0.0000 0.0000 0.0000 7.7895
#
#
#
# Elastic Compliance Matrix: (Units=1/GPa)
#
#
# Indices 1 2 3 4 5 6 
#
# 1 0.008163 -0.000992 -0.005878 0.000000 0.000000 0.000000
# 2 -0.000992 0.036175 0.004321 0.000000 0.000000 0.000000
# 3 -0.005878 0.004321 0.022853 0.000000 0.000000 0.000000
# 4 0.000000 0.000000 0.000000 0.096411 0.000000 0.000000
# 5 0.000000 0.000000 0.000000 0.000000 0.039046 0.000000
# 6 0.000000 0.000000 0.000000 0.000000 0.000000 0.128378
#
#
# Mechanical properties :
#
#
# Convention : Reuss Voigt Hill
#
# Bulk Modulus (GPa) = 16.10485 33.22038 24.66261
# Shear Modulus (GPa) = 14.01256 22.12971 18.07114
#
# Velocity S-wave (km/s) = 2.54528 3.19864 2.89048
# Velocity P-wave (km/s) = 4.01045 5.38521 4.74786
#
# Compressibility (1/GPa) = 0.06209309
#
# Stress axis : x y z
#
# Youngs Moduli (GPa) = 122.51130 27.64308 43.75720
#
# Poissons Ratio (x) = 0.02743 0.25719
# Poissons Ratio (y) = 0.12158 -0.18907
# Poissons Ratio (z) = 0.72008 -0.11944
#
# Static dielectric constant tensor:
#      x y z
#    x 1.816130 0.000000 0.000000 
#    y 0.000000 1.818160 0.000000 
#    z 0.000000 0.000000 1.779850 
# 
# From -- ./inp_files/28204.got.cif
#   From: 2010.05.17/outbox.cif.g08.bks.cpg/sg59_15_cif.got.tgz:28204.got - 2010.06.03 14:40:33.
