data_PCOD9452686
_publ_section_title
;
Structure prediction by ZEFSAII (Michael W. Deem and Ramdas Pophale) SiO2 
 PCOD9452686
Probable space group: P M M N
;
_chemical_formula_sum "Si O2"
_cell_formula_units_Z 56
_cell_length_a 32.028618
_cell_length_b 14.957561
_cell_length_c 5.655392
_cell_angle_alpha 90.000000
_cell_angle_beta 90.000000
_cell_angle_gamma 90.000000
_cell_volume 2709.328688
_symmetry_space_group_name_H-M "P M M N"
_symmetry_group_IT_number 59
_space_group.IT_coordinate_system_code '2'
_symmetry_cell_setting 'orthorhombic'
loop_
_space_group_symop_operation_xyz
x,y,z
1/2-x,1/2-y,z
1/2+x,-y,-z
-x,1/2+y,-z
-x,-y,-z
1/2+x,1/2+y,-z
1/2-x,y,z
x,1/2-y,z
loop_
_atom_site_type_symbol
_atom_site_label
_atom_site_fract_x
_atom_site_fract_y
_atom_site_fract_z
Si Si1 0.136797 0.146657 0.033682
Si Si2 0.952937 0.914840 0.053576
Si Si3 0.652925 0.351129 0.973518
Si Si4 0.422769 0.585041 0.752114
Si Si5 0.507567 0.854841 0.549058
Si Si6 0.859115 0.000057 0.590905
Si Si7 0.201460 0.489609 0.792778
O O1 0.148032 0.250000 0.058684
O O2 0.131730 0.091260 0.275291
O O3 0.090981 0.137512 0.919768
O O4 0.172422 0.088368 0.903160
O O5 0.978366 0.897884 0.298491
O O6 0.943481 0.020954 0.051242
O O7 0.971828 0.888052 0.797915
O O8 0.666318 0.250000 0.924295
O O9 0.640834 0.411373 0.749804
O O10 0.611069 0.350281 0.132336
O O11 0.686933 0.414634 0.101310
O O12 0.458443 0.628636 0.595178
O O13 0.394365 0.517501 0.601302
O O14 0.516435 0.750000 0.529686
O O15 0.813353 0.992842 0.477594
O O16 0.250000 0.474079 0.827046
#
# Coordination Sequence:
#
# PCOD9452686 Si02
#       7
#     8   8   8   8   8   8   8
#     4  11  23  42  68  94 131 174 222 280 340 409
#     4  12  24  44  65  96 134 185 233 283 347 405
#     4  10  22  41  68  98 131 172 221 272 337 408
#     4  11  23  42  65  92 133 181 225 278 340 401
#     4  12  27  41  63 100 138 183 239 291 338 402
#     4  10  21  42  66  98 130 173 224 271 347 404
#     4  10  23  44  67  94 132 169 214 274 345 418
#
# _framework density 20.669329000000001
#
# number of rings (size 3 to 8) (size 9 to 14) (size 15 to 20)
#    0.000    1.143    4.286    3.429    2.000    6.286 
#    0.000    0.000    0.000    0.000    0.000    0.000 
#    0.000    0.000    0.000    0.000    0.000    0.000 
#
# Total GULP energy -312564.552675 kJ/mol
# GULP energy per Si atom -5581.509869 kJ/mol
# Density = 2.062228 g / cm^3
# Si number density = 20.669329 Si / 1000 Ang^3
#
#
#
# Elastic Constant Matrix: (Units=GPa)
#
#
# Indices 1 2 3 4 5 6 
#
# 1 124.4268 23.5688 36.7353 0.0000 0.0000 0.0000
# 2 23.5688 143.6689 30.6180 0.0000 0.0000 0.0000
# 3 36.7353 30.6180 86.2572 0.0000 0.0000 0.0000
# 4 0.0000 0.0000 0.0000 -6.4302 0.0000 0.0000
# 5 0.0000 0.0000 0.0000 0.0000 14.5756 0.0000
# 6 0.0000 0.0000 0.0000 0.0000 0.0000 11.5216
#
#
#
# Elastic Compliance Matrix: (Units=1/GPa)
#
#
# Indices 1 2 3 4 5 6 
#
# 1 0.009264 -0.000734 -0.003685 0.000000 0.000000 0.000000
# 2 -0.000734 0.007588 -0.002381 0.000000 0.000000 0.000000
# 3 -0.003685 -0.002381 0.014007 0.000000 0.000000 0.000000
# 4 0.000000 0.000000 0.000000 -0.155516 0.000000 0.000000
# 5 0.000000 0.000000 0.000000 0.000000 0.068608 0.000000
# 6 0.000000 0.000000 0.000000 0.000000 0.000000 0.086793
#
#
# Mechanical properties :
#
#
# Convention : Reuss Voigt Hill
#
# Bulk Modulus (GPa) = 57.93739 59.57743 58.75741
# Shear Modulus (GPa) = 99.80454 21.49547 60.65000
#
# Velocity S-wave (km/s) = 6.95637 3.22835 5.42279
# Velocity P-wave (km/s) = 9.62356 6.54087 8.22788
#
# Compressibility (1/GPa) = 0.01726001
#
# Stress axis : x y z
#
# Youngs Moduli (GPa) = 107.94718 131.78158 71.39035
#
# Poissons Ratio (x) = 0.09679 0.26304
# Poissons Ratio (y) = 0.07929 0.16996
# Poissons Ratio (z) = 0.39774 0.31374
#
# Static dielectric constant tensor:
#      x y z
#    x 1.763370 0.000000 0.000000 
#    y 0.000000 1.720560 0.000000 
#    z 0.000000 0.000000 1.818170 
# 
# From -- ./inp_files/4561.got.cif
#   From: 2010.05.17/outbox.cif.g08.bks.cpg/sg59_3_cif.got.tgz:4561.got - 2010.06.03 14:40:33.
