data_PCOD9452856
_publ_section_title
;
Structure prediction by ZEFSAII (Michael W. Deem and Ramdas Pophale) SiO2 
 PCOD9452856
Probable space group: P M M N
;
_chemical_formula_sum "Si O2"
_cell_formula_units_Z 56
_cell_length_a 8.632765
_cell_length_b 15.778681
_cell_length_c 21.798078
_cell_angle_alpha 90.000000
_cell_angle_beta 90.000000
_cell_angle_gamma 90.000000
_cell_volume 2969.195660
_symmetry_space_group_name_H-M "P M M N"
_symmetry_group_IT_number 59
_space_group.IT_coordinate_system_code '2'
_symmetry_cell_setting 'orthorhombic'
loop_
_space_group_symop_operation_xyz
x,y,z
1/2-x,1/2-y,z
1/2+x,-y,-z
-x,1/2+y,-z
-x,-y,-z
1/2+x,1/2+y,-z
1/2-x,y,z
x,1/2-y,z
loop_
_atom_site_type_symbol
_atom_site_label
_atom_site_fract_x
_atom_site_fract_y
_atom_site_fract_z
Si Si1 0.064153 0.844644 0.879242
Si Si2 0.935662 0.496623 0.210629
Si Si3 0.434472 0.405025 0.993636
Si Si4 0.935618 0.154257 0.864137
Si Si5 0.936941 0.847568 0.421425
Si Si6 0.064293 0.495455 0.347066
Si Si7 0.938499 0.846033 0.562812
O O1 0.250000 0.852679 0.888363
O O2 0.032783 0.750000 0.855504
O O3 0.014622 0.918328 0.832771
O O4 0.983660 0.857181 0.944662
O O5 0.750000 0.497168 0.212348
O O6 0.993920 0.583164 0.179784
O O7 0.000020 0.487141 0.278766
O O8 0.250000 0.407811 0.987543
O O9 0.505887 0.363445 0.933009
O O10 0.500000 0.500000 0.000000
O O11 0.750000 0.147341 0.863203
O O12 0.979243 0.250000 0.846107
O O13 0.750000 0.853717 0.418274
O O14 0.978628 0.750000 0.406784
O O15 0.983925 0.863931 0.492323
O O16 0.010215 0.916661 0.377283
O O17 0.250000 0.493346 0.345276
O O18 0.008726 0.418050 0.390410
O O19 0.750000 0.845937 0.563449
O O20 0.988258 0.750000 0.578515
#
# Coordination Sequence:
#
# PCOD9452856 Si02
#       7
#     8   8   8   8   8   8   8
#     4  10  22  41  63  87 116 151 192 241 295 345
#     4  11  24  41  60  82 114 158 199 238 282 342
#     4  12  23  37  62  92 122 154 191 238 290 345
#     4  11  24  42  64  89 118 151 190 242 298 348
#     4   9  18  35  59  84 112 148 190 234 282 341
#     4  11  22  35  56  84 116 151 189 237 288 338
#     4   8  16  33  57  85 115 148 187 232 283 339
#
# _framework density 18.860325
#
# number of rings (size 3 to 8) (size 9 to 14) (size 15 to 20)
#    0.000    1.714    1.429    4.286    0.000    5.143 
#    0.000    0.714    0.000    3.000    0.000    0.000 
#    0.000    0.000    0.000    0.000    0.000    0.000 
#
# Total GULP energy -312924.925092 kJ/mol
# GULP energy per Si atom -5587.945091 kJ/mol
# Density = 1.881740 g / cm^3
# Si number density = 18.860325 Si / 1000 Ang^3
#
#
#
# Elastic Constant Matrix: (Units=GPa)
#
#
# Indices 1 2 3 4 5 6 
#
# 1 30.6105 14.4877 5.4801 0.0000 0.0000 0.0000
# 2 14.4877 76.4720 9.6745 0.0000 0.0000 0.0000
# 3 5.4801 9.6745 57.2836 0.0000 0.0000 0.0000
# 4 0.0000 0.0000 0.0000 -3.9869 0.0000 0.0000
# 5 0.0000 0.0000 0.0000 0.0000 3.7761 0.0000
# 6 0.0000 0.0000 0.0000 0.0000 0.0000 24.2030
#
#
#
# Elastic Compliance Matrix: (Units=1/GPa)
#
#
# Indices 1 2 3 4 5 6 
#
# 1 0.036194 -0.006559 -0.002355 0.000000 0.000000 0.000000
# 2 -0.006559 0.014551 -0.001830 0.000000 0.000000 0.000000
# 3 -0.002355 -0.001830 0.017991 0.000000 0.000000 0.000000
# 4 0.000000 0.000000 0.000000 -0.250824 0.000000 0.000000
# 5 0.000000 0.000000 0.000000 0.000000 0.264824 0.000000
# 6 0.000000 0.000000 0.000000 0.000000 0.000000 0.041317
#
#
# Mechanical properties :
#
#
# Convention : Reuss Voigt Hill
#
# Bulk Modulus (GPa) = 21.16461 24.85009 23.00735
# Shear Modulus (GPa) = 30.99976 13.78003 22.38989
#
# Velocity S-wave (km/s) = 4.05859 2.70596 3.44923
# Velocity P-wave (km/s) = 5.76273 4.79243 5.29983
#
# Compressibility (1/GPa) = 0.04724869
#
# Stress axis : x y z
#
# Youngs Moduli (GPa) = 27.62852 68.72454 55.58227
#
# Poissons Ratio (x) = 0.45078 0.13089
# Poissons Ratio (y) = 0.18122 0.10171
# Poissons Ratio (z) = 0.06506 0.12576
#
# Static dielectric constant tensor:
#      x y z
#    x 1.637670 0.000000 0.000000 
#    y 0.000000 1.649110 0.000000 
#    z 0.000000 0.000000 1.663320 
# 
# From -- ./inp_files/29010.got.cif
#   From: 2010.05.17/outbox.cif.g08.bks.cpg/sg59_15_cif.got.tgz:29010.got - 2010.06.03 14:40:33.
