data_PCOD9452448
_publ_section_title
;
Structure prediction by ZEFSAII (Michael W. Deem and Ramdas Pophale) SiO2 
 PCOD9452448
Probable space group: P M M N
;
_chemical_formula_sum "Si O2"
_cell_formula_units_Z 48
_cell_length_a 8.510992
_cell_length_b 14.822436
_cell_length_c 18.242939
_cell_angle_alpha 90.000000
_cell_angle_beta 90.000000
_cell_angle_gamma 90.000000
_cell_volume 2301.413054
_symmetry_space_group_name_H-M "P M M N"
_symmetry_group_IT_number 59
_space_group.IT_coordinate_system_code '2'
_symmetry_cell_setting 'orthorhombic'
loop_
_space_group_symop_operation_xyz
x,y,z
1/2-x,1/2-y,z
1/2+x,-y,-z
-x,1/2+y,-z
-x,-y,-z
1/2+x,1/2+y,-z
1/2-x,y,z
x,1/2-y,z
loop_
_atom_site_type_symbol
_atom_site_label
_atom_site_fract_x
_atom_site_fract_y
_atom_site_fract_z
Si Si1 0.438781 0.900748 0.979934
Si Si2 0.560156 0.453510 0.176562
Si Si3 0.431273 0.644373 0.532771
Si Si4 0.938490 0.654166 0.130210
Si Si5 0.066403 0.462470 0.331126
Si Si6 0.065391 0.353164 0.625547
O O1 0.250000 0.894962 0.985637
O O2 0.480850 0.892270 0.894099
O O3 0.515652 0.844107 0.044483
O O4 0.500000 0.000000 0.000000
O O5 0.750000 0.454956 0.181466
O O6 0.505743 0.557452 0.160970
O O7 0.489899 0.423965 0.253457
O O8 0.250000 0.627173 0.511774
O O9 0.445930 0.750000 0.552842
O O10 0.477958 0.583553 0.601056
O O11 0.536656 0.629451 0.460983
O O12 0.750000 0.651869 0.136762
O O13 0.993396 0.750000 0.163687
O O14 0.250000 0.448940 0.341091
O O15 0.024928 0.568650 0.332522
O O16 0.250000 0.359807 0.642750
O O17 0.013906 0.250000 0.639698
#
# Coordination Sequence:
#
# PCOD9452448 Si02
#       6
#     8   8   8   8   8   8
#     4   9  17  31  52  74  97 129 168 209 252 302
#     4   9  19  35  52  73 105 143 180 216 261 319
#     4  10  21  39  62  84 108 141 184 233 279 327
#     4   9  18  33  54  79 106 137 173 215 264 318
#     4  12  24  36  55  83 115 149 185 228 278 332
#     4  10  21  38  60  84 112 147 186 228 273 325
#
# _framework density 20.856750999999999
#
# number of rings (size 3 to 8) (size 9 to 14) (size 15 to 20)
#    0.000    2.167    0.000    4.500    0.000    6.333 
#    0.000    2.500    0.000    1.000    0.000    0.000 
#    0.000    0.000    0.000    0.000    0.000    0.000 
#
# Total GULP energy -267871.957512 kJ/mol
# GULP energy per Si atom -5580.665782 kJ/mol
# Density = 2.080928 g / cm^3
# Si number density = 20.856751 Si / 1000 Ang^3
#
#
#
# Elastic Constant Matrix: (Units=GPa)
#
#
# Indices 1 2 3 4 5 6 
#
# 1 14.3706 -1.5123 -9.0002 0.0000 0.0000 0.0000
# 2 -1.5123 25.0260 0.7813 0.0000 0.0000 0.0000
# 3 -9.0002 0.7813 65.4707 0.0000 0.0000 0.0000
# 4 0.0000 0.0000 0.0000 5.3745 0.0000 0.0000
# 5 0.0000 0.0000 0.0000 0.0000 29.6724 0.0000
# 6 0.0000 0.0000 0.0000 0.0000 0.0000 17.5604
#
#
#
# Elastic Compliance Matrix: (Units=1/GPa)
#
#
# Indices 1 2 3 4 5 6 
#
# 1 0.076602 0.004302 0.010479 0.000000 0.000000 0.000000
# 2 0.004302 0.040215 0.000111 0.000000 0.000000 0.000000
# 3 0.010479 0.000111 0.016713 0.000000 0.000000 0.000000
# 4 0.000000 0.000000 0.000000 0.186064 0.000000 0.000000
# 5 0.000000 0.000000 0.000000 0.000000 0.033701 0.000000
# 6 0.000000 0.000000 0.000000 0.000000 0.000000 0.056946
#
#
# Mechanical properties :
#
#
# Convention : Reuss Voigt Hill
#
# Bulk Modulus (GPa) = 6.12312 9.48943 7.80627
# Shear Modulus (GPa) = 11.49700 18.16136 14.82918
#
# Velocity S-wave (km/s) = 2.35039 2.95408 2.66935
# Velocity P-wave (km/s) = 3.21060 4.02432 3.64026
#
# Compressibility (1/GPa) = 0.16331546
#
# Stress axis : x y z
#
# Youngs Moduli (GPa) = 13.05441 24.86637 59.83283
#
# Poissons Ratio (x) = -0.10697 -0.62700
# Poissons Ratio (y) = -0.05616 -0.00667
# Poissons Ratio (z) = -0.13680 -0.00277
#
# Static dielectric constant tensor:
#      x y z
#    x 1.698400 0.000000 0.000000 
#    y 0.000000 1.776580 0.000000 
#    z 0.000000 0.000000 1.761220 
# 
# From -- ./inp_files/25499.got.cif
#   From: 2010.05.17/outbox.cif.g08.bks.cpg/sg59_13_cif.got.tgz:25499.got - 2010.06.03 14:40:33.
