data_PCOD9452241
_publ_section_title
;
Structure prediction by ZEFSAII (Michael W. Deem and Ramdas Pophale) SiO2 
 PCOD9452241
Probable space group: P M M N
;
_chemical_formula_sum "Si O2"
_cell_formula_units_Z 48
_cell_length_a 17.582722
_cell_length_b 7.856894
_cell_length_c 16.906064
_cell_angle_alpha 90.000000
_cell_angle_beta 90.000000
_cell_angle_gamma 90.000000
_cell_volume 2335.498067
_symmetry_space_group_name_H-M "P M M N"
_symmetry_group_IT_number 59
_space_group.IT_coordinate_system_code '2'
_symmetry_cell_setting 'orthorhombic'
loop_
_space_group_symop_operation_xyz
x,y,z
1/2-x,1/2-y,z
1/2+x,-y,-z
-x,1/2+y,-z
-x,-y,-z
1/2+x,1/2+y,-z
1/2-x,y,z
x,1/2-y,z
loop_
_atom_site_type_symbol
_atom_site_label
_atom_site_fract_x
_atom_site_fract_y
_atom_site_fract_z
Si Si1 0.420165 0.453117 0.954484
Si Si2 0.166284 0.453447 0.640499
Si Si3 0.605645 0.458157 0.698670
Si Si4 0.750000 0.453101 0.979397
Si Si5 0.913637 0.047023 0.520090
Si Si6 0.947387 0.958677 0.224251
Si Si7 0.750000 0.041453 0.799044
O O1 0.420329 0.250000 0.953558
O O2 0.429070 0.517108 0.864122
O O3 0.500000 0.500000 0.000000
O O4 0.334260 0.500408 0.984901
O O5 0.250000 0.525883 0.649297
O O6 0.169220 0.250000 0.651223
O O7 0.136380 0.483088 0.552387
O O8 0.111254 0.518537 0.708996
O O9 0.605734 0.250000 0.696118
O O10 0.606650 0.517414 0.607771
O O11 0.529734 0.510251 0.744158
O O12 0.676858 0.513136 0.749975
O O13 0.750000 0.250000 0.978870
O O14 0.750000 0.518337 0.889049
O O15 0.907031 0.250000 0.521987
O O16 0.000000 0.000000 0.500000
O O17 0.946333 0.750000 0.222860
O O18 0.750000 0.250000 0.801234
#
# Coordination Sequence:
#
# PCOD9452241 Si02
#       7
#     8   8   8   4   8   8   4
#     4  11  23  40  66  94 124 160 204 254 310 370
#     4  10  21  37  58  82 113 151 197 241 281 339
#     4   9  17  31  54  82 109 144 195 241 276 337
#     4  11  23  41  65  92 125 160 202 255 309 365
#     4  11  21  35  57  82 114 150 192 241 292 342
#     4   9  18  35  59  83 109 153 202 237 280 353
#     4   9  18  33  57  84 109 146 196 241 281 339
#
# _framework density 20.552361999999999
#
# number of rings (size 3 to 8) (size 9 to 14) (size 15 to 20)
#    0.000    2.000    1.667    2.250    2.333    3.000 
#    0.000    1.667    0.000    3.000    0.000    0.000 
#    0.000    0.000    0.000    0.000    0.000    0.000 
#
# Total GULP energy -267763.636981 kJ/mol
# GULP energy per Si atom -5578.409104 kJ/mol
# Density = 2.050558 g / cm^3
# Si number density = 20.552362 Si / 1000 Ang^3
#
#
#
# Elastic Constant Matrix: (Units=GPa)
#
#
# Indices 1 2 3 4 5 6 
#
# 1 236.0623 11.9653 142.2186 0.0000 0.0000 0.0000
# 2 11.9653 32.7515 6.9992 0.0000 0.0000 0.0000
# 3 142.2186 6.9992 231.1576 0.0000 0.0000 0.0000
# 4 0.0000 0.0000 0.0000 24.4912 0.0000 0.0000
# 5 0.0000 0.0000 0.0000 0.0000 12.1707 0.0000
# 6 0.0000 0.0000 0.0000 0.0000 0.0000 12.5511
#
#
#
# Elastic Compliance Matrix: (Units=1/GPa)
#
#
# Indices 1 2 3 4 5 6 
#
# 1 0.006814 -0.001604 -0.004144 0.000000 0.000000 0.000000
# 2 -0.001604 0.031109 0.000045 0.000000 0.000000 0.000000
# 3 -0.004144 0.000045 0.006874 0.000000 0.000000 0.000000
# 4 0.000000 0.000000 0.000000 0.040831 0.000000 0.000000
# 5 0.000000 0.000000 0.000000 0.000000 0.082164 0.000000
# 6 0.000000 0.000000 0.000000 0.000000 0.000000 0.079674
#
#
# Mechanical properties :
#
#
# Convention : Reuss Voigt Hill
#
# Bulk Modulus (GPa) = 29.94742 91.37086 60.65914
# Shear Modulus (GPa) = 18.51833 32.42850 25.47341
#
# Velocity S-wave (km/s) = 3.00498 3.97652 3.52439
# Velocity P-wave (km/s) = 5.16166 8.10171 6.79266
#
# Compressibility (1/GPa) = 0.03339186
#
# Stress axis : x y z
#
# Youngs Moduli (GPa) = 146.76023 32.14474 145.47488
#
# Poissons Ratio (x) = 0.05155 0.60279
# Poissons Ratio (y) = 0.23538 -0.00651
# Poissons Ratio (z) = 0.60812 -0.00144
#
# Static dielectric constant tensor:
#      x y z
#    x 1.653470 0.000000 0.000000 
#    y 0.000000 1.741490 0.000000 
#    z 0.000000 0.000000 1.740360 
# 
# From -- ./inp_files/23769.got.cif
#   From: 2010.05.17/outbox.cif.g08.bks.cpg/sg59_12_cif.got.tgz:23769.got - 2010.06.03 14:40:33.
