data_PCOD9452883
_publ_section_title
;
Structure prediction by ZEFSAII (Michael W. Deem and Ramdas Pophale) SiO2 
 PCOD9452883
Probable space group: P M M N
;
_chemical_formula_sum "Si O2"
_cell_formula_units_Z 32
_cell_length_a 8.143750
_cell_length_b 13.893101
_cell_length_c 13.442378
_cell_angle_alpha 90.000000
_cell_angle_beta 90.000000
_cell_angle_gamma 90.000000
_cell_volume 1520.896742
_symmetry_space_group_name_H-M "P M M N"
_symmetry_group_IT_number 59
_space_group.IT_coordinate_system_code '2'
_symmetry_cell_setting 'orthorhombic'
loop_
_space_group_symop_operation_xyz
x,y,z
1/2-x,1/2-y,z
1/2+x,-y,-z
-x,1/2+y,-z
-x,-y,-z
1/2+x,1/2+y,-z
1/2-x,y,z
x,1/2-y,z
loop_
_atom_site_type_symbol
_atom_site_label
_atom_site_fract_x
_atom_site_fract_y
_atom_site_fract_z
Si Si1 0.434144 0.750000 0.637017
Si Si2 0.562109 0.750000 0.847631
Si Si3 0.947969 0.642933 0.247199
Si Si4 0.946408 0.965003 0.891640
Si Si5 0.553404 0.606269 0.475755
O O1 0.250000 0.750000 0.677805
O O2 0.557044 0.750000 0.728385
O O3 0.465495 0.663463 0.562773
O O4 0.750000 0.750000 0.885786
O O5 0.489064 0.645010 0.876136
O O6 0.750000 0.643162 0.243571
O O7 0.003191 0.750000 0.210698
O O8 0.996124 0.633762 0.363390
O O9 0.002031 0.548427 0.186365
O O10 0.750000 0.959033 0.885411
O O11 0.000000 0.000000 0.000000
O O12 0.500000 0.500000 0.500000
O O13 0.750000 0.620775 0.482577
#
# Coordination Sequence:
#
# PCOD9452883 Si02
#       5
#     4   4   8   8   8
#     4  12  24  38  61  94 129 170 215 260 312 376
#     4  10  24  46  67  90 129 172 213 264 326 388
#     4  10  22  42  65  92 130 173 213 261 322 382
#     4  11  25  44  68  97 126 166 213 266 326 387
#     4  11  22  39  62  92 130 174 215 261 317 375
#
# _framework density 21.040219
#
# number of rings (size 3 to 8) (size 9 to 14) (size 15 to 20)
#    0.000    1.250    1.250    4.125    1.750    8.500 
#    0.000    0.000    0.000    0.000    0.000    0.000 
#    0.000    0.000    0.000    0.000    0.000    0.000 
#
# Total GULP energy -178611.098647 kJ/mol
# GULP energy per Si atom -5581.596833 kJ/mol
# Density = 2.099233 g / cm^3
# Si number density = 21.040219 Si / 1000 Ang^3
#
#
#
# Elastic Constant Matrix: (Units=GPa)
#
#
# Indices 1 2 3 4 5 6 
#
# 1 38.1438 10.2986 0.0483 0.0000 0.0000 0.0000
# 2 10.2986 225.0701 63.5269 0.0000 0.0000 0.0000
# 3 0.0483 63.5269 96.0719 0.0000 0.0000 0.0000
# 4 0.0000 0.0000 0.0000 32.4730 0.0000 0.0000
# 5 0.0000 0.0000 0.0000 0.0000 29.7157 0.0000
# 6 0.0000 0.0000 0.0000 0.0000 0.0000 21.1909
#
#
#
# Elastic Compliance Matrix: (Units=1/GPa)
#
#
# Indices 1 2 3 4 5 6 
#
# 1 0.026618 -0.001493 0.000974 0.000000 0.000000 0.000000
# 2 -0.001493 0.005546 -0.003667 0.000000 0.000000 0.000000
# 3 0.000974 -0.003667 0.012833 0.000000 0.000000 0.000000
# 4 0.000000 0.000000 0.000000 0.030795 0.000000 0.000000
# 5 0.000000 0.000000 0.000000 0.000000 0.033652 0.000000
# 6 0.000000 0.000000 0.000000 0.000000 0.000000 0.047190
#
#
# Mechanical properties :
#
#
# Convention : Reuss Voigt Hill
#
# Bulk Modulus (GPa) = 27.30295 56.33704 41.81999
# Shear Modulus (GPa) = 28.21430 35.70338 31.95884
#
# Velocity S-wave (km/s) = 3.66590 4.12383 3.90159
# Velocity P-wave (km/s) = 5.56086 7.03624 6.34160
#
# Compressibility (1/GPa) = 0.03662608
#
# Stress axis : x y z
#
# Youngs Moduli (GPa) = 37.56804 180.29994 77.92424
#
# Poissons Ratio (x) = 0.26916 -0.07588
# Poissons Ratio (y) = 0.05608 0.28573
# Poissons Ratio (z) = -0.03658 0.66111
#
# Static dielectric constant tensor:
#      x y z
#    x 1.905080 0.000000 0.000000 
#    y 0.000000 1.746450 0.000000 
#    z 0.000000 0.000000 1.712080 
# 
# From -- ./inp_files/13635.got.cif
#   From: 2010.05.17/outbox.cif.g08.bks.cpg/sg59_7_cif.got.tgz:13635.got - 2010.06.03 14:40:33.
