data_PCOD9452552
_publ_section_title
;
Structure prediction by ZEFSAII (Michael W. Deem and Ramdas Pophale) SiO2 
 PCOD9452552
Probable space group: P M M N
;
_chemical_formula_sum "Si O2"
_cell_formula_units_Z 34
_cell_length_a 7.656629
_cell_length_b 9.818772
_cell_length_c 20.102594
_cell_angle_alpha 90.000000
_cell_angle_beta 90.000000
_cell_angle_gamma 90.000000
_cell_volume 1511.286772
_symmetry_space_group_name_H-M "P M M N"
_symmetry_group_IT_number 59
_space_group.IT_coordinate_system_code '2'
_symmetry_cell_setting 'orthorhombic'
loop_
_space_group_symop_operation_xyz
x,y,z
1/2-x,1/2-y,z
1/2+x,-y,-z
-x,1/2+y,-z
-x,-y,-z
1/2+x,1/2+y,-z
1/2-x,y,z
x,1/2-y,z
loop_
_atom_site_type_symbol
_atom_site_label
_atom_site_fract_x
_atom_site_fract_y
_atom_site_fract_z
Si Si1 0.460174 0.906937 0.436099
Si Si2 0.948732 0.534969 0.924694
Si Si3 0.458191 0.095061 0.316108
Si Si4 0.958915 0.895763 0.199974
Si Si5 0.750000 0.250000 0.106555
O O1 0.250000 0.898253 0.430510
O O2 0.524882 0.750000 0.440635
O O3 0.500000 0.000000 0.500000
O O4 0.527704 0.992553 0.372656
O O5 0.750000 0.586473 0.923830
O O6 0.961161 0.410654 0.873138
O O7 0.096123 0.634533 0.897609
O O8 0.000000 0.500000 0.000000
O O9 0.250000 0.104886 0.326172
O O10 0.528196 0.250000 0.318687
O O11 0.488084 0.021828 0.245978
O O12 0.750000 0.895598 0.195484
O O13 0.014399 0.750000 0.230162
#
# Coordination Sequence:
#
# PCOD9452552 Si02
#       5
#     8   8   8   8   2
#     4  10  21  38  62  91 126 166 215 268 329 399
#     4  12  26  46  72 103 136 184 230 290 347 417
#     4  10  22  40  63  92 125 166 216 271 333 401
#     4  11  25  44  66  95 133 176 224 278 339 409
#     4  12  26  48  70 102 144 176 236 282 360 406
#
# _framework density 22.497385999999999
#
# number of rings (size 3 to 8) (size 9 to 14) (size 15 to 20)
#    0.000    1.176    2.353    2.471    3.294    5.647 
#    0.000    0.000    0.000    0.000    0.000    0.000 
#    0.000    0.000    0.000    0.000    0.000    0.000 
#
# Total GULP energy -189464.244458 kJ/mol
# GULP energy per Si atom -5572.477778 kJ/mol
# Density = 2.244618 g / cm^3
# Si number density = 22.497386 Si / 1000 Ang^3
#
#
#
# Elastic Constant Matrix: (Units=GPa)
#
#
# Indices 1 2 3 4 5 6 
#
# 1 126.5430 30.9734 -8.6867 0.0000 0.0000 0.0000
# 2 30.9734 215.0041 71.8989 0.0000 0.0000 0.0000
# 3 -8.6867 71.8989 133.8557 0.0000 0.0000 0.0000
# 4 0.0000 0.0000 0.0000 -16.2660 0.0000 0.0000
# 5 0.0000 0.0000 0.0000 0.0000 28.6775 0.0000
# 6 0.0000 0.0000 0.0000 0.0000 0.0000 126.5443
#
#
#
# Elastic Compliance Matrix: (Units=1/GPa)
#
#
# Indices 1 2 3 4 5 6 
#
# 1 0.008419 -0.001701 0.001460 0.000000 0.000000 0.000000
# 2 -0.001701 0.006013 -0.003340 0.000000 0.000000 0.000000
# 3 0.001460 -0.003340 0.009360 0.000000 0.000000 0.000000
# 4 0.000000 0.000000 0.000000 -0.061478 0.000000 0.000000
# 5 0.000000 0.000000 0.000000 0.000000 0.034871 0.000000
# 6 0.000000 0.000000 0.000000 0.000000 0.000000 0.007902
#
#
# Mechanical properties :
#
#
# Convention : Reuss Voigt Hill
#
# Bulk Modulus (GPa) = 60.13491 73.75268 66.94379
# Shear Modulus (GPa) = 281.01607 53.20565 167.11086
#
# Velocity S-wave (km/s) = 11.18846 4.86837 8.62794
# Velocity P-wave (km/s) = 13.91750 8.02841 11.36116
#
# Compressibility (1/GPa) = 0.01662928
#
# Stress axis : x y z
#
# Youngs Moduli (GPa) = 118.77816 166.30227 106.84135
#
# Poissons Ratio (x) = 0.28290 -0.15600
# Poissons Ratio (y) = 0.20205 0.35688
# Poissons Ratio (z) = -0.17343 0.55550
#
# Static dielectric constant tensor:
#      x y z
#    x 1.817190 0.000000 0.000000 
#    y 0.000000 1.861370 0.000000 
#    z 0.000000 0.000000 1.871700 
# 
# From -- ./inp_files/28598.got.cif
#   From: 2010.05.17/outbox.cif.g08.bks.cpg/sg59_15_cif.got.tgz:28598.got - 2010.06.03 14:40:33.
