data_PCOD9452995
_publ_section_title
;
Structure prediction by ZEFSAII (Michael W. Deem and Ramdas Pophale) SiO2 
 PCOD9452995
Probable space group: P M M N
;
_chemical_formula_sum "Si O2"
_cell_formula_units_Z 64
_cell_length_a 8.545730
_cell_length_b 21.756927
_cell_length_c 18.884558
_cell_angle_alpha 90.000000
_cell_angle_beta 90.000000
_cell_angle_gamma 90.000000
_cell_volume 3511.183656
_symmetry_space_group_name_H-M "P M M N"
_symmetry_group_IT_number 59
_space_group.IT_coordinate_system_code '2'
_symmetry_cell_setting 'orthorhombic'
loop_
_space_group_symop_operation_xyz
x,y,z
1/2-x,1/2-y,z
1/2+x,-y,-z
-x,1/2+y,-z
-x,-y,-z
1/2+x,1/2+y,-z
1/2-x,y,z
x,1/2-y,z
loop_
_atom_site_type_symbol
_atom_site_label
_atom_site_fract_x
_atom_site_fract_y
_atom_site_fract_z
Si Si1 0.559426 0.681458 0.604981
Si Si2 0.436082 0.317331 0.932802
Si Si3 0.440699 0.491864 0.282906
Si Si4 0.930010 0.082513 0.825739
Si Si5 0.938863 0.953497 0.559584
Si Si6 0.570116 0.487347 0.076493
Si Si7 0.438433 0.357076 0.236739
Si Si8 0.572579 0.158540 0.088355
O O1 0.750000 0.680871 0.603046
O O2 0.508699 0.750000 0.580891
O O3 0.509382 0.618923 0.563527
O O4 0.515725 0.673214 0.688163
O O5 0.250000 0.320105 0.934517
O O6 0.488984 0.250000 0.908858
O O7 0.493204 0.366728 0.875718
O O8 0.491950 0.324782 0.014055
O O9 0.250000 0.492947 0.278674
O O10 0.496929 0.555908 0.248195
O O11 0.483261 0.482250 0.364338
O O12 0.491511 0.428598 0.244119
O O13 0.750000 0.099845 0.816302
O O14 0.951305 0.020811 0.871549
O O15 0.750000 0.952227 0.555373
O O16 0.000000 0.000000 0.500000
O O17 0.750000 0.510805 0.083514
O O18 0.573901 0.415238 0.087429
O O19 0.500000 0.500000 0.000000
O O20 0.250000 0.356906 0.234078
O O21 0.497507 0.326274 0.164379
O O22 0.750000 0.180767 0.086178
#
# Coordination Sequence:
#
# PCOD9452995 Si02
#       8
#     8   8   8   8   8   8   8   8
#     4   8  15  29  51  77 104 140 181 213 247 299
#     4  11  25  41  53  66  90 129 174 220 269 317
#     4   8  16  30  50  76 103 131 161 197 250 305
#     4  11  20  33  55  76  95 125 164 212 260 306
#     4   9  17  32  54  81 112 141 171 210 251 301
#     4  11  21  31  47  73 101 130 165 209 258 305
#     4   9  16  29  49  72 102 135 169 208 247 298
#     4  11  22  33  48  72 102 134 169 212 259 307
#
# _framework density 18.227471999999999
#
# number of rings (size 3 to 8) (size 9 to 14) (size 15 to 20)
#    0.000    2.250    2.500    3.000    0.000    2.500 
#    0.000    5.000    0.000    1.875    0.000    3.500 
#    0.000    0.000    0.000    0.000    0.000    0.000 
#
# Total GULP energy -356321.130599 kJ/mol
# GULP energy per Si atom -5567.517666 kJ/mol
# Density = 1.818599 g / cm^3
# Si number density = 18.227472 Si / 1000 Ang^3
#
#
#
# Elastic Constant Matrix: (Units=GPa)
#
#
# Indices 1 2 3 4 5 6 
#
# 1 20.0225 18.6721 13.5521 0.0000 0.0000 0.0000
# 2 18.6721 136.0828 64.2698 0.0000 0.0000 0.0000
# 3 13.5521 64.2698 97.3497 0.0000 0.0000 0.0000
# 4 0.0000 0.0000 0.0000 8.3768 0.0000 0.0000
# 5 0.0000 0.0000 0.0000 0.0000 21.1196 0.0000
# 6 0.0000 0.0000 0.0000 0.0000 0.0000 12.3450
#
#
#
# Elastic Compliance Matrix: (Units=1/GPa)
#
#
# Indices 1 2 3 4 5 6 
#
# 1 0.058391 -0.006063 -0.004126 0.000000 0.000000 0.000000
# 2 -0.006063 0.011307 -0.006621 0.000000 0.000000 0.000000
# 3 -0.004126 -0.006621 0.015218 0.000000 0.000000 0.000000
# 4 0.000000 0.000000 0.000000 0.119378 0.000000 0.000000
# 5 0.000000 0.000000 0.000000 0.000000 0.047349 0.000000
# 6 0.000000 0.000000 0.000000 0.000000 0.000000 0.081004
#
#
# Mechanical properties :
#
#
# Convention : Reuss Voigt Hill
#
# Bulk Modulus (GPa) = 19.49479 49.60478 34.54979
# Shear Modulus (GPa) = 13.04238 18.83234 15.93736
#
# Velocity S-wave (km/s) = 2.67785 3.21781 2.96016
# Velocity P-wave (km/s) = 4.50329 6.40930 5.53890
#
# Compressibility (1/GPa) = 0.05129576
#
# Stress axis : x y z
#
# Youngs Moduli (GPa) = 17.12606 88.43722 65.71273
#
# Poissons Ratio (x) = 0.53623 0.27110
# Poissons Ratio (y) = 0.10384 0.43509
# Poissons Ratio (z) = 0.07065 0.58555
#
# Static dielectric constant tensor:
#      x y z
#    x 1.644210 0.000000 0.000000 
#    y 0.000000 1.673940 0.000000 
#    z 0.000000 0.000000 1.662610 
# 
# From -- ./inp_files/26505.got.cif
#   From: 2010.05.17/outbox.cif.g08.bks.cpg/sg59_14_cif.got.tgz:26505.got - 2010.06.03 14:40:33.
