data_PCOD9452992
_publ_section_title
;
Structure prediction by ZEFSAII (Michael W. Deem and Ramdas Pophale) SiO2 
 PCOD9452992
Probable space group: P M M N
;
_chemical_formula_sum "Si O2"
_cell_formula_units_Z 40
_cell_length_a 10.219994
_cell_length_b 23.125101
_cell_length_c 10.594200
_cell_angle_alpha 90.000000
_cell_angle_beta 90.000000
_cell_angle_gamma 90.000000
_cell_volume 2503.816208
_symmetry_space_group_name_H-M "P M M N"
_symmetry_group_IT_number 59
_space_group.IT_coordinate_system_code '2'
_symmetry_cell_setting 'orthorhombic'
loop_
_space_group_symop_operation_xyz
x,y,z
1/2-x,1/2-y,z
1/2+x,-y,-z
-x,1/2+y,-z
-x,-y,-z
1/2+x,1/2+y,-z
1/2-x,y,z
x,1/2-y,z
loop_
_atom_site_type_symbol
_atom_site_label
_atom_site_fract_x
_atom_site_fract_y
_atom_site_fract_z
Si Si1 0.970260 0.685609 0.478225
Si Si2 0.250000 0.058901 0.168782
Si Si3 0.895035 0.072105 0.504947
Si Si4 0.750000 0.682410 0.691819
Si Si5 0.515684 0.003236 0.279251
Si Si6 0.750000 0.683630 0.264553
Si Si7 0.250000 0.059398 0.867334
O O1 0.022045 0.750000 0.481143
O O2 0.875231 0.677202 0.598969
O O3 0.875567 0.679572 0.356969
O O4 0.083335 0.639355 0.477906
O O5 0.250000 0.125968 0.218199
O O6 0.380821 0.025607 0.217387
O O7 0.250000 0.057938 0.017838
O O8 0.750000 0.051452 0.533186
O O9 0.926249 0.055906 0.360994
O O10 0.987681 0.042135 0.607660
O O11 0.750000 0.750000 0.741046
O O12 0.622075 0.974002 0.187756
O O13 0.750000 0.750000 0.210567
O O14 0.750000 0.626769 0.177356
#
# Coordination Sequence:
#
# PCOD9452992 Si02
#       7
#     8   4   8   4   8   4   4
#     4   9  17  31  54  79 106 132 170 228 276 314
#     4  12  23  38  56  76 111 151 183 218 259 322
#     4  11  20  32  57  78 106 138 173 229 272 322
#     4   9  18  33  55  81 103 132 178 228 270 312
#     4  11  23  36  52  84 107 135 186 222 270 317
#     4   9  18  33  55  81 103 132 178 228 270 312
#     4  12  23  38  56  76 111 151 183 218 259 322
#
# _framework density 15.975612999999999
#
# number of rings (size 3 to 8) (size 9 to 14) (size 15 to 20)
#    0.000    1.600    6.000    1.800    0.000    0.800 
#    0.000    0.000    0.000    0.000    0.000    0.000 
#    0.000   12.800    0.000    0.000    0.000    0.000 
#
# Total GULP energy -222728.532609 kJ/mol
# GULP energy per Si atom -5568.213315 kJ/mol
# Density = 1.593925 g / cm^3
# Si number density = 15.975613 Si / 1000 Ang^3
#
#
#
# Elastic Constant Matrix: (Units=GPa)
#
#
# Indices 1 2 3 4 5 6 
#
# 1 54.9490 21.9940 20.1795 0.0000 0.0000 0.0000
# 2 21.9940 97.6471 42.2473 0.0000 0.0000 0.0000
# 3 20.1795 42.2473 89.3852 0.0000 0.0000 0.0000
# 4 0.0000 0.0000 0.0000 20.1821 0.0000 0.0000
# 5 0.0000 0.0000 0.0000 0.0000 20.0577 0.0000
# 6 0.0000 0.0000 0.0000 0.0000 0.0000 28.7337
#
#
#
# Elastic Compliance Matrix: (Units=1/GPa)
#
#
# Indices 1 2 3 4 5 6 
#
# 1 0.020663 -0.003313 -0.003099 0.000000 0.000000 0.000000
# 2 -0.003313 0.013405 -0.005588 0.000000 0.000000 0.000000
# 3 -0.003099 -0.005588 0.014528 0.000000 0.000000 0.000000
# 4 0.000000 0.000000 0.000000 0.049549 0.000000 0.000000
# 5 0.000000 0.000000 0.000000 0.000000 0.049856 0.000000
# 6 0.000000 0.000000 0.000000 0.000000 0.000000 0.034802
#
#
# Mechanical properties :
#
#
# Convention : Reuss Voigt Hill
#
# Bulk Modulus (GPa) = 40.65683 45.64697 43.15190
# Shear Modulus (GPa) = 23.25567 24.29875 23.77721
#
# Velocity S-wave (km/s) = 3.81950 3.90422 3.86209
# Velocity P-wave (km/s) = 6.70492 6.99706 6.85255
#
# Compressibility (1/GPa) = 0.02459611
#
# Stress axis : x y z
#
# Youngs Moduli (GPa) = 48.39589 74.60026 68.83226
#
# Poissons Ratio (x) = 0.24718 0.21330
# Poissons Ratio (y) = 0.16036 0.38461
# Poissons Ratio (z) = 0.14997 0.41684
#
# Static dielectric constant tensor:
#      x y z
#    x 1.525240 0.000000 0.000000 
#    y 0.000000 1.560180 0.000000 
#    z 0.000000 0.000000 1.504580 
# 
# From -- ./inp_files/7428.got.cif
#   From: 2010.05.17/outbox.cif.g08.bks.cpg/sg59_4_cif.got.tgz:7428.got - 2010.06.03 14:40:33.
