data_PCOD9452646
_publ_section_title
;
Structure prediction by ZEFSAII (Michael W. Deem and Ramdas Pophale) SiO2 
 PCOD9452646
Probable space group: P M M N
;
_chemical_formula_sum "Si O2"
_cell_formula_units_Z 32
_cell_length_a 26.218994
_cell_length_b 10.694004
_cell_length_c 4.953402
_cell_angle_alpha 90.000000
_cell_angle_beta 90.000000
_cell_angle_gamma 90.000000
_cell_volume 1388.864705
_symmetry_space_group_name_H-M "P M M N"
_symmetry_group_IT_number 59
_space_group.IT_coordinate_system_code '2'
_symmetry_cell_setting 'orthorhombic'
loop_
_space_group_symop_operation_xyz
x,y,z
1/2-x,1/2-y,z
1/2+x,-y,-z
-x,1/2+y,-z
-x,-y,-z
1/2+x,1/2+y,-z
1/2-x,y,z
x,1/2-y,z
loop_
_atom_site_type_symbol
_atom_site_label
_atom_site_fract_x
_atom_site_fract_y
_atom_site_fract_z
Si Si1 0.891157 0.460045 0.099840
Si Si2 0.458340 0.600815 0.398199
Si Si3 0.192215 0.112251 0.681049
Si Si4 0.306379 0.880729 0.278994
O O1 0.913304 0.410294 0.380228
O O2 0.858650 0.587798 0.142079
O O3 0.937066 0.451287 0.885682
O O4 0.847491 0.381464 0.954347
O O5 0.500000 0.500000 0.500000
O O6 0.472730 0.750000 0.377032
O O7 0.250000 0.106480 0.804899
O O8 0.188567 0.250000 0.558143
O O9 0.189553 0.001589 0.464954
O O10 0.250000 0.882968 0.158184
O O11 0.310999 0.750000 0.435731
#
# Coordination Sequence:
#
# PCOD9452646 Si02
#       4
#     8   8   8   8
#     4  12  24  45  74 103 142 185 232 284 353 419
#     4  12  28  49  75 103 138 180 235 301 363 424
#     4  10  23  43  69 106 151 194 236 284 341 414
#     4  10  21  39  68 106 146 186 230 280 340 417
#
# _framework density 23.040400000000002
#
# number of rings (size 3 to 8) (size 9 to 14) (size 15 to 20)
#    0.000    1.000    2.500    3.750    0.000    5.000 
#    0.000    5.000    0.000    0.000    0.000    0.000 
#    0.000    0.000    0.000    0.000    0.000    0.000 
#
# Total GULP energy -178449.274571 kJ/mol
# GULP energy per Si atom -5576.539830 kJ/mol
# Density = 2.298796 g / cm^3
# Si number density = 23.040400 Si / 1000 Ang^3
#
#
#
# Elastic Constant Matrix: (Units=GPa)
#
#
# Indices 1 2 3 4 5 6 
#
# 1 103.8605 51.3301 4.5852 0.0000 0.0000 0.0000
# 2 51.3301 209.9331 29.2328 0.0000 0.0000 0.0000
# 3 4.5852 29.2328 66.5429 0.0000 0.0000 0.0000
# 4 0.0000 0.0000 0.0000 22.4868 0.0000 0.0000
# 5 0.0000 0.0000 0.0000 0.0000 27.3531 0.0000
# 6 0.0000 0.0000 0.0000 0.0000 0.0000 84.5649
#
#
#
# Elastic Compliance Matrix: (Units=1/GPa)
#
#
# Indices 1 2 3 4 5 6 
#
# 1 0.010964 -0.002743 0.000450 0.000000 0.000000 0.000000
# 2 -0.002743 0.005760 -0.002341 0.000000 0.000000 0.000000
# 3 0.000450 -0.002341 0.016026 0.000000 0.000000 0.000000
# 4 0.000000 0.000000 0.000000 0.044471 0.000000 0.000000
# 5 0.000000 0.000000 0.000000 0.000000 0.036559 0.000000
# 6 0.000000 0.000000 0.000000 0.000000 0.000000 0.011825
#
#
# Mechanical properties :
#
#
# Convention : Reuss Voigt Hill
#
# Bulk Modulus (GPa) = 42.59004 61.18142 51.88573
# Shear Modulus (GPa) = 35.03806 46.56018 40.79912
#
# Velocity S-wave (km/s) = 3.90388 4.50021 4.21261
# Velocity P-wave (km/s) = 6.23261 7.32217 6.79925
#
# Compressibility (1/GPa) = 0.02347967
#
# Stress axis : x y z
#
# Youngs Moduli (GPa) = 91.20477 173.60288 62.40036
#
# Poissons Ratio (x) = 0.47628 -0.02806
# Poissons Ratio (y) = 0.25022 0.14611
# Poissons Ratio (z) = -0.04102 0.40649
#
# Static dielectric constant tensor:
#      x y z
#    x 1.956240 0.000000 0.000000 
#    y 0.000000 1.886500 0.000000 
#    z 0.000000 0.000000 1.892740 
# 
# From -- ./inp_files/4428.got.cif
#   From: 2010.05.17/outbox.cif.g08.bks.cpg/sg59_3_cif.got.tgz:4428.got - 2010.06.03 14:40:33.
