data_PCOD9452477
_publ_section_title
;
Structure prediction by ZEFSAII (Michael W. Deem and Ramdas Pophale) SiO2 
 PCOD9452477
Probable space group: P M M N
;
_chemical_formula_sum "Si O2"
_cell_formula_units_Z 48
_cell_length_a 8.698756
_cell_length_b 29.007579
_cell_length_c 10.220880
_cell_angle_alpha 90.000000
_cell_angle_beta 90.000000
_cell_angle_gamma 90.000000
_cell_volume 2579.033136
_symmetry_space_group_name_H-M "P M M N"
_symmetry_group_IT_number 59
_space_group.IT_coordinate_system_code '2'
_symmetry_cell_setting 'orthorhombic'
loop_
_space_group_symop_operation_xyz
x,y,z
1/2-x,1/2-y,z
1/2+x,-y,-z
-x,1/2+y,-z
-x,-y,-z
1/2+x,1/2+y,-z
1/2-x,y,z
x,1/2-y,z
loop_
_atom_site_type_symbol
_atom_site_label
_atom_site_fract_x
_atom_site_fract_y
_atom_site_fract_z
Si Si1 0.934582 0.982751 0.637093
Si Si2 0.564013 0.621826 0.716569
Si Si3 0.933354 0.967068 0.112331
Si Si4 0.937341 0.696977 0.502434
Si Si5 0.429663 0.194754 0.792799
Si Si6 0.931513 0.372909 0.993398
O O1 0.750000 0.985234 0.636642
O O2 0.977719 0.929575 0.668036
O O3 0.000000 0.000000 0.500000
O O4 0.000854 0.014750 0.751353
O O5 0.750000 0.623519 0.726214
O O6 0.514142 0.660607 0.612140
O O7 0.495134 0.630531 0.859470
O O8 0.750000 0.969469 0.112681
O O9 0.987876 0.916011 0.077303
O O10 0.000000 0.000000 0.000000
O O11 0.750000 0.697531 0.501497
O O12 0.986651 0.750000 0.526964
O O13 0.982672 0.682772 0.354901
O O14 0.250000 0.180951 0.806482
O O15 0.435850 0.250000 0.801584
O O16 0.526312 0.171033 0.905706
O O17 0.750000 0.380544 0.997734
#
# Coordination Sequence:
#
# PCOD9452477 Si02
#       6
#     8   8   8   8   8   8
#     4  11  24  40  60  90 125 162 203 249 301 360
#     4  10  21  38  60  87 119 158 201 248 299 355
#     4  12  24  42  65  88 119 159 204 253 305 363
#     4   8  16  34  61  90 116 147 193 245 297 353
#     4   9  19  38  64  91 119 155 200 250 303 360
#     4  12  25  39  59  89 123 162 202 247 305 364
#
# _framework density 18.611625
#
# number of rings (size 3 to 8) (size 9 to 14) (size 15 to 20)
#    0.000    1.667    1.667    4.500    2.333    1.667 
#    0.000    2.500    0.000    1.000    0.000    0.000 
#    0.000    0.000    0.000    0.000    0.000    0.000 
#
# Total GULP energy -268190.979790 kJ/mol
# GULP energy per Si atom -5587.312079 kJ/mol
# Density = 1.856926 g / cm^3
# Si number density = 18.611625 Si / 1000 Ang^3
#
#
#
# Elastic Constant Matrix: (Units=GPa)
#
#
# Indices 1 2 3 4 5 6 
#
# 1 67.5189 32.1269 53.7004 0.0000 0.0000 0.0000
# 2 32.1269 73.0608 79.0330 0.0000 0.0000 0.0000
# 3 53.7004 79.0330 193.9627 0.0000 0.0000 0.0000
# 4 0.0000 0.0000 0.0000 39.9442 0.0000 0.0000
# 5 0.0000 0.0000 0.0000 0.0000 30.2166 0.0000
# 6 0.0000 0.0000 0.0000 0.0000 0.0000 23.1610
#
#
#
# Elastic Compliance Matrix: (Units=1/GPa)
#
#
# Indices 1 2 3 4 5 6 
#
# 1 0.019967 -0.005007 -0.003488 0.000000 0.000000 0.000000
# 2 -0.005007 0.025731 -0.009098 0.000000 0.000000 0.000000
# 3 -0.003488 -0.009098 0.009828 0.000000 0.000000 0.000000
# 4 0.000000 0.000000 0.000000 0.025035 0.000000 0.000000
# 5 0.000000 0.000000 0.000000 0.000000 0.033094 0.000000
# 6 0.000000 0.000000 0.000000 0.000000 0.000000 0.043176
#
#
# Mechanical properties :
#
#
# Convention : Reuss Voigt Hill
#
# Bulk Modulus (GPa) = 49.16378 73.80700 61.48539
# Shear Modulus (GPa) = 25.15113 29.97651 27.56382
#
# Velocity S-wave (km/s) = 3.68008 4.01762 3.85255
# Velocity P-wave (km/s) = 6.67310 7.82715 7.27305
#
# Compressibility (1/GPa) = 0.02034018
#
# Stress axis : x y z
#
# Youngs Moduli (GPa) = 50.08216 38.86379 101.74540
#
# Poissons Ratio (x) = 0.19460 0.35487
# Poissons Ratio (y) = 0.25077 0.92570
# Poissons Ratio (z) = 0.17468 0.35359
#
# Static dielectric constant tensor:
#      x y z
#    x 1.628280 0.000000 0.000000 
#    y 0.000000 1.627320 0.000000 
#    z 0.000000 0.000000 1.605570 
# 
# From -- ./inp_files/6310.got.cif
#   From: 2010.05.17/outbox.cif.g08.bks.cpg/sg59_4_cif.got.tgz:6310.got - 2010.06.03 14:40:33.
