data_PCOD9452921
_publ_section_title
;
Structure prediction by ZEFSAII (Michael W. Deem and Ramdas Pophale) SiO2 
 PCOD9452921
Probable space group: P M M N
;
_chemical_formula_sum "Si O2"
_cell_formula_units_Z 48
_cell_length_a 22.437459
_cell_length_b 15.513623
_cell_length_c 7.166049
_cell_angle_alpha 90.000000
_cell_angle_beta 90.000000
_cell_angle_gamma 90.000000
_cell_volume 2494.403339
_symmetry_space_group_name_H-M "P M M N"
_symmetry_group_IT_number 59
_space_group.IT_coordinate_system_code '2'
_symmetry_cell_setting 'orthorhombic'
loop_
_space_group_symop_operation_xyz
x,y,z
1/2-x,1/2-y,z
1/2+x,-y,-z
-x,1/2+y,-z
-x,-y,-z
1/2+x,1/2+y,-z
1/2-x,y,z
x,1/2-y,z
loop_
_atom_site_type_symbol
_atom_site_label
_atom_site_fract_x
_atom_site_fract_y
_atom_site_fract_z
Si Si1 0.621747 0.050302 0.692484
Si Si2 0.408947 0.153184 0.750673
Si Si3 0.678148 0.151181 0.033057
Si Si4 0.519195 0.149736 0.470070
Si Si5 0.319170 0.998294 0.676400
Si Si6 0.964052 0.575285 0.895561
O O1 0.568915 0.094381 0.574386
O O2 0.670170 0.022419 0.540580
O O3 0.592747 0.969016 0.797371
O O4 0.647521 0.114917 0.846880
O O5 0.384476 0.250000 0.734966
O O6 0.458525 0.141126 0.590192
O O7 0.360359 0.078532 0.731434
O O8 0.442258 0.141259 0.947845
O O9 0.750000 0.149744 0.009799
O O10 0.660286 0.250000 0.070921
O O11 0.663669 0.085570 0.200910
O O12 0.536165 0.250000 0.467639
O O13 0.505065 0.116256 0.263657
O O14 0.250000 0.016729 0.712960
O O15 0.000000 0.500000 0.000000
#
# Coordination Sequence:
#
# PCOD9452921 Si02
#       6
#     8   8   8   8   8   8
#     4  12  22  39  64  92 126 163 204 256 317 377
#     4  11  23  42  65  93 128 170 211 258 314 372
#     4  10  23  42  63  90 125 165 212 263 314 375
#     4  11  24  39  61  96 131 163 205 255 316 382
#     4  11  24  43  66  91 123 168 215 263 313 366
#     4  12  22  39  62  91 127 165 205 253 311 377
#
# _framework density 19.243078000000001
#
# number of rings (size 3 to 8) (size 9 to 14) (size 15 to 20)
#    0.000    0.833    5.000    3.000    0.000    1.667 
#    0.000    1.667    0.000    0.000    0.000    0.000 
#    0.000    0.000    0.000    0.000    0.000    0.000 
#
# Total GULP energy -268521.771218 kJ/mol
# GULP energy per Si atom -5594.203567 kJ/mol
# Density = 1.919928 g / cm^3
# Si number density = 19.243078 Si / 1000 Ang^3
#
#
#
# Elastic Constant Matrix: (Units=GPa)
#
#
# Indices 1 2 3 4 5 6 
#
# 1 35.2897 15.8758 8.2030 0.0000 0.0000 0.0000
# 2 15.8758 80.2222 16.2097 0.0000 0.0000 0.0000
# 3 8.2030 16.2097 100.2085 0.0000 0.0000 0.0000
# 4 0.0000 0.0000 0.0000 25.4319 0.0000 0.0000
# 5 0.0000 0.0000 0.0000 0.0000 36.2768 0.0000
# 6 0.0000 0.0000 0.0000 0.0000 0.0000 33.1275
#
#
#
# Elastic Compliance Matrix: (Units=1/GPa)
#
#
# Indices 1 2 3 4 5 6 
#
# 1 0.031357 -0.005879 -0.001616 0.000000 0.000000 0.000000
# 2 -0.005879 0.013989 -0.001782 0.000000 0.000000 0.000000
# 3 -0.001616 -0.001782 0.010400 0.000000 0.000000 0.000000
# 4 0.000000 0.000000 0.000000 0.039321 0.000000 0.000000
# 5 0.000000 0.000000 0.000000 0.000000 0.027566 0.000000
# 6 0.000000 0.000000 0.000000 0.000000 0.000000 0.030186
#
#
# Mechanical properties :
#
#
# Convention : Reuss Voigt Hill
#
# Bulk Modulus (GPa) = 26.88694 32.92193 29.90443
# Shear Modulus (GPa) = 27.20804 30.66271 28.93538
#
# Velocity S-wave (km/s) = 3.76428 3.99612 3.88193
# Velocity P-wave (km/s) = 5.73548 6.19981 5.97216
#
# Compressibility (1/GPa) = 0.03719278
#
# Stress axis : x y z
#
# Youngs Moduli (GPa) = 31.89049 71.48574 96.15705
#
# Poissons Ratio (x) = 0.42027 0.15538
# Poissons Ratio (y) = 0.18749 0.17131
# Poissons Ratio (z) = 0.05153 0.12736
#
# Static dielectric constant tensor:
#      x y z
#    x 1.660240 0.000000 0.000000 
#    y 0.000000 1.659260 0.000000 
#    z 0.000000 0.000000 1.657370 
# 
# From -- ./inp_files/3805.got.cif
#   From: 2010.05.17/outbox.cif.g08.bks.cpg/sg59_2_cif.got.tgz:3805.got - 2010.06.03 14:40:33.
