data_PCOD9452861
_publ_section_title
;
Structure prediction by ZEFSAII (Michael W. Deem and Ramdas Pophale) SiO2 
 PCOD9452861
Probable space group: P M M N
;
_chemical_formula_sum "Si O2"
_cell_formula_units_Z 56
_cell_length_a 8.142050
_cell_length_b 15.651768
_cell_length_c 21.049664
_cell_angle_alpha 90.000000
_cell_angle_beta 90.000000
_cell_angle_gamma 90.000000
_cell_volume 2682.516085
_symmetry_space_group_name_H-M "P M M N"
_symmetry_group_IT_number 59
_space_group.IT_coordinate_system_code '2'
_symmetry_cell_setting 'orthorhombic'
loop_
_space_group_symop_operation_xyz
x,y,z
1/2-x,1/2-y,z
1/2+x,-y,-z
-x,1/2+y,-z
-x,-y,-z
1/2+x,1/2+y,-z
1/2-x,y,z
x,1/2-y,z
loop_
_atom_site_type_symbol
_atom_site_label
_atom_site_fract_x
_atom_site_fract_y
_atom_site_fract_z
Si Si1 0.048108 0.580855 0.429315
Si Si2 0.441500 0.494178 0.072197
Si Si3 0.059744 0.611740 0.562959
Si Si4 0.063499 0.851476 0.699117
Si Si5 0.560726 0.352374 0.708186
Si Si6 0.552971 0.347596 0.165215
Si Si7 0.057285 0.151743 0.845588
O O1 0.250000 0.571800 0.431404
O O2 0.000981 0.635623 0.492054
O O3 0.002624 0.615289 0.360144
O O4 0.959098 0.490338 0.436183
O O5 0.250000 0.478089 0.072142
O O6 0.519517 0.415469 0.110680
O O7 0.476629 0.582766 0.108674
O O8 0.500000 0.500000 0.000000
O O9 0.250000 0.640200 0.565848
O O10 0.981049 0.636927 0.630360
O O11 0.250000 0.888331 0.694588
O O12 0.077333 0.750000 0.707601
O O13 0.986739 0.880384 0.765932
O O14 0.750000 0.380224 0.716018
O O15 0.557680 0.250000 0.704811
O O16 0.466546 0.376177 0.772191
O O17 0.750000 0.342804 0.173015
O O18 0.494672 0.250000 0.152226
O O19 0.250000 0.153112 0.859681
O O20 0.994148 0.250000 0.851699
#
# Coordination Sequence:
#
# PCOD9452861 Si02
#       7
#     8   8   8   8   8   8   8
#     4   9  18  30  44  68 104 141 182 230 281 333
#     4  12  26  43  65  93 123 156 194 234 283 347
#     4   9  17  29  46  70 100 140 185 230 278 329
#     4   8  15  29  51  78 104 135 181 231 277 326
#     4   9  18  33  52  76 107 144 186 233 287 342
#     4   9  19  38  62  89 123 159 196 242 291 341
#     4  10  22  41  64  90 120 154 195 244 294 349
#
# _framework density 20.875924999999999
#
# number of rings (size 3 to 8) (size 9 to 14) (size 15 to 20)
#    0.000    2.571    0.000    2.571    2.000    2.857 
#    0.000    2.857    0.000    1.286    0.000    4.000 
#    0.000    0.000    0.000    0.000    0.000    0.000 
#
# Total GULP energy -311987.686921 kJ/mol
# GULP energy per Si atom -5571.208695 kJ/mol
# Density = 2.082841 g / cm^3
# Si number density = 20.875925 Si / 1000 Ang^3
#
#
#
# Elastic Constant Matrix: (Units=GPa)
#
#
# Indices 1 2 3 4 5 6 
#
# 1 21.6574 3.0296 5.5817 0.0000 0.0000 0.0000
# 2 3.0296 58.6690 54.2049 0.0000 0.0000 0.0000
# 3 5.5817 54.2049 180.0512 0.0000 0.0000 0.0000
# 4 0.0000 0.0000 0.0000 57.7714 0.0000 0.0000
# 5 0.0000 0.0000 0.0000 0.0000 16.1766 0.0000
# 6 0.0000 0.0000 0.0000 0.0000 0.0000 11.8478
#
#
#
# Elastic Compliance Matrix: (Units=1/GPa)
#
#
# Indices 1 2 3 4 5 6 
#
# 1 0.046639 -0.001486 -0.000998 0.000000 0.000000 0.000000
# 2 -0.001486 0.023660 -0.007077 0.000000 0.000000 0.000000
# 3 -0.000998 -0.007077 0.007715 0.000000 0.000000 0.000000
# 4 0.000000 0.000000 0.000000 0.017310 0.000000 0.000000
# 5 0.000000 0.000000 0.000000 0.000000 0.061818 0.000000
# 6 0.000000 0.000000 0.000000 0.000000 0.000000 0.084404
#
#
# Mechanical properties :
#
#
# Convention : Reuss Voigt Hill
#
# Bulk Modulus (GPa) = 16.98034 42.89001 29.93518
# Shear Modulus (GPa) = 17.83815 30.32992 24.08404
#
# Velocity S-wave (km/s) = 2.92633 3.81578 3.40026
# Velocity P-wave (km/s) = 4.42374 6.32482 5.45769
#
# Compressibility (1/GPa) = 0.05889163
#
# Stress axis : x y z
#
# Youngs Moduli (GPa) = 21.44142 42.26569 129.61060
#
# Poissons Ratio (x) = 0.06280 0.12942
# Poissons Ratio (y) = 0.03186 0.91723
# Poissons Ratio (z) = 0.02141 0.29911
#
# Static dielectric constant tensor:
#      x y z
#    x 1.805160 0.000000 0.000000 
#    y 0.000000 1.734000 0.000000 
#    z 0.000000 0.000000 1.746850 
# 
# From -- ./inp_files/29149.got.cif
#   From: 2010.05.17/outbox.cif.g08.bks.cpg/sg59_15_cif.got.tgz:29149.got - 2010.06.03 14:40:33.
