data_PCOD9452461
_publ_section_title
;
Structure prediction by ZEFSAII (Michael W. Deem and Ramdas Pophale) SiO2 
 PCOD9452461
Probable space group: P M M N
;
_chemical_formula_sum "Si O2"
_cell_formula_units_Z 48
_cell_length_a 19.193994
_cell_length_b 8.703524
_cell_length_c 15.656852
_cell_angle_alpha 90.000000
_cell_angle_beta 90.000000
_cell_angle_gamma 90.000000
_cell_volume 2615.561477
_symmetry_space_group_name_H-M "P M M N"
_symmetry_group_IT_number 59
_space_group.IT_coordinate_system_code '2'
_symmetry_cell_setting 'orthorhombic'
loop_
_space_group_symop_operation_xyz
x,y,z
1/2-x,1/2-y,z
1/2+x,-y,-z
-x,1/2+y,-z
-x,-y,-z
1/2+x,1/2+y,-z
1/2-x,y,z
x,1/2-y,z
loop_
_atom_site_type_symbol
_atom_site_label
_atom_site_fract_x
_atom_site_fract_y
_atom_site_fract_z
Si Si1 0.077515 0.565207 0.499805
Si Si2 0.331303 0.433876 0.346395
Si Si3 0.922562 0.567413 0.994192
Si Si4 0.167627 0.565589 0.853294
Si Si5 0.829469 0.436900 0.341034
Si Si6 0.331079 0.565854 0.158905
O O1 0.075675 0.750000 0.499384
O O2 0.119963 0.506816 0.417914
O O3 0.118510 0.512964 0.585128
O O4 0.000000 0.500000 0.500000
O O5 0.250000 0.471225 0.364454
O O6 0.338852 0.250000 0.346253
O O7 0.347281 0.498524 0.252293
O O8 0.925968 0.750000 0.987641
O O9 0.879236 0.518018 0.077713
O O10 0.881550 0.500636 0.912732
O O11 0.000000 0.500000 0.000000
O O12 0.250000 0.536701 0.867528
O O13 0.157417 0.750000 0.860788
O O14 0.151339 0.518516 0.755650
O O15 0.750000 0.487458 0.358355
O O16 0.828585 0.250000 0.341290
O O17 0.250000 0.526472 0.139384
O O18 0.336535 0.750000 0.160884
#
# Coordination Sequence:
#
# PCOD9452461 Si02
#       6
#     8   8   8   8   8   8
#     4  11  22  36  55  81 116 154 193 237 286 340
#     4  10  21  38  60  86 115 148 189 236 286 342
#     4  12  25  39  56  81 116 153 189 230 279 337
#     4   9  18  36  61  85 109 140 183 234 285 338
#     4   8  16  33  58  83 105 138 185 231 275 327
#     4  10  21  39  63  88 113 145 188 236 286 341
#
# _framework density 18.351700000000001
#
# number of rings (size 3 to 8) (size 9 to 14) (size 15 to 20)
#    0.000    2.000    0.000    5.000    0.000    6.333 
#    0.000    6.667    0.000    2.000    0.000    0.000 
#    0.000    0.000    0.000    0.000    0.000    0.000 
#
# Total GULP energy -268164.120620 kJ/mol
# GULP energy per Si atom -5586.752513 kJ/mol
# Density = 1.830993 g / cm^3
# Si number density = 18.351700 Si / 1000 Ang^3
#
#
#
# Elastic Constant Matrix: (Units=GPa)
#
#
# Indices 1 2 3 4 5 6 
#
# 1 134.0512 64.3752 128.6741 0.0000 0.0000 0.0000
# 2 64.3752 73.5066 64.1192 0.0000 0.0000 0.0000
# 3 128.6741 64.1192 171.8667 0.0000 0.0000 0.0000
# 4 0.0000 0.0000 0.0000 27.7407 0.0000 0.0000
# 5 0.0000 0.0000 0.0000 0.0000 -18.5616 0.0000
# 6 0.0000 0.0000 0.0000 0.0000 0.0000 31.5169
#
#
#
# Elastic Compliance Matrix: (Units=1/GPa)
#
#
# Indices 1 2 3 4 5 6 
#
# 1 0.030950 -0.010218 -0.019360 0.000000 0.000000 0.000000
# 2 -0.010218 0.023541 -0.001133 0.000000 0.000000 0.000000
# 3 -0.019360 -0.001133 0.020735 0.000000 0.000000 0.000000
# 4 0.000000 0.000000 0.000000 0.036048 0.000000 0.000000
# 5 0.000000 0.000000 0.000000 0.000000 -0.053875 0.000000
# 6 0.000000 0.000000 0.000000 0.000000 0.000000 0.031729
#
#
# Mechanical properties :
#
#
# Convention : Reuss Voigt Hill
#
# Bulk Modulus (GPa) = 72.43356 99.30682 85.87019
# Shear Modulus (GPa) = 32.22691 16.28960 24.25825
#
# Velocity S-wave (km/s) = 4.19510 2.98255 3.63967
# Velocity P-wave (km/s) = 7.93854 8.12966 8.03467
#
# Compressibility (1/GPa) = 0.01380576
#
# Stress axis : x y z
#
# Youngs Moduli (GPa) = 32.31041 42.47987 48.22705
#
# Poissons Ratio (x) = 0.43405 0.93366
# Poissons Ratio (y) = 0.33014 0.05462
# Poissons Ratio (z) = 0.62552 0.04811
#
# Static dielectric constant tensor:
#      x y z
#    x 1.601680 0.000000 0.000000 
#    y 0.000000 1.623540 0.000000 
#    z 0.000000 0.000000 1.611780 
# 
# From -- ./inp_files/23647.got.cif
#   From: 2010.05.17/outbox.cif.g08.bks.cpg/sg59_12_cif.got.tgz:23647.got - 2010.06.03 14:40:33.
