data_PCOD9452933
_publ_section_title
;
Structure prediction by ZEFSAII (Michael W. Deem and Ramdas Pophale) SiO2 
 PCOD9452933
Probable space group: P M M N
;
_chemical_formula_sum "Si O2"
_cell_formula_units_Z 64
_cell_length_a 28.969946
_cell_length_b 8.903738
_cell_length_c 12.733051
_cell_angle_alpha 90.000000
_cell_angle_beta 90.000000
_cell_angle_gamma 90.000000
_cell_volume 3284.373477
_symmetry_space_group_name_H-M "P M M N"
_symmetry_group_IT_number 59
_space_group.IT_coordinate_system_code '2'
_symmetry_cell_setting 'orthorhombic'
loop_
_space_group_symop_operation_xyz
x,y,z
1/2-x,1/2-y,z
1/2+x,-y,-z
-x,1/2+y,-z
-x,-y,-z
1/2+x,1/2+y,-z
1/2-x,y,z
x,1/2-y,z
loop_
_atom_site_type_symbol
_atom_site_label
_atom_site_fract_x
_atom_site_fract_y
_atom_site_fract_z
Si Si1 0.301882 0.571214 0.991962
Si Si2 0.434609 0.571627 0.751679
Si Si3 0.658490 0.928463 0.210903
Si Si4 0.879464 0.069719 0.837462
Si Si5 0.805168 0.072475 0.427040
Si Si6 0.048379 0.072586 0.529886
Si Si7 0.363511 0.072347 0.387039
Si Si8 0.978251 0.929609 0.895137
O O1 0.250000 0.544192 0.032154
O O2 0.306240 0.750000 0.970668
O O3 0.341035 0.529923 0.075649
O O4 0.309782 0.483869 0.883953
O O5 0.426958 0.750000 0.752982
O O6 0.392878 0.490993 0.811490
O O7 0.433910 0.508638 0.634225
O O8 0.484194 0.541392 0.803623
O O9 0.657767 0.750000 0.219145
O O10 0.675467 0.997846 0.320905
O O11 0.883429 0.250000 0.833761
O O12 0.863492 0.007730 0.724929
O O13 0.928909 0.000248 0.867882
O O14 0.750000 0.053771 0.430009
O O15 0.815795 0.250000 0.425207
O O16 0.828466 0.998006 0.528715
O O17 0.043281 0.250000 0.550165
O O18 0.085678 0.053899 0.438017
O O19 0.000000 0.000000 0.500000
O O20 0.354800 0.250000 0.375634
O O21 0.973640 0.750000 0.906672
O O22 0.000000 0.000000 0.000000
#
# Coordination Sequence:
#
# PCOD9452933 Si02
#       8
#     8   8   8   8   8   8   8   8
#     4  10  23  44  67  91 122 163 212 264 318 382
#     4  11  23  39  61  88 123 166 212 259 312 377
#     4  12  24  39  63  97 131 163 206 264 327 387
#     4  11  24  42  66  94 127 170 217 266 321 384
#     4  11  24  42  66  94 126 169 217 263 318 384
#     4  11  23  38  59  89 123 163 209 257 313 374
#     4  11  24  42  63  92 129 167 212 264 319 379
#     4  11  24  41  62  92 127 168 216 266 322 384
#
# _framework density 19.486214
#
# number of rings (size 3 to 8) (size 9 to 14) (size 15 to 20)
#    0.000    1.000    1.250    5.250    0.000   13.750 
#    0.000    1.250    0.000    0.000    0.000    0.000 
#    0.000    0.000    0.000    0.000    0.000    0.000 
#
# Total GULP energy -358116.215042 kJ/mol
# GULP energy per Si atom -5595.565860 kJ/mol
# Density = 1.944186 g / cm^3
# Si number density = 19.486214 Si / 1000 Ang^3
#
#
#
# Elastic Constant Matrix: (Units=GPa)
#
#
# Indices 1 2 3 4 5 6 
#
# 1 128.0185 69.1602 51.8490 0.0000 0.0000 0.0000
# 2 69.1602 92.2906 60.1619 0.0000 0.0000 0.0000
# 3 51.8490 60.1619 127.9222 0.0000 0.0000 0.0000
# 4 0.0000 0.0000 0.0000 32.6487 0.0000 0.0000
# 5 0.0000 0.0000 0.0000 0.0000 32.3866 0.0000
# 6 0.0000 0.0000 0.0000 0.0000 0.0000 33.1346
#
#
#
# Elastic Compliance Matrix: (Units=1/GPa)
#
#
# Indices 1 2 3 4 5 6 
#
# 1 0.013214 -0.009245 -0.001008 0.000000 0.000000 0.000000
# 2 -0.009245 0.022095 -0.006644 0.000000 0.000000 0.000000
# 3 -0.001008 -0.006644 0.011350 0.000000 0.000000 0.000000
# 4 0.000000 0.000000 0.000000 0.030629 0.000000 0.000000
# 5 0.000000 0.000000 0.000000 0.000000 0.030877 0.000000
# 6 0.000000 0.000000 0.000000 0.000000 0.000000 0.030180
#
#
# Mechanical properties :
#
#
# Convention : Reuss Voigt Hill
#
# Bulk Modulus (GPa) = 77.72989 78.95262 78.34126
# Shear Modulus (GPa) = 28.34026 30.77134 29.55580
#
# Velocity S-wave (km/s) = 3.81776 3.97814 3.89878
# Velocity P-wave (km/s) = 7.70779 7.85531 7.78190
#
# Compressibility (1/GPa) = 0.01286506
#
# Stress axis : x y z
#
# Youngs Moduli (GPa) = 75.67569 45.26004 88.10348
#
# Poissons Ratio (x) = 0.41845 0.08879
# Poissons Ratio (y) = 0.69966 0.58534
# Poissons Ratio (z) = 0.07627 0.30070
#
# Static dielectric constant tensor:
#      x y z
#    x 1.686530 0.000000 0.000000 
#    y 0.000000 1.649500 0.000000 
#    z 0.000000 0.000000 1.654690 
# 
# From -- ./inp_files/19203.got.cif
#   From: 2010.05.17/outbox.cif.g08.bks.cpg/sg59_10_cif.got.tgz:19203.got - 2010.06.03 14:40:33.
