data_PCOD9452020
_publ_section_title
;
Structure prediction by ZEFSAII (Michael W. Deem and Ramdas Pophale) SiO2 
 PCOD9452020
Probable space group: P M M N
;
_chemical_formula_sum "Si O2"
_cell_formula_units_Z 64
_cell_length_a 18.860983
_cell_length_b 8.902548
_cell_length_c 21.455600
_cell_angle_alpha 90.000000
_cell_angle_beta 90.000000
_cell_angle_gamma 90.000000
_cell_volume 3602.627100
_symmetry_space_group_name_H-M "P M M N"
_symmetry_group_IT_number 59
_space_group.IT_coordinate_system_code '2'
_symmetry_cell_setting 'orthorhombic'
loop_
_space_group_symop_operation_xyz
x,y,z
1/2-x,1/2-y,z
1/2+x,-y,-z
-x,1/2+y,-z
-x,-y,-z
1/2+x,1/2+y,-z
1/2-x,y,z
x,1/2-y,z
loop_
_atom_site_type_symbol
_atom_site_label
_atom_site_fract_x
_atom_site_fract_y
_atom_site_fract_z
Si Si1 0.034496 0.070806 0.939055
Si Si2 0.168132 0.428825 0.257245
Si Si3 0.333245 0.568784 0.616243
Si Si4 0.169178 0.930449 0.879878
Si Si5 0.038302 0.570898 0.192350
Si Si6 0.578054 0.570795 0.496802
Si Si7 0.833881 0.426863 0.607515
Si Si8 0.096911 0.570092 0.748729
O O1 0.036948 0.250000 0.944768
O O2 0.988885 0.033310 0.877103
O O3 0.112578 0.007221 0.924922
O O4 0.000000 0.000000 0.000000
O O5 0.250000 0.459507 0.239903
O O6 0.159867 0.250000 0.264302
O O7 0.111868 0.492595 0.208764
O O8 0.154517 0.508647 0.323466
O O9 0.250000 0.528816 0.612380
O O10 0.338180 0.750000 0.608716
O O11 0.379076 0.490581 0.562867
O O12 0.364941 0.530790 0.684198
O O13 0.250000 0.977038 0.890650
O O14 0.164641 0.750000 0.886945
O O15 0.145991 0.964811 0.808636
O O16 0.044701 0.750000 0.197643
O O17 0.977405 0.511979 0.239265
O O18 0.500000 0.500000 0.500000
O O19 0.573341 0.750000 0.494681
O O20 0.620863 0.516767 0.557506
O O21 0.750000 0.442853 0.593434
O O22 0.851312 0.250000 0.605258
O O23 0.084722 0.750000 0.748694
#
# Coordination Sequence:
#
# PCOD9452020 Si02
#       8
#     8   8   8   8   8   8   8   8
#     4  10  21  37  57  82 113 152 193 233 279 329
#     4  10  21  37  59  86 113 144 185 231 280 336
#     4  10  21  38  59  83 113 147 183 226 278 334
#     4   9  17  32  56  85 115 148 187 229 274 328
#     4  10  21  36  56  83 115 148 184 229 280 329
#     4  12  26  41  57  78 108 146 189 235 283 334
#     4  10  21  39  62  84 108 141 181 229 285 341
#     4   9  18  33  56  84 114 148 185 224 271 329
#
# _framework density 17.764814000000001
#
# number of rings (size 3 to 8) (size 9 to 14) (size 15 to 20)
#    0.000    2.000    0.000    3.375    1.750    7.000 
#    0.000    0.625    0.000    3.000    0.000    0.000 
#    0.000    0.000    0.000    0.000    0.000    0.000 
#
# Total GULP energy -357492.753647 kJ/mol
# GULP energy per Si atom -5585.824276 kJ/mol
# Density = 1.772438 g / cm^3
# Si number density = 17.764814 Si / 1000 Ang^3
#
#
#
# Elastic Constant Matrix: (Units=GPa)
#
#
# Indices 1 2 3 4 5 6 
#
# 1 143.6176 72.7562 93.9628 0.0000 0.0000 0.0000
# 2 72.7562 71.4713 56.4983 0.0000 0.0000 0.0000
# 3 93.9628 56.4983 91.5721 0.0000 0.0000 0.0000
# 4 0.0000 0.0000 0.0000 28.5058 0.0000 0.0000
# 5 0.0000 0.0000 0.0000 0.0000 27.0328 0.0000
# 6 0.0000 0.0000 0.0000 0.0000 0.0000 30.1122
#
#
#
# Elastic Compliance Matrix: (Units=1/GPa)
#
#
# Indices 1 2 3 4 5 6 
#
# 1 0.024252 -0.009792 -0.018844 0.000000 0.000000 0.000000
# 2 -0.009792 0.031266 -0.009243 0.000000 0.000000 0.000000
# 3 -0.018844 -0.009243 0.035959 0.000000 0.000000 0.000000
# 4 0.000000 0.000000 0.000000 0.035081 0.000000 0.000000
# 5 0.000000 0.000000 0.000000 0.000000 0.036992 0.000000
# 6 0.000000 0.000000 0.000000 0.000000 0.000000 0.033209
#
#
# Mechanical properties :
#
#
# Convention : Reuss Voigt Hill
#
# Bulk Modulus (GPa) = 63.61479 83.67729 73.64604
# Shear Modulus (GPa) = 18.00128 22.69309 20.34718
#
# Velocity S-wave (km/s) = 3.18671 3.57798 3.38799
# Velocity P-wave (km/s) = 7.03046 8.01712 7.53995
#
# Compressibility (1/GPa) = 0.01571961
#
# Stress axis : x y z
#
# Youngs Moduli (GPa) = 41.23291 31.98315 27.80941
#
# Poissons Ratio (x) = 0.31319 0.52404
# Poissons Ratio (y) = 0.40376 0.25704
# Poissons Ratio (z) = 0.77699 0.29562
#
# Static dielectric constant tensor:
#      x y z
#    x 1.589060 0.000000 0.000000 
#    y 0.000000 1.591830 0.000000 
#    z 0.000000 0.000000 1.580460 
# 
# From -- ./inp_files/30725.got.cif
#   From: 2010.05.17/outbox.cif.g08.bks.cpg/sg59_16_cif.got.tgz:30725.got - 2010.06.03 14:40:33.
