data_PCOD9452615
_publ_section_title
;
Structure prediction by ZEFSAII (Michael W. Deem and Ramdas Pophale) SiO2 
 PCOD9452615
Probable space group: P M M N
;
_chemical_formula_sum "Si O2"
_cell_formula_units_Z 56
_cell_length_a 14.616554
_cell_length_b 8.815319
_cell_length_c 22.694365
_cell_angle_alpha 90.000000
_cell_angle_beta 90.000000
_cell_angle_gamma 90.000000
_cell_volume 2924.159539
_symmetry_space_group_name_H-M "P M M N"
_symmetry_group_IT_number 59
_space_group.IT_coordinate_system_code '2'
_symmetry_cell_setting 'orthorhombic'
loop_
_space_group_symop_operation_xyz
x,y,z
1/2-x,1/2-y,z
1/2+x,-y,-z
-x,1/2+y,-z
-x,-y,-z
1/2+x,1/2+y,-z
1/2-x,y,z
x,1/2-y,z
loop_
_atom_site_type_symbol
_atom_site_label
_atom_site_fract_x
_atom_site_fract_y
_atom_site_fract_z
Si Si1 0.858160 0.933060 0.609357
Si Si2 0.556941 0.568825 0.054737
Si Si3 0.638569 0.575482 0.478466
Si Si4 0.054408 0.070113 0.161571
Si Si5 0.982676 0.429244 0.711535
Si Si6 0.858955 0.427072 0.356233
Si Si7 0.750000 0.069892 0.024097
Si Si8 0.750000 0.572072 0.896460
O O1 0.750000 0.967418 0.615282
O O2 0.867667 0.750000 0.612552
O O3 0.889762 0.978936 0.543387
O O4 0.915159 0.010221 0.660646
O O5 0.557556 0.750000 0.049729
O O6 0.508831 0.515980 0.114689
O O7 0.658952 0.503549 0.050781
O O8 0.500000 0.500000 0.000000
O O9 0.750000 0.578459 0.480539
O O10 0.608596 0.750000 0.469572
O O11 0.613539 0.474806 0.422594
O O12 0.035893 0.250000 0.158485
O O13 0.159059 0.045828 0.141241
O O14 0.038922 0.010222 0.227049
O O15 0.973695 0.250000 0.717994
O O16 0.083548 0.474284 0.689186
O O17 0.750000 0.450262 0.350612
O O18 0.879207 0.250000 0.347120
O O19 0.750000 0.250000 0.032341
O O20 0.750000 0.029399 0.954660
O O21 0.750000 0.750000 0.915209
#
# Coordination Sequence:
#
# PCOD9452615 Si02
#       8
#     8   8   8   8   8   8   4   4
#     4   9  19  37  60  86 120 160 201 247 303 364
#     4  12  24  42  67  99 136 170 211 261 312 368
#     4   8  15  31  57  87 116 149 192 247 309 366
#     4  11  24  44  67  94 128 167 211 255 306 368
#     4  12  26  41  59  87 122 162 206 251 304 364
#     4  10  21  39  63  87 113 151 201 255 310 369
#     4  12  24  40  68 102 134 172 211 258 313 364
#     4  10  22  40  68  98 128 166 207 250 305 366
#
# _framework density 19.150801000000001
#
# number of rings (size 3 to 8) (size 9 to 14) (size 15 to 20)
#    0.000    1.571    1.429    4.929    1.000    2.857 
#    1.286    1.429    0.000    0.000    0.000    0.000 
#    0.000    0.000    0.000    0.000    0.000    0.000 
#
# Total GULP energy -313132.402821 kJ/mol
# GULP energy per Si atom -5591.650050 kJ/mol
# Density = 1.910721 g / cm^3
# Si number density = 19.150801 Si / 1000 Ang^3
#
#
#
# Elastic Constant Matrix: (Units=GPa)
#
#
# Indices 1 2 3 4 5 6 
#
# 1 98.4077 54.7093 38.1684 0.0000 0.0000 0.0000
# 2 54.7093 115.8992 53.0403 0.0000 0.0000 0.0000
# 3 38.1684 53.0403 99.1431 0.0000 0.0000 0.0000
# 4 0.0000 0.0000 0.0000 36.5801 0.0000 0.0000
# 5 0.0000 0.0000 0.0000 0.0000 45.4434 0.0000
# 6 0.0000 0.0000 0.0000 0.0000 0.0000 27.4114
#
#
#
# Elastic Compliance Matrix: (Units=1/GPa)
#
#
# Indices 1 2 3 4 5 6 
#
# 1 0.014229 -0.005575 -0.002496 0.000000 0.000000 0.000000
# 2 -0.005575 0.013610 -0.005135 0.000000 0.000000 0.000000
# 3 -0.002496 -0.005135 0.013794 0.000000 0.000000 0.000000
# 4 0.000000 0.000000 0.000000 0.027337 0.000000 0.000000
# 5 0.000000 0.000000 0.000000 0.000000 0.022005 0.000000
# 6 0.000000 0.000000 0.000000 0.000000 0.000000 0.036481
#
#
# Mechanical properties :
#
#
# Convention : Reuss Voigt Hill
#
# Bulk Modulus (GPa) = 65.69103 67.25401 66.47252
# Shear Modulus (GPa) = 31.45831 33.05578 32.25704
#
# Velocity S-wave (km/s) = 4.05737 4.15912 4.10856
# Velocity P-wave (km/s) = 7.50508 7.63274 7.56918
#
# Compressibility (1/GPa) = 0.01522278
#
# Stress axis : x y z
#
# Youngs Moduli (GPa) = 70.27963 73.47806 72.49412
#
# Poissons Ratio (x) = 0.40961 0.18091
# Poissons Ratio (y) = 0.39178 0.37224
# Poissons Ratio (z) = 0.17539 0.37729
#
# Static dielectric constant tensor:
#      x y z
#    x 1.675400 0.000000 0.000000 
#    y 0.000000 1.641090 0.000000 
#    z 0.000000 0.000000 1.633020 
# 
# From -- ./inp_files/30481.got.cif
#   From: 2010.05.17/outbox.cif.g08.bks.cpg/sg59_16_cif.got.tgz:30481.got - 2010.06.03 14:40:33.
