data_PCOD9452752
_publ_section_title
;
Structure prediction by ZEFSAII (Michael W. Deem and Ramdas Pophale) SiO2 
 PCOD9452752
Probable space group: P M M N
;
_chemical_formula_sum "Si O2"
_cell_formula_units_Z 48
_cell_length_a 8.282965
_cell_length_b 19.805950
_cell_length_c 15.568766
_cell_angle_alpha 90.000000
_cell_angle_beta 90.000000
_cell_angle_gamma 90.000000
_cell_volume 2554.087054
_symmetry_space_group_name_H-M "P M M N"
_symmetry_group_IT_number 59
_space_group.IT_coordinate_system_code '2'
_symmetry_cell_setting 'orthorhombic'
loop_
_space_group_symop_operation_xyz
x,y,z
1/2-x,1/2-y,z
1/2+x,-y,-z
-x,1/2+y,-z
-x,-y,-z
1/2+x,1/2+y,-z
1/2-x,y,z
x,1/2-y,z
loop_
_atom_site_type_symbol
_atom_site_label
_atom_site_fract_x
_atom_site_fract_y
_atom_site_fract_z
Si Si1 0.556728 0.071244 0.461059
Si Si2 0.054613 0.827332 0.392031
Si Si3 0.053262 0.327517 0.934125
Si Si4 0.056882 0.436469 0.267100
Si Si5 0.443565 0.087331 0.772128
Si Si6 0.552944 0.827326 0.870914
O O1 0.750000 0.071237 0.461142
O O2 0.499952 0.130844 0.524320
O O3 0.498494 0.078219 0.363821
O O4 0.500000 0.000000 0.500000
O O5 0.250000 0.826818 0.392519
O O6 0.997846 0.750000 0.391772
O O7 0.999335 0.867244 0.307778
O O8 0.250000 0.328282 0.933604
O O9 0.004780 0.250000 0.915340
O O10 0.997337 0.378306 0.860510
O O11 0.002497 0.344287 0.031428
O O12 0.250000 0.435038 0.265899
O O13 0.995965 0.380730 0.199359
O O14 0.002418 0.511256 0.240652
O O15 0.250000 0.086865 0.773256
O O16 0.750000 0.828062 0.870401
O O17 0.503969 0.750000 0.852588
#
# Coordination Sequence:
#
# PCOD9452752 Si02
#       6
#     8   8   8   8   8   8
#     4  11  22  38  59  80 108 146 183 221 272 330
#     4  10  22  39  58  81 110 143 179 223 278 334
#     4   8  15  30  52  78 108 142 182 229 276 321
#     4  11  22  35  55  82 111 145 184 228 278 328
#     4  11  21  33  54  83 113 146 185 227 273 327
#     4   8  16  33  55  78 107 144 186 230 275 326
#
# _framework density 18.793406999999998
#
# number of rings (size 3 to 8) (size 9 to 14) (size 15 to 20)
#    0.000    2.167    1.667    3.000    0.000    3.000 
#    0.000    0.000    0.000    4.500    0.000    9.333 
#    0.000    0.000    0.000    0.000    0.000    0.000 
#
# Total GULP energy -267964.635885 kJ/mol
# GULP energy per Si atom -5582.596581 kJ/mol
# Density = 1.875063 g / cm^3
# Si number density = 18.793407 Si / 1000 Ang^3
#
#
#
# Elastic Constant Matrix: (Units=GPa)
#
#
# Indices 1 2 3 4 5 6 
#
# 1 18.1486 22.7311 20.8118 0.0000 0.0000 0.0000
# 2 22.7311 179.2593 138.3870 0.0000 0.0000 0.0000
# 3 20.8118 138.3870 205.3832 0.0000 0.0000 0.0000
# 4 0.0000 0.0000 0.0000 42.0233 0.0000 0.0000
# 5 0.0000 0.0000 0.0000 0.0000 18.0699 0.0000
# 6 0.0000 0.0000 0.0000 0.0000 0.0000 4.9692
#
#
#
# Elastic Compliance Matrix: (Units=1/GPa)
#
#
# Indices 1 2 3 4 5 6 
#
# 1 0.065971 -0.006679 -0.002185 0.000000 0.000000 0.000000
# 2 -0.006679 0.012302 -0.007612 0.000000 0.000000 0.000000
# 3 -0.002185 -0.007612 0.010220 0.000000 0.000000 0.000000
# 4 0.000000 0.000000 0.000000 0.023796 0.000000 0.000000
# 5 0.000000 0.000000 0.000000 0.000000 0.055341 0.000000
# 6 0.000000 0.000000 0.000000 0.000000 0.000000 0.201240
#
#
# Mechanical properties :
#
#
# Convention : Reuss Voigt Hill
#
# Bulk Modulus (GPa) = 18.00474 85.18343 51.59408
# Shear Modulus (GPa) = 11.89526 27.73657 19.81591
#
# Velocity S-wave (km/s) = 2.51858 3.84587 3.25069
# Velocity P-wave (km/s) = 4.24956 8.07128 6.44997
#
# Compressibility (1/GPa) = 0.05554094
#
# Stress axis : x y z
#
# Youngs Moduli (GPa) = 15.15809 81.28656 97.85173
#
# Poissons Ratio (x) = 0.54291 0.21378
# Poissons Ratio (y) = 0.10124 0.74489
# Poissons Ratio (z) = 0.03312 0.61878
#
# Static dielectric constant tensor:
#      x y z
#    x 1.662470 0.000000 0.000000 
#    y 0.000000 1.631350 0.000000 
#    z 0.000000 0.000000 1.632490 
# 
# From -- ./inp_files/20446.got.cif
#   From: 2010.05.17/outbox.cif.g08.bks.cpg/sg59_11_cif.got.tgz:20446.got - 2010.06.03 14:40:33.
