data_PCOD9452075
_publ_section_title
;
Structure prediction by ZEFSAII (Michael W. Deem and Ramdas Pophale) SiO2 
 PCOD9452075
Probable space group: P M M N
;
_chemical_formula_sum "Si O2"
_cell_formula_units_Z 40
_cell_length_a 22.389283
_cell_length_b 9.850861
_cell_length_c 8.631095
_cell_angle_alpha 90.000000
_cell_angle_beta 90.000000
_cell_angle_gamma 90.000000
_cell_volume 1903.620064
_symmetry_space_group_name_H-M "P M M N"
_symmetry_group_IT_number 59
_space_group.IT_coordinate_system_code '2'
_symmetry_cell_setting 'orthorhombic'
loop_
_space_group_symop_operation_xyz
x,y,z
1/2-x,1/2-y,z
1/2+x,-y,-z
-x,1/2+y,-z
-x,-y,-z
1/2+x,1/2+y,-z
1/2-x,y,z
x,1/2-y,z
loop_
_atom_site_type_symbol
_atom_site_label
_atom_site_fract_x
_atom_site_fract_y
_atom_site_fract_z
Si Si1 0.313553 0.407110 0.388962
Si Si2 0.820893 0.399209 0.160392
Si Si3 0.590540 0.472683 0.414316
Si Si4 0.025995 0.593954 0.265303
Si Si5 0.118817 0.084619 0.087869
O O1 0.250000 0.467352 0.438534
O O2 0.305913 0.250000 0.360460
O O3 0.366452 0.416427 0.510322
O O4 0.335579 0.460311 0.224544
O O5 0.750000 0.424096 0.186568
O O6 0.825648 0.250000 0.082145
O O7 0.861676 0.391174 0.313668
O O8 0.851640 0.519621 0.063317
O O9 0.560217 0.406644 0.567018
O O10 0.538583 0.533282 0.307808
O O11 0.023096 0.750000 0.210124
O O12 0.058882 0.493162 0.144585
O O13 0.111974 0.250000 0.081292
#
# Coordination Sequence:
#
# PCOD9452075 Si02
#       5
#     8   8   8   8   8
#     4   9  17  32  55  83 115 151 193 240 290 347
#     4  11  24  41  61  88 122 156 191 236 292 352
#     4  10  21  36  59  88 121 153 193 242 295 349
#     4  10  21  39  63  88 117 156 201 247 295 350
#     4  10  22  39  60  86 117 157 202 246 294 349
#
# _framework density 21.012595000000001
#
# number of rings (size 3 to 8) (size 9 to 14) (size 15 to 20)
#    0.000    2.000    0.000    3.000    0.000    9.200 
#    0.000    0.000    0.000    9.600    0.000    0.000 
#    0.000    0.000    0.000    0.000    0.000    0.000 
#
# Total GULP energy -222683.578476 kJ/mol
# GULP energy per Si atom -5567.089462 kJ/mol
# Density = 2.096477 g / cm^3
# Si number density = 21.012595 Si / 1000 Ang^3
#
#
#
# Elastic Constant Matrix: (Units=GPa)
#
#
# Indices 1 2 3 4 5 6 
#
# 1 145.9579 31.7929 40.1340 0.0000 0.0000 0.0000
# 2 31.7929 94.9414 26.1771 0.0000 0.0000 0.0000
# 3 40.1340 26.1771 52.3952 0.0000 0.0000 0.0000
# 4 0.0000 0.0000 0.0000 5.3151 0.0000 0.0000
# 5 0.0000 0.0000 0.0000 0.0000 11.7016 0.0000
# 6 0.0000 0.0000 0.0000 0.0000 0.0000 -29.3644
#
#
#
# Elastic Compliance Matrix: (Units=1/GPa)
#
#
# Indices 1 2 3 4 5 6 
#
# 1 0.008808 -0.001263 -0.006116 0.000000 0.000000 0.000000
# 2 -0.001263 0.012397 -0.005226 0.000000 0.000000 0.000000
# 3 -0.006116 -0.005226 0.026381 0.000000 0.000000 0.000000
# 4 0.000000 0.000000 0.000000 0.188144 0.000000 0.000000
# 5 0.000000 0.000000 0.000000 0.000000 0.085458 0.000000
# 6 0.000000 0.000000 0.000000 0.000000 0.000000 -0.034055
#
#
# Mechanical properties :
#
#
# Convention : Reuss Voigt Hill
#
# Bulk Modulus (GPa) = 44.69029 54.38918 49.53973
# Shear Modulus (GPa) = 15.63470 10.54316 13.08893
#
# Velocity S-wave (km/s) = 2.73071 2.24242 2.49852
# Velocity P-wave (km/s) = 5.59079 5.71357 5.65251
#
# Compressibility (1/GPa) = 0.02237622
#
# Stress axis : x y z
#
# Youngs Moduli (GPa) = 113.53180 80.66645 37.90590
#
# Poissons Ratio (x) = 0.10191 0.23182
# Poissons Ratio (y) = 0.14343 0.19809
# Poissons Ratio (z) = 0.69433 0.42155
#
# Static dielectric constant tensor:
#      x y z
#    x 2.157000 0.000000 0.000000 
#    y 0.000000 1.757760 0.000000 
#    z 0.000000 0.000000 1.789080 
# 
# From -- ./inp_files/5674.got.cif
#   From: 2010.05.17/outbox.cif.g08.bks.cpg/sg59_3_cif.got.tgz:5674.got - 2010.06.03 14:40:33.
