data_PCOD9452770
_publ_section_title
;
Structure prediction by ZEFSAII (Michael W. Deem and Ramdas Pophale) SiO2 
 PCOD9452770
Probable space group: P M M N
;
_chemical_formula_sum "Si O2"
_cell_formula_units_Z 48
_cell_length_a 14.873211
_cell_length_b 8.533992
_cell_length_c 21.055195
_cell_angle_alpha 90.000000
_cell_angle_beta 90.000000
_cell_angle_gamma 90.000000
_cell_volume 2672.490921
_symmetry_space_group_name_H-M "P M M N"
_symmetry_group_IT_number 59
_space_group.IT_coordinate_system_code '2'
_symmetry_cell_setting 'orthorhombic'
loop_
_space_group_symop_operation_xyz
x,y,z
1/2-x,1/2-y,z
1/2+x,-y,-z
-x,1/2+y,-z
-x,-y,-z
1/2+x,1/2+y,-z
1/2-x,y,z
x,1/2-y,z
loop_
_atom_site_type_symbol
_atom_site_label
_atom_site_fract_x
_atom_site_fract_y
_atom_site_fract_z
Si Si1 0.058029 0.438364 0.940539
Si Si2 0.750000 0.061831 0.021574
Si Si3 0.060359 0.938093 0.322839
Si Si4 0.750000 0.439355 0.483803
Si Si5 0.445578 0.937753 0.560900
Si Si6 0.250000 0.436664 0.372386
Si Si7 0.750000 0.440788 0.873474
Si Si8 0.558243 0.441039 0.820206
O O1 0.057086 0.250000 0.942412
O O2 0.159244 0.498877 0.947034
O O3 0.010399 0.490499 0.875169
O O4 0.000000 0.500000 0.000000
O O5 0.750000 0.250000 0.023206
O O6 0.750000 0.012769 0.947295
O O7 0.061019 0.750000 0.324775
O O8 0.036708 0.990384 0.251373
O O9 0.160083 0.996563 0.340386
O O10 0.991756 0.999151 0.375688
O O11 0.750000 0.250000 0.491135
O O12 0.658534 0.484160 0.447917
O O13 0.750000 0.512188 0.553914
O O14 0.450804 0.750000 0.560895
O O15 0.500000 0.000000 0.500000
O O16 0.250000 0.250000 0.368258
O O17 0.750000 0.250000 0.872261
O O18 0.658679 0.492964 0.839599
O O19 0.558850 0.250000 0.820655
#
# Coordination Sequence:
#
# PCOD9452770 Si02
#       8
#     8   4   8   4   8   4   4   8
#     4  11  21  37  60  87 117 153 198 244 291 346
#     4  11  21  36  59  87 118 152 195 244 294 345
#     4  11  22  38  60  85 116 155 196 237 289 346
#     4  10  22  39  60  83 113 153 193 230 283 347
#     4  11  22  38  60  86 116 151 193 239 286 339
#     4  12  23  35  57  88 121 151 186 238 291 345
#     4   9  15  30  56  84 112 146 188 234 282 345
#     4   9  19  35  58  84 114 155 194 233 286 353
#
# _framework density 17.960771999999999
#
# number of rings (size 3 to 8) (size 9 to 14) (size 15 to 20)
#    0.000    1.500    3.333    3.000    0.000    2.000 
#    0.000    4.167    0.000    3.000    0.000    0.000 
#    0.000    0.000    0.000    0.000    0.000    0.000 
#
# Total GULP energy -268167.275172 kJ/mol
# GULP energy per Si atom -5586.818233 kJ/mol
# Density = 1.791989 g / cm^3
# Si number density = 17.960772 Si / 1000 Ang^3
#
#
#
# Elastic Constant Matrix: (Units=GPa)
#
#
# Indices 1 2 3 4 5 6 
#
# 1 171.9139 39.9096 106.0921 0.0000 0.0000 0.0000
# 2 39.9096 44.4162 38.0979 0.0000 0.0000 0.0000
# 3 106.0921 38.0979 192.8852 0.0000 0.0000 0.0000
# 4 0.0000 0.0000 0.0000 25.4289 0.0000 0.0000
# 5 0.0000 0.0000 0.0000 0.0000 15.1754 0.0000
# 6 0.0000 0.0000 0.0000 0.0000 0.0000 24.8345
#
#
#
# Elastic Compliance Matrix: (Units=1/GPa)
#
#
# Indices 1 2 3 4 5 6 
#
# 1 0.009632 -0.004949 -0.004320 0.000000 0.000000 0.000000
# 2 -0.004949 0.029649 -0.003134 0.000000 0.000000 0.000000
# 3 -0.004320 -0.003134 0.008180 0.000000 0.000000 0.000000
# 4 0.000000 0.000000 0.000000 0.039325 0.000000 0.000000
# 5 0.000000 0.000000 0.000000 0.000000 0.065896 0.000000
# 6 0.000000 0.000000 0.000000 0.000000 0.000000 0.040267
#
#
# Mechanical properties :
#
#
# Convention : Reuss Voigt Hill
#
# Bulk Modulus (GPa) = 44.14174 86.37939 65.26056
# Shear Modulus (GPa) = 22.19187 28.09546 25.14367
#
# Velocity S-wave (km/s) = 3.51889 3.95937 3.74561
# Velocity P-wave (km/s) = 6.41406 8.31264 7.42429
#
# Compressibility (1/GPa) = 0.02265430
#
# Stress axis : x y z
#
# Youngs Moduli (GPa) = 103.82141 33.72742 122.25251
#
# Poissons Ratio (x) = 0.16691 0.52817
# Poissons Ratio (y) = 0.51380 0.38317
# Poissons Ratio (z) = 0.44854 0.10571
#
# Static dielectric constant tensor:
#      x y z
#    x 1.592940 0.000000 0.000000 
#    y 0.000000 1.617050 0.000000 
#    z 0.000000 0.000000 1.601360 
# 
# From -- ./inp_files/27530.got.cif
#   From: 2010.05.17/outbox.cif.g08.bks.cpg/sg59_14_cif.got.tgz:27530.got - 2010.06.03 14:40:33.
