data_PCOD9452661
_publ_section_title
;
Structure prediction by ZEFSAII (Michael W. Deem and Ramdas Pophale) SiO2 
 PCOD9452661
Probable space group: P M M N
;
_chemical_formula_sum "Si O2"
_cell_formula_units_Z 40
_cell_length_a 13.972423
_cell_length_b 16.363787
_cell_length_c 9.263377
_cell_angle_alpha 90.000000
_cell_angle_beta 90.000000
_cell_angle_gamma 90.000000
_cell_volume 2117.994764
_symmetry_space_group_name_H-M "P M M N"
_symmetry_group_IT_number 59
_space_group.IT_coordinate_system_code '2'
_symmetry_cell_setting 'orthorhombic'
loop_
_space_group_symop_operation_xyz
x,y,z
1/2-x,1/2-y,z
1/2+x,-y,-z
-x,1/2+y,-z
-x,-y,-z
1/2+x,1/2+y,-z
1/2-x,y,z
x,1/2-y,z
loop_
_atom_site_type_symbol
_atom_site_label
_atom_site_fract_x
_atom_site_fract_y
_atom_site_fract_z
Si Si1 0.364289 0.431765 0.451478
Si Si2 0.856282 0.653740 0.843577
Si Si3 0.980469 0.401554 0.968532
Si Si4 0.542795 0.102332 0.629616
Si Si5 0.864583 0.250000 0.456776
Si Si6 0.865141 0.250000 0.114811
O O1 0.250000 0.423663 0.474344
O O2 0.393516 0.383652 0.305844
O O3 0.397524 0.523328 0.419281
O O4 0.431728 0.403260 0.581584
O O5 0.750000 0.619640 0.862879
O O6 0.852483 0.750000 0.823780
O O7 0.918554 0.634450 0.981716
O O8 0.954123 0.392305 0.801704
O O9 0.908920 0.336168 0.051324
O O10 0.000000 0.500000 0.000000
O O11 0.590728 0.174252 0.540696
O O12 0.750000 0.250000 0.469726
O O13 0.887163 0.250000 0.286223
O O14 0.750000 0.250000 0.093717
#
# Coordination Sequence:
#
# PCOD9452661 Si02
#       6
#     8   8   8   8   4   4
#     4  10  22  41  64  93 127 165 213 263 320 389
#     4  10  21  40  66  91 122 169 215 265 330 399
#     4  12  24  42  68  99 137 175 221 280 340 405
#     4  11  24  39  65  97 129 169 213 270 326 390
#     4  11  25  45  70  97 130 175 225 276 332 407
#     4  11  27  47  70  97 136 183 229 280 346 417
#
# _framework density 18.885787000000001
#
# number of rings (size 3 to 8) (size 9 to 14) (size 15 to 20)
#    0.000    1.200    3.000    2.400    4.200    4.000 
#    0.000    0.000    0.000    0.000    0.000    0.000 
#    0.000    0.000    0.000    0.000    0.000    0.000 
#
# Total GULP energy -222840.574372 kJ/mol
# GULP energy per Si atom -5571.014359 kJ/mol
# Density = 1.884280 g / cm^3
# Si number density = 18.885787 Si / 1000 Ang^3
#
#
#
# Elastic Constant Matrix: (Units=GPa)
#
#
# Indices 1 2 3 4 5 6 
#
# 1 85.0913 45.4832 56.0349 0.0000 0.0000 0.0000
# 2 45.4832 128.3176 65.5618 0.0000 0.0000 0.0000
# 3 56.0349 65.5618 142.0079 0.0000 0.0000 0.0000
# 4 0.0000 0.0000 0.0000 6.7708 0.0000 0.0000
# 5 0.0000 0.0000 0.0000 0.0000 19.5636 0.0000
# 6 0.0000 0.0000 0.0000 0.0000 0.0000 17.3822
#
#
#
# Elastic Compliance Matrix: (Units=1/GPa)
#
#
# Indices 1 2 3 4 5 6 
#
# 1 0.016933 -0.003387 -0.005118 0.000000 0.000000 0.000000
# 2 -0.003387 0.010877 -0.003685 0.000000 0.000000 0.000000
# 3 -0.005118 -0.003685 0.010763 0.000000 0.000000 0.000000
# 4 0.000000 0.000000 0.000000 0.147693 0.000000 0.000000
# 5 0.000000 0.000000 0.000000 0.000000 0.051115 0.000000
# 6 0.000000 0.000000 0.000000 0.000000 0.000000 0.057530
#
#
# Mechanical properties :
#
#
# Convention : Reuss Voigt Hill
#
# Bulk Modulus (GPa) = 70.46113 76.61962 73.54038
# Shear Modulus (GPa) = 15.43112 21.29910 18.36511
#
# Velocity S-wave (km/s) = 2.86155 3.36189 3.12176
# Velocity P-wave (km/s) = 6.95040 7.46511 7.21235
#
# Compressibility (1/GPa) = 0.01419222
#
# Stress axis : x y z
#
# Youngs Moduli (GPa) = 59.05716 91.94127 92.91509
#
# Poissons Ratio (x) = 0.31142 0.47552
# Poissons Ratio (y) = 0.20003 0.34238
# Poissons Ratio (z) = 0.30224 0.33880
#
# Static dielectric constant tensor:
#      x y z
#    x 1.680330 0.000000 0.000000 
#    y 0.000000 1.588640 0.000000 
#    z 0.000000 0.000000 1.644040 
# 
# From -- ./inp_files/8659.got.cif
#   From: 2010.05.17/outbox.cif.g08.bks.cpg/sg59_5_cif.got.tgz:8659.got - 2010.06.03 14:40:33.
