data_PCOD9452524
_publ_section_title
;
Structure prediction by ZEFSAII (Michael W. Deem and Ramdas Pophale) SiO2 
 PCOD9452524
Probable space group: P M M N
;
_chemical_formula_sum "Si O2"
_cell_formula_units_Z 48
_cell_length_a 8.749713
_cell_length_b 8.891913
_cell_length_c 31.884041
_cell_angle_alpha 90.000000
_cell_angle_beta 90.000000
_cell_angle_gamma 90.000000
_cell_volume 2480.632171
_symmetry_space_group_name_H-M "P M M N"
_symmetry_group_IT_number 59
_space_group.IT_coordinate_system_code '2'
_symmetry_cell_setting 'orthorhombic'
loop_
_space_group_symop_operation_xyz
x,y,z
1/2-x,1/2-y,z
1/2+x,-y,-z
-x,1/2+y,-z
-x,-y,-z
1/2+x,1/2+y,-z
1/2-x,y,z
x,1/2-y,z
loop_
_atom_site_type_symbol
_atom_site_label
_atom_site_fract_x
_atom_site_fract_y
_atom_site_fract_z
Si Si1 0.573110 0.979581 0.909867
Si Si2 0.573687 0.570895 0.541259
Si Si3 0.577257 0.750000 0.834663
Si Si4 0.067931 0.750000 0.973470
Si Si5 0.926557 0.574954 0.378328
Si Si6 0.918601 0.750000 0.061679
Si Si7 0.932219 0.071966 0.712882
Si Si8 0.929413 0.250000 0.252612
O O1 0.750000 0.024363 0.915652
O O2 0.563933 0.887230 0.867125
O O3 0.516772 0.886711 0.950316
O O4 0.453848 0.111385 0.909146
O O5 0.500000 0.500000 0.500000
O O6 0.750000 0.522088 0.544604
O O7 0.569092 0.750000 0.537344
O O8 0.486785 0.521573 0.583170
O O9 0.750000 0.750000 0.816774
O O10 0.459314 0.750000 0.797301
O O11 0.250000 0.750000 0.965571
O O12 0.034067 0.750000 0.022568
O O13 0.750000 0.538394 0.368483
O O14 0.933133 0.750000 0.391214
O O15 0.025060 0.559326 0.336223
O O16 0.750000 0.750000 0.043718
O O17 0.750000 0.066736 0.719589
O O18 0.979861 0.250000 0.724827
O O19 0.001368 0.914413 0.732274
O O20 0.750000 0.250000 0.263188
#
# Coordination Sequence:
#
# PCOD9452524 Si02
#       8
#     8   8   4   4   8   4   8   4
#     4  10  21  39  60  83 114 154 199 248 301 360
#     4  11  24  39  56  81 114 155 203 251 299 358
#     4   9  21  43  66  86 114 156 200 244 299 367
#     4  11  21  35  56  82 116 156 198 248 301 357
#     4  10  21  38  61  89 122 156 194 246 305 364
#     4  12  23  35  54  85 120 156 200 249 299 356
#     4  10  22  42  68  97 129 167 211 259 312 376
#     4  12  25  41  68  99 132 168 206 261 321 382
#
# _framework density 19.349905
#
# number of rings (size 3 to 8) (size 9 to 14) (size 15 to 20)
#    0.000    1.500    0.000    5.750    1.167    7.333 
#    1.500    0.000    0.000    0.000    0.000    0.000 
#    0.000    0.000    0.000    0.000    0.000    0.000 
#
# Total GULP energy -267573.702573 kJ/mol
# GULP energy per Si atom -5574.452137 kJ/mol
# Density = 1.930586 g / cm^3
# Si number density = 19.349905 Si / 1000 Ang^3
#
#
#
# Elastic Constant Matrix: (Units=GPa)
#
#
# Indices 1 2 3 4 5 6 
#
# 1 83.5432 34.0706 20.3714 0.0000 0.0000 0.0000
# 2 34.0706 96.2741 27.6414 0.0000 0.0000 0.0000
# 3 20.3714 27.6414 64.0559 0.0000 0.0000 0.0000
# 4 0.0000 0.0000 0.0000 136.7949 0.0000 0.0000
# 5 0.0000 0.0000 0.0000 0.0000 34.9394 0.0000
# 6 0.0000 0.0000 0.0000 0.0000 0.0000 33.9175
#
#
#
# Elastic Compliance Matrix: (Units=1/GPa)
#
#
# Indices 1 2 3 4 5 6 
#
# 1 0.014391 -0.004313 -0.002715 0.000000 0.000000 0.000000
# 2 -0.004313 0.013149 -0.004302 0.000000 0.000000 0.000000
# 3 -0.002715 -0.004302 0.018331 0.000000 0.000000 0.000000
# 4 0.000000 0.000000 0.000000 0.007310 0.000000 0.000000
# 5 0.000000 0.000000 0.000000 0.000000 0.028621 0.000000
# 6 0.000000 0.000000 0.000000 0.000000 0.000000 0.029483
#
#
# Mechanical properties :
#
#
# Convention : Reuss Voigt Hill
#
# Bulk Modulus (GPa) = 43.08610 45.33777 44.21194
# Shear Modulus (GPa) = 35.28984 51.91633 43.60308
#
# Velocity S-wave (km/s) = 4.27520 5.18541 4.75215
# Velocity P-wave (km/s) = 6.83264 7.70277 7.28072
#
# Compressibility (1/GPa) = 0.02320934
#
# Stress axis : x y z
#
# Youngs Moduli (GPa) = 69.48779 76.05355 54.55113
#
# Poissons Ratio (x) = 0.32804 0.14813
# Poissons Ratio (y) = 0.29972 0.23469
# Poissons Ratio (z) = 0.18869 0.32720
#
# Static dielectric constant tensor:
#      x y z
#    x 1.757280 0.000000 0.000000 
#    y 0.000000 1.690940 0.000000 
#    z 0.000000 0.000000 1.610530 
# 
# From -- ./inp_files/33113.got.cif
#   From: 2010.05.17/outbox.cif.g08.bks.cpg/sg59_17_cif.got.tgz:33113.got - 2010.06.03 14:40:33.
