data_PCOD9452735
_publ_section_title
;
Structure prediction by ZEFSAII (Michael W. Deem and Ramdas Pophale) SiO2 
 PCOD9452735
Probable space group: P M M N
;
_chemical_formula_sum "Si O2"
_cell_formula_units_Z 40
_cell_length_a 7.868898
_cell_length_b 16.306928
_cell_length_c 14.373876
_cell_angle_alpha 90.000000
_cell_angle_beta 90.000000
_cell_angle_gamma 90.000000
_cell_volume 1844.420597
_symmetry_space_group_name_H-M "P M M N"
_symmetry_group_IT_number 59
_space_group.IT_coordinate_system_code '2'
_symmetry_cell_setting 'orthorhombic'
loop_
_space_group_symop_operation_xyz
x,y,z
1/2-x,1/2-y,z
1/2+x,-y,-z
-x,1/2+y,-z
-x,-y,-z
1/2+x,1/2+y,-z
1/2-x,y,z
x,1/2-y,z
loop_
_atom_site_type_symbol
_atom_site_label
_atom_site_fract_x
_atom_site_fract_y
_atom_site_fract_z
Si Si1 0.451477 0.081802 0.943516
Si Si2 0.541843 0.842820 0.451479
Si Si3 0.452651 0.750000 0.953665
Si Si4 0.950123 0.917328 0.638737
Si Si5 0.447380 0.079560 0.735392
Si Si6 0.044158 0.750000 0.739504
O O1 0.250000 0.076813 0.934299
O O2 0.524696 0.083674 0.838304
O O3 0.493116 0.166375 0.995583
O O4 0.500000 0.000000 0.000000
O O5 0.750000 0.845761 0.451463
O O6 0.492345 0.750000 0.474522
O O7 0.486043 0.903714 0.533299
O O8 0.479179 0.866926 0.349164
O O9 0.250000 0.750000 0.951659
O O10 0.512132 0.750000 0.846953
O O11 0.750000 0.937570 0.636771
O O12 0.975858 0.830750 0.689320
O O13 0.043095 0.987446 0.696295
O O14 0.250000 0.105015 0.743404
O O15 0.250000 0.750000 0.735465
#
# Coordination Sequence:
#
# PCOD9452735 Si02
#       6
#     8   8   4   8   8   4
#     4  11  24  42  65  93 124 163 210 258 311 369
#     4   9  18  35  59  86 119 155 194 240 289 349
#     4  11  25  43  64  89 122 162 207 261 316 367
#     4  11  21  36  60  89 120 154 194 242 295 348
#     4  10  22  38  61  87 118 159 200 240 293 359
#     4  11  23  39  60  85 116 154 199 245 296 357
#
# _framework density 21.687028000000002
#
# number of rings (size 3 to 8) (size 9 to 14) (size 15 to 20)
#    0.000    1.600    1.000    3.600    1.400    8.000 
#    0.000    1.000    0.000    0.000    0.000    0.000 
#    0.000    0.000    0.000    0.000    0.000    0.000 
#
# Total GULP energy -223554.786782 kJ/mol
# GULP energy per Si atom -5588.869670 kJ/mol
# Density = 2.163767 g / cm^3
# Si number density = 21.687028 Si / 1000 Ang^3
#
#
#
# Elastic Constant Matrix: (Units=GPa)
#
#
# Indices 1 2 3 4 5 6 
#
# 1 37.2963 -14.0653 6.5951 0.0000 0.0000 0.0000
# 2 -14.0653 97.8264 47.7506 0.0000 0.0000 0.0000
# 3 6.5951 47.7506 188.2172 0.0000 0.0000 0.0000
# 4 0.0000 0.0000 0.0000 18.3073 0.0000 0.0000
# 5 0.0000 0.0000 0.0000 0.0000 16.9601 0.0000
# 6 0.0000 0.0000 0.0000 0.0000 0.0000 28.6879
#
#
#
# Elastic Compliance Matrix: (Units=1/GPa)
#
#
# Indices 1 2 3 4 5 6 
#
# 1 0.029261 0.005373 -0.002388 0.000000 0.000000 0.000000
# 2 0.005373 0.012654 -0.003398 0.000000 0.000000 0.000000
# 3 -0.002388 -0.003398 0.006259 0.000000 0.000000 0.000000
# 4 0.000000 0.000000 0.000000 0.054623 0.000000 0.000000
# 5 0.000000 0.000000 0.000000 0.000000 0.058962 0.000000
# 6 0.000000 0.000000 0.000000 0.000000 0.000000 0.034858
#
#
# Mechanical properties :
#
#
# Convention : Reuss Voigt Hill
#
# Bulk Modulus (GPa) = 21.12138 44.87785 32.99962
# Shear Modulus (GPa) = 23.44931 31.66169 27.55550
#
# Velocity S-wave (km/s) = 3.29182 3.82506 3.56841
# Velocity P-wave (km/s) = 4.92021 6.34401 5.67692
#
# Compressibility (1/GPa) = 0.04734539
#
# Stress axis : x y z
#
# Youngs Moduli (GPa) = 34.17532 79.02921 159.77272
#
# Poissons Ratio (x) = -0.42462 0.38160
# Poissons Ratio (y) = -0.18362 0.54298
# Poissons Ratio (z) = 0.08162 0.26858
#
# Static dielectric constant tensor:
#      x y z
#    x 1.798860 0.000000 0.000000 
#    y 0.000000 1.735510 0.000000 
#    z 0.000000 0.000000 1.825880 
# 
# From -- ./inp_files/19967.got.cif
#   From: 2010.05.17/outbox.cif.g08.bks.cpg/sg59_10_cif.got.tgz:19967.got - 2010.06.03 14:40:33.
