data_PCOD9452584
_publ_section_title
;
Structure prediction by ZEFSAII (Michael W. Deem and Ramdas Pophale) SiO2 
 PCOD9452584
Probable space group: P M M N
;
_chemical_formula_sum "Si O2"
_cell_formula_units_Z 40
_cell_length_a 8.675832
_cell_length_b 15.809299
_cell_length_c 15.658003
_cell_angle_alpha 90.000000
_cell_angle_beta 90.000000
_cell_angle_gamma 90.000000
_cell_volume 2147.633249
_symmetry_space_group_name_H-M "P M M N"
_symmetry_group_IT_number 59
_space_group.IT_coordinate_system_code '2'
_symmetry_cell_setting 'orthorhombic'
loop_
_space_group_symop_operation_xyz
x,y,z
1/2-x,1/2-y,z
1/2+x,-y,-z
-x,1/2+y,-z
-x,-y,-z
1/2+x,1/2+y,-z
1/2-x,y,z
x,1/2-y,z
loop_
_atom_site_type_symbol
_atom_site_label
_atom_site_fract_x
_atom_site_fract_y
_atom_site_fract_z
Si Si1 0.934531 0.750000 0.165955
Si Si2 0.561949 0.750000 0.965252
Si Si3 0.573804 0.500381 0.406779
Si Si4 0.421752 0.153328 0.338123
Si Si5 0.935493 0.074147 0.764888
Si Si6 0.427958 0.404900 0.145586
O O1 0.750000 0.750000 0.175810
O O2 0.002222 0.664678 0.206723
O O3 0.971284 0.750000 0.065148
O O4 0.750000 0.750000 0.953532
O O5 0.503996 0.837207 0.921096
O O6 0.500000 0.500000 0.500000
O O7 0.750000 0.527538 0.410647
O O8 0.553751 0.403999 0.376043
O O9 0.488904 0.552003 0.331403
O O10 0.250000 0.121501 0.364083
O O11 0.434383 0.250000 0.363122
O O12 0.426347 0.144010 0.236034
O O13 0.750000 0.072575 0.766954
O O14 0.992153 0.997664 0.828338
O O15 0.250000 0.419888 0.119035
#
# Coordination Sequence:
#
# PCOD9452584 Si02
#       6
#     4   4   8   8   8   8
#     4  11  23  37  55  82 117 158 197 237 288 343
#     4   9  16  29  53  86 119 150 191 235 282 345
#     4  11  22  38  59  84 114 144 184 232 284 343
#     4   9  16  30  55  84 114 147 183 222 276 337
#     4  10  21  39  61  82 111 152 197 241 289 342
#     4   8  14  28  54  84 111 146 186 231 282 333
#
# _framework density 18.625153999999998
#
# number of rings (size 3 to 8) (size 9 to 14) (size 15 to 20)
#    0.000    2.400    1.000    3.900    0.000    1.200 
#    1.800    0.000    0.000   10.800    0.000    0.000 
#    0.000    0.000    0.000    0.000    0.000    0.000 
#
# Total GULP energy -222804.963587 kJ/mol
# GULP energy per Si atom -5570.124090 kJ/mol
# Density = 1.858276 g / cm^3
# Si number density = 18.625154 Si / 1000 Ang^3
#
#
#
# Elastic Constant Matrix: (Units=GPa)
#
#
# Indices 1 2 3 4 5 6 
#
# 1 60.3981 35.9182 39.7262 0.0000 0.0000 0.0000
# 2 35.9182 149.4362 74.9192 0.0000 0.0000 0.0000
# 3 39.7262 74.9192 105.9775 0.0000 0.0000 0.0000
# 4 0.0000 0.0000 0.0000 10.9017 0.0000 0.0000
# 5 0.0000 0.0000 0.0000 0.0000 17.6594 0.0000
# 6 0.0000 0.0000 0.0000 0.0000 0.0000 19.5125
#
#
#
# Elastic Compliance Matrix: (Units=1/GPa)
#
#
# Indices 1 2 3 4 5 6 
#
# 1 0.022286 -0.001810 -0.007075 0.000000 0.000000 0.000000
# 2 -0.001810 0.010513 -0.006753 0.000000 0.000000 0.000000
# 3 -0.007075 -0.006753 0.016862 0.000000 0.000000 0.000000
# 4 0.000000 0.000000 0.000000 0.091729 0.000000 0.000000
# 5 0.000000 0.000000 0.000000 0.000000 0.056627 0.000000
# 6 0.000000 0.000000 0.000000 0.000000 0.000000 0.051249
#
#
# Mechanical properties :
#
#
# Convention : Reuss Voigt Hill
#
# Bulk Modulus (GPa) = 54.39102 68.54878 61.46990
# Shear Modulus (GPa) = 17.44164 20.63128 19.03646
#
# Velocity S-wave (km/s) = 3.06348 3.33184 3.20047
# Velocity P-wave (km/s) = 6.46371 7.18929 6.83613
#
# Compressibility (1/GPa) = 0.01838539
#
# Stress axis : x y z
#
# Youngs Moduli (GPa) = 44.87031 95.12455 59.30470
#
# Poissons Ratio (x) = 0.17216 0.41957
# Poissons Ratio (y) = 0.08121 0.40050
# Poissons Ratio (z) = 0.31745 0.64240
#
# Static dielectric constant tensor:
#      x y z
#    x 1.665740 0.000000 0.000000 
#    y 0.000000 1.663700 0.000000 
#    z 0.000000 0.000000 1.636800 
# 
# From -- ./inp_files/19979.got.cif
#   From: 2010.05.17/outbox.cif.g08.bks.cpg/sg59_10_cif.got.tgz:19979.got - 2010.06.03 14:40:33.
