data_PCOD9452543
_publ_section_title
;
Structure prediction by ZEFSAII (Michael W. Deem and Ramdas Pophale) SiO2 
 PCOD9452543
Probable space group: P M M N
;
_chemical_formula_sum "Si O2"
_cell_formula_units_Z 48
_cell_length_a 27.320952
_cell_length_b 8.826547
_cell_length_c 10.511180
_cell_angle_alpha 90.000000
_cell_angle_beta 90.000000
_cell_angle_gamma 90.000000
_cell_volume 2534.767556
_symmetry_space_group_name_H-M "P M M N"
_symmetry_group_IT_number 59
_space_group.IT_coordinate_system_code '2'
_symmetry_cell_setting 'orthorhombic'
loop_
_space_group_symop_operation_xyz
x,y,z
1/2-x,1/2-y,z
1/2+x,-y,-z
-x,1/2+y,-z
-x,-y,-z
1/2+x,1/2+y,-z
1/2-x,y,z
x,1/2-y,z
loop_
_atom_site_type_symbol
_atom_site_label
_atom_site_fract_x
_atom_site_fract_y
_atom_site_fract_z
Si Si1 0.028542 0.068110 0.380045
Si Si2 0.307486 0.432361 0.130593
Si Si3 0.028242 0.568797 0.879901
Si Si4 0.636345 0.932331 0.128771
Si Si5 0.307523 0.067660 0.611985
Si Si6 0.863050 0.069502 0.628722
O O1 0.030352 0.250000 0.390753
O O2 0.999962 0.028630 0.250272
O O3 0.083134 0.003100 0.374792
O O4 0.000000 0.000000 0.500000
O O5 0.250000 0.469803 0.129388
O O6 0.311757 0.250000 0.147073
O O7 0.334943 0.512810 0.245927
O O8 0.332685 0.472106 0.996695
O O9 0.028616 0.750000 0.890901
O O10 0.083354 0.507687 0.874749
O O11 0.000000 0.500000 0.000000
O O12 0.630278 0.750000 0.128775
O O13 0.665648 0.973378 0.256516
O O14 0.250000 0.031374 0.618058
O O15 0.311863 0.250000 0.595599
O O16 0.333185 0.986873 0.494065
O O17 0.866945 0.250000 0.628412
#
# Coordination Sequence:
#
# PCOD9452543 Si02
#       6
#     8   8   8   8   8   8
#     4  11  24  42  63  88 118 154 197 243 293 349
#     4  10  21  39  62  87 117 154 196 242 291 344
#     4  11  24  40  60  87 118 153 194 239 290 348
#     4  10  21  38  62  90 118 150 192 241 292 349
#     4  10  21  39  63  89 118 155 197 241 293 351
#     4  12  25  39  58  87 121 157 198 242 290 346
#
# _framework density 18.936648000000002
#
# number of rings (size 3 to 8) (size 9 to 14) (size 15 to 20)
#    0.000    1.333    0.000    5.500    0.000   15.333 
#    0.000    0.000    0.000    3.000    0.000    0.000 
#    0.000    0.000    0.000    0.000    0.000    0.000 
#
# Total GULP energy -268550.476898 kJ/mol
# GULP energy per Si atom -5594.801602 kJ/mol
# Density = 1.889355 g / cm^3
# Si number density = 18.936648 Si / 1000 Ang^3
#
#
#
# Elastic Constant Matrix: (Units=GPa)
#
#
# Indices 1 2 3 4 5 6 
#
# 1 201.5993 76.5282 115.3820 0.0000 0.0000 0.0000
# 2 76.5282 57.7529 82.9870 0.0000 0.0000 0.0000
# 3 115.3820 82.9870 206.8886 0.0000 0.0000 0.0000
# 4 0.0000 0.0000 0.0000 7.7476 0.0000 0.0000
# 5 0.0000 0.0000 0.0000 0.0000 44.8925 0.0000
# 6 0.0000 0.0000 0.0000 0.0000 0.0000 35.6719
#
#
#
# Elastic Compliance Matrix: (Units=1/GPa)
#
#
# Indices 1 2 3 4 5 6 
#
# 1 0.010014 -0.012381 -0.000619 0.000000 0.000000 0.000000
# 2 -0.012381 0.056181 -0.015630 0.000000 0.000000 0.000000
# 3 -0.000619 -0.015630 0.011448 0.000000 0.000000 0.000000
# 4 0.000000 0.000000 0.000000 0.129072 0.000000 0.000000
# 5 0.000000 0.000000 0.000000 0.000000 0.022275 0.000000
# 6 0.000000 0.000000 0.000000 0.000000 0.000000 0.028033
#
#
# Mechanical properties :
#
#
# Convention : Reuss Voigt Hill
#
# Bulk Modulus (GPa) = 49.05964 112.89283 80.97623
# Shear Modulus (GPa) = 15.57250 30.41863 22.99557
#
# Velocity S-wave (km/s) = 2.87077 4.01226 3.48852
# Velocity P-wave (km/s) = 6.07881 9.01165 7.68641
#
# Compressibility (1/GPa) = 0.02038335
#
# Stress axis : x y z
#
# Youngs Moduli (GPa) = 99.85721 17.79972 87.34900
#
# Poissons Ratio (x) = 0.22037 0.05406
# Poissons Ratio (y) = 1.23630 1.36530
# Poissons Ratio (z) = 0.06180 0.27822
#
# Static dielectric constant tensor:
#      x y z
#    x 1.614630 0.000000 0.000000 
#    y 0.000000 1.636330 0.000000 
#    z 0.000000 0.000000 1.625220 
# 
# From -- ./inp_files/12917.got.cif
#   From: 2010.05.17/outbox.cif.g08.bks.cpg/sg59_7_cif.got.tgz:12917.got - 2010.06.03 14:40:33.
