data_PCOD9452893
_publ_section_title
;
Structure prediction by ZEFSAII (Michael W. Deem and Ramdas Pophale) SiO2 
 PCOD9452893
Probable space group: P M M N
;
_chemical_formula_sum "Si O2"
_cell_formula_units_Z 44
_cell_length_a 17.564051
_cell_length_b 14.054573
_cell_length_c 9.217957
_cell_angle_alpha 90.000000
_cell_angle_beta 90.000000
_cell_angle_gamma 90.000000
_cell_volume 2275.500959
_symmetry_space_group_name_H-M "P M M N"
_symmetry_group_IT_number 59
_space_group.IT_coordinate_system_code '2'
_symmetry_cell_setting 'orthorhombic'
loop_
_space_group_symop_operation_xyz
x,y,z
1/2-x,1/2-y,z
1/2+x,-y,-z
-x,1/2+y,-z
-x,-y,-z
1/2+x,1/2+y,-z
1/2-x,y,z
x,1/2-y,z
loop_
_atom_site_type_symbol
_atom_site_label
_atom_site_fract_x
_atom_site_fract_y
_atom_site_fract_z
Si Si1 0.376971 0.020359 0.773231
Si Si2 0.871344 0.641022 0.695595
Si Si3 0.750000 0.893688 0.434840
Si Si4 0.544649 0.361253 0.413321
Si Si5 0.971565 0.137848 0.753883
Si Si6 0.335788 0.966458 0.096176
O O1 0.399840 0.930747 0.672700
O O2 0.316395 0.082696 0.686186
O O3 0.454028 0.079755 0.799283
O O4 0.345622 0.984829 0.926260
O O5 0.863561 0.750000 0.746820
O O6 0.816352 0.626809 0.558370
O O7 0.850339 0.564625 0.817162
O O8 0.958698 0.626484 0.645584
O O9 0.565130 0.250000 0.395641
O O10 0.544667 0.383783 0.584331
O O11 0.985593 0.250000 0.766292
O O12 0.899297 0.105971 0.846879
O O13 0.250000 0.933897 0.128821
#
# Coordination Sequence:
#
# PCOD9452893 Si02
#       6
#     8   8   4   8   8   8
#     4  12  24  44  65 100 134 175 218 270 334 394
#     4  11  23  41  67  99 131 169 215 268 332 393
#     4  12  23  38  69  94 134 168 209 270 327 386
#     4  10  22  42  69  97 125 168 227 277 319 388
#     4  11  24  43  68  97 130 174 227 272 321 391
#     4  12  26  43  64  96 136 177 218 270 334 392
#
# _framework density 19.336400000000001
#
# number of rings (size 3 to 8) (size 9 to 14) (size 15 to 20)
#    0.000    0.727    5.455    2.455    0.000    2.545 
#    0.000    0.455    0.000    0.000    0.000    0.000 
#    0.000    0.000    0.000    0.000    0.000    0.000 
#
# Total GULP energy -245066.428243 kJ/mol
# GULP energy per Si atom -5569.691551 kJ/mol
# Density = 1.929239 g / cm^3
# Si number density = 19.336400 Si / 1000 Ang^3
#
#
#
# Elastic Constant Matrix: (Units=GPa)
#
#
# Indices 1 2 3 4 5 6 
#
# 1 71.5992 13.3871 13.0508 0.0000 0.0000 0.0000
# 2 13.3871 38.3637 -5.0302 0.0000 0.0000 0.0000
# 3 13.0508 -5.0302 21.7373 0.0000 0.0000 0.0000
# 4 0.0000 0.0000 0.0000 -3.7219 0.0000 0.0000
# 5 0.0000 0.0000 0.0000 0.0000 10.2751 0.0000
# 6 0.0000 0.0000 0.0000 0.0000 0.0000 2.0104
#
#
#
# Elastic Compliance Matrix: (Units=1/GPa)
#
#
# Indices 1 2 3 4 5 6 
#
# 1 0.017691 -0.007803 -0.012427 0.000000 0.000000 0.000000
# 2 -0.007803 0.030323 0.011702 0.000000 0.000000 0.000000
# 3 -0.012427 0.011702 0.056173 0.000000 0.000000 0.000000
# 4 0.000000 0.000000 0.000000 -0.268681 0.000000 0.000000
# 5 0.000000 0.000000 0.000000 0.000000 0.097323 0.000000
# 6 0.000000 0.000000 0.000000 0.000000 0.000000 0.497414
#
#
# Mechanical properties :
#
#
# Convention : Reuss Voigt Hill
#
# Bulk Modulus (GPa) = 11.47693 19.39060 15.43376
# Shear Modulus (GPa) = 10.49668 9.06555 9.78112
#
# Velocity S-wave (km/s) = 2.33243 2.16761 2.25153
# Velocity P-wave (km/s) = 3.63345 4.03912 3.84164
#
# Compressibility (1/GPa) = 0.08713134
#
# Stress axis : x y z
#
# Youngs Moduli (GPa) = 56.52716 32.97790 17.80223
#
# Poissons Ratio (x) = 0.25731 0.22122
# Poissons Ratio (y) = 0.44106 -0.20832
# Poissons Ratio (z) = 0.70245 -0.38590
#
# Static dielectric constant tensor:
#      x y z
#    x 1.654960 0.000000 0.000000 
#    y 0.000000 1.684530 0.000000 
#    z 0.000000 0.000000 1.637590 
# 
# From -- ./inp_files/10196.got.cif
#   From: 2010.05.17/outbox.cif.g08.bks.cpg/sg59_6_cif.got.tgz:10196.got - 2010.06.03 14:40:33.
