data_PCOD9452699
_publ_section_title
;
Structure prediction by ZEFSAII (Michael W. Deem and Ramdas Pophale) SiO2 
 PCOD9452699
Probable space group: P M M N
;
_chemical_formula_sum "Si O2"
_cell_formula_units_Z 48
_cell_length_a 32.708878
_cell_length_b 8.572583
_cell_length_c 9.298391
_cell_angle_alpha 90.000000
_cell_angle_beta 90.000000
_cell_angle_gamma 90.000000
_cell_volume 2607.264852
_symmetry_space_group_name_H-M "P M M N"
_symmetry_group_IT_number 59
_space_group.IT_coordinate_system_code '2'
_symmetry_cell_setting 'orthorhombic'
loop_
_space_group_symop_operation_xyz
x,y,z
1/2-x,1/2-y,z
1/2+x,-y,-z
-x,1/2+y,-z
-x,-y,-z
1/2+x,1/2+y,-z
1/2-x,y,z
x,1/2-y,z
loop_
_atom_site_type_symbol
_atom_site_label
_atom_site_fract_x
_atom_site_fract_y
_atom_site_fract_z
Si Si1 0.706407 0.565151 0.075587
Si Si2 0.038827 0.061658 0.085870
Si Si3 0.618165 0.939757 0.090902
Si Si4 0.294947 0.065869 0.575785
Si Si5 0.618087 0.064762 0.416077
Si Si6 0.460289 0.437380 0.417434
O O1 0.750000 0.497400 0.025517
O O2 0.707172 0.750000 0.041728
O O3 0.662128 0.504238 0.029920
O O4 0.705771 0.552930 0.249762
O O5 0.038019 0.250000 0.083609
O O6 0.037917 0.011265 0.251378
O O7 0.080263 0.011126 0.006152
O O8 0.000000 0.000000 0.000000
O O9 0.619261 0.750000 0.096512
O O10 0.613603 0.999255 0.253707
O O11 0.250000 0.009563 0.525158
O O12 0.297882 0.250000 0.542577
O O13 0.336670 0.983794 0.528790
O O14 0.615111 0.250000 0.411949
O O15 0.581376 0.996135 0.509942
O O16 0.500000 0.500000 0.500000
O O17 0.460776 0.250000 0.422304
#
# Coordination Sequence:
#
# PCOD9452699 Si02
#       6
#     8   8   8   8   8   8
#     4   7  10  19  40  69  96 122 155 194 237 286
#     4  10  22  37  55  76  99 128 165 210 258 309
#     4   9  17  32  52  74 101 133 167 208 256 301
#     4   8  14  27  48  73 102 138 177 216 257 298
#     4  11  21  32  50  79 110 141 175 211 255 306
#     4  11  23  39  56  76 102 134 173 215 260 312
#
# _framework density 18.410095999999999
#
# number of rings (size 3 to 8) (size 9 to 14) (size 15 to 20)
#    0.000    2.667    0.000    5.000    0.000    5.000 
#    0.000    0.000    0.000    1.000    0.000    4.667 
#    0.000    2.667    0.000    0.000    0.000    0.000 
#
# Total GULP energy -267486.529636 kJ/mol
# GULP energy per Si atom -5572.636034 kJ/mol
# Density = 1.836819 g / cm^3
# Si number density = 18.410096 Si / 1000 Ang^3
#
#
#
# Elastic Constant Matrix: (Units=GPa)
#
#
# Indices 1 2 3 4 5 6 
#
# 1 235.3808 41.1988 89.6242 0.0000 0.0000 0.0000
# 2 41.1988 35.1695 22.1718 0.0000 0.0000 0.0000
# 3 89.6242 22.1718 85.4892 0.0000 0.0000 0.0000
# 4 0.0000 0.0000 0.0000 15.3313 0.0000 0.0000
# 5 0.0000 0.0000 0.0000 0.0000 24.8767 0.0000
# 6 0.0000 0.0000 0.0000 0.0000 0.0000 29.0350
#
#
#
# Elastic Compliance Matrix: (Units=1/GPa)
#
#
# Indices 1 2 3 4 5 6 
#
# 1 0.007665 -0.004678 -0.006822 0.000000 0.000000 0.000000
# 2 -0.004678 0.036846 -0.004652 0.000000 0.000000 0.000000
# 3 -0.006822 -0.004652 0.020056 0.000000 0.000000 0.000000
# 4 0.000000 0.000000 0.000000 0.065226 0.000000 0.000000
# 5 0.000000 0.000000 0.000000 0.000000 0.040198 0.000000
# 6 0.000000 0.000000 0.000000 0.000000 0.000000 0.034441
#
#
# Mechanical properties :
#
#
# Convention : Reuss Voigt Hill
#
# Bulk Modulus (GPa) = 30.99539 73.55881 52.27710
# Shear Modulus (GPa) = 20.20266 27.38492 23.79379
#
# Velocity S-wave (km/s) = 3.31625 3.86099 3.59894
# Velocity P-wave (km/s) = 5.61569 7.74072 6.76220
#
# Compressibility (1/GPa) = 0.03226287
#
# Stress axis : x y z
#
# Youngs Moduli (GPa) = 130.46387 27.13974 49.85952
#
# Poissons Ratio (x) = 0.12696 0.34017
# Poissons Ratio (y) = 0.61030 0.23195
# Poissons Ratio (z) = 0.89009 0.12625
#
# Static dielectric constant tensor:
#      x y z
#    x 1.675450 0.000000 0.000000 
#    y 0.000000 1.644360 0.000000 
#    z 0.000000 0.000000 1.610530 
# 
# From -- ./inp_files/12968.got.cif
#   From: 2010.05.17/outbox.cif.g08.bks.cpg/sg59_7_cif.got.tgz:12968.got - 2010.06.03 14:40:33.
