data_PCOD9452418
_publ_section_title
;
Structure prediction by ZEFSAII (Michael W. Deem and Ramdas Pophale) SiO2 
 PCOD9452418
Probable space group: P M M N
;
_chemical_formula_sum "Si O2"
_cell_formula_units_Z 48
_cell_length_a 18.289759
_cell_length_b 8.684935
_cell_length_c 15.833031
_cell_angle_alpha 90.000000
_cell_angle_beta 90.000000
_cell_angle_gamma 90.000000
_cell_volume 2515.003637
_symmetry_space_group_name_H-M "P M M N"
_symmetry_group_IT_number 59
_space_group.IT_coordinate_system_code '2'
_symmetry_cell_setting 'orthorhombic'
loop_
_space_group_symop_operation_xyz
x,y,z
1/2-x,1/2-y,z
1/2+x,-y,-z
-x,1/2+y,-z
-x,-y,-z
1/2+x,1/2+y,-z
1/2-x,y,z
x,1/2-y,z
loop_
_atom_site_type_symbol
_atom_site_label
_atom_site_fract_x
_atom_site_fract_y
_atom_site_fract_z
Si Si1 0.334371 0.064134 0.164990
Si Si2 0.835422 0.063921 0.501489
Si Si3 0.918353 0.935063 0.005729
Si Si4 0.412118 0.065170 0.665100
Si Si5 0.082178 0.935761 0.327146
Si Si6 0.835454 0.065327 0.168348
O O1 0.250000 0.012502 0.167278
O O2 0.334982 0.250000 0.167962
O O3 0.373136 0.017560 0.077661
O O4 0.378591 0.001576 0.244766
O O5 0.750000 0.020887 0.503360
O O6 0.839548 0.250000 0.495596
O O7 0.875431 0.016322 0.587919
O O8 0.875124 0.992970 0.420724
O O9 0.920841 0.750000 0.008654
O O10 0.878607 0.996774 0.089020
O O11 0.000000 0.000000 0.000000
O O12 0.408840 0.250000 0.668428
O O13 0.497303 0.017882 0.668388
O O14 0.370124 0.996529 0.745276
O O15 0.084884 0.750000 0.322944
O O16 0.750000 0.022412 0.163685
O O17 0.840895 0.250000 0.166892
#
# Coordination Sequence:
#
# PCOD9452418 Si02
#       6
#     8   8   8   8   8   8
#     4  10  22  39  59  85 116 150 188 233 286 339
#     4  10  21  38  59  83 114 152 192 236 288 344
#     4  11  23  40  62  88 120 156 195 241 292 347
#     4  11  23  38  59  87 117 151 193 240 290 347
#     4  10  22  39  59  85 116 152 192 234 285 343
#     4  11  24  41  61  86 117 155 198 243 294 351
#
# _framework density 19.085460000000001
#
# number of rings (size 3 to 8) (size 9 to 14) (size 15 to 20)
#    0.000    1.500    0.000    4.500    0.000   11.333 
#    0.000    0.000    0.000    0.000    0.000    0.000 
#    0.000    0.000    0.000    0.000    0.000    0.000 
#
# Total GULP energy -268470.828448 kJ/mol
# GULP energy per Si atom -5593.142259 kJ/mol
# Density = 1.904202 g / cm^3
# Si number density = 19.085460 Si / 1000 Ang^3
#
#
#
# Elastic Constant Matrix: (Units=GPa)
#
#
# Indices 1 2 3 4 5 6 
#
# 1 130.8829 35.9467 38.3961 0.0000 0.0000 0.0000
# 2 35.9467 26.7221 28.3173 0.0000 0.0000 0.0000
# 3 38.3961 28.3173 127.2911 0.0000 0.0000 0.0000
# 4 0.0000 0.0000 0.0000 35.0768 0.0000 0.0000
# 5 0.0000 0.0000 0.0000 0.0000 46.4148 0.0000
# 6 0.0000 0.0000 0.0000 0.0000 0.0000 30.0200
#
#
#
# Elastic Compliance Matrix: (Units=1/GPa)
#
#
# Indices 1 2 3 4 5 6 
#
# 1 0.012117 -0.016260 -0.000038 0.000000 0.000000 0.000000
# 2 -0.016260 0.070785 -0.010842 0.000000 0.000000 0.000000
# 3 -0.000038 -0.010842 0.010279 0.000000 0.000000 0.000000
# 4 0.000000 0.000000 0.000000 0.028509 0.000000 0.000000
# 5 0.000000 0.000000 0.000000 0.000000 0.021545 0.000000
# 6 0.000000 0.000000 0.000000 0.000000 0.000000 0.033311
#
#
# Mechanical properties :
#
#
# Convention : Reuss Voigt Hill
#
# Bulk Modulus (GPa) = 25.70613 54.46847 40.08730
# Shear Modulus (GPa) = 20.50914 34.45139 27.48027
#
# Velocity S-wave (km/s) = 3.28166 4.25327 3.79866
# Velocity P-wave (km/s) = 5.27800 7.26096 6.34740
#
# Compressibility (1/GPa) = 0.03890123
#
# Stress axis : x y z
#
# Youngs Moduli (GPa) = 82.52641 14.12732 97.28228
#
# Poissons Ratio (x) = 0.22971 0.00368
# Poissons Ratio (y) = 1.34190 1.05475
# Poissons Ratio (z) = 0.00312 0.15317
#
# Static dielectric constant tensor:
#      x y z
#    x 1.642460 0.000000 0.000000 
#    y 0.000000 1.647420 0.000000 
#    z 0.000000 0.000000 1.612180 
# 
# From -- ./inp_files/23642.got.cif
#   From: 2010.05.17/outbox.cif.g08.bks.cpg/sg59_12_cif.got.tgz:23642.got - 2010.06.03 14:40:33.
