data_PCOD9452203
_publ_section_title
;
Structure prediction by ZEFSAII (Michael W. Deem and Ramdas Pophale) SiO2 
 PCOD9452203
Probable space group: P M M N
;
_chemical_formula_sum "Si O2"
_cell_formula_units_Z 56
_cell_length_a 20.124596
_cell_length_b 8.547744
_cell_length_c 16.294985
_cell_angle_alpha 90.000000
_cell_angle_beta 90.000000
_cell_angle_gamma 90.000000
_cell_volume 2803.061604
_symmetry_space_group_name_H-M "P M M N"
_symmetry_group_IT_number 59
_space_group.IT_coordinate_system_code '2'
_symmetry_cell_setting 'orthorhombic'
loop_
_space_group_symop_operation_xyz
x,y,z
1/2-x,1/2-y,z
1/2+x,-y,-z
-x,1/2+y,-z
-x,-y,-z
1/2+x,1/2+y,-z
1/2-x,y,z
x,1/2-y,z
loop_
_atom_site_type_symbol
_atom_site_label
_atom_site_fract_x
_atom_site_fract_y
_atom_site_fract_z
Si Si1 0.328411 0.434819 0.676344
Si Si2 0.085769 0.440923 0.834198
Si Si3 0.174511 0.059413 0.983319
Si Si4 0.457447 0.065755 0.424668
Si Si5 0.173130 0.564630 0.497029
Si Si6 0.544474 0.436328 0.751294
Si Si7 0.324619 0.061427 0.171857
O O1 0.250000 0.450221 0.695066
O O2 0.341775 0.250000 0.661207
O O3 0.370778 0.485561 0.754641
O O4 0.341824 0.526441 0.592433
O O5 0.086342 0.250000 0.836547
O O6 0.121092 0.496494 0.917149
O O7 0.010543 0.491883 0.817014
O O8 0.250000 0.014220 0.959987
O O9 0.173235 0.250000 0.982898
O O10 0.162966 0.010847 0.077324
O O11 0.466555 0.250000 0.419518
O O12 0.500000 0.000000 0.500000
O O13 0.380640 0.024308 0.442815
O O14 0.477540 0.988422 0.338990
O O15 0.250000 0.518224 0.482194
O O16 0.166910 0.750000 0.483134
O O17 0.546591 0.250000 0.753651
O O18 0.616812 0.500928 0.771729
O O19 0.250000 0.009978 0.195072
O O20 0.325091 0.250000 0.173047
#
# Coordination Sequence:
#
# PCOD9452203 Si02
#       7
#     8   8   8   8   8   8   8
#     4   9  16  28  50  79 110 145 184 226 274 328
#     4   9  17  29  48  78 113 144 179 224 271 325
#     4   8  14  28  53  82 110 143 184 227 269 316
#     4  12  25  42  63  84 111 147 188 233 282 339
#     4  10  21  37  57  82 112 145 184 232 285 338
#     4  11  23  37  55  82 114 147 181 222 278 337
#     4   9  19  37  59  81 107 143 189 237 280 324
#
# _framework density 19.978154
#
# number of rings (size 3 to 8) (size 9 to 14) (size 15 to 20)
#    0.000    2.286    0.000    4.286    0.000    5.143 
#    0.000    0.714    0.000    1.714    0.000    2.000 
#    0.000    0.000    0.000    0.000    0.000    0.000 
#
# Total GULP energy -312748.413716 kJ/mol
# GULP energy per Si atom -5584.793102 kJ/mol
# Density = 1.993268 g / cm^3
# Si number density = 19.978154 Si / 1000 Ang^3
#
#
#
# Elastic Constant Matrix: (Units=GPa)
#
#
# Indices 1 2 3 4 5 6 
#
# 1 82.0408 15.2722 43.2623 0.0000 0.0000 0.0000
# 2 15.2722 19.2485 4.5121 0.0000 0.0000 0.0000
# 3 43.2623 4.5121 63.5708 0.0000 0.0000 0.0000
# 4 0.0000 0.0000 0.0000 18.1635 0.0000 0.0000
# 5 0.0000 0.0000 0.0000 0.0000 37.1457 0.0000
# 6 0.0000 0.0000 0.0000 0.0000 0.0000 22.4199
#
#
#
# Elastic Compliance Matrix: (Units=1/GPa)
#
#
# Indices 1 2 3 4 5 6 
#
# 1 0.022354 -0.014410 -0.014190 0.000000 0.000000 0.000000
# 2 -0.014410 0.062120 0.005398 0.000000 0.000000 0.000000
# 3 -0.014190 0.005398 0.025004 0.000000 0.000000 0.000000
# 4 0.000000 0.000000 0.000000 0.055055 0.000000 0.000000
# 5 0.000000 0.000000 0.000000 0.000000 0.026921 0.000000
# 6 0.000000 0.000000 0.000000 0.000000 0.000000 0.044603
#
#
# Mechanical properties :
#
#
# Convention : Reuss Voigt Hill
#
# Bulk Modulus (GPa) = 15.85454 32.32812 24.09133
# Shear Modulus (GPa) = 16.47505 22.33339 19.40422
#
# Velocity S-wave (km/s) = 2.87479 3.34711 3.11990
# Velocity P-wave (km/s) = 4.35573 5.58162 5.00634
#
# Compressibility (1/GPa) = 0.06307340
#
# Stress axis : x y z
#
# Youngs Moduli (GPa) = 44.73377 16.09779 39.99295
#
# Poissons Ratio (x) = 0.23197 0.56751
# Poissons Ratio (y) = 0.64462 -0.21586
# Poissons Ratio (z) = 0.63478 -0.08689
#
# Static dielectric constant tensor:
#      x y z
#    x 1.716450 0.000000 0.000000 
#    y 0.000000 1.681450 0.000000 
#    z 0.000000 0.000000 1.687290 
# 
# From -- ./inp_files/24272.got.cif
#   From: 2010.05.17/outbox.cif.g08.bks.cpg/sg59_13_cif.got.tgz:24272.got - 2010.06.03 14:40:33.
