data_PCOD9452290
_publ_section_title
;
Structure prediction by ZEFSAII (Michael W. Deem and Ramdas Pophale) SiO2 
 PCOD9452290
Probable space group: P M M N
;
_chemical_formula_sum "Si O2"
_cell_formula_units_Z 64
_cell_length_a 8.514747
_cell_length_b 14.994497
_cell_length_c 24.698880
_cell_angle_alpha 90.000000
_cell_angle_beta 90.000000
_cell_angle_gamma 90.000000
_cell_volume 3153.413409
_symmetry_space_group_name_H-M "P M M N"
_symmetry_group_IT_number 59
_space_group.IT_coordinate_system_code '2'
_symmetry_cell_setting 'orthorhombic'
loop_
_space_group_symop_operation_xyz
x,y,z
1/2-x,1/2-y,z
1/2+x,-y,-z
-x,1/2+y,-z
-x,-y,-z
1/2+x,1/2+y,-z
1/2-x,y,z
x,1/2-y,z
loop_
_atom_site_type_symbol
_atom_site_label
_atom_site_fract_x
_atom_site_fract_y
_atom_site_fract_z
Si Si1 0.559687 0.853236 0.347727
Si Si2 0.068794 0.483180 0.559055
Si Si3 0.064933 0.648277 0.907253
Si Si4 0.064435 0.536060 0.123451
Si Si5 0.931804 0.646334 0.024779
Si Si6 0.059513 0.956746 0.242290
Si Si7 0.930534 0.849273 0.611721
Si Si8 0.933736 0.654422 0.742041
O O1 0.750000 0.856548 0.347956
O O2 0.511037 0.750000 0.348897
O O3 0.501123 0.907394 0.400700
O O4 0.503089 0.901199 0.292852
O O5 0.250000 0.461173 0.551573
O O6 0.000000 0.500000 0.500000
O O7 0.044564 0.575543 0.590704
O O8 0.250000 0.642453 0.895770
O O9 0.010983 0.750000 0.895920
O O10 0.974625 0.569266 0.877371
O O11 0.035308 0.632429 0.971297
O O12 0.250000 0.547419 0.115880
O O13 0.020671 0.576643 0.181971
O O14 0.977289 0.583054 0.073989
O O15 0.750000 0.631861 0.009362
O O16 0.950187 0.750000 0.041103
O O17 0.250000 0.959858 0.246912
O O18 0.997228 0.058702 0.243637
O O19 0.750000 0.871133 0.596181
O O20 0.967028 0.750000 0.591209
O O21 0.934451 0.845736 0.676665
O O22 0.750000 0.654345 0.759055
O O23 0.003619 0.750000 0.760079
#
# Coordination Sequence:
#
# PCOD9452290 Si02
#       8
#     8   8   8   8   8   8   8   8
#     4  10  23  43  63  83 113 155 197 238 289 343
#     4  11  23  38  59  87 118 151 190 238 288 341
#     4  10  21  38  60  85 116 154 194 241 296 352
#     4  11  23  36  55  86 121 155 192 241 294 348
#     4  10  21  38  60  83 110 150 199 248 298 353
#     4  10  21  37  59  86 115 150 195 240 282 334
#     4   9  17  32  57  84 111 144 179 221 276 336
#     4   8  14  28  53  81 107 138 176 218 270 331
#
# _framework density 20.295468
#
# number of rings (size 3 to 8) (size 9 to 14) (size 15 to 20)
#    0.000    2.125    1.250    2.625    0.000    5.000 
#    0.000    5.000    0.000    0.375    0.000    0.000 
#    0.000    0.000    0.000    0.000    0.000    0.000 
#
# Total GULP energy -357147.206670 kJ/mol
# GULP energy per Si atom -5580.425104 kJ/mol
# Density = 2.024927 g / cm^3
# Si number density = 20.295468 Si / 1000 Ang^3
#
#
#
# Elastic Constant Matrix: (Units=GPa)
#
#
# Indices 1 2 3 4 5 6 
#
# 1 12.6095 4.9207 6.5676 0.0000 0.0000 0.0000
# 2 4.9207 89.4242 45.2341 0.0000 0.0000 0.0000
# 3 6.5676 45.2341 99.0109 0.0000 0.0000 0.0000
# 4 0.0000 0.0000 0.0000 -4.7733 0.0000 0.0000
# 5 0.0000 0.0000 0.0000 0.0000 22.0323 0.0000
# 6 0.0000 0.0000 0.0000 0.0000 0.0000 26.9833
#
#
#
# Elastic Compliance Matrix: (Units=1/GPa)
#
#
# Indices 1 2 3 4 5 6 
#
# 1 0.082507 -0.002304 -0.004420 0.000000 0.000000 0.000000
# 2 -0.002304 0.014608 -0.006521 0.000000 0.000000 0.000000
# 3 -0.004420 -0.006521 0.013372 0.000000 0.000000 0.000000
# 4 0.000000 0.000000 0.000000 -0.209499 0.000000 0.000000
# 5 0.000000 0.000000 0.000000 0.000000 0.045388 0.000000
# 6 0.000000 0.000000 0.000000 0.000000 0.000000 0.037060
#
#
# Mechanical properties :
#
#
# Convention : Reuss Voigt Hill
#
# Bulk Modulus (GPa) = 11.90525 34.94326 23.42426
# Shear Modulus (GPa) = 131.83626 18.46995 75.15310
#
# Velocity S-wave (km/s) = 8.06843 3.01998 6.09179
# Velocity P-wave (km/s) = 9.62694 5.42356 7.81323
#
# Compressibility (1/GPa) = 0.08399655
#
# Stress axis : x y z
#
# Youngs Moduli (GPa) = 12.12020 68.45564 74.78168
#
# Poissons Ratio (x) = 0.15774 0.33054
# Poissons Ratio (y) = 0.02793 0.48765
# Poissons Ratio (z) = 0.05357 0.44640
#
# Static dielectric constant tensor:
#      x y z
#    x 1.657390 0.000000 0.000000 
#    y 0.000000 1.742710 0.000000 
#    z 0.000000 0.000000 1.721880 
# 
# From -- ./inp_files/31487.got.cif
#   From: 2010.05.17/outbox.cif.g08.bks.cpg/sg59_16_cif.got.tgz:31487.got - 2010.06.03 14:40:33.
