data_PCOD9452669
_publ_section_title
;
Structure prediction by ZEFSAII (Michael W. Deem and Ramdas Pophale) SiO2 
 PCOD9452669
Probable space group: P M M N
;
_chemical_formula_sum "Si O2"
_cell_formula_units_Z 48
_cell_length_a 18.673378
_cell_length_b 8.483929
_cell_length_c 14.680806
_cell_angle_alpha 90.000000
_cell_angle_beta 90.000000
_cell_angle_gamma 90.000000
_cell_volume 2325.786330
_symmetry_space_group_name_H-M "P M M N"
_symmetry_group_IT_number 59
_space_group.IT_coordinate_system_code '2'
_symmetry_cell_setting 'orthorhombic'
loop_
_space_group_symop_operation_xyz
x,y,z
1/2-x,1/2-y,z
1/2+x,-y,-z
-x,1/2+y,-z
-x,-y,-z
1/2+x,1/2+y,-z
1/2-x,y,z
x,1/2-y,z
loop_
_atom_site_type_symbol
_atom_site_label
_atom_site_fract_x
_atom_site_fract_y
_atom_site_fract_z
Si Si1 0.250000 0.061640 0.504477
Si Si2 0.100937 0.064766 0.759148
Si Si3 0.750000 0.064372 0.289466
Si Si4 0.134654 0.564795 0.364725
Si Si5 0.986309 0.066881 0.400198
Si Si6 0.827065 0.560678 0.824914
Si Si7 0.481855 0.061130 0.100029
O O1 0.250000 0.250000 0.493830
O O2 0.250000 0.018273 0.610893
O O3 0.318353 0.990185 0.450772
O O4 0.108795 0.250000 0.772011
O O5 0.178330 0.984327 0.764085
O O6 0.071366 0.027508 0.657928
O O7 0.040764 0.001673 0.828478
O O8 0.750000 0.250000 0.305715
O O9 0.117424 0.750000 0.373738
O O10 0.063225 0.461454 0.354868
O O11 0.174308 0.529722 0.270831
O O12 0.966866 0.250000 0.402077
O O13 0.000000 0.000000 0.500000
O O14 0.750000 0.531693 0.872105
O O15 0.831078 0.750000 0.808294
O O16 0.900375 0.513228 0.874673
O O17 0.484678 0.250000 0.102170
O O18 0.500000 0.000000 0.000000
#
# Coordination Sequence:
#
# PCOD9452669 Si02
#       7
#     4   8   4   8   8   8   8
#     4  12  24  40  60  89 134 183 228 278 338 398
#     4  12  25  45  70  98 134 177 226 283 346 408
#     4  12  26  46  68  95 132 177 232 284 338 404
#     4  12  23  36  58  91 128 170 220 271 327 392
#     4  12  24  40  61  90 127 173 223 275 333 399
#     4  10  21  40  67  97 132 173 217 268 332 401
#     4  11  24  45  73 103 138 179 226 283 349 411
#
# _framework density 20.638180999999999
#
# number of rings (size 3 to 8) (size 9 to 14) (size 15 to 20)
#    0.000    0.500    2.500    7.500    0.000    0.667 
#    1.500    0.000    0.000    0.000    0.000    0.000 
#    0.000    0.000    0.000    0.000    0.000    0.000 
#
# Total GULP energy -268506.199979 kJ/mol
# GULP energy per Si atom -5593.879166 kJ/mol
# Density = 2.059121 g / cm^3
# Si number density = 20.638181 Si / 1000 Ang^3
#
#
#
# Elastic Constant Matrix: (Units=GPa)
#
#
# Indices 1 2 3 4 5 6 
#
# 1 151.5098 8.9244 45.2019 0.0000 0.0000 0.0000
# 2 8.9244 76.1640 17.2781 0.0000 0.0000 0.0000
# 3 45.2019 17.2781 92.1334 0.0000 0.0000 0.0000
# 4 0.0000 0.0000 0.0000 34.1789 0.0000 0.0000
# 5 0.0000 0.0000 0.0000 0.0000 20.2880 0.0000
# 6 0.0000 0.0000 0.0000 0.0000 0.0000 22.7704
#
#
#
# Elastic Compliance Matrix: (Units=1/GPa)
#
#
# Indices 1 2 3 4 5 6 
#
# 1 0.007732 -0.000047 -0.003785 0.000000 0.000000 0.000000
# 2 -0.000047 0.013713 -0.002548 0.000000 0.000000 0.000000
# 3 -0.003785 -0.002548 0.013189 0.000000 0.000000 0.000000
# 4 0.000000 0.000000 0.000000 0.029258 0.000000 0.000000
# 5 0.000000 0.000000 0.000000 0.000000 0.049290 0.000000
# 6 0.000000 0.000000 0.000000 0.000000 0.000000 0.043917
#
#
# Mechanical properties :
#
#
# Convention : Reuss Voigt Hill
#
# Bulk Modulus (GPa) = 45.71852 51.40177 48.56014
# Shear Modulus (GPa) = 28.22461 32.00766 30.11613
#
# Velocity S-wave (km/s) = 3.70211 3.94241 3.82415
# Velocity P-wave (km/s) = 6.36197 6.75897 6.56347
#
# Compressibility (1/GPa) = 0.02187298
#
# Stress axis : x y z
#
# Youngs Moduli (GPa) = 129.33043 72.92221 75.82359
#
# Poissons Ratio (x) = 0.00346 0.28696
# Poissons Ratio (y) = 0.00614 0.19323
# Poissons Ratio (z) = 0.48946 0.18584
#
# Static dielectric constant tensor:
#      x y z
#    x 1.909430 0.000000 0.000000 
#    y 0.000000 1.636240 0.000000 
#    z 0.000000 0.000000 1.929760 
# 
# From -- ./inp_files/23738.got.cif
#   From: 2010.05.17/outbox.cif.g08.bks.cpg/sg59_12_cif.got.tgz:23738.got - 2010.06.03 14:40:33.
