data_PCOD9452479
_publ_section_title
;
Structure prediction by ZEFSAII (Michael W. Deem and Ramdas Pophale) SiO2 
 PCOD9452479
Probable space group: P M M N
;
_chemical_formula_sum "Si O2"
_cell_formula_units_Z 56
_cell_length_a 22.783953
_cell_length_b 8.727907
_cell_length_c 14.809170
_cell_angle_alpha 90.000000
_cell_angle_beta 90.000000
_cell_angle_gamma 90.000000
_cell_volume 2944.895610
_symmetry_space_group_name_H-M "P M M N"
_symmetry_group_IT_number 59
_space_group.IT_coordinate_system_code '2'
_symmetry_cell_setting 'orthorhombic'
loop_
_space_group_symop_operation_xyz
x,y,z
1/2-x,1/2-y,z
1/2+x,-y,-z
-x,1/2+y,-z
-x,-y,-z
1/2+x,1/2+y,-z
1/2-x,y,z
x,1/2-y,z
loop_
_atom_site_type_symbol
_atom_site_label
_atom_site_fract_x
_atom_site_fract_y
_atom_site_fract_z
Si Si1 0.652884 0.432936 0.313855
Si Si2 0.027917 0.570441 0.088504
Si Si3 0.750000 0.066272 0.961278
Si Si4 0.396721 0.566298 0.341984
Si Si5 0.750000 0.435970 0.169513
Si Si6 0.353702 0.430516 0.157884
Si Si7 0.316008 0.433061 0.493618
Si Si8 0.526531 0.570798 0.282795
O O1 0.658806 0.250000 0.323179
O O2 0.692491 0.481131 0.227612
O O3 0.677083 0.512608 0.403654
O O4 0.584793 0.477664 0.304540
O O5 0.043598 0.750000 0.076705
O O6 0.084470 0.471573 0.112836
O O7 0.985940 0.561917 0.175685
O O8 0.000000 0.500000 0.000000
O O9 0.750000 0.250000 0.962812
O O10 0.694739 0.007159 0.904862
O O11 0.750000 0.010677 0.065667
O O12 0.603792 0.250000 0.664029
O O13 0.359532 0.499767 0.258211
O O14 0.365912 0.509967 0.432642
O O15 0.465261 0.519129 0.329693
O O16 0.750000 0.250000 0.166256
O O17 0.343687 0.250000 0.163821
O O18 0.250000 0.474976 0.462115
O O19 0.321784 0.250000 0.488371
O O20 0.535872 0.750000 0.306512
#
# Coordination Sequence:
#
# PCOD9452479 Si02
#       8
#     8   8   4   8   4   8   8   8
#     4  11  22  40  65  91 121 159 204 252 303 364
#     4  10  21  38  60  87 120 160 206 253 305 364
#     4  11  23  41  62  87 122 165 207 254 308 363
#     4  10  22  42  66  91 123 163 203 251 306 367
#     4   9  22  41  60  87 120 157 205 256 300 359
#     4  11  23  40  60  90 126 160 203 253 302 367
#     4  11  24  41  63  92 124 160 201 252 307 364
#     4   9  21  40  60  88 122 156 199 250 306 362
#
# _framework density 19.015954000000001
#
# number of rings (size 3 to 8) (size 9 to 14) (size 15 to 20)
#    0.000    1.714    0.714    4.071    3.000    4.857 
#    0.000    2.143    0.000    0.000    0.000    0.000 
#    0.000    0.000    0.000    0.000    0.000    0.000 
#
# Total GULP energy -312774.832608 kJ/mol
# GULP energy per Si atom -5585.264868 kJ/mol
# Density = 1.897267 g / cm^3
# Si number density = 19.015954 Si / 1000 Ang^3
#
#
#
# Elastic Constant Matrix: (Units=GPa)
#
#
# Indices 1 2 3 4 5 6 
#
# 1 89.3862 29.4855 47.2207 0.0000 0.0000 0.0000
# 2 29.4855 64.5961 17.6754 0.0000 0.0000 0.0000
# 3 47.2207 17.6754 62.6609 0.0000 0.0000 0.0000
# 4 0.0000 0.0000 0.0000 30.2904 0.0000 0.0000
# 5 0.0000 0.0000 0.0000 0.0000 17.9322 0.0000
# 6 0.0000 0.0000 0.0000 0.0000 0.0000 29.6728
#
#
#
# Elastic Compliance Matrix: (Units=1/GPa)
#
#
# Indices 1 2 3 4 5 6 
#
# 1 0.020236 -0.005488 -0.013702 0.000000 0.000000 0.000000
# 2 -0.005488 0.018264 -0.001016 0.000000 0.000000 0.000000
# 3 -0.013702 -0.001016 0.026571 0.000000 0.000000 0.000000
# 4 0.000000 0.000000 0.000000 0.033014 0.000000 0.000000
# 5 0.000000 0.000000 0.000000 0.000000 0.055766 0.000000
# 6 0.000000 0.000000 0.000000 0.000000 0.000000 0.033701
#
#
# Mechanical properties :
#
#
# Convention : Reuss Voigt Hill
#
# Bulk Modulus (GPa) = 40.55257 45.04516 42.79887
# Shear Modulus (GPa) = 21.17012 23.72985 22.44998
#
# Velocity S-wave (km/s) = 3.34021 3.53638 3.43969
# Velocity P-wave (km/s) = 6.02062 6.35722 6.19120
#
# Compressibility (1/GPa) = 0.02465935
#
# Stress axis : x y z
#
# Youngs Moduli (GPa) = 49.41728 54.75299 37.63504
#
# Poissons Ratio (x) = 0.30047 0.51566
# Poissons Ratio (y) = 0.27119 0.03825
# Poissons Ratio (z) = 0.67709 0.05565
#
# Static dielectric constant tensor:
#      x y z
#    x 1.690190 0.000000 0.000000 
#    y 0.000000 1.640100 0.000000 
#    z 0.000000 0.000000 1.656890 
# 
# From -- ./inp_files/24342.got.cif
#   From: 2010.05.17/outbox.cif.g08.bks.cpg/sg59_13_cif.got.tgz:24342.got - 2010.06.03 14:40:33.
