data_PCOD9452151
_publ_section_title
;
Structure prediction by ZEFSAII (Michael W. Deem and Ramdas Pophale) SiO2 
 PCOD9452151
Probable space group: P M M N
;
_chemical_formula_sum "Si O2"
_cell_formula_units_Z 48
_cell_length_a 7.716021
_cell_length_b 13.501518
_cell_length_c 18.723471
_cell_angle_alpha 90.000000
_cell_angle_beta 90.000000
_cell_angle_gamma 90.000000
_cell_volume 1950.573695
_symmetry_space_group_name_H-M "P M M N"
_symmetry_group_IT_number 59
_space_group.IT_coordinate_system_code '2'
_symmetry_cell_setting 'orthorhombic'
loop_
_space_group_symop_operation_xyz
x,y,z
1/2-x,1/2-y,z
1/2+x,-y,-z
-x,1/2+y,-z
-x,-y,-z
1/2+x,1/2+y,-z
1/2-x,y,z
x,1/2-y,z
loop_
_atom_site_type_symbol
_atom_site_label
_atom_site_fract_x
_atom_site_fract_y
_atom_site_fract_z
Si Si1 0.454184 0.368838 0.615745
Si Si2 0.549690 0.144272 0.061980
Si Si3 0.449766 0.551369 0.232467
Si Si4 0.037346 0.363223 0.304575
Si Si5 0.451082 0.424414 0.914097
Si Si6 0.958134 0.630736 0.537836
O O1 0.250000 0.393061 0.619548
O O2 0.467199 0.250000 0.612546
O O3 0.538762 0.401803 0.689155
O O4 0.526944 0.406065 0.538909
O O5 0.750000 0.145022 0.084657
O O6 0.470176 0.250000 0.084396
O O7 0.542727 0.137060 0.975590
O O8 0.476897 0.037638 0.085142
O O9 0.250000 0.545084 0.212483
O O10 0.522800 0.440751 0.245664
O O11 0.537683 0.608565 0.167735
O O12 0.250000 0.364810 0.305488
O O13 0.984208 0.250000 0.293128
O O14 0.978859 0.399690 0.383563
O O15 0.250000 0.427589 0.935349
O O16 0.750000 0.617094 0.536048
O O17 0.985867 0.750000 0.539031
#
# Coordination Sequence:
#
# PCOD9452151 Si02
#       6
#     8   8   8   8   8   8
#     4   9  18  33  52  72  96 132 177 220 263 311
#     4   9  19  38  63  86 106 131 164 204 251 297
#     4  11  22  33  49  76 108 140 171 208 255 300
#     4   8  15  29  48  71 100 134 173 215 259 308
#     4  10  21  37  56  80 110 139 168 203 243 297
#     4   7  11  24  47  70  92 124 170 220 262 303
#
# _framework density 24.608146999999999
#
# number of rings (size 3 to 8) (size 9 to 14) (size 15 to 20)
#    0.000    3.000    0.000    3.000    0.000    3.333 
#    0.000    0.000    0.000    2.500    0.000    4.667 
#    0.000    0.000    0.000    0.000    0.000    0.000 
#
# Total GULP energy -267943.624102 kJ/mol
# GULP energy per Si atom -5582.158835 kJ/mol
# Density = 2.455214 g / cm^3
# Si number density = 24.608147 Si / 1000 Ang^3
#
#
#
# Elastic Constant Matrix: (Units=GPa)
#
#
# Indices 1 2 3 4 5 6 
#
# 1 51.9986 8.1133 5.3924 0.0000 0.0000 0.0000
# 2 8.1133 46.4665 -11.5181 0.0000 0.0000 0.0000
# 3 5.3924 -11.5181 107.3262 0.0000 0.0000 0.0000
# 4 0.0000 0.0000 0.0000 9.4652 0.0000 0.0000
# 5 0.0000 0.0000 0.0000 0.0000 19.2178 0.0000
# 6 0.0000 0.0000 0.0000 0.0000 0.0000 11.7824
#
#
#
# Elastic Compliance Matrix: (Units=1/GPa)
#
#
# Indices 1 2 3 4 5 6 
#
# 1 0.019977 -0.003839 -0.001416 0.000000 0.000000 0.000000
# 2 -0.003839 0.022847 0.002645 0.000000 0.000000 0.000000
# 3 -0.001416 0.002645 0.009672 0.000000 0.000000 0.000000
# 4 0.000000 0.000000 0.000000 0.105650 0.000000 0.000000
# 5 0.000000 0.000000 0.000000 0.000000 0.052035 0.000000
# 6 0.000000 0.000000 0.000000 0.000000 0.000000 0.084872
#
#
# Mechanical properties :
#
#
# Convention : Reuss Voigt Hill
#
# Bulk Modulus (GPa) = 21.15224 23.30738 22.22981
# Shear Modulus (GPa) = 15.82118 21.68000 18.75059
#
# Velocity S-wave (km/s) = 2.53835 2.97140 2.76337
# Velocity P-wave (km/s) = 4.14792 4.61132 4.38574
#
# Compressibility (1/GPa) = 0.04727631
#
# Stress axis : x y z
#
# Youngs Moduli (GPa) = 50.05731 43.76984 103.38749
#
# Poissons Ratio (x) = 0.16803 0.14637
# Poissons Ratio (y) = 0.19217 -0.27344
# Poissons Ratio (z) = 0.07087 -0.11576
#
# Static dielectric constant tensor:
#      x y z
#    x 1.892930 0.000000 0.000000 
#    y 0.000000 2.021770 0.000000 
#    z 0.000000 0.000000 1.970740 
# 
# From -- ./inp_files/25454.got.cif
#   From: 2010.05.17/outbox.cif.g08.bks.cpg/sg59_13_cif.got.tgz:25454.got - 2010.06.03 14:40:33.
