data_PCOD9452247
_publ_section_title
;
Structure prediction by ZEFSAII (Michael W. Deem and Ramdas Pophale) SiO2 
 PCOD9452247
Probable space group: P M M N
;
_chemical_formula_sum "Si O2"
_cell_formula_units_Z 48
_cell_length_a 9.156321
_cell_length_b 9.306713
_cell_length_c 31.216712
_cell_angle_alpha 90.000000
_cell_angle_beta 90.000000
_cell_angle_gamma 90.000000
_cell_volume 2660.139970
_symmetry_space_group_name_H-M "P M M N"
_symmetry_group_IT_number 59
_space_group.IT_coordinate_system_code '2'
_symmetry_cell_setting 'orthorhombic'
loop_
_space_group_symop_operation_xyz
x,y,z
1/2-x,1/2-y,z
1/2+x,-y,-z
-x,1/2+y,-z
-x,-y,-z
1/2+x,1/2+y,-z
1/2-x,y,z
x,1/2-y,z
loop_
_atom_site_type_symbol
_atom_site_label
_atom_site_fract_x
_atom_site_fract_y
_atom_site_fract_z
Si Si1 0.076042 0.580277 0.539436
Si Si2 0.077281 0.579159 0.792692
Si Si3 0.922766 0.078374 0.871355
Si Si4 0.076140 0.580143 0.383720
Si Si5 0.578477 0.577600 0.039283
Si Si6 0.923449 0.420255 0.715801
O O1 0.250000 0.560016 0.537133
O O2 0.045204 0.750000 0.537268
O O3 0.000000 0.500000 0.500000
O O4 0.013640 0.513886 0.583152
O O5 0.250000 0.550844 0.796225
O O6 0.054024 0.750000 0.793256
O O7 0.994064 0.505493 0.832119
O O8 0.015024 0.512146 0.749022
O O9 0.750000 0.049771 0.874078
O O10 0.941996 0.250000 0.864745
O O11 0.001167 0.039564 0.915910
O O12 0.250000 0.558066 0.390100
O O13 0.047747 0.750000 0.390773
O O14 0.043195 0.547903 0.333958
O O15 0.750000 0.541149 0.040682
O O16 0.565601 0.750000 0.034117
O O17 0.500000 0.500000 0.000000
O O18 0.750000 0.444903 0.722325
O O19 0.949274 0.250000 0.722680
#
# Coordination Sequence:
#
# PCOD9452247 Si02
#       6
#     8   8   8   8   8   8
#     4  11  24  39  56  81 112 145 183 227 273 323
#     4  11  24  38  53  79 114 148 183 226 274 323
#     4  10  21  38  60  83 107 140 184 230 275 326
#     4   9  19  37  60  85 112 142 180 225 271 323
#     4  10  21  37  58  84 113 146 183 223 271 326
#     4   9  19  37  60  84 110 143 183 225 270 323
#
# _framework density 18.044163999999999
#
# number of rings (size 3 to 8) (size 9 to 14) (size 15 to 20)
#    0.000    2.000    0.000    4.000    0.000   11.333 
#    0.000    5.000    0.000    0.000    0.000    0.000 
#    0.000    0.000    0.000    0.000    0.000    0.000 
#
# Total GULP energy -268206.957661 kJ/mol
# GULP energy per Si atom -5587.644951 kJ/mol
# Density = 1.800309 g / cm^3
# Si number density = 18.044164 Si / 1000 Ang^3
#
#
#
# Elastic Constant Matrix: (Units=GPa)
#
#
# Indices 1 2 3 4 5 6 
#
# 1 130.4235 94.6961 112.0951 0.0000 0.0000 0.0000
# 2 94.6961 83.4438 98.4525 0.0000 0.0000 0.0000
# 3 112.0951 98.4525 156.1135 0.0000 0.0000 0.0000
# 4 0.0000 0.0000 0.0000 38.8116 0.0000 0.0000
# 5 0.0000 0.0000 0.0000 0.0000 40.9642 0.0000
# 6 0.0000 0.0000 0.0000 0.0000 0.0000 33.9181
#
#
#
# Elastic Compliance Matrix: (Units=1/GPa)
#
#
# Indices 1 2 3 4 5 6 
#
# 1 0.043565 -0.048968 -0.000399 0.000000 0.000000 0.000000
# 2 -0.048968 0.101869 -0.029083 0.000000 0.000000 0.000000
# 3 -0.000399 -0.029083 0.025033 0.000000 0.000000 0.000000
# 4 0.000000 0.000000 0.000000 0.025765 0.000000 0.000000
# 5 0.000000 0.000000 0.000000 0.000000 0.024412 0.000000
# 6 0.000000 0.000000 0.000000 0.000000 0.000000 0.029483
#
#
# Mechanical properties :
#
#
# Convention : Reuss Voigt Hill
#
# Bulk Modulus (GPa) = 73.70924 108.94090 91.32507
# Shear Modulus (GPa) = 12.14920 27.05457 19.60188
#
# Velocity S-wave (km/s) = 2.59762 3.87635 3.29953
# Velocity P-wave (km/s) = 7.06646 8.97443 8.07698
#
# Compressibility (1/GPa) = 0.01356682
#
# Stress axis : x y z
#
# Youngs Moduli (GPa) = 22.95437 9.81650 39.94676
#
# Poissons Ratio (x) = 0.48070 0.01596
# Poissons Ratio (y) = 1.12403 1.16176
# Poissons Ratio (z) = 0.00917 0.28549
#
# Static dielectric constant tensor:
#      x y z
#    x 1.597250 0.000000 0.000000 
#    y 0.000000 1.596480 0.000000 
#    z 0.000000 0.000000 1.588700 
# 
# From -- ./inp_files/32821.got.cif
#   From: 2010.05.17/outbox.cif.g08.bks.cpg/sg59_17_cif.got.tgz:32821.got - 2010.06.03 14:40:33.
