data_PCOD9452727
_publ_section_title
;
Structure prediction by ZEFSAII (Michael W. Deem and Ramdas Pophale) SiO2 
 PCOD9452727
Probable space group: P M M N
;
_chemical_formula_sum "Si O2"
_cell_formula_units_Z 48
_cell_length_a 18.161367
_cell_length_b 10.473661
_cell_length_c 12.877484
_cell_angle_alpha 90.000000
_cell_angle_beta 90.000000
_cell_angle_gamma 90.000000
_cell_volume 2449.503513
_symmetry_space_group_name_H-M "P M M N"
_symmetry_group_IT_number 59
_space_group.IT_coordinate_system_code '2'
_symmetry_cell_setting 'orthorhombic'
loop_
_space_group_symop_operation_xyz
x,y,z
1/2-x,1/2-y,z
1/2+x,-y,-z
-x,1/2+y,-z
-x,-y,-z
1/2+x,1/2+y,-z
1/2-x,y,z
x,1/2-y,z
loop_
_atom_site_type_symbol
_atom_site_label
_atom_site_fract_x
_atom_site_fract_y
_atom_site_fract_z
Si Si1 0.987372 0.404206 0.718135
Si Si2 0.332500 0.250000 0.671917
Si Si3 0.930592 0.995658 0.075263
Si Si4 0.902560 0.502817 0.429704
Si Si5 0.834854 0.250000 0.090996
Si Si6 0.665387 0.750000 0.078018
Si Si7 0.664343 0.402727 0.639392
Si Si8 0.834048 0.250000 0.338700
O O1 0.999677 0.250000 0.719105
O O2 0.899130 0.423223 0.726020
O O3 0.034392 0.468641 0.810094
O O4 0.013872 0.464297 0.607457
O O5 0.250000 0.250000 0.636196
O O6 0.366053 0.377159 0.626335
O O7 0.334095 0.250000 0.796173
O O8 0.881965 0.123554 0.065721
O O9 0.878692 0.876273 0.047494
O O10 0.000000 0.000000 0.000000
O O11 0.865165 0.484640 0.542022
O O12 0.878082 0.373105 0.374489
O O13 0.750000 0.250000 0.050026
O O14 0.828649 0.250000 0.215421
O O15 0.750000 0.750000 0.042751
O O16 0.750000 0.430048 0.663850
O O17 0.660076 0.250000 0.613322
O O18 0.750000 0.250000 0.381198
#
# Coordination Sequence:
#
# PCOD9452727 Si02
#       8
#     8   4   8   8   4   4   8   4
#     4  11  22  41  60  88 121 159 208 249 297 368
#     4  11  20  31  57  88 124 155 187 241 304 361
#     4  12  23  41  65  92 122 163 202 255 313 372
#     4  12  19  36  56  88 120 155 201 246 298 352
#     4  11  23  39  60  95 130 152 193 261 323 366
#     4  11  21  41  64  89 124 164 203 249 313 380
#     4  10  22  38  59  85 121 167 207 246 292 352
#     4  11  20  31  55  86 122 153 185 241 306 357
#
# _framework density 19.595808000000002
#
# number of rings (size 3 to 8) (size 9 to 14) (size 15 to 20)
#    0.000    0.833    5.833    3.000    0.000    2.667 
#    0.000    2.500    0.000    0.000    0.000    0.000 
#    0.000    0.000    0.000    0.000    0.000    0.000 
#
# Total GULP energy -267605.634947 kJ/mol
# GULP energy per Si atom -5575.117395 kJ/mol
# Density = 1.955121 g / cm^3
# Si number density = 19.595808 Si / 1000 Ang^3
#
#
#
# Elastic Constant Matrix: (Units=GPa)
#
#
# Indices 1 2 3 4 5 6 
#
# 1 192.1733 73.3650 20.9449 0.0000 0.0000 0.0000
# 2 73.3650 156.6076 19.4790 0.0000 0.0000 0.0000
# 3 20.9449 19.4790 28.7599 0.0000 0.0000 0.0000
# 4 0.0000 0.0000 0.0000 -6.4150 0.0000 0.0000
# 5 0.0000 0.0000 0.0000 0.0000 20.1322 0.0000
# 6 0.0000 0.0000 0.0000 0.0000 0.0000 24.1056
#
#
#
# Elastic Compliance Matrix: (Units=1/GPa)
#
#
# Indices 1 2 3 4 5 6 
#
# 1 0.006557 -0.002706 -0.002943 0.000000 0.000000 0.000000
# 2 -0.002706 0.008089 -0.003508 0.000000 0.000000 0.000000
# 3 -0.002943 -0.003508 0.039290 0.000000 0.000000 0.000000
# 4 0.000000 0.000000 0.000000 -0.155884 0.000000 0.000000
# 5 0.000000 0.000000 0.000000 0.000000 0.049672 0.000000
# 6 0.000000 0.000000 0.000000 0.000000 0.000000 0.041484
#
#
# Mechanical properties :
#
#
# Convention : Reuss Voigt Hill
#
# Bulk Modulus (GPa) = 28.07200 67.23540 47.65370
# Shear Modulus (GPa) = 257.77417 25.14801 141.46109
#
# Velocity S-wave (km/s) = 11.48177 3.58625 8.50566
# Velocity P-wave (km/s) = 13.78882 7.17871 10.99239
#
# Compressibility (1/GPa) = 0.03562269
#
# Stress axis : x y z
#
# Youngs Moduli (GPa) = 152.49987 123.61929 25.45176
#
# Poissons Ratio (x) = 0.33450 0.07490
# Poissons Ratio (y) = 0.41264 0.08929
# Poissons Ratio (z) = 0.44879 0.43369
#
# Static dielectric constant tensor:
#      x y z
#    x 1.764390 0.000000 0.000000 
#    y 0.000000 1.276970 0.000000 
#    z 0.000000 0.000000 1.717270 
# 
# From -- ./inp_files/23787.got.cif
#   From: 2010.05.17/outbox.cif.g08.bks.cpg/sg59_12_cif.got.tgz:23787.got - 2010.06.03 14:40:33.
