data_PCOD9452630
_publ_section_title
;
Structure prediction by ZEFSAII (Michael W. Deem and Ramdas Pophale) SiO2 
 PCOD9452630
Probable space group: P M M N
;
_chemical_formula_sum "Si O2"
_cell_formula_units_Z 64
_cell_length_a 14.463988
_cell_length_b 8.835102
_cell_length_c 24.508124
_cell_angle_alpha 90.000000
_cell_angle_beta 90.000000
_cell_angle_gamma 90.000000
_cell_volume 3131.913001
_symmetry_space_group_name_H-M "P M M N"
_symmetry_group_IT_number 59
_space_group.IT_coordinate_system_code '2'
_symmetry_cell_setting 'orthorhombic'
loop_
_space_group_symop_operation_xyz
x,y,z
1/2-x,1/2-y,z
1/2+x,-y,-z
-x,1/2+y,-z
-x,-y,-z
1/2+x,1/2+y,-z
1/2-x,y,z
x,1/2-y,z
loop_
_atom_site_type_symbol
_atom_site_label
_atom_site_fract_x
_atom_site_fract_y
_atom_site_fract_z
Si Si1 0.860255 0.074746 0.972554
Si Si2 0.145662 0.580038 0.612288
Si Si3 0.859675 0.570343 0.650820
Si Si4 0.038181 0.070784 0.130438
Si Si5 0.646252 0.423633 0.256340
Si Si6 0.518903 0.073823 0.558478
Si Si7 0.857975 0.570230 0.089642
Si Si8 0.045613 0.572207 0.242290
O O1 0.750000 0.070790 0.962926
O O2 0.887424 0.250000 0.981821
O O3 0.911913 0.007460 0.920670
O O4 0.877659 0.978230 0.027079
O O5 0.250000 0.556547 0.592121
O O6 0.115032 0.750000 0.595294
O O7 0.148741 0.580474 0.677710
O O8 0.075243 0.456060 0.591800
O O9 0.750000 0.543542 0.653226
O O10 0.877170 0.750000 0.652893
O O11 0.902592 0.505155 0.595107
O O12 0.909240 0.495228 0.703022
O O13 0.046918 0.250000 0.127188
O O14 0.079154 0.009555 0.187217
O O15 0.930717 0.021615 0.125579
O O16 0.750000 0.463892 0.237470
O O17 0.625172 0.250000 0.238470
O O18 0.563848 0.536295 0.243323
O O19 0.539361 0.250000 0.552860
O O20 0.500000 0.000000 0.500000
O O21 0.750000 0.534750 0.100332
O O22 0.871620 0.750000 0.096537
O O23 0.062593 0.750000 0.239466
#
# Coordination Sequence:
#
# PCOD9452630 Si02
#       8
#     8   8   8   8   8   8   8   8
#     4  10  21  39  63  90 122 160 205 259 317 377
#     4   9  18  35  61  90 122 158 195 241 296 356
#     4  11  25  47  72  95 125 167 213 260 312 372
#     4  12  25  40  61  88 123 166 211 261 313 371
#     4   9  18  35  61  89 119 157 197 239 294 361
#     4  12  25  41  65  96 130 167 206 256 309 365
#     4  10  21  39  63  91 125 164 207 257 314 378
#     4  12  25  41  63  92 126 164 208 260 313 371
#
# _framework density 20.434794
#
# number of rings (size 3 to 8) (size 9 to 14) (size 15 to 20)
#    0.000    1.375    1.250    5.625    0.000    4.500 
#    0.000    1.250    0.000    0.000    0.000    0.000 
#    0.000    0.000    0.000    0.000    0.000    0.000 
#
# Total GULP energy -357890.497717 kJ/mol
# GULP energy per Si atom -5592.039027 kJ/mol
# Density = 2.038828 g / cm^3
# Si number density = 20.434794 Si / 1000 Ang^3
#
#
#
# Elastic Constant Matrix: (Units=GPa)
#
#
# Indices 1 2 3 4 5 6 
#
# 1 56.5797 30.9266 23.9837 0.0000 0.0000 0.0000
# 2 30.9266 100.5845 27.0999 0.0000 0.0000 0.0000
# 3 23.9837 27.0999 96.3223 0.0000 0.0000 0.0000
# 4 0.0000 0.0000 0.0000 34.1996 0.0000 0.0000
# 5 0.0000 0.0000 0.0000 0.0000 1.6423 0.0000
# 6 0.0000 0.0000 0.0000 0.0000 0.0000 19.1188
#
#
#
# Elastic Compliance Matrix: (Units=1/GPa)
#
#
# Indices 1 2 3 4 5 6 
#
# 1 0.022564 -0.005869 -0.003967 0.000000 0.000000 0.000000
# 2 -0.005869 0.012284 -0.001995 0.000000 0.000000 0.000000
# 3 -0.003967 -0.001995 0.011931 0.000000 0.000000 0.000000
# 4 0.000000 0.000000 0.000000 0.029240 0.000000 0.000000
# 5 0.000000 0.000000 0.000000 0.000000 0.608903 0.000000
# 6 0.000000 0.000000 0.000000 0.000000 0.000000 0.052304
#
#
# Mechanical properties :
#
#
# Convention : Reuss Voigt Hill
#
# Bulk Modulus (GPa) = 43.25794 46.38964 44.82379
# Shear Modulus (GPa) = 6.50540 22.42390 14.46465
#
# Velocity S-wave (km/s) = 1.78617 3.31621 2.66342
# Velocity P-wave (km/s) = 5.04664 6.11666 5.60723
#
# Compressibility (1/GPa) = 0.02311714
#
# Stress axis : x y z
#
# Youngs Moduli (GPa) = 44.31898 81.40816 83.81682
#
# Poissons Ratio (x) = 0.47777 0.33251
# Poissons Ratio (y) = 0.26010 0.16719
# Poissons Ratio (z) = 0.17582 0.16238
#
# Static dielectric constant tensor:
#      x y z
#    x 1.741420 0.000000 0.000000 
#    y 0.000000 1.689770 0.000000 
#    z 0.000000 0.000000 1.730910 
# 
# From -- ./inp_files/32206.got.cif
#   From: 2010.05.17/outbox.cif.g08.bks.cpg/sg59_17_cif.got.tgz:32206.got - 2010.06.03 14:40:33.
