data_PCOD9452717
_publ_section_title
;
Structure prediction by ZEFSAII (Michael W. Deem and Ramdas Pophale) SiO2 
 PCOD9452717
Probable space group: P M M N
;
_chemical_formula_sum "Si O2"
_cell_formula_units_Z 64
_cell_length_a 14.912139
_cell_length_b 9.131386
_cell_length_c 26.442432
_cell_angle_alpha 90.000000
_cell_angle_beta 90.000000
_cell_angle_gamma 90.000000
_cell_volume 3600.626230
_symmetry_space_group_name_H-M "P M M N"
_symmetry_group_IT_number 59
_space_group.IT_coordinate_system_code '2'
_symmetry_cell_setting 'orthorhombic'
loop_
_space_group_symop_operation_xyz
x,y,z
1/2-x,1/2-y,z
1/2+x,-y,-z
-x,1/2+y,-z
-x,-y,-z
1/2+x,1/2+y,-z
1/2-x,y,z
x,1/2-y,z
loop_
_atom_site_type_symbol
_atom_site_label
_atom_site_fract_x
_atom_site_fract_y
_atom_site_fract_z
Si Si1 0.648404 0.082060 0.102989
Si Si2 0.005341 0.423223 0.828069
Si Si3 0.144504 0.573498 0.638344
Si Si4 0.647535 0.580297 0.887638
Si Si5 0.403561 0.075811 0.997716
Si Si6 0.500148 0.925487 0.290892
Si Si7 0.144493 0.426602 0.361385
Si Si8 0.500201 0.924825 0.554093
O O1 0.750000 0.081338 0.121641
O O2 0.619920 0.250000 0.093997
O O3 0.584342 0.006860 0.143232
O O4 0.644200 0.996330 0.050065
O O5 0.017653 0.250000 0.833945
O O6 0.915839 0.475184 0.856268
O O7 0.001399 0.457507 0.768712
O O8 0.250000 0.534440 0.636373
O O9 0.138565 0.750000 0.645160
O O10 0.088025 0.537779 0.587463
O O11 0.087775 0.494565 0.682273
O O12 0.750000 0.566183 0.871589
O O13 0.619119 0.750000 0.880389
O O14 0.640808 0.550874 0.947680
O O15 0.410767 0.250000 0.990116
O O16 0.500000 0.000000 0.000000
O O17 0.499569 0.750000 0.298080
O O18 0.412350 0.995600 0.317228
O O19 0.250000 0.465898 0.363269
O O20 0.138749 0.250000 0.354883
O O21 0.087967 0.463046 0.412223
O O22 0.500608 0.750000 0.547499
O O23 0.500000 0.000000 0.500000
#
# Coordination Sequence:
#
# PCOD9452717 Si02
#       8
#     8   8   8   8   8   8   8   8
#     4  11  24  40  59  84 112 145 186 228 272 328
#     4  11  24  40  58  81 112 147 180 225 283 335
#     4   9  19  37  59  81 108 147 191 230 273 327
#     4  10  22  39  59  83 111 144 182 223 268 325
#     4  11  21  36  60  86 113 146 182 221 271 328
#     4  10  22  38  56  82 112 141 180 232 286 334
#     4   9  19  37  59  81 108 148 193 231 272 326
#     4   9  18  32  51  80 117 151 185 227 272 322
#
# _framework density 17.774685999999999
#
# number of rings (size 3 to 8) (size 9 to 14) (size 15 to 20)
#    0.000    2.000    1.250    2.625    0.000    8.250 
#    0.000    5.000    0.000    0.000    0.000    0.000 
#    0.000    0.000    0.000    0.000    0.000    0.000 
#
# Total GULP energy -357206.342358 kJ/mol
# GULP energy per Si atom -5581.349099 kJ/mol
# Density = 1.773423 g / cm^3
# Si number density = 17.774686 Si / 1000 Ang^3
#
#
#
# Elastic Constant Matrix: (Units=GPa)
#
#
# Indices 1 2 3 4 5 6 
#
# 1 146.9866 56.7269 69.6916 0.0000 0.0000 0.0000
# 2 56.7269 72.8432 79.2467 0.0000 0.0000 0.0000
# 3 69.6916 79.2467 143.5249 0.0000 0.0000 0.0000
# 4 0.0000 0.0000 0.0000 34.5875 0.0000 0.0000
# 5 0.0000 0.0000 0.0000 0.0000 23.6678 0.0000
# 6 0.0000 0.0000 0.0000 0.0000 0.0000 17.5539
#
#
#
# Elastic Compliance Matrix: (Units=1/GPa)
#
#
# Indices 1 2 3 4 5 6 
#
# 1 0.009833 -0.006168 -0.001369 0.000000 0.000000 0.000000
# 2 -0.006168 0.038248 -0.018124 0.000000 0.000000 0.000000
# 3 -0.001369 -0.018124 0.017639 0.000000 0.000000 0.000000
# 4 0.000000 0.000000 0.000000 0.028912 0.000000 0.000000
# 5 0.000000 0.000000 0.000000 0.000000 0.042251 0.000000
# 6 0.000000 0.000000 0.000000 0.000000 0.000000 0.056967
#
#
# Mechanical properties :
#
#
# Convention : Reuss Voigt Hill
#
# Bulk Modulus (GPa) = 69.44937 86.07613 77.76275
# Shear Modulus (GPa) = 20.00223 25.67448 22.83835
#
# Velocity S-wave (km/s) = 3.35822 3.80470 3.58841
# Velocity P-wave (km/s) = 7.36164 8.23604 7.81109
#
# Compressibility (1/GPa) = 0.01439898
#
# Stress axis : x y z
#
# Youngs Moduli (GPa) = 101.69972 26.14486 56.69285
#
# Poissons Ratio (x) = 0.16127 0.07760
# Poissons Ratio (y) = 0.62731 1.02748
# Poissons Ratio (z) = 0.13920 0.47384
#
# Static dielectric constant tensor:
#      x y z
#    x 1.615640 0.000000 0.000000 
#    y 0.000000 1.592700 0.000000 
#    z 0.000000 0.000000 1.586910 
# 
# From -- ./inp_files/32253.got.cif
#   From: 2010.05.17/outbox.cif.g08.bks.cpg/sg59_17_cif.got.tgz:32253.got - 2010.06.03 14:40:33.
