data_PCOD9452731
_publ_section_title
;
Structure prediction by ZEFSAII (Michael W. Deem and Ramdas Pophale) SiO2 
 PCOD9452731
Probable space group: P M M N
;
_chemical_formula_sum "Si O2"
_cell_formula_units_Z 40
_cell_length_a 25.118236
_cell_length_b 13.667052
_cell_length_c 4.876312
_cell_angle_alpha 90.000000
_cell_angle_beta 90.000000
_cell_angle_gamma 90.000000
_cell_volume 1674.000058
_symmetry_space_group_name_H-M "P M M N"
_symmetry_group_IT_number 59
_space_group.IT_coordinate_system_code '2'
_symmetry_cell_setting 'orthorhombic'
loop_
_space_group_symop_operation_xyz
x,y,z
1/2-x,1/2-y,z
1/2+x,-y,-z
-x,1/2+y,-z
-x,-y,-z
1/2+x,1/2+y,-z
1/2-x,y,z
x,1/2-y,z
loop_
_atom_site_type_symbol
_atom_site_label
_atom_site_fract_x
_atom_site_fract_y
_atom_site_fract_z
Si Si1 0.413657 0.642366 0.741934
Si Si2 0.192095 0.575709 0.467481
Si Si3 0.807800 0.938776 0.035263
Si Si4 0.524269 0.639298 0.431569
Si Si5 0.078105 0.442492 0.068970
O O1 0.415071 0.750000 0.876413
O O2 0.359498 0.633200 0.565223
O O3 0.464559 0.635844 0.542567
O O4 0.416486 0.552099 0.952523
O O5 0.250000 0.623278 0.515484
O O6 0.190973 0.535804 0.158676
O O7 0.191123 0.477582 0.654643
O O8 0.750000 0.890740 0.984971
O O9 0.864523 0.890819 0.973380
O O10 0.543423 0.750000 0.470809
O O11 0.533754 0.609018 0.119580
O O12 0.559853 0.568601 0.620508
#
# Coordination Sequence:
#
# PCOD9452731 Si02
#       5
#     8   8   8   8   8
#     4  10  22  38  59  90 123 158 200 244 293 358
#     4   9  18  34  54  81 118 155 190 229 278 343
#     4   9  18  34  58  85 112 148 191 236 289 346
#     4  11  24  40  60  86 118 156 203 254 302 353
#     4  11  21  40  63  86 118 158 197 245 305 358
#
# _framework density 23.894860000000001
#
# number of rings (size 3 to 8) (size 9 to 14) (size 15 to 20)
#    0.000    2.000    0.000    4.200    0.000    3.600 
#    0.000   15.000    0.000   13.200    0.000    0.000 
#    0.000    0.000    0.000    0.000    0.000    0.000 
#
# Total GULP energy -223660.889270 kJ/mol
# GULP energy per Si atom -5591.522232 kJ/mol
# Density = 2.384047 g / cm^3
# Si number density = 23.894860 Si / 1000 Ang^3
#
#
#
# Elastic Constant Matrix: (Units=GPa)
#
#
# Indices 1 2 3 4 5 6 
#
# 1 173.7395 6.1981 7.9802 0.0000 0.0000 0.0000
# 2 6.1981 86.0176 11.7084 0.0000 0.0000 0.0000
# 3 7.9802 11.7084 63.7214 0.0000 0.0000 0.0000
# 4 0.0000 0.0000 0.0000 8.4407 0.0000 0.0000
# 5 0.0000 0.0000 0.0000 0.0000 35.5260 0.0000
# 6 0.0000 0.0000 0.0000 0.0000 0.0000 0.3169
#
#
#
# Elastic Compliance Matrix: (Units=1/GPa)
#
#
# Indices 1 2 3 4 5 6 
#
# 1 0.005798 -0.000327 -0.000666 0.000000 0.000000 0.000000
# 2 -0.000327 0.011942 -0.002153 0.000000 0.000000 0.000000
# 3 -0.000666 -0.002153 0.016172 0.000000 0.000000 0.000000
# 4 0.000000 0.000000 0.000000 0.118473 0.000000 0.000000
# 5 0.000000 0.000000 0.000000 0.000000 0.028148 0.000000
# 6 0.000000 0.000000 0.000000 0.000000 0.000000 3.155729
#
#
# Mechanical properties :
#
#
# Convention : Reuss Voigt Hill
#
# Bulk Modulus (GPa) = 36.20612 41.69466 38.95039
# Shear Modulus (GPa) = 1.49175 28.69618 15.09397
#
# Velocity S-wave (km/s) = 0.79098 3.46921 2.51606
# Velocity P-wave (km/s) = 4.00242 5.79088 4.97763
#
# Compressibility (1/GPa) = 0.02761964
#
# Stress axis : x y z
#
# Youngs Moduli (GPa) = 172.47311 83.73667 61.83385
#
# Poissons Ratio (x) = 0.02739 0.04118
# Poissons Ratio (y) = 0.05642 0.13315
# Poissons Ratio (z) = 0.11487 0.18031
#
# Static dielectric constant tensor:
#      x y z
#    x 1.976130 0.000000 0.000000 
#    y 0.000000 1.903930 0.000000 
#    z 0.000000 0.000000 1.841750 
# 
# From -- ./inp_files/2067.got.cif
#   From: 2010.05.17/outbox.cif.g08.bks.cpg/sg59_2_cif.got.tgz:2067.got - 2010.06.03 14:40:33.
