data_PCOD9452122
_publ_section_title
;
Structure prediction by ZEFSAII (Michael W. Deem and Ramdas Pophale) SiO2 
 PCOD9452122
Probable space group: P M M N
;
_chemical_formula_sum "Si O2"
_cell_formula_units_Z 64
_cell_length_a 8.804996
_cell_length_b 20.595243
_cell_length_c 20.474839
_cell_angle_alpha 90.000000
_cell_angle_beta 90.000000
_cell_angle_gamma 90.000000
_cell_volume 3712.928439
_symmetry_space_group_name_H-M "P M M N"
_symmetry_group_IT_number 59
_space_group.IT_coordinate_system_code '2'
_symmetry_cell_setting 'orthorhombic'
loop_
_space_group_symop_operation_xyz
x,y,z
1/2-x,1/2-y,z
1/2+x,-y,-z
-x,1/2+y,-z
-x,-y,-z
1/2+x,1/2+y,-z
1/2-x,y,z
x,1/2-y,z
loop_
_atom_site_type_symbol
_atom_site_label
_atom_site_fract_x
_atom_site_fract_y
_atom_site_fract_z
Si Si1 0.930453 0.579215 0.163686
Si Si2 0.431811 0.825111 0.056626
Si Si3 0.070244 0.895589 0.301294
Si Si4 0.933794 0.937927 0.814305
Si Si5 0.931563 0.434219 0.470245
Si Si6 0.071075 0.452837 0.332916
Si Si7 0.064752 0.676956 0.430301
Si Si8 0.567087 0.675678 0.913514
O O1 0.750000 0.576231 0.159269
O O2 0.996443 0.624439 0.106919
O O3 0.981389 0.608016 0.233701
O O4 0.997858 0.506219 0.161874
O O5 0.250000 0.830567 0.058254
O O6 0.472448 0.750000 0.072839
O O7 0.491329 0.837460 0.983401
O O8 0.250000 0.885574 0.288101
O O9 0.019188 0.847667 0.358472
O O10 0.054390 0.968965 0.328551
O O11 0.750000 0.944416 0.814781
O O12 0.978242 0.927824 0.738459
O O13 0.977286 0.878028 0.860308
O O14 0.750000 0.438272 0.474205
O O15 0.983946 0.374153 0.514914
O O16 0.000000 0.500000 0.500000
O O17 0.982141 0.427587 0.395385
O O18 0.250000 0.439062 0.341406
O O19 0.250000 0.676346 0.430165
O O20 0.013760 0.750000 0.442935
O O21 0.750000 0.672390 0.921005
O O22 0.528854 0.750000 0.894314
#
# Coordination Sequence:
#
# PCOD9452122 Si02
#       8
#     8   8   8   8   8   8   8   8
#     4  11  22  34  52  80 111 140 175 221 266 309
#     4  10  21  37  56  77 104 142 182 217 262 324
#     4   9  17  33  53  73 100 135 175 214 259 316
#     4   9  19  36  56  78 109 143 176 216 264 322
#     4  11  20  32  53  78 101 133 175 216 260 310
#     4   9  17  32  52  77 104 133 173 213 253 306
#     4   9  18  33  52  74 101 135 175 215 257 311
#     4   9  18  35  59  83 105 135 178 226 272 314
#
# _framework density 17.237069000000002
#
# number of rings (size 3 to 8) (size 9 to 14) (size 15 to 20)
#    0.000    2.375    1.250    2.625    0.000    4.250 
#    0.000    1.875    0.000    3.750    0.000    0.000 
#    0.000    0.000    0.000    0.000    0.000    0.000 
#
# Total GULP energy -357038.724360 kJ/mol
# GULP energy per Si atom -5578.730068 kJ/mol
# Density = 1.719784 g / cm^3
# Si number density = 17.237069 Si / 1000 Ang^3
#
#
#
# Elastic Constant Matrix: (Units=GPa)
#
#
# Indices 1 2 3 4 5 6 
#
# 1 39.8531 44.3428 49.1439 0.0000 0.0000 0.0000
# 2 44.3428 133.3822 112.0651 0.0000 0.0000 0.0000
# 3 49.1439 112.0651 148.6523 0.0000 0.0000 0.0000
# 4 0.0000 0.0000 0.0000 30.9543 0.0000 0.0000
# 5 0.0000 0.0000 0.0000 0.0000 32.4153 0.0000
# 6 0.0000 0.0000 0.0000 0.0000 0.0000 15.4837
#
#
#
# Elastic Compliance Matrix: (Units=1/GPa)
#
#
# Indices 1 2 3 4 5 6 
#
# 1 0.044408 -0.006625 -0.009687 0.000000 0.000000 0.000000
# 2 -0.006625 0.021438 -0.013972 0.000000 0.000000 0.000000
# 3 -0.009687 -0.013972 0.020463 0.000000 0.000000 0.000000
# 4 0.000000 0.000000 0.000000 0.032306 0.000000 0.000000
# 5 0.000000 0.000000 0.000000 0.000000 0.030850 0.000000
# 6 0.000000 0.000000 0.000000 0.000000 0.000000 0.064584
#
#
# Mechanical properties :
#
#
# Convention : Reuss Voigt Hill
#
# Bulk Modulus (GPa) = 38.84640 81.44347 60.14493
# Shear Modulus (GPa) = 17.65556 23.52638 20.59097
#
# Velocity S-wave (km/s) = 3.20391 3.69842 3.46001
# Velocity P-wave (km/s) = 6.02264 8.09873 7.13658
#
# Compressibility (1/GPa) = 0.02574241
#
# Stress axis : x y z
#
# Youngs Moduli (GPa) = 22.51822 46.64509 48.86949
#
# Poissons Ratio (x) = 0.30901 0.47341
# Poissons Ratio (y) = 0.14917 0.68280
# Poissons Ratio (z) = 0.21814 0.65172
#
# Static dielectric constant tensor:
#      x y z
#    x 1.574370 0.000000 0.000000 
#    y 0.000000 1.572090 0.000000 
#    z 0.000000 0.000000 1.572240 
# 
# From -- ./inp_files/29500.got.cif
#   From: 2010.05.17/outbox.cif.g08.bks.cpg/sg59_15_cif.got.tgz:29500.got - 2010.06.03 14:40:33.
