data_PCOD9452000
_publ_section_title
;
Structure prediction by ZEFSAII (Michael W. Deem and Ramdas Pophale) SiO2 
 PCOD9452000
Probable space group: P M M N
;
_chemical_formula_sum "Si O2"
_cell_formula_units_Z 40
_cell_length_a 26.659002
_cell_length_b 14.020995
_cell_length_c 4.940520
_cell_angle_alpha 90.000000
_cell_angle_beta 90.000000
_cell_angle_gamma 90.000000
_cell_volume 1846.695893
_symmetry_space_group_name_H-M "P M M N"
_symmetry_group_IT_number 59
_space_group.IT_coordinate_system_code '2'
_symmetry_cell_setting 'orthorhombic'
loop_
_space_group_symop_operation_xyz
x,y,z
1/2-x,1/2-y,z
1/2+x,-y,-z
-x,1/2+y,-z
-x,-y,-z
1/2+x,1/2+y,-z
1/2-x,y,z
x,1/2-y,z
loop_
_atom_site_type_symbol
_atom_site_label
_atom_site_fract_x
_atom_site_fract_y
_atom_site_fract_z
Si Si1 0.194812 0.481795 0.953551
Si Si2 0.912712 0.042835 0.953375
Si Si3 0.456406 0.860498 0.545858
Si Si4 0.436574 0.357181 0.721363
Si Si5 0.671194 0.858077 0.544256
O O1 0.250000 0.521778 0.011617
O O2 0.146732 0.549520 0.988604
O O3 0.194217 0.435078 0.658459
O O4 0.183236 0.394220 0.157324
O O5 0.944595 0.112722 0.146307
O O6 0.929533 0.937984 0.052609
O O7 0.924145 0.070362 0.646692
O O8 0.443637 0.750000 0.497981
O O9 0.513639 0.874374 0.453193
O O10 0.439631 0.250000 0.840035
O O11 0.387712 0.359535 0.530203
O O12 0.688800 0.750000 0.502253
#
# Coordination Sequence:
#
# PCOD9452000 Si02
#       5
#     8   8   8   8   8
#     4  11  23  38  57  81 111 153 198 243 294 339
#     4  11  22  40  60  85 118 155 196 243 293 345
#     4  11  23  39  62  88 117 153 197 245 294 349
#     4   9  20  37  59  91 126 159 190 228 286 357
#     4  10  21  36  55  84 121 155 191 231 276 345
#
# _framework density 21.660309000000002
#
# number of rings (size 3 to 8) (size 9 to 14) (size 15 to 20)
#    0.000    1.600    0.000    5.400    0.000    6.400 
#    0.000   13.000    0.000    3.600    0.000    0.000 
#    0.000    0.000    0.000    0.000    0.000    0.000 
#
# Total GULP energy -223897.529115 kJ/mol
# GULP energy per Si atom -5597.438228 kJ/mol
# Density = 2.161101 g / cm^3
# Si number density = 21.660309 Si / 1000 Ang^3
#
#
#
# Elastic Constant Matrix: (Units=GPa)
#
#
# Indices 1 2 3 4 5 6 
#
# 1 121.1083 21.3543 -15.9700 0.0000 0.0000 0.0000
# 2 21.3543 71.3986 2.1085 0.0000 0.0000 0.0000
# 3 -15.9700 2.1085 38.6749 0.0000 0.0000 0.0000
# 4 0.0000 0.0000 0.0000 18.9586 0.0000 0.0000
# 5 0.0000 0.0000 0.0000 0.0000 13.3216 0.0000
# 6 0.0000 0.0000 0.0000 0.0000 0.0000 -8.0930
#
#
#
# Elastic Compliance Matrix: (Units=1/GPa)
#
#
# Indices 1 2 3 4 5 6 
#
# 1 0.009295 -0.002898 0.003996 0.000000 0.000000 0.000000
# 2 -0.002898 0.014932 -0.002011 0.000000 0.000000 0.000000
# 3 0.003996 -0.002011 0.027616 0.000000 0.000000 0.000000
# 4 0.000000 0.000000 0.000000 0.052747 0.000000 0.000000
# 5 0.000000 0.000000 0.000000 0.000000 0.075066 0.000000
# 6 0.000000 0.000000 0.000000 0.000000 0.000000 -0.123564
#
#
# Mechanical properties :
#
#
# Convention : Reuss Voigt Hill
#
# Bulk Modulus (GPa) = 19.99274 27.35194 23.67234
# Shear Modulus (GPa) = 67.03317 19.75004 43.39160
#
# Velocity S-wave (km/s) = 5.56908 3.02289 4.48065
# Velocity P-wave (km/s) = 7.11358 4.98387 6.14174
#
# Compressibility (1/GPa) = 0.05001815
#
# Stress axis : x y z
#
# Youngs Moduli (GPa) = 107.58444 66.97017 36.21051
#
# Poissons Ratio (x) = 0.19408 -0.14470
# Poissons Ratio (y) = 0.31178 0.07281
# Poissons Ratio (z) = -0.42993 0.13466
#
# Static dielectric constant tensor:
#      x y z
#    x 1.832100 0.000000 0.000000 
#    y 0.000000 1.779230 0.000000 
#    z 0.000000 0.000000 1.749230 
# 
# From -- ./inp_files/4147.got.cif
#   From: 2010.05.17/outbox.cif.g08.bks.cpg/sg59_3_cif.got.tgz:4147.got - 2010.06.03 14:40:33.
