data_PCOD9452976
_publ_section_title
;
Structure prediction by ZEFSAII (Michael W. Deem and Ramdas Pophale) SiO2 
 PCOD9452976
Probable space group: P M M N
;
_chemical_formula_sum "Si O2"
_cell_formula_units_Z 48
_cell_length_a 31.849977
_cell_length_b 7.502185
_cell_length_c 10.092300
_cell_angle_alpha 90.000000
_cell_angle_beta 90.000000
_cell_angle_gamma 90.000000
_cell_volume 2411.498767
_symmetry_space_group_name_H-M "P M M N"
_symmetry_group_IT_number 59
_space_group.IT_coordinate_system_code '2'
_symmetry_cell_setting 'orthorhombic'
loop_
_space_group_symop_operation_xyz
x,y,z
1/2-x,1/2-y,z
1/2+x,-y,-z
-x,1/2+y,-z
-x,-y,-z
1/2+x,1/2+y,-z
1/2-x,y,z
x,1/2-y,z
loop_
_atom_site_type_symbol
_atom_site_label
_atom_site_fract_x
_atom_site_fract_y
_atom_site_fract_z
Si Si1 0.516585 0.041378 0.852824
Si Si2 0.369849 0.532347 0.494087
Si Si3 0.389760 0.968925 0.200855
Si Si4 0.202238 0.967537 0.695284
Si Si5 0.860429 0.032712 0.079924
Si Si6 0.068246 0.537047 0.717783
O O1 0.523127 0.250000 0.851261
O O2 0.562359 0.965878 0.820107
O O3 0.479840 0.002121 0.748491
O O4 0.500000 0.000000 0.000000
O O5 0.369967 0.750000 0.493001
O O6 0.372801 0.472672 0.343150
O O7 0.328464 0.477822 0.575485
O O8 0.410067 0.474518 0.582115
O O9 0.389441 0.750000 0.202154
O O10 0.363583 0.024782 0.071613
O O11 0.250000 0.028567 0.684345
O O12 0.202695 0.750000 0.694676
O O13 0.179185 0.022242 0.831485
O O14 0.860741 0.250000 0.079740
O O15 0.902087 0.974781 0.160885
O O16 0.071900 0.750000 0.716980
#
# Coordination Sequence:
#
# PCOD9452976 Si02
#       6
#     8   8   8   8   8   8
#     4  11  20  29  44  64  87 116 154 191 220 254
#     4   8  15  26  41  59  84 116 145 175 218 268
#     4   9  16  26  39  58  82 112 147 180 218 261
#     4   8  13  22  37  57  81 112 147 177 209 258
#     4   8  13  23  39  56  80 110 141 174 212 256
#     4   9  16  29  45  62  84 117 152 178 213 258
#
# _framework density 19.904631999999999
#
# number of rings (size 3 to 8) (size 9 to 14) (size 15 to 20)
#    0.000    3.167    1.667    2.500    0.000    0.667 
#    0.000    0.833    0.000    6.000    0.000    0.000 
#    0.000   10.667    0.000    0.000    0.000    2.000 
#
# Total GULP energy -267608.718895 kJ/mol
# GULP energy per Si atom -5575.181644 kJ/mol
# Density = 1.985933 g / cm^3
# Si number density = 19.904632 Si / 1000 Ang^3
#
#
#
# Elastic Constant Matrix: (Units=GPa)
#
#
# Indices 1 2 3 4 5 6 
#
# 1 146.2330 1.2667 95.0585 0.0000 0.0000 0.0000
# 2 1.2667 48.7678 7.4387 0.0000 0.0000 0.0000
# 3 95.0585 7.4387 204.4913 0.0000 0.0000 0.0000
# 4 0.0000 0.0000 0.0000 -2.0643 0.0000 0.0000
# 5 0.0000 0.0000 0.0000 0.0000 15.9669 0.0000
# 6 0.0000 0.0000 0.0000 0.0000 0.0000 8.6331
#
#
#
# Elastic Compliance Matrix: (Units=1/GPa)
#
#
# Indices 1 2 3 4 5 6 
#
# 1 0.009809 0.000443 -0.004576 0.000000 0.000000 0.000000
# 2 0.000443 0.020640 -0.000957 0.000000 0.000000 0.000000
# 3 -0.004576 -0.000957 0.007052 0.000000 0.000000 0.000000
# 4 0.000000 0.000000 0.000000 -0.484433 0.000000 0.000000
# 5 0.000000 0.000000 0.000000 0.000000 0.062629 0.000000
# 6 0.000000 0.000000 0.000000 0.000000 0.000000 0.115833
#
#
# Mechanical properties :
#
#
# Convention : Reuss Voigt Hill
#
# Bulk Modulus (GPa) = 36.60066 67.44663 52.02365
# Shear Modulus (GPa) = -20.06555 24.22238 2.07841
#
# Velocity S-wave (km/s) = -3.17848 3.49222 1.02296
# Velocity P-wave (km/s) = 2.22657 7.08656 5.25247
#
# Compressibility (1/GPa) = 0.02732191
#
# Stress axis : x y z
#
# Youngs Moduli (GPa) = 101.94569 48.45018 141.80113
#
# Poissons Ratio (x) = -0.02147 0.64887
# Poissons Ratio (y) = -0.04518 0.13568
# Poissons Ratio (z) = 0.46650 0.04636
#
# Static dielectric constant tensor:
#      x y z
#    x 1.693310 0.000000 0.000000 
#    y 0.000000 1.829270 0.000000 
#    z 0.000000 0.000000 1.683140 
# 
# From -- ./inp_files/13104.got.cif
#   From: 2010.05.17/outbox.cif.g08.bks.cpg/sg59_7_cif.got.tgz:13104.got - 2010.06.03 14:40:33.
