data_PCOD9452488
_publ_section_title
;
Structure prediction by ZEFSAII (Michael W. Deem and Ramdas Pophale) SiO2 
 PCOD9452488
Probable space group: P M M N
;
_chemical_formula_sum "Si O2"
_cell_formula_units_Z 48
_cell_length_a 9.098910
_cell_length_b 16.894864
_cell_length_c 16.576864
_cell_angle_alpha 90.000000
_cell_angle_beta 90.000000
_cell_angle_gamma 90.000000
_cell_volume 2548.275882
_symmetry_space_group_name_H-M "P M M N"
_symmetry_group_IT_number 59
_space_group.IT_coordinate_system_code '2'
_symmetry_cell_setting 'orthorhombic'
loop_
_space_group_symop_operation_xyz
x,y,z
1/2-x,1/2-y,z
1/2+x,-y,-z
-x,1/2+y,-z
-x,-y,-z
1/2+x,1/2+y,-z
1/2-x,y,z
x,1/2-y,z
loop_
_atom_site_type_symbol
_atom_site_label
_atom_site_fract_x
_atom_site_fract_y
_atom_site_fract_z
Si Si1 0.579156 0.063075 0.235795
Si Si2 0.578809 0.609821 0.314809
Si Si3 0.927177 0.074679 0.046572
Si Si4 0.575455 0.084039 0.518585
Si Si5 0.415155 0.157109 0.370988
Si Si6 0.074026 0.250000 0.806672
Si Si7 0.927180 0.250000 0.980489
O O1 0.750000 0.088416 0.243198
O O2 0.540505 0.065300 0.141698
O O3 0.477836 0.116640 0.291346
O O4 0.568123 0.975413 0.272800
O O5 0.750000 0.622772 0.338034
O O6 0.481421 0.612803 0.394688
O O7 0.538793 0.674420 0.248251
O O8 0.750000 0.069082 0.035859
O O9 0.972204 0.164453 0.019435
O O10 0.000000 0.000000 0.000000
O O11 0.750000 0.076729 0.517454
O O12 0.519144 0.138956 0.446465
O O13 0.500000 0.000000 0.500000
O O14 0.250000 0.127315 0.388808
O O15 0.409366 0.250000 0.358207
O O16 0.250000 0.250000 0.822534
O O17 0.988459 0.250000 0.890016
O O18 0.750000 0.250000 0.981882
#
# Coordination Sequence:
#
# PCOD9452488 Si02
#       7
#     8   8   8   8   8   4   4
#     4  10  21  38  63  89 119 161 208 250 305 370
#     4  10  21  38  60  90 122 159 204 254 303 358
#     4  10  22  40  63  93 126 164 207 256 312 373
#     4  12  24  40  62  88 120 160 204 250 303 363
#     4  11  25  42  61  88 123 161 205 254 304 360
#     4  10  22  40  64  91 124 161 204 251 302 361
#     4  10  22  40  62  91 128 163 204 257 310 367
#
# _framework density 18.836264
#
# number of rings (size 3 to 8) (size 9 to 14) (size 15 to 20)
#    0.000    1.500    1.667    3.000    2.333    4.667 
#    0.000    0.000    0.000    0.000    0.000    0.000 
#    0.000    0.000    0.000    0.000    0.000    0.000 
#
# Total GULP energy -268108.054870 kJ/mol
# GULP energy per Si atom -5585.584476 kJ/mol
# Density = 1.879339 g / cm^3
# Si number density = 18.836264 Si / 1000 Ang^3
#
#
#
# Elastic Constant Matrix: (Units=GPa)
#
#
# Indices 1 2 3 4 5 6 
#
# 1 95.6537 47.0732 72.0402 0.0000 0.0000 0.0000
# 2 47.0732 91.7704 46.9927 0.0000 0.0000 0.0000
# 3 72.0402 46.9927 139.5515 0.0000 0.0000 0.0000
# 4 0.0000 0.0000 0.0000 -18.8146 0.0000 0.0000
# 5 0.0000 0.0000 0.0000 0.0000 36.9078 0.0000
# 6 0.0000 0.0000 0.0000 0.0000 0.0000 27.9276
#
#
#
# Elastic Compliance Matrix: (Units=1/GPa)
#
#
# Indices 1 2 3 4 5 6 
#
# 1 0.019376 -0.005820 -0.008042 0.000000 0.000000 0.000000
# 2 -0.005820 0.014916 -0.002018 0.000000 0.000000 0.000000
# 3 -0.008042 -0.002018 0.011997 0.000000 0.000000 0.000000
# 4 0.000000 0.000000 0.000000 -0.053150 0.000000 0.000000
# 5 0.000000 0.000000 0.000000 0.000000 0.027095 0.000000
# 6 0.000000 0.000000 0.000000 0.000000 0.000000 0.035807
#
#
# Mechanical properties :
#
#
# Convention : Reuss Voigt Hill
#
# Bulk Modulus (GPa) = 68.83809 73.24309 71.04059
# Shear Modulus (GPa) = 53.97044 19.92881 36.94963
#
# Velocity S-wave (km/s) = 5.35860 3.25622 4.43382
# Velocity P-wave (km/s) = 8.65511 7.28737 8.00053
#
# Compressibility (1/GPa) = 0.01452684
#
# Stress axis : x y z
#
# Youngs Moduli (GPa) = 51.61122 67.04340 83.35423
#
# Poissons Ratio (x) = 0.39022 0.67035
# Poissons Ratio (y) = 0.30040 0.16821
# Poissons Ratio (z) = 0.41507 0.13530
#
# Static dielectric constant tensor:
#      x y z
#    x 1.658360 0.000000 0.000000 
#    y 0.000000 1.636730 0.000000 
#    z 0.000000 0.000000 1.631170 
# 
# From -- ./inp_files/20579.got.cif
#   From: 2010.05.17/outbox.cif.g08.bks.cpg/sg59_11_cif.got.tgz:20579.got - 2010.06.03 14:40:33.
