data_PCOD9452314
_publ_section_title
;
Structure prediction by ZEFSAII (Michael W. Deem and Ramdas Pophale) SiO2 
 PCOD9452314
Probable space group: P M M N
;
_chemical_formula_sum "Si O2"
_cell_formula_units_Z 48
_cell_length_a 14.771350
_cell_length_b 8.856249
_cell_length_c 20.020362
_cell_angle_alpha 90.000000
_cell_angle_beta 90.000000
_cell_angle_gamma 90.000000
_cell_volume 2619.038805
_symmetry_space_group_name_H-M "P M M N"
_symmetry_group_IT_number 59
_space_group.IT_coordinate_system_code '2'
_symmetry_cell_setting 'orthorhombic'
loop_
_space_group_symop_operation_xyz
x,y,z
1/2-x,1/2-y,z
1/2+x,-y,-z
-x,1/2+y,-z
-x,-y,-z
1/2+x,1/2+y,-z
1/2-x,y,z
x,1/2-y,z
loop_
_atom_site_type_symbol
_atom_site_label
_atom_site_fract_x
_atom_site_fract_y
_atom_site_fract_z
Si Si1 0.250000 0.430571 0.973606
Si Si2 0.940299 0.069796 0.059879
Si Si3 0.750000 0.071126 0.878663
Si Si4 0.142023 0.928286 0.445082
Si Si5 0.514943 0.930589 0.666780
Si Si6 0.572319 0.569890 0.816937
Si Si7 0.644058 0.930033 0.411731
O O1 0.250000 0.250000 0.971254
O O2 0.158619 0.496057 0.941358
O O3 0.250000 0.485661 0.050474
O O4 0.932515 0.250000 0.049795
O O5 0.993944 0.042524 0.128641
O O6 0.000000 0.000000 0.000000
O O7 0.750000 0.250000 0.890283
O O8 0.839060 0.020515 0.838870
O O9 0.250000 0.948301 0.435919
O O10 0.122290 0.750000 0.447321
O O11 0.117726 0.002258 0.516137
O O12 0.088010 0.004236 0.385082
O O13 0.512249 0.750000 0.661228
O O14 0.540935 0.969909 0.742522
O O15 0.419363 0.998679 0.644154
O O16 0.592859 0.750000 0.818679
O O17 0.750000 0.964912 0.401016
O O18 0.633037 0.750000 0.413458
#
# Coordination Sequence:
#
# PCOD9452314 Si02
#       7
#     4   8   4   8   8   8   8
#     4  12  24  40  64  92 124 159 200 253 304 358
#     4  11  22  40  65  92 122 159 205 252 300 357
#     4  12  24  38  64  94 122 157 198 245 300 358
#     4  10  21  37  59  88 120 154 196 246 293 348
#     4  11  23  39  60  86 118 160 197 238 296 358
#     4  10  24  43  62  87 124 162 198 242 299 361
#     4  10  21  39  62  86 115 153 198 249 297 349
#
# _framework density 18.327334
#
# number of rings (size 3 to 8) (size 9 to 14) (size 15 to 20)
#    0.000    1.333    1.667    4.000    1.167    4.000 
#    1.500    0.000    0.000    0.000    0.000    0.000 
#    0.000    0.000    0.000    0.000    0.000    0.000 
#
# Total GULP energy -268431.810168 kJ/mol
# GULP energy per Si atom -5592.329378 kJ/mol
# Density = 1.828562 g / cm^3
# Si number density = 18.327334 Si / 1000 Ang^3
#
#
#
# Elastic Constant Matrix: (Units=GPa)
#
#
# Indices 1 2 3 4 5 6 
#
# 1 137.1583 81.2284 70.1193 0.0000 0.0000 0.0000
# 2 81.2284 107.2649 70.0317 0.0000 0.0000 0.0000
# 3 70.1193 70.0317 112.9297 0.0000 0.0000 0.0000
# 4 0.0000 0.0000 0.0000 29.8232 0.0000 0.0000
# 5 0.0000 0.0000 0.0000 0.0000 -26.0729 0.0000
# 6 0.0000 0.0000 0.0000 0.0000 0.0000 35.2103
#
#
#
# Elastic Compliance Matrix: (Units=1/GPa)
#
#
# Indices 1 2 3 4 5 6 
#
# 1 0.014025 -0.008293 -0.003566 0.000000 0.000000 0.000000
# 2 -0.008293 0.020568 -0.007606 0.000000 0.000000 0.000000
# 3 -0.003566 -0.007606 0.015786 0.000000 0.000000 0.000000
# 4 0.000000 0.000000 0.000000 0.033531 0.000000 0.000000
# 5 0.000000 0.000000 0.000000 0.000000 -0.038354 0.000000
# 6 0.000000 0.000000 0.000000 0.000000 0.000000 0.028401
#
#
# Mechanical properties :
#
#
# Convention : Reuss Voigt Hill
#
# Bulk Modulus (GPa) = 87.33468 88.90130 88.11799
# Shear Modulus (GPa) = 42.84401 16.85702 29.85052
#
# Velocity S-wave (km/s) = 4.84023 3.03607 4.04015
# Velocity P-wave (km/s) = 8.88782 7.80404 8.36350
#
# Compressibility (1/GPa) = 0.01145020
#
# Stress axis : x y z
#
# Youngs Moduli (GPa) = 71.30260 48.61821 63.34774
#
# Poissons Ratio (x) = 0.40317 0.22587
# Poissons Ratio (y) = 0.59128 0.48184
# Poissons Ratio (z) = 0.25424 0.36980
#
# Static dielectric constant tensor:
#      x y z
#    x 1.625740 0.000000 0.000000 
#    y 0.000000 1.611950 0.000000 
#    z 0.000000 0.000000 1.594150 
# 
# From -- ./inp_files/27399.got.cif
#   From: 2010.05.17/outbox.cif.g08.bks.cpg/sg59_14_cif.got.tgz:27399.got - 2010.06.03 14:40:33.
