data_PCOD9452935
_publ_section_title
;
Structure prediction by ZEFSAII (Michael W. Deem and Ramdas Pophale) SiO2 
 PCOD9452935
Probable space group: P M M N
;
_chemical_formula_sum "Si O2"
_cell_formula_units_Z 56
_cell_length_a 14.648957
_cell_length_b 14.669517
_cell_length_c 12.492037
_cell_angle_alpha 90.000000
_cell_angle_beta 90.000000
_cell_angle_gamma 90.000000
_cell_volume 2684.452853
_symmetry_space_group_name_H-M "P M M N"
_symmetry_group_IT_number 59
_space_group.IT_coordinate_system_code '2'
_symmetry_cell_setting 'orthorhombic'
loop_
_space_group_symop_operation_xyz
x,y,z
1/2-x,1/2-y,z
1/2+x,-y,-z
-x,1/2+y,-z
-x,-y,-z
1/2+x,1/2+y,-z
1/2-x,y,z
x,1/2-y,z
loop_
_atom_site_type_symbol
_atom_site_label
_atom_site_fract_x
_atom_site_fract_y
_atom_site_fract_z
Si Si1 0.847659 0.643545 0.021303
Si Si2 0.855152 0.145575 0.496583
Si Si3 0.968419 0.037249 0.661659
Si Si4 0.467257 0.595712 0.951625
Si Si5 0.448633 0.643553 0.719247
Si Si6 0.142866 0.359524 0.733408
Si Si7 0.357674 0.854519 0.159389
O O1 0.750000 0.603460 0.985861
O O2 0.835747 0.750000 0.039253
O O3 0.869452 0.610562 0.141773
O O4 0.931975 0.638434 0.942262
O O5 0.750000 0.132570 0.526364
O O6 0.881468 0.250000 0.526729
O O7 0.917677 0.073190 0.556836
O O8 0.869421 0.138953 0.369412
O O9 0.911252 0.079373 0.760789
O O10 0.069133 0.082763 0.668284
O O11 0.977183 0.928964 0.676038
O O12 0.422456 0.606280 0.836327
O O13 0.500000 0.500000 0.000000
O O14 0.403657 0.638249 0.042676
O O15 0.476048 0.750000 0.726722
O O16 0.250000 0.373706 0.706884
O O17 0.124673 0.250000 0.724471
O O18 0.250000 0.874694 0.155078
O O19 0.368965 0.750000 0.197047
#
# Coordination Sequence:
#
# PCOD9452935 Si02
#       7
#     8   8   8   8   8   8   8
#     4   9  17  31  53  81 116 162 213 260 309 377
#     4  10  23  44  71 101 131 172 224 277 339 408
#     4  12  21  40  67  96 134 173 225 284 339 398
#     4  12  22  40  62  92 133 177 221 271 330 396
#     4  11  25  43  64  92 134 182 226 273 332 401
#     4   9  17  30  55  94 133 168 213 274 339 395
#     4  11  23  38  63  99 134 170 217 280 345 397
#
# _framework density 20.860861
#
# number of rings (size 3 to 8) (size 9 to 14) (size 15 to 20)
#    0.000    1.429    2.857    4.286    0.000    2.857 
#    0.000    1.429    0.000    3.429    0.000    6.000 
#    0.000    0.000    0.000    0.000    0.000    0.000 
#
# Total GULP energy -312479.511821 kJ/mol
# GULP energy per Si atom -5579.991283 kJ/mol
# Density = 2.081338 g / cm^3
# Si number density = 20.860861 Si / 1000 Ang^3
#
#
#
# Elastic Constant Matrix: (Units=GPa)
#
#
# Indices 1 2 3 4 5 6 
#
# 1 81.8115 28.1617 15.7018 0.0000 0.0000 0.0000
# 2 28.1617 120.0256 18.3278 0.0000 0.0000 0.0000
# 3 15.7018 18.3278 91.4795 0.0000 0.0000 0.0000
# 4 0.0000 0.0000 0.0000 24.3818 0.0000 0.0000
# 5 0.0000 0.0000 0.0000 0.0000 7.9303 0.0000
# 6 0.0000 0.0000 0.0000 0.0000 0.0000 81.9793
#
#
#
# Elastic Compliance Matrix: (Units=1/GPa)
#
#
# Indices 1 2 3 4 5 6 
#
# 1 0.013562 -0.002916 -0.001744 0.000000 0.000000 0.000000
# 2 -0.002916 0.009221 -0.001347 0.000000 0.000000 0.000000
# 3 -0.001744 -0.001347 0.011501 0.000000 0.000000 0.000000
# 4 0.000000 0.000000 0.000000 0.041014 0.000000 0.000000
# 5 0.000000 0.000000 0.000000 0.000000 0.126098 0.000000
# 6 0.000000 0.000000 0.000000 0.000000 0.000000 0.012198
#
#
# Mechanical properties :
#
#
# Convention : Reuss Voigt Hill
#
# Bulk Modulus (GPa) = 44.90182 46.41102 45.65642
# Shear Modulus (GPa) = 21.45648 38.26666 29.86157
#
# Velocity S-wave (km/s) = 3.21058 4.28761 3.78757
# Velocity P-wave (km/s) = 5.94264 6.84161 6.40791
#
# Compressibility (1/GPa) = 0.02227081
#
# Stress axis : x y z
#
# Youngs Moduli (GPa) = 73.73800 108.44385 86.95232
#
# Poissons Ratio (x) = 0.31619 0.15161
# Poissons Ratio (y) = 0.21500 0.11713
# Poissons Ratio (z) = 0.12857 0.14608
#
# Static dielectric constant tensor:
#      x y z
#    x 1.689340 0.000000 0.000000 
#    y 0.000000 1.731510 0.000000 
#    z 0.000000 0.000000 1.781790 
# 
# From -- ./inp_files/16917.got.cif
#   From: 2010.05.17/outbox.cif.g08.bks.cpg/sg59_9_cif.got.tgz:16917.got - 2010.06.03 14:40:33.
