data_PCOD9452818
_publ_section_title
;
Structure prediction by ZEFSAII (Michael W. Deem and Ramdas Pophale) SiO2 
 PCOD9452818
Probable space group: P M M N
;
_chemical_formula_sum "Si O2"
_cell_formula_units_Z 40
_cell_length_a 7.538122
_cell_length_b 20.721749
_cell_length_c 13.612413
_cell_angle_alpha 90.000000
_cell_angle_beta 90.000000
_cell_angle_gamma 90.000000
_cell_volume 2126.300728
_symmetry_space_group_name_H-M "P M M N"
_symmetry_group_IT_number 59
_space_group.IT_coordinate_system_code '2'
_symmetry_cell_setting 'orthorhombic'
loop_
_space_group_symop_operation_xyz
x,y,z
1/2-x,1/2-y,z
1/2+x,-y,-z
-x,1/2+y,-z
-x,-y,-z
1/2+x,1/2+y,-z
1/2-x,y,z
x,1/2-y,z
loop_
_atom_site_type_symbol
_atom_site_label
_atom_site_fract_x
_atom_site_fract_y
_atom_site_fract_z
Si Si1 0.250000 0.327932 0.885836
Si Si2 0.535703 0.375096 0.739341
Si Si3 0.250000 0.327961 0.119683
Si Si4 0.545949 0.130006 0.263105
Si Si5 0.035524 0.750000 0.386057
Si Si6 0.539086 0.502818 0.616980
Si Si7 0.465755 0.750000 0.605516
O O1 0.250000 0.250000 0.865574
O O2 0.421053 0.362205 0.836565
O O3 0.250000 0.335468 0.002798
O O4 0.750000 0.375608 0.756491
O O5 0.487973 0.314106 0.671558
O O6 0.486462 0.438648 0.677131
O O7 0.250000 0.250000 0.139835
O O8 0.418767 0.362465 0.169960
O O9 0.750000 0.141931 0.235038
O O10 0.536789 0.064286 0.325343
O O11 0.483152 0.186396 0.336319
O O12 0.250000 0.750000 0.391359
O O13 0.965362 0.750000 0.495712
O O14 0.500000 0.500000 0.500000
O O15 0.750000 0.507710 0.624977
O O16 0.250000 0.750000 0.601377
#
# Coordination Sequence:
#
# PCOD9452818 Si02
#       7
#     4   8   4   8   4   8   4
#     4  11  24  42  68  94 118 159 216 273 323 373
#     4  10  22  40  61  89 127 164 204 259 314 373
#     4  11  24  44  66  94 122 157 216 275 323 373
#     4  11  22  40  63  90 127 166 206 261 317 375
#     4   9  16  33  57  84 121 157 198 246 302 376
#     4  11  23  39  63  95 133 172 208 251 312 384
#     4   9  18  33  57  88 121 161 202 244 312 380
#
# _framework density 18.812014000000001
#
# number of rings (size 3 to 8) (size 9 to 14) (size 15 to 20)
#    0.000    1.600    3.000    1.800    2.800    4.000 
#    0.000    4.000    0.000    0.000    0.000    0.000 
#    0.000    0.000    0.000    0.000    0.000    0.000 
#
# Total GULP energy -223286.637063 kJ/mol
# GULP energy per Si atom -5582.165927 kJ/mol
# Density = 1.876920 g / cm^3
# Si number density = 18.812014 Si / 1000 Ang^3
#
#
#
# Elastic Constant Matrix: (Units=GPa)
#
#
# Indices 1 2 3 4 5 6 
#
# 1 96.8361 32.7956 60.6610 0.0000 0.0000 0.0000
# 2 32.7956 147.4809 69.9304 0.0000 0.0000 0.0000
# 3 60.6610 69.9304 161.1676 0.0000 0.0000 0.0000
# 4 0.0000 0.0000 0.0000 20.3396 0.0000 0.0000
# 5 0.0000 0.0000 0.0000 0.0000 31.9674 0.0000
# 6 0.0000 0.0000 0.0000 0.0000 0.0000 17.9504
#
#
#
# Elastic Compliance Matrix: (Units=1/GPa)
#
#
# Indices 1 2 3 4 5 6 
#
# 1 0.013578 -0.000751 -0.004785 0.000000 0.000000 0.000000
# 2 -0.000751 0.008578 -0.003440 0.000000 0.000000 0.000000
# 3 -0.004785 -0.003440 0.009498 0.000000 0.000000 0.000000
# 4 0.000000 0.000000 0.000000 0.049165 0.000000 0.000000
# 5 0.000000 0.000000 0.000000 0.000000 0.031282 0.000000
# 6 0.000000 0.000000 0.000000 0.000000 0.000000 0.055709
#
#
# Mechanical properties :
#
#
# Convention : Reuss Voigt Hill
#
# Bulk Modulus (GPa) = 72.96871 81.36207 77.16539
# Shear Modulus (GPa) = 26.27017 30.19130 28.23073
#
# Velocity S-wave (km/s) = 3.74097 4.01046 3.87806
# Velocity P-wave (km/s) = 7.58501 8.04916 7.82053
#
# Compressibility (1/GPa) = 0.01370450
#
# Stress axis : x y z
#
# Youngs Moduli (GPa) = 73.64635 116.57167 105.28308
#
# Poissons Ratio (x) = 0.08749 0.50378
# Poissons Ratio (y) = 0.05528 0.36214
# Poissons Ratio (z) = 0.35240 0.40097
#
# Static dielectric constant tensor:
#      x y z
#    x 1.681790 0.000000 0.000000 
#    y 0.000000 1.651510 0.000000 
#    z 0.000000 0.000000 1.623740 
# 
# From -- ./inp_files/14158.got.cif
#   From: 2010.05.17/outbox.cif.g08.bks.cpg/sg59_8_cif.got.tgz:14158.got - 2010.06.03 14:40:33.
