data_PCOD9452589
_publ_section_title
;
Structure prediction by ZEFSAII (Michael W. Deem and Ramdas Pophale) SiO2 
 PCOD9452589
Probable space group: P M M N
;
_chemical_formula_sum "Si O2"
_cell_formula_units_Z 40
_cell_length_a 26.403863
_cell_length_b 10.999799
_cell_length_c 6.276531
_cell_angle_alpha 90.000000
_cell_angle_beta 90.000000
_cell_angle_gamma 90.000000
_cell_volume 1822.938000
_symmetry_space_group_name_H-M "P M M N"
_symmetry_group_IT_number 59
_space_group.IT_coordinate_system_code '2'
_symmetry_cell_setting 'orthorhombic'
loop_
_space_group_symop_operation_xyz
x,y,z
1/2-x,1/2-y,z
1/2+x,-y,-z
-x,1/2+y,-z
-x,-y,-z
1/2+x,1/2+y,-z
1/2-x,y,z
x,1/2-y,z
loop_
_atom_site_type_symbol
_atom_site_label
_atom_site_fract_x
_atom_site_fract_y
_atom_site_fract_z
Si Si1 0.310620 0.390658 0.217802
Si Si2 0.461692 0.541436 0.183930
Si Si3 0.054947 0.116324 0.568498
Si Si4 0.810185 0.382339 0.473455
Si Si5 0.124091 0.531752 0.891490
O O1 0.250000 0.399102 0.175582
O O2 0.320805 0.250000 0.279991
O O3 0.322608 0.496371 0.390956
O O4 0.342985 0.429751 0.012544
O O5 0.444030 0.427427 0.325840
O O6 0.496605 0.615005 0.348688
O O7 0.500000 0.500000 0.000000
O O8 0.412601 0.593938 0.066291
O O9 0.075848 0.250000 0.591678
O O10 0.086415 0.027451 0.718564
O O11 0.750000 0.386073 0.441592
O O12 0.822403 0.250000 0.575241
O O13 0.838236 0.388797 0.247881
#
# Coordination Sequence:
#
# PCOD9452589 Si02
#       5
#     8   8   8   8   8
#     4  10  22  40  63  93 128 165 206 254 309 368
#     4   9  21  38  55  83 116 150 193 241 298 360
#     4  10  21  39  61  85 117 154 196 250 309 368
#     4  10  23  42  62  88 125 167 209 254 305 364
#     4  11  21  37  62  92 121 155 204 256 306 362
#
# _framework density 21.942602000000001
#
# number of rings (size 3 to 8) (size 9 to 14) (size 15 to 20)
#    0.000    2.000    0.000    2.400    0.000    8.800 
#    0.000   18.000    0.000    0.000    0.000    0.000 
#    0.000    0.000    0.000    0.000    0.000    0.000 
#
# Total GULP energy -223147.470912 kJ/mol
# GULP energy per Si atom -5578.686773 kJ/mol
# Density = 2.189266 g / cm^3
# Si number density = 21.942602 Si / 1000 Ang^3
#
#
#
# Elastic Constant Matrix: (Units=GPa)
#
#
# Indices 1 2 3 4 5 6 
#
# 1 79.4437 28.6773 38.8846 0.0000 0.0000 0.0000
# 2 28.6773 124.7484 36.3699 0.0000 0.0000 0.0000
# 3 38.8846 36.3699 96.9063 0.0000 0.0000 0.0000
# 4 0.0000 0.0000 0.0000 8.8878 0.0000 0.0000
# 5 0.0000 0.0000 0.0000 0.0000 46.1462 0.0000
# 6 0.0000 0.0000 0.0000 0.0000 0.0000 -5.0102
#
#
#
# Elastic Compliance Matrix: (Units=1/GPa)
#
#
# Indices 1 2 3 4 5 6 
#
# 1 0.016115 -0.002043 -0.005699 0.000000 0.000000 0.000000
# 2 -0.002043 0.009260 -0.002656 0.000000 0.000000 0.000000
# 3 -0.005699 -0.002656 0.013603 0.000000 0.000000 0.000000
# 4 0.000000 0.000000 0.000000 0.112514 0.000000 0.000000
# 5 0.000000 0.000000 0.000000 0.000000 0.021670 0.000000
# 6 0.000000 0.000000 0.000000 0.000000 0.000000 -0.199593
#
#
# Mechanical properties :
#
#
# Convention : Reuss Voigt Hill
#
# Bulk Modulus (GPa) = 55.00052 56.55132 55.77592
# Shear Modulus (GPa) = 11773.35297 23.14920 5898.25108
#
# Velocity S-wave (km/s) = 73.32919 3.25158 51.90252
# Velocity P-wave (km/s) = 84.82147 6.31865 60.14402
#
# Compressibility (1/GPa) = 0.01818165
#
# Stress axis : x y z
#
# Youngs Moduli (GPa) = 62.05561 107.99153 73.51369
#
# Poissons Ratio (x) = 0.22060 0.41899
# Poissons Ratio (y) = 0.12677 0.19523
# Poissons Ratio (z) = 0.35368 0.28679
#
# Static dielectric constant tensor:
#      x y z
#    x 1.830760 0.000000 0.000000 
#    y 0.000000 1.846110 0.000000 
#    z 0.000000 0.000000 1.783840 
# 
# From -- ./inp_files/1411.got.cif
#   From: 2010.05.17/outbox.cif.g08.bks.cpg/sg59_1_cif.got.tgz:1411.got - 2010.06.03 14:40:33.
