data_PCOD9452472
_publ_section_title
;
Structure prediction by ZEFSAII (Michael W. Deem and Ramdas Pophale) SiO2 
 PCOD9452472
Probable space group: P M M N
;
_chemical_formula_sum "Si O2"
_cell_formula_units_Z 56
_cell_length_a 16.826331
_cell_length_b 7.639365
_cell_length_c 20.366315
_cell_angle_alpha 90.000000
_cell_angle_beta 90.000000
_cell_angle_gamma 90.000000
_cell_volume 2617.936722
_symmetry_space_group_name_H-M "P M M N"
_symmetry_group_IT_number 59
_space_group.IT_coordinate_system_code '2'
_symmetry_cell_setting 'orthorhombic'
loop_
_space_group_symop_operation_xyz
x,y,z
1/2-x,1/2-y,z
1/2+x,-y,-z
-x,1/2+y,-z
-x,-y,-z
1/2+x,1/2+y,-z
1/2-x,y,z
x,1/2-y,z
loop_
_atom_site_type_symbol
_atom_site_label
_atom_site_fract_x
_atom_site_fract_y
_atom_site_fract_z
Si Si1 0.662233 0.543858 0.152033
Si Si2 0.750000 0.535852 0.941828
Si Si3 0.750000 0.536393 0.789652
Si Si4 0.842512 0.538466 0.415084
Si Si5 0.398336 0.035066 0.299458
Si Si6 0.409662 0.039905 0.979780
Si Si7 0.343382 0.037572 0.440997
Si Si8 0.926971 0.454669 0.280557
O O1 0.750000 0.465568 0.147019
O O2 0.669113 0.750000 0.138598
O O3 0.605755 0.474807 0.094592
O O4 0.629649 0.529222 0.225098
O O5 0.750000 0.750000 0.943436
O O6 0.750000 0.481174 0.865436
O O7 0.667419 0.479295 0.977390
O O8 0.750000 0.750000 0.789742
O O9 0.672557 0.480938 0.748522
O O10 0.750000 0.484424 0.407867
O O11 0.843208 0.750000 0.415003
O O12 0.871848 0.478248 0.487089
O O13 0.893095 0.478091 0.353499
O O14 0.397962 0.250000 0.300435
O O15 0.384653 0.976626 0.374589
O O16 0.484116 0.973210 0.276222
O O17 0.405300 0.250000 0.982526
O O18 0.500000 0.000000 0.000000
O O19 0.250000 0.993588 0.436380
O O20 0.348114 0.250000 0.441107
O O21 0.931480 0.250000 0.266603
#
# Coordination Sequence:
#
# PCOD9452472 Si02
#       8
#     8   4   4   8   8   8   8   8
#     4  10  21  40  61  77 102 148 194 223 254 312
#     4   9  18  34  57  83 112 147 184 220 269 331
#     4   9  16  28  50  75 104 137 166 208 263 311
#     4   9  18  33  53  74  97 136 183 219 254 310
#     4   9  17  29  46  75 108 135 168 214 267 315
#     4  10  21  38  60  87 116 146 184 229 274 327
#     4   8  13  26  49  71  96 133 179 219 250 302
#     4  11  23  33  48  81 114 135 167 225 282 321
#
# _framework density 21.390891
#
# number of rings (size 3 to 8) (size 9 to 14) (size 15 to 20)
#    0.000    2.571    1.429    1.714    2.000    3.429 
#    0.000    0.357    0.000    0.857    0.000    2.000 
#    0.000    0.000    0.000    0.000    0.000    0.000 
#
# Total GULP energy -312467.024585 kJ/mol
# GULP energy per Si atom -5579.768296 kJ/mol
# Density = 2.134220 g / cm^3
# Si number density = 21.390891 Si / 1000 Ang^3
#
#
#
# Elastic Constant Matrix: (Units=GPa)
#
#
# Indices 1 2 3 4 5 6 
#
# 1 122.3130 9.9967 58.0817 0.0000 0.0000 0.0000
# 2 9.9967 37.8691 3.3623 0.0000 0.0000 0.0000
# 3 58.0817 3.3623 126.3818 0.0000 0.0000 0.0000
# 4 0.0000 0.0000 0.0000 -1.2754 0.0000 0.0000
# 5 0.0000 0.0000 0.0000 0.0000 59.0662 0.0000
# 6 0.0000 0.0000 0.0000 0.0000 0.0000 12.9787
#
#
#
# Elastic Compliance Matrix: (Units=1/GPa)
#
#
# Indices 1 2 3 4 5 6 
#
# 1 0.010669 -0.002387 -0.004840 0.000000 0.000000 0.000000
# 2 -0.002387 0.027003 0.000378 0.000000 0.000000 0.000000
# 3 -0.004840 0.000378 0.010127 0.000000 0.000000 0.000000
# 4 0.000000 0.000000 0.000000 -0.784092 0.000000 0.000000
# 5 0.000000 0.000000 0.000000 0.000000 0.016930 0.000000
# 6 0.000000 0.000000 0.000000 0.000000 0.000000 0.077049
#
#
# Mechanical properties :
#
#
# Convention : Reuss Voigt Hill
#
# Bulk Modulus (GPa) = 29.32296 47.71616 38.51956
# Shear Modulus (GPa) = -8.10044 28.49547 10.19751
#
# Velocity S-wave (km/s) = -1.94810 3.65380 2.18577
# Velocity P-wave (km/s) = 2.94581 6.33684 4.94132
#
# Compressibility (1/GPa) = 0.03410297
#
# Stress axis : x y z
#
# Youngs Moduli (GPa) = 93.72954 37.03269 98.74926
#
# Poissons Ratio (x) = 0.08839 0.47792
# Poissons Ratio (y) = 0.22371 -0.03737
# Poissons Ratio (z) = 0.45362 -0.01402
#
# Static dielectric constant tensor:
#      x y z
#    x 1.758880 0.000000 0.000000 
#    y 0.000000 1.815620 0.000000 
#    z 0.000000 0.000000 1.760080 
# 
# From -- ./inp_files/30516.got.cif
#   From: 2010.05.17/outbox.cif.g08.bks.cpg/sg59_16_cif.got.tgz:30516.got - 2010.06.03 14:40:33.
