data_PCOD9452822
_publ_section_title
;
Structure prediction by ZEFSAII (Michael W. Deem and Ramdas Pophale) SiO2 
 PCOD9452822
Probable space group: P M M N
;
_chemical_formula_sum "Si O2"
_cell_formula_units_Z 48
_cell_length_a 8.894457
_cell_length_b 19.472088
_cell_length_c 15.204956
_cell_angle_alpha 90.000000
_cell_angle_beta 90.000000
_cell_angle_gamma 90.000000
_cell_volume 2633.401819
_symmetry_space_group_name_H-M "P M M N"
_symmetry_group_IT_number 59
_space_group.IT_coordinate_system_code '2'
_symmetry_cell_setting 'orthorhombic'
loop_
_space_group_symop_operation_xyz
x,y,z
1/2-x,1/2-y,z
1/2+x,-y,-z
-x,1/2+y,-z
-x,-y,-z
1/2+x,1/2+y,-z
1/2-x,y,z
x,1/2-y,z
loop_
_atom_site_type_symbol
_atom_site_label
_atom_site_fract_x
_atom_site_fract_y
_atom_site_fract_z
Si Si1 0.570991 0.830440 0.616756
Si Si2 0.570331 0.669701 0.927629
Si Si3 0.071632 0.916546 0.773761
Si Si4 0.429324 0.431591 0.542398
Si Si5 0.071097 0.563677 0.267408
Si Si6 0.429251 0.169564 0.866582
O O1 0.750000 0.837064 0.635862
O O2 0.534773 0.750000 0.612445
O O3 0.480888 0.868561 0.693184
O O4 0.542997 0.869271 0.525021
O O5 0.750000 0.661163 0.914473
O O6 0.535693 0.750000 0.909431
O O7 0.481881 0.620478 0.862667
O O8 0.538085 0.656428 0.030384
O O9 0.250000 0.925458 0.772576
O O10 0.992628 0.989870 0.761896
O O11 0.500000 0.500000 0.500000
O O12 0.250000 0.440697 0.551263
O O13 0.501284 0.419990 0.637332
O O14 0.250000 0.560264 0.274093
O O15 0.019595 0.620307 0.197309
O O16 0.250000 0.158946 0.853985
O O17 0.460435 0.250000 0.849643
#
# Coordination Sequence:
#
# PCOD9452822 Si02
#       6
#     8   8   8   8   8   8
#     4  10  22  40  62  88 119 156 197 242 297 361
#     4   9  19  38  63  88 119 159 198 242 301 363
#     4  12  24  37  58  88 122 159 200 248 299 356
#     4  11  22  39  63  88 118 158 199 244 298 356
#     4  12  25  40  61  88 121 161 201 249 302 355
#     4   9  20  41  66  90 118 155 200 249 300 358
#
# _framework density 18.227373
#
# number of rings (size 3 to 8) (size 9 to 14) (size 15 to 20)
#    0.000    1.500    1.667    5.000    0.000    5.667 
#    0.000    3.333    0.000    0.000    0.000    0.000 
#    0.000    0.000    0.000    0.000    0.000    0.000 
#
# Total GULP energy -268350.966140 kJ/mol
# GULP energy per Si atom -5590.645128 kJ/mol
# Density = 1.818589 g / cm^3
# Si number density = 18.227373 Si / 1000 Ang^3
#
#
#
# Elastic Constant Matrix: (Units=GPa)
#
#
# Indices 1 2 3 4 5 6 
#
# 1 118.1054 86.7382 90.1175 0.0000 0.0000 0.0000
# 2 86.7382 118.7347 84.5902 0.0000 0.0000 0.0000
# 3 90.1175 84.5902 123.3942 0.0000 0.0000 0.0000
# 4 0.0000 0.0000 0.0000 44.1975 0.0000 0.0000
# 5 0.0000 0.0000 0.0000 0.0000 35.9246 0.0000
# 6 0.0000 0.0000 0.0000 0.0000 0.0000 32.8025
#
#
#
# Elastic Compliance Matrix: (Units=1/GPa)
#
#
# Indices 1 2 3 4 5 6 
#
# 1 0.023790 -0.009775 -0.010673 0.000000 0.000000 0.000000
# 2 -0.009775 0.020479 -0.006900 0.000000 0.000000 0.000000
# 3 -0.010673 -0.006900 0.020629 0.000000 0.000000 0.000000
# 4 0.000000 0.000000 0.000000 0.022626 0.000000 0.000000
# 5 0.000000 0.000000 0.000000 0.000000 0.027836 0.000000
# 6 0.000000 0.000000 0.000000 0.000000 0.000000 0.030485
#
#
# Mechanical properties :
#
#
# Convention : Reuss Voigt Hill
#
# Bulk Modulus (GPa) = 98.02523 98.12513 98.07518
# Shear Modulus (GPa) = 24.51689 29.17082 26.84386
#
# Velocity S-wave (km/s) = 3.67148 4.00482 3.84177
# Velocity P-wave (km/s) = 8.47755 8.67961 8.57918
#
# Compressibility (1/GPa) = 0.01020145
#
# Stress axis : x y z
#
# Youngs Moduli (GPa) = 42.03466 48.83139 48.47578
#
# Poissons Ratio (x) = 0.47733 0.51739
# Poissons Ratio (y) = 0.41090 0.33447
# Poissons Ratio (z) = 0.44864 0.33692
#
# Static dielectric constant tensor:
#      x y z
#    x 1.610750 0.000000 0.000000 
#    y 0.000000 1.597000 0.000000 
#    z 0.000000 0.000000 1.604900 
# 
# From -- ./inp_files/20332.got.cif
#   From: 2010.05.17/outbox.cif.g08.bks.cpg/sg59_11_cif.got.tgz:20332.got - 2010.06.03 14:40:33.
