data_PCOD9452795
_publ_section_title
;
Structure prediction by ZEFSAII (Michael W. Deem and Ramdas Pophale) SiO2 
 PCOD9452795
Probable space group: P M M N
;
_chemical_formula_sum "Si O2"
_cell_formula_units_Z 48
_cell_length_a 15.045374
_cell_length_b 8.389398
_cell_length_c 20.326075
_cell_angle_alpha 90.000000
_cell_angle_beta 90.000000
_cell_angle_gamma 90.000000
_cell_volume 2565.590329
_symmetry_space_group_name_H-M "P M M N"
_symmetry_group_IT_number 59
_space_group.IT_coordinate_system_code '2'
_symmetry_cell_setting 'orthorhombic'
loop_
_space_group_symop_operation_xyz
x,y,z
1/2-x,1/2-y,z
1/2+x,-y,-z
-x,1/2+y,-z
-x,-y,-z
1/2+x,1/2+y,-z
1/2-x,y,z
x,1/2-y,z
loop_
_atom_site_type_symbol
_atom_site_label
_atom_site_fract_x
_atom_site_fract_y
_atom_site_fract_z
Si Si1 0.146528 0.557876 0.910392
Si Si2 0.942069 0.441266 0.437992
Si Si3 0.250000 0.441044 0.523085
Si Si4 0.250000 0.444555 0.370109
Si Si5 0.513811 0.439735 0.828919
Si Si6 0.147448 0.555737 0.058365
Si Si7 0.060555 0.057859 0.315423
O O1 0.250000 0.516830 0.901064
O O2 0.139567 0.750000 0.908010
O O3 0.082545 0.485015 0.856396
O O4 0.120609 0.505016 0.984595
O O5 0.942539 0.250000 0.438782
O O6 0.841055 0.499673 0.444351
O O7 0.000000 0.500000 0.500000
O O8 0.991238 0.496458 0.371395
O O9 0.250000 0.250000 0.523672
O O10 0.250000 0.493750 0.446478
O O11 0.250000 0.250000 0.369636
O O12 0.340398 0.498262 0.334987
O O13 0.522400 0.250000 0.826095
O O14 0.583674 0.501455 0.883819
O O15 0.533594 0.506546 0.757170
O O16 0.250000 0.508736 0.069183
O O17 0.145589 0.750000 0.058076
O O18 0.061854 0.250000 0.317694
#
# Coordination Sequence:
#
# PCOD9452795 Si02
#       7
#     8   8   4   4   8   8   8
#     4   9  18  36  60  79 102 146 193 230 278 340
#     4  11  22  39  63  90 118 153 197 243 289 344
#     4  11  21  39  65  91 119 150 189 244 297 345
#     4   9  18  37  61  85 113 150 183 220 277 333
#     4  11  22  34  54  84 116 147 182 232 284 328
#     4   8  16  32  54  81 112 144 181 226 279 336
#     4  10  22  40  59  81 117 156 189 224 275 346
#
# _framework density 18.709143000000001
#
# number of rings (size 3 to 8) (size 9 to 14) (size 15 to 20)
#    0.000    2.167    1.667    2.750    1.167    1.667 
#    1.500    0.833    0.000    2.000    0.000    0.000 
#    0.000    0.000    0.000    0.000    0.000    0.000 
#
# Total GULP energy -267983.371036 kJ/mol
# GULP energy per Si atom -5582.986897 kJ/mol
# Density = 1.866656 g / cm^3
# Si number density = 18.709143 Si / 1000 Ang^3
#
#
#
# Elastic Constant Matrix: (Units=GPa)
#
#
# Indices 1 2 3 4 5 6 
#
# 1 155.6487 25.5770 109.7626 0.0000 0.0000 0.0000
# 2 25.5770 18.9339 23.6992 0.0000 0.0000 0.0000
# 3 109.7626 23.6992 171.8434 0.0000 0.0000 0.0000
# 4 0.0000 0.0000 0.0000 20.0016 0.0000 0.0000
# 5 0.0000 0.0000 0.0000 0.0000 7.4560 0.0000
# 6 0.0000 0.0000 0.0000 0.0000 0.0000 25.4277
#
#
#
# Elastic Compliance Matrix: (Units=1/GPa)
#
#
# Indices 1 2 3 4 5 6 
#
# 1 0.012725 -0.008480 -0.006959 0.000000 0.000000 0.000000
# 2 -0.008480 0.069486 -0.004166 0.000000 0.000000 0.000000
# 3 -0.006959 -0.004166 0.010839 0.000000 0.000000 0.000000
# 4 0.000000 0.000000 0.000000 0.049996 0.000000 0.000000
# 5 0.000000 0.000000 0.000000 0.000000 0.134121 0.000000
# 6 0.000000 0.000000 0.000000 0.000000 0.000000 0.039327
#
#
# Mechanical properties :
#
#
# Convention : Reuss Voigt Hill
#
# Bulk Modulus (GPa) = 18.57375 73.83374 46.20375
# Shear Modulus (GPa) = 13.38149 23.06953 18.22551
#
# Velocity S-wave (km/s) = 2.67729 3.51531 3.12452
# Velocity P-wave (km/s) = 4.41660 7.48506 6.14543
#
# Compressibility (1/GPa) = 0.05383942
#
# Stress axis : x y z
#
# Youngs Moduli (GPa) = 78.58246 14.39145 92.26284
#
# Poissons Ratio (x) = 0.12204 0.64203
# Poissons Ratio (y) = 0.66640 0.38439
# Poissons Ratio (z) = 0.54683 0.05996
#
# Static dielectric constant tensor:
#      x y z
#    x 1.557680 0.000000 0.000000 
#    y 0.000000 1.650190 0.000000 
#    z 0.000000 0.000000 1.623770 
# 
# From -- ./inp_files/27406.got.cif
#   From: 2010.05.17/outbox.cif.g08.bks.cpg/sg59_14_cif.got.tgz:27406.got - 2010.06.03 14:40:33.
