data_PCOD9452146
_publ_section_title
;
Structure prediction by ZEFSAII (Michael W. Deem and Ramdas Pophale) SiO2 
 PCOD9452146
Probable space group: P M M N
;
_chemical_formula_sum "Si O2"
_cell_formula_units_Z 48
_cell_length_a 8.721315
_cell_length_b 9.374432
_cell_length_c 32.008543
_cell_angle_alpha 90.000000
_cell_angle_beta 90.000000
_cell_angle_gamma 90.000000
_cell_volume 2616.934435
_symmetry_space_group_name_H-M "P M M N"
_symmetry_group_IT_number 59
_space_group.IT_coordinate_system_code '2'
_symmetry_cell_setting 'orthorhombic'
loop_
_space_group_symop_operation_xyz
x,y,z
1/2-x,1/2-y,z
1/2+x,-y,-z
-x,1/2+y,-z
-x,-y,-z
1/2+x,1/2+y,-z
1/2-x,y,z
x,1/2-y,z
loop_
_atom_site_type_symbol
_atom_site_label
_atom_site_fract_x
_atom_site_fract_y
_atom_site_fract_z
Si Si1 0.436630 0.916391 0.368658
Si Si2 0.934243 0.417435 0.539254
Si Si3 0.434125 0.583303 0.960203
Si Si4 0.933684 0.416569 0.880927
Si Si5 0.432892 0.582230 0.802760
Si Si6 0.067776 0.080538 0.286571
O O1 0.250000 0.923741 0.368772
O O2 0.477713 0.750000 0.364906
O O3 0.486784 0.968595 0.414624
O O4 0.489253 0.002099 0.328186
O O5 0.750000 0.428558 0.538341
O O6 0.973495 0.250000 0.536364
O O7 0.000000 0.500000 0.500000
O O8 0.250000 0.578132 0.961313
O O9 0.480591 0.750000 0.960783
O O10 0.493175 0.505824 0.918629
O O11 0.500000 0.500000 0.000000
O O12 0.750000 0.423987 0.884181
O O13 0.979015 0.250000 0.883263
O O14 0.987304 0.486756 0.837666
O O15 0.250000 0.571416 0.806907
O O16 0.475413 0.750000 0.808336
O O17 0.484126 0.539247 0.756186
O O18 0.250000 0.051830 0.281674
O O19 0.048925 0.250000 0.292110
#
# Coordination Sequence:
#
# PCOD9452146 Si02
#       6
#     8   8   8   8   8   8
#     4   8  15  29  48  69  95 127 164 208 256 306
#     4   9  18  32  49  71  99 131 168 210 257 309
#     4  11  24  41  62  89 119 151 188 228 271 320
#     4  11  24  40  59  85 114 145 185 229 271 318
#     4  10  21  37  56  79 109 144 179 216 263 318
#     4   9  17  30  50  75 100 129 169 214 258 307
#
# _framework density 18.342072999999999
#
# number of rings (size 3 to 8) (size 9 to 14) (size 15 to 20)
#    0.000    2.333    0.000    3.500    0.000    9.333 
#    0.000    4.167    0.000    3.000    0.000    0.000 
#    0.000    0.000    0.000    0.000    0.000    0.000 
#
# Total GULP energy -267887.447597 kJ/mol
# GULP energy per Si atom -5580.988492 kJ/mol
# Density = 1.830033 g / cm^3
# Si number density = 18.342073 Si / 1000 Ang^3
#
#
#
# Elastic Constant Matrix: (Units=GPa)
#
#
# Indices 1 2 3 4 5 6 
#
# 1 27.7450 41.8803 40.4200 0.0000 0.0000 0.0000
# 2 41.8803 106.0068 95.5014 0.0000 0.0000 0.0000
# 3 40.4200 95.5014 182.7266 0.0000 0.0000 0.0000
# 4 0.0000 0.0000 0.0000 42.2131 0.0000 0.0000
# 5 0.0000 0.0000 0.0000 0.0000 33.8469 0.0000
# 6 0.0000 0.0000 0.0000 0.0000 0.0000 24.0996
#
#
#
# Elastic Compliance Matrix: (Units=1/GPa)
#
#
# Indices 1 2 3 4 5 6 
#
# 1 0.089892 -0.033261 -0.002501 0.000000 0.000000 0.000000
# 2 -0.033261 0.030134 -0.008392 0.000000 0.000000 0.000000
# 3 -0.002501 -0.008392 0.010412 0.000000 0.000000 0.000000
# 4 0.000000 0.000000 0.000000 0.023689 0.000000 0.000000
# 5 0.000000 0.000000 0.000000 0.000000 0.029545 0.000000
# 6 0.000000 0.000000 0.000000 0.000000 0.000000 0.041494
#
#
# Mechanical properties :
#
#
# Convention : Reuss Voigt Hill
#
# Bulk Modulus (GPa) = 23.73559 74.67574 49.20566
# Shear Modulus (GPa) = 15.26633 29.27704 22.27169
#
# Velocity S-wave (km/s) = 2.88811 3.99954 3.48838
# Velocity P-wave (km/s) = 4.90818 7.88224 6.56581
#
# Compressibility (1/GPa) = 0.04213082
#
# Stress axis : x y z
#
# Youngs Moduli (GPa) = 11.12442 33.18501 96.04340
#
# Poissons Ratio (x) = 1.10376 0.24020
# Poissons Ratio (y) = 0.37001 0.80600
# Poissons Ratio (z) = 0.02782 0.27849
#
# Static dielectric constant tensor:
#      x y z
#    x 1.626080 0.000000 0.000000 
#    y 0.000000 1.615640 0.000000 
#    z 0.000000 0.000000 1.621540 
# 
# From -- ./inp_files/32824.got.cif
#   From: 2010.05.17/outbox.cif.g08.bks.cpg/sg59_17_cif.got.tgz:32824.got - 2010.06.03 14:40:33.
