data_PCOD9452204
_publ_section_title
;
Structure prediction by ZEFSAII (Michael W. Deem and Ramdas Pophale) SiO2 
 PCOD9452204
Probable space group: P M M N
;
_chemical_formula_sum "Si O2"
_cell_formula_units_Z 48
_cell_length_a 8.643869
_cell_length_b 15.836921
_cell_length_c 18.078080
_cell_angle_alpha 90.000000
_cell_angle_beta 90.000000
_cell_angle_gamma 90.000000
_cell_volume 2474.749417
_symmetry_space_group_name_H-M "P M M N"
_symmetry_group_IT_number 59
_space_group.IT_coordinate_system_code '2'
_symmetry_cell_setting 'orthorhombic'
loop_
_space_group_symop_operation_xyz
x,y,z
1/2-x,1/2-y,z
1/2+x,-y,-z
-x,1/2+y,-z
-x,-y,-z
1/2+x,1/2+y,-z
1/2-x,y,z
x,1/2-y,z
loop_
_atom_site_type_symbol
_atom_site_label
_atom_site_fract_x
_atom_site_fract_y
_atom_site_fract_z
Si Si1 0.936114 0.652056 0.312007
Si Si2 0.422822 0.850696 0.155883
Si Si3 0.561673 0.651100 0.683150
Si Si4 0.436234 0.998315 0.582821
Si Si5 0.935741 0.593522 0.002037
Si Si6 0.074625 0.149446 0.156077
O O1 0.750000 0.653902 0.311571
O O2 0.988035 0.750000 0.325241
O O3 0.986100 0.582987 0.372397
O O4 0.992238 0.622434 0.230904
O O5 0.250000 0.887317 0.153462
O O6 0.412749 0.750000 0.162109
O O7 0.505800 0.868039 0.078638
O O8 0.750000 0.648337 0.683981
O O9 0.519368 0.750000 0.669975
O O10 0.497920 0.585006 0.624426
O O11 0.504149 0.623051 0.765414
O O12 0.250000 0.996865 0.581954
O O13 0.500000 0.000000 0.500000
O O14 0.750000 0.598648 0.002628
O O15 0.994903 0.632254 0.924344
O O16 0.000000 0.500000 0.000000
O O17 0.250000 0.114206 0.154033
O O18 0.085946 0.250000 0.162840
#
# Coordination Sequence:
#
# PCOD9452204 Si02
#       6
#     8   8   8   8   8   8
#     4   9  20  40  63  86 115 154 198 242 291 349
#     4  10  21  37  57  82 112 149 194 242 292 344
#     4   9  19  38  63  88 116 154 197 241 293 351
#     4  11  24  40  61  91 121 153 193 239 295 356
#     4  11  22  34  51  80 116 154 196 240 286 337
#     4   8  16  33  56  79 104 144 194 235 278 335
#
# _framework density 19.395903000000001
#
# number of rings (size 3 to 8) (size 9 to 14) (size 15 to 20)
#    0.000    2.333    0.000    3.000    2.333    4.000 
#    0.000    2.500    0.000    2.000    0.000    0.000 
#    0.000    0.000    0.000    0.000    0.000    0.000 
#
# Total GULP energy -267538.464724 kJ/mol
# GULP energy per Si atom -5573.718015 kJ/mol
# Density = 1.935176 g / cm^3
# Si number density = 19.395903 Si / 1000 Ang^3
#
#
#
# Elastic Constant Matrix: (Units=GPa)
#
#
# Indices 1 2 3 4 5 6 
#
# 1 31.7952 26.7727 40.0008 0.0000 0.0000 0.0000
# 2 26.7727 87.2848 85.1521 0.0000 0.0000 0.0000
# 3 40.0008 85.1521 219.4410 0.0000 0.0000 0.0000
# 4 0.0000 0.0000 0.0000 42.1732 0.0000 0.0000
# 5 0.0000 0.0000 0.0000 0.0000 25.9540 0.0000
# 6 0.0000 0.0000 0.0000 0.0000 0.0000 24.5374
#
#
#
# Elastic Compliance Matrix: (Units=1/GPa)
#
#
# Indices 1 2 3 4 5 6 
#
# 1 0.045106 -0.009356 -0.004592 0.000000 0.000000 0.000000
# 2 -0.009356 0.020376 -0.006201 0.000000 0.000000 0.000000
# 3 -0.004592 -0.006201 0.007800 0.000000 0.000000 0.000000
# 4 0.000000 0.000000 0.000000 0.023712 0.000000 0.000000
# 5 0.000000 0.000000 0.000000 0.000000 0.038530 0.000000
# 6 0.000000 0.000000 0.000000 0.000000 0.000000 0.040754
#
#
# Mechanical properties :
#
#
# Convention : Reuss Voigt Hill
#
# Bulk Modulus (GPa) = 30.31692 71.37471 50.84582
# Shear Modulus (GPa) = 21.97118 30.97260 26.47189
#
# Velocity S-wave (km/s) = 3.36932 4.00041 3.69835
# Velocity P-wave (km/s) = 5.54986 7.62997 6.67149
#
# Compressibility (1/GPa) = 0.03298488
#
# Stress axis : x y z
#
# Youngs Moduli (GPa) = 22.17010 49.07661 128.19763
#
# Poissons Ratio (x) = 0.45914 0.58865
# Poissons Ratio (y) = 0.20742 0.79501
# Poissons Ratio (z) = 0.10180 0.30435
#
# Static dielectric constant tensor:
#      x y z
#    x 1.699800 0.000000 0.000000 
#    y 0.000000 1.673390 0.000000 
#    z 0.000000 0.000000 1.733230 
# 
# From -- ./inp_files/25475.got.cif
#   From: 2010.05.17/outbox.cif.g08.bks.cpg/sg59_13_cif.got.tgz:25475.got - 2010.06.03 14:40:33.
