data_PCOD9452336
_publ_section_title
;
Structure prediction by ZEFSAII (Michael W. Deem and Ramdas Pophale) SiO2 
 PCOD9452336
Probable space group: P M M N
;
_chemical_formula_sum "Si O2"
_cell_formula_units_Z 48
_cell_length_a 17.662540
_cell_length_b 7.971092
_cell_length_c 17.176440
_cell_angle_alpha 90.000000
_cell_angle_beta 90.000000
_cell_angle_gamma 90.000000
_cell_volume 2418.266372
_symmetry_space_group_name_H-M "P M M N"
_symmetry_group_IT_number 59
_space_group.IT_coordinate_system_code '2'
_symmetry_cell_setting 'orthorhombic'
loop_
_space_group_symop_operation_xyz
x,y,z
1/2-x,1/2-y,z
1/2+x,-y,-z
-x,1/2+y,-z
-x,-y,-z
1/2+x,1/2+y,-z
1/2-x,y,z
x,1/2-y,z
loop_
_atom_site_type_symbol
_atom_site_label
_atom_site_fract_x
_atom_site_fract_y
_atom_site_fract_z
Si Si1 0.750000 0.547266 0.340230
Si Si2 0.066681 0.952377 0.103491
Si Si3 0.400167 0.452215 0.571686
Si Si4 0.433157 0.049713 0.397248
Si Si5 0.100291 0.952310 0.928991
Si Si6 0.750000 0.047228 0.159823
Si Si7 0.164190 0.951436 0.248995
O O1 0.750000 0.750000 0.345107
O O2 0.825948 0.486071 0.383530
O O3 0.750000 0.500236 0.250000
O O4 0.071016 0.750000 0.102701
O O5 0.117472 0.015840 0.174476
O O6 0.094797 0.012634 0.018595
O O7 0.978703 0.999490 0.111135
O O8 0.396203 0.250000 0.569153
O O9 0.479249 0.498742 0.612164
O O10 0.406198 0.513893 0.482300
O O11 0.429523 0.250000 0.398944
O O12 0.380978 0.988245 0.327662
O O13 0.103908 0.750000 0.931286
O O14 0.174218 0.013782 0.883725
O O15 0.750000 0.250000 0.155128
O O16 0.250000 0.016733 0.251541
O O17 0.168195 0.750000 0.241056
#
# Coordination Sequence:
#
# PCOD9452336 Si02
#       7
#     4   8   8   8   8   4   8
#     4  10  22  38  58  81 108 146 186 225 268 324
#     4   9  19  36  58  80 106 145 186 222 268 326
#     4   9  20  39  60  81 109 146 186 225 272 329
#     4  10  21  37  60  84 111 145 182 226 278 328
#     4   9  19  36  57  80 109 143 180 225 275 322
#     4  10  22  36  54  83 114 142 178 227 276 324
#     4  10  22  37  56  83 113 145 185 227 270 325
#
# _framework density 19.848929999999999
#
# number of rings (size 3 to 8) (size 9 to 14) (size 15 to 20)
#    0.000    2.500    0.000    0.500    4.667    3.000 
#    0.000    0.000    0.000    0.000    0.000    0.000 
#    0.000    0.000    0.000    0.000    0.000    0.000 
#
# Total GULP energy -267964.059452 kJ/mol
# GULP energy per Si atom -5582.584572 kJ/mol
# Density = 1.980375 g / cm^3
# Si number density = 19.848930 Si / 1000 Ang^3
#
#
#
# Elastic Constant Matrix: (Units=GPa)
#
#
# Indices 1 2 3 4 5 6 
#
# 1 230.7398 10.2827 140.6925 0.0000 0.0000 0.0000
# 2 10.2827 15.1292 5.9845 0.0000 0.0000 0.0000
# 3 140.6925 5.9845 131.3446 0.0000 0.0000 0.0000
# 4 0.0000 0.0000 0.0000 25.1982 0.0000 0.0000
# 5 0.0000 0.0000 0.0000 0.0000 31.7544 0.0000
# 6 0.0000 0.0000 0.0000 0.0000 0.0000 23.6826
#
#
#
# Elastic Compliance Matrix: (Units=1/GPa)
#
#
# Indices 1 2 3 4 5 6 
#
# 1 0.012654 -0.003298 -0.013405 0.000000 0.000000 0.000000
# 2 -0.003298 0.068170 0.000427 0.000000 0.000000 0.000000
# 3 -0.013405 0.000427 0.021953 0.000000 0.000000 0.000000
# 4 0.000000 0.000000 0.000000 0.039685 0.000000 0.000000
# 5 0.000000 0.000000 0.000000 0.000000 0.031492 0.000000
# 6 0.000000 0.000000 0.000000 0.000000 0.000000 0.042225
#
#
# Mechanical properties :
#
#
# Convention : Reuss Voigt Hill
#
# Bulk Modulus (GPa) = 14.23988 76.79256 45.51622
# Shear Modulus (GPa) = 18.37293 30.81064 24.59179
#
# Velocity S-wave (km/s) = 3.04573 3.94414 3.52369
# Velocity P-wave (km/s) = 4.42248 7.71454 6.28779
#
# Compressibility (1/GPa) = 0.07022529
#
# Stress axis : x y z
#
# Youngs Moduli (GPa) = 79.02481 14.66918 45.55247
#
# Poissons Ratio (x) = 0.04838 0.61061
# Poissons Ratio (y) = 0.26065 -0.01945
# Poissons Ratio (z) = 1.05929 -0.00626
#
# Static dielectric constant tensor:
#      x y z
#    x 1.676330 0.000000 0.000000 
#    y 0.000000 1.717870 0.000000 
#    z 0.000000 0.000000 1.684050 
# 
# From -- ./inp_files/23715.got.cif
#   From: 2010.05.17/outbox.cif.g08.bks.cpg/sg59_12_cif.got.tgz:23715.got - 2010.06.03 14:40:33.
