data_PCOD9452473
_publ_section_title
;
Structure prediction by ZEFSAII (Michael W. Deem and Ramdas Pophale) SiO2 
 PCOD9452473
Probable space group: P M M N
;
_chemical_formula_sum "Si O2"
_cell_formula_units_Z 48
_cell_length_a 8.806473
_cell_length_b 29.501867
_cell_length_c 10.210818
_cell_angle_alpha 90.000000
_cell_angle_beta 90.000000
_cell_angle_gamma 90.000000
_cell_volume 2652.846027
_symmetry_space_group_name_H-M "P M M N"
_symmetry_group_IT_number 59
_space_group.IT_coordinate_system_code '2'
_symmetry_cell_setting 'orthorhombic'
loop_
_space_group_symop_operation_xyz
x,y,z
1/2-x,1/2-y,z
1/2+x,-y,-z
-x,1/2+y,-z
-x,-y,-z
1/2+x,1/2+y,-z
1/2-x,y,z
x,1/2-y,z
loop_
_atom_site_type_symbol
_atom_site_label
_atom_site_fract_x
_atom_site_fract_y
_atom_site_fract_z
Si Si1 0.067179 0.977987 0.629542
Si Si2 0.433812 0.623622 0.712904
Si Si3 0.931891 0.967920 0.110763
Si Si4 0.931871 0.697002 0.515350
Si Si5 0.567866 0.197331 0.765027
Si Si6 0.933229 0.374365 0.982231
O O1 0.250000 0.977372 0.620491
O O2 0.019173 0.926148 0.659797
O O3 0.024587 0.010012 0.751092
O O4 0.000000 0.000000 0.500000
O O5 0.250000 0.625627 0.708045
O O6 0.499885 0.663477 0.623379
O O7 0.479928 0.628463 0.865495
O O8 0.750000 0.967543 0.102162
O O9 0.996793 0.918400 0.085293
O O10 0.000000 0.000000 0.000000
O O11 0.750000 0.694906 0.518976
O O12 0.977629 0.750000 0.535335
O O13 0.989706 0.683079 0.370746
O O14 0.750000 0.193360 0.747749
O O15 0.530855 0.250000 0.786504
O O16 0.524575 0.168052 0.891248
O O17 0.750000 0.378506 0.982035
#
# Coordination Sequence:
#
# PCOD9452473 Si02
#       6
#     8   8   8   8   8   8
#     4  10  23  40  57  83 116 151 191 235 280 333
#     4  10  21  39  59  83 115 149 190 236 282 335
#     4  11  22  39  60  84 116 152 190 232 281 336
#     4  10  22  39  58  83 116 151 188 233 284 337
#     4   9  19  37  61  87 113 146 188 231 281 340
#     4  10  21  38  60  87 116 147 188 236 284 338
#
# _framework density 18.093775000000001
#
# number of rings (size 3 to 8) (size 9 to 14) (size 15 to 20)
#    0.000    2.000    1.667    1.000    2.333    5.000 
#    0.000    1.667    0.000    2.000    0.000    0.000 
#    0.000    0.000    0.000    0.000    0.000    0.000 
#
# Total GULP energy -267972.214071 kJ/mol
# GULP energy per Si atom -5582.754460 kJ/mol
# Density = 1.805259 g / cm^3
# Si number density = 18.093775 Si / 1000 Ang^3
#
#
#
# Elastic Constant Matrix: (Units=GPa)
#
#
# Indices 1 2 3 4 5 6 
#
# 1 13.3362 36.3929 46.6431 0.0000 0.0000 0.0000
# 2 36.3929 127.7549 111.9197 0.0000 0.0000 0.0000
# 3 46.6431 111.9197 197.4586 0.0000 0.0000 0.0000
# 4 0.0000 0.0000 0.0000 40.7088 0.0000 0.0000
# 5 0.0000 0.0000 0.0000 0.0000 25.2619 0.0000
# 6 0.0000 0.0000 0.0000 0.0000 0.0000 32.3682
#
#
#
# Elastic Compliance Matrix: (Units=1/GPa)
#
#
# Indices 1 2 3 4 5 6 
#
# 1 1.286537 -0.199136 -0.191032 0.000000 0.000000 0.000000
# 2 -0.199136 0.046371 0.020756 0.000000 0.000000 0.000000
# 3 -0.191032 0.020756 0.038425 0.000000 0.000000 0.000000
# 4 0.000000 0.000000 0.000000 0.024565 0.000000 0.000000
# 5 0.000000 0.000000 0.000000 0.000000 0.039585 0.000000
# 6 0.000000 0.000000 0.000000 0.000000 0.000000 0.030895
#
#
# Mechanical properties :
#
#
# Convention : Reuss Voigt Hill
#
# Bulk Modulus (GPa) = 1.58100 80.94014 41.26057
# Shear Modulus (GPa) = 2.06951 29.24071 15.65511
#
# Velocity S-wave (km/s) = 1.07063 4.02439 2.94465
# Velocity P-wave (km/s) = 1.55049 8.15016 5.86639
#
# Compressibility (1/GPa) = 0.63250915
#
# Stress axis : x y z
#
# Youngs Moduli (GPa) = 0.77728 21.56532 26.02499
#
# Poissons Ratio (x) = 4.29443 4.97160
# Poissons Ratio (y) = 0.15478 -0.54019
# Poissons Ratio (z) = 0.14849 -0.44762
#
# Static dielectric constant tensor:
#      x y z
#    x 1.612160 0.000000 0.000000 
#    y 0.000000 1.599550 0.000000 
#    z 0.000000 0.000000 1.394410 
# 
# From -- ./inp_files/6199.got.cif
#   From: 2010.05.17/outbox.cif.g08.bks.cpg/sg59_4_cif.got.tgz:6199.got - 2010.06.03 14:40:33.
