data_PCOD9452239
_publ_section_title
;
Structure prediction by ZEFSAII (Michael W. Deem and Ramdas Pophale) SiO2 
 PCOD9452239
Probable space group: P M M N
;
_chemical_formula_sum "Si O2"
_cell_formula_units_Z 40
_cell_length_a 15.292536
_cell_length_b 16.684276
_cell_length_c 7.206181
_cell_angle_alpha 90.000000
_cell_angle_beta 90.000000
_cell_angle_gamma 90.000000
_cell_volume 1838.620268
_symmetry_space_group_name_H-M "P M M N"
_symmetry_group_IT_number 59
_space_group.IT_coordinate_system_code '2'
_symmetry_cell_setting 'orthorhombic'
loop_
_space_group_symop_operation_xyz
x,y,z
1/2-x,1/2-y,z
1/2+x,-y,-z
-x,1/2+y,-z
-x,-y,-z
1/2+x,1/2+y,-z
1/2-x,y,z
x,1/2-y,z
loop_
_atom_site_type_symbol
_atom_site_label
_atom_site_fract_x
_atom_site_fract_y
_atom_site_fract_z
Si Si1 0.961199 0.338405 0.716303
Si Si2 0.466707 0.843803 0.839071
Si Si3 0.843921 0.652729 0.886184
Si Si4 0.350622 0.937564 0.557888
Si Si5 0.154269 0.380729 0.683329
O O1 0.923844 0.250000 0.675947
O O2 0.907234 0.407015 0.614982
O O3 0.062003 0.338386 0.648322
O O4 0.960405 0.350006 0.938089
O O5 0.456673 0.750000 0.790756
O O6 0.565936 0.870074 0.788927
O O7 0.395713 0.895499 0.734206
O O8 0.750000 0.633014 0.798021
O O9 0.847732 0.750000 0.910787
O O10 0.844095 0.615124 0.091447
O O11 0.250000 0.912644 0.536967
O O12 0.351972 0.032042 0.593697
O O13 0.250000 0.344950 0.633818
#
# Coordination Sequence:
#
# PCOD9452239 Si02
#       5
#     8   8   8   8   8
#     4  10  21  37  58  82 108 142 182 223 268 318
#     4   9  19  35  55  79 105 138 179 218 262 318
#     4   8  14  28  52  79 106 136 171 215 268 324
#     4  11  23  37  54  78 110 145 181 224 269 313
#     4   9  18  34  56  82 110 139 174 220 275 328
#
# _framework density 21.755441999999999
#
# number of rings (size 3 to 8) (size 9 to 14) (size 15 to 20)
#    0.000    2.600    0.000    3.000    0.000    6.800 
#    0.000    3.000    0.000   10.800    0.000    0.000 
#    0.000    0.000    0.000    0.000    0.000    0.000 
#
# Total GULP energy -223339.648934 kJ/mol
# GULP energy per Si atom -5583.491223 kJ/mol
# Density = 2.170593 g / cm^3
# Si number density = 21.755442 Si / 1000 Ang^3
#
#
#
# Elastic Constant Matrix: (Units=GPa)
#
#
# Indices 1 2 3 4 5 6 
#
# 1 131.1757 32.6844 16.0366 0.0000 0.0000 0.0000
# 2 32.6844 61.3664 12.9118 0.0000 0.0000 0.0000
# 3 16.0366 12.9118 81.0436 0.0000 0.0000 0.0000
# 4 0.0000 0.0000 0.0000 21.3943 0.0000 0.0000
# 5 0.0000 0.0000 0.0000 0.0000 124.9437 0.0000
# 6 0.0000 0.0000 0.0000 0.0000 0.0000 35.0107
#
#
#
# Elastic Compliance Matrix: (Units=1/GPa)
#
#
# Indices 1 2 3 4 5 6 
#
# 1 0.008873 -0.004508 -0.001038 0.000000 0.000000 0.000000
# 2 -0.004508 0.019151 -0.002159 0.000000 0.000000 0.000000
# 3 -0.001038 -0.002159 0.012888 0.000000 0.000000 0.000000
# 4 0.000000 0.000000 0.000000 0.046741 0.000000 0.000000
# 5 0.000000 0.000000 0.000000 0.000000 0.008004 0.000000
# 6 0.000000 0.000000 0.000000 0.000000 0.000000 0.028563
#
#
# Mechanical properties :
#
#
# Convention : Reuss Voigt Hill
#
# Bulk Modulus (GPa) = 39.21034 44.09456 41.65245
# Shear Modulus (GPa) = 33.75407 50.39995 42.07701
#
# Velocity S-wave (km/s) = 3.94321 4.81839 4.40260
# Velocity P-wave (km/s) = 6.22850 7.16018 6.71053
#
# Compressibility (1/GPa) = 0.02550348
#
# Stress axis : x y z
#
# Youngs Moduli (GPa) = 112.69656 52.21737 77.58948
#
# Poissons Ratio (x) = 0.23538 0.08051
# Poissons Ratio (y) = 0.50801 0.16752
# Poissons Ratio (z) = 0.11694 0.11274
#
# Static dielectric constant tensor:
#      x y z
#    x 1.799610 0.000000 0.000000 
#    y 0.000000 2.106360 0.000000 
#    z 0.000000 0.000000 1.814690 
# 
# From -- ./inp_files/8791.got.cif
#   From: 2010.05.17/outbox.cif.g08.bks.cpg/sg59_5_cif.got.tgz:8791.got - 2010.06.03 14:40:33.
