data_PCOD9452011
_publ_section_title
;
Structure prediction by ZEFSAII (Michael W. Deem and Ramdas Pophale) SiO2 
 PCOD9452011
Probable space group: P M M N
;
_chemical_formula_sum "Si O2"
_cell_formula_units_Z 56
_cell_length_a 23.077926
_cell_length_b 8.571739
_cell_length_c 14.858683
_cell_angle_alpha 90.000000
_cell_angle_beta 90.000000
_cell_angle_gamma 90.000000
_cell_volume 2939.314335
_symmetry_space_group_name_H-M "P M M N"
_symmetry_group_IT_number 59
_space_group.IT_coordinate_system_code '2'
_symmetry_cell_setting 'orthorhombic'
loop_
_space_group_symop_operation_xyz
x,y,z
1/2-x,1/2-y,z
1/2+x,-y,-z
-x,1/2+y,-z
-x,-y,-z
1/2+x,1/2+y,-z
1/2-x,y,z
x,1/2-y,z
loop_
_atom_site_type_symbol
_atom_site_label
_atom_site_fract_x
_atom_site_fract_y
_atom_site_fract_z
Si Si1 0.250000 0.562794 0.827357
Si Si2 0.403419 0.939418 0.346870
Si Si3 0.027661 0.433887 0.089463
Si Si4 0.144685 0.565466 0.157942
Si Si5 0.974311 0.066420 0.284145
Si Si6 0.185485 0.938209 0.499119
Si Si7 0.250000 0.941672 0.035903
Si Si8 0.653860 0.565029 0.306478
O O1 0.250000 0.750000 0.826843
O O2 0.250000 0.508845 0.931638
O O3 0.193224 0.506311 0.773084
O O4 0.406245 0.750000 0.345243
O O5 0.366613 0.993895 0.259214
O O6 0.367019 0.988306 0.434240
O O7 0.468931 0.001483 0.336073
O O8 0.040610 0.250000 0.081106
O O9 0.085169 0.530881 0.108086
O O10 0.988153 0.452952 0.178050
O O11 0.000000 0.500000 0.000000
O O12 0.154893 0.750000 0.167155
O O13 0.195328 0.503927 0.094618
O O14 0.969021 0.250000 0.304020
O O15 0.913331 0.985397 0.303193
O O16 0.250000 0.978560 0.463774
O O17 0.182849 0.750000 0.504878
O O18 0.178338 0.006377 0.598254
O O19 0.250000 0.750000 0.033436
O O20 0.658402 0.750000 0.300984
#
# Coordination Sequence:
#
# PCOD9452011 Si02
#       8
#     4   8   8   8   8   8   4   8
#     4  11  23  41  60  83 120 160 199 241 290 355
#     4   9  19  36  61  92 123 152 193 242 290 345
#     4  10  21  36  56  82 112 150 195 239 289 343
#     4   9  18  35  57  86 120 151 189 235 279 339
#     4  10  22  40  61  84 116 157 196 240 299 356
#     4  10  21  38  62  90 120 159 197 236 292 354
#     4   9  20  35  58  87 116 154 193 229 282 343
#     4  12  25  41  62  88 117 152 199 252 298 345
#
# _framework density 19.052063
#
# number of rings (size 3 to 8) (size 9 to 14) (size 15 to 20)
#    0.000    2.000    0.714    2.357    3.000    2.857 
#    0.000    1.071    0.000    0.000    0.000    0.000 
#    0.000    0.000    0.000    0.000    0.000    0.000 
#
# Total GULP energy -312492.312121 kJ/mol
# GULP energy per Si atom -5580.219859 kJ/mol
# Density = 1.900870 g / cm^3
# Si number density = 19.052063 Si / 1000 Ang^3
#
#
#
# Elastic Constant Matrix: (Units=GPa)
#
#
# Indices 1 2 3 4 5 6 
#
# 1 109.7551 21.1528 53.6083 0.0000 0.0000 0.0000
# 2 21.1528 21.5571 11.0220 0.0000 0.0000 0.0000
# 3 53.6083 11.0220 56.3911 0.0000 0.0000 0.0000
# 4 0.0000 0.0000 0.0000 15.0375 0.0000 0.0000
# 5 0.0000 0.0000 0.0000 0.0000 21.9677 0.0000
# 6 0.0000 0.0000 0.0000 0.0000 0.0000 26.7852
#
#
#
# Elastic Compliance Matrix: (Units=1/GPa)
#
#
# Indices 1 2 3 4 5 6 
#
# 1 0.018897 -0.010396 -0.015932 0.000000 0.000000 0.000000
# 2 -0.010396 0.057259 -0.001308 0.000000 0.000000 0.000000
# 3 -0.015932 -0.001308 0.033135 0.000000 0.000000 0.000000
# 4 0.000000 0.000000 0.000000 0.066501 0.000000 0.000000
# 5 0.000000 0.000000 0.000000 0.000000 0.045521 0.000000
# 6 0.000000 0.000000 0.000000 0.000000 0.000000 0.037334
#
#
# Mechanical properties :
#
#
# Convention : Reuss Voigt Hill
#
# Bulk Modulus (GPa) = 18.51278 39.91884 29.21581
# Shear Modulus (GPa) = 15.06362 19.55275 17.30819
#
# Velocity S-wave (km/s) = 2.81491 3.20704 3.01735
# Velocity P-wave (km/s) = 4.50589 5.89164 5.24473
#
# Compressibility (1/GPa) = 0.05401674
#
# Stress axis : x y z
#
# Youngs Moduli (GPa) = 52.91944 17.46461 30.17957
#
# Poissons Ratio (x) = 0.18157 0.48083
# Poissons Ratio (y) = 0.55016 0.03949
# Poissons Ratio (z) = 0.84312 0.02285
#
# Static dielectric constant tensor:
#      x y z
#    x 1.674770 0.000000 0.000000 
#    y 0.000000 1.652790 0.000000 
#    z 0.000000 0.000000 1.667290 
# 
# From -- ./inp_files/24355.got.cif
#   From: 2010.05.17/outbox.cif.g08.bks.cpg/sg59_13_cif.got.tgz:24355.got - 2010.06.03 14:40:33.
