data_PCOD9452914
_publ_section_title
;
Structure prediction by ZEFSAII (Michael W. Deem and Ramdas Pophale) SiO2 
 PCOD9452914
Probable space group: P M M N
;
_chemical_formula_sum "Si O2"
_cell_formula_units_Z 48
_cell_length_a 8.817939
_cell_length_b 10.456393
_cell_length_c 28.426703
_cell_angle_alpha 90.000000
_cell_angle_beta 90.000000
_cell_angle_gamma 90.000000
_cell_volume 2621.051051
_symmetry_space_group_name_H-M "P M M N"
_symmetry_group_IT_number 59
_space_group.IT_coordinate_system_code '2'
_symmetry_cell_setting 'orthorhombic'
loop_
_space_group_symop_operation_xyz
x,y,z
1/2-x,1/2-y,z
1/2+x,-y,-z
-x,1/2+y,-z
-x,-y,-z
1/2+x,1/2+y,-z
1/2-x,y,z
x,1/2-y,z
loop_
_atom_site_type_symbol
_atom_site_label
_atom_site_fract_x
_atom_site_fract_y
_atom_site_fract_z
Si Si1 0.068329 0.750000 0.105454
Si Si2 0.069444 0.502083 0.736586
Si Si3 0.069577 0.250000 0.212724
Si Si4 0.430351 0.750000 0.889645
Si Si5 0.069157 0.098463 0.356064
Si Si6 0.568013 0.250000 0.783668
Si Si7 0.431070 0.007271 0.948031
Si Si8 0.932909 0.896958 0.535448
O O1 0.250000 0.750000 0.100682
O O2 0.030472 0.750000 0.160811
O O3 0.001449 0.625214 0.080340
O O4 0.250000 0.501723 0.741035
O O5 0.000692 0.624539 0.763361
O O6 0.020251 0.518001 0.682337
O O7 0.000065 0.375236 0.759300
O O8 0.250000 0.250000 0.219322
O O9 0.025373 0.250000 0.158015
O O10 0.250000 0.750000 0.877937
O O11 0.462268 0.875983 0.920188
O O12 0.250000 0.076884 0.350789
O O13 0.042869 0.250000 0.347506
O O14 0.026581 0.073217 0.410237
O O15 0.750000 0.250000 0.779124
O O16 0.250000 0.022884 0.951184
O O17 0.500000 0.000000 0.000000
O O18 0.750000 0.899509 0.532897
O O19 0.980888 0.750000 0.525394
O O20 0.000000 0.000000 0.500000
#
# Coordination Sequence:
#
# PCOD9452914 Si02
#       8
#     4   8   4   4   8   4   8   8
#     4  11  24  42  63  88 119 158 204 243 288 357
#     4  12  24  39  61  91 122 154 199 253 302 352
#     4  12  24  39  63  90 119 158 199 243 296 357
#     4  10  23  41  60  89 121 150 194 251 298 341
#     4   9  18  36  61  85 115 158 206 250 298 357
#     4  11  25  44  64  87 121 164 201 241 300 369
#     4  11  23  40  64  91 122 157 194 242 298 351
#     4   9  19  36  58  86 118 156 200 248 298 355
#
# _framework density 18.313265000000001
#
# number of rings (size 3 to 8) (size 9 to 14) (size 15 to 20)
#    0.000    1.500    0.833    5.750    0.000    7.000 
#    1.500    1.667    0.000    0.000    0.000    0.000 
#    0.000    0.000    0.000    0.000    0.000    0.000 
#
# Total GULP energy -268364.664551 kJ/mol
# GULP energy per Si atom -5590.930511 kJ/mol
# Density = 1.827158 g / cm^3
# Si number density = 18.313265 Si / 1000 Ang^3
#
#
#
# Elastic Constant Matrix: (Units=GPa)
#
#
# Indices 1 2 3 4 5 6 
#
# 1 93.6589 80.9715 86.8891 0.0000 0.0000 0.0000
# 2 80.9715 177.5898 110.1556 0.0000 0.0000 0.0000
# 3 86.8891 110.1556 171.1649 0.0000 0.0000 0.0000
# 4 0.0000 0.0000 0.0000 36.8691 0.0000 0.0000
# 5 0.0000 0.0000 0.0000 0.0000 36.7316 0.0000
# 6 0.0000 0.0000 0.0000 0.0000 0.0000 33.1960
#
#
#
# Elastic Compliance Matrix: (Units=1/GPa)
#
#
# Indices 1 2 3 4 5 6 
#
# 1 0.022900 -0.005377 -0.008164 0.000000 0.000000 0.000000
# 2 -0.005377 0.010635 -0.004115 0.000000 0.000000 0.000000
# 3 -0.008164 -0.004115 0.012635 0.000000 0.000000 0.000000
# 4 0.000000 0.000000 0.000000 0.027123 0.000000 0.000000
# 5 0.000000 0.000000 0.000000 0.000000 0.027225 0.000000
# 6 0.000000 0.000000 0.000000 0.000000 0.000000 0.030124
#
#
# Mechanical properties :
#
#
# Convention : Reuss Voigt Hill
#
# Bulk Modulus (GPa) = 92.10113 110.93845 101.51979
# Shear Modulus (GPa) = 29.48601 32.31917 30.90259
#
# Velocity S-wave (km/s) = 4.01695 4.20550 4.11231
# Velocity P-wave (km/s) = 8.48031 9.18103 8.83762
#
# Compressibility (1/GPa) = 0.01085763
#
# Stress axis : x y z
#
# Youngs Moduli (GPa) = 43.66859 94.03105 79.14623
#
# Poissons Ratio (x) = 0.50560 0.64617
# Poissons Ratio (y) = 0.23480 0.32566
# Poissons Ratio (z) = 0.35652 0.38691
#
# Static dielectric constant tensor:
#      x y z
#    x 1.611180 0.000000 0.000000 
#    y 0.000000 1.576640 0.000000 
#    z 0.000000 0.000000 1.615130 
# 
# From -- ./inp_files/33108.got.cif
#   From: 2010.05.17/outbox.cif.g08.bks.cpg/sg59_17_cif.got.tgz:33108.got - 2010.06.03 14:40:33.
