data_PCOD9452768
_publ_section_title
;
Structure prediction by ZEFSAII (Michael W. Deem and Ramdas Pophale) SiO2 
 PCOD9452768
Probable space group: P M M N
;
_chemical_formula_sum "Si O2"
_cell_formula_units_Z 56
_cell_length_a 8.841730
_cell_length_b 16.730724
_cell_length_c 18.969333
_cell_angle_alpha 90.000000
_cell_angle_beta 90.000000
_cell_angle_gamma 90.000000
_cell_volume 2806.105817
_symmetry_space_group_name_H-M "P M M N"
_symmetry_group_IT_number 59
_space_group.IT_coordinate_system_code '2'
_symmetry_cell_setting 'orthorhombic'
loop_
_space_group_symop_operation_xyz
x,y,z
1/2-x,1/2-y,z
1/2+x,-y,-z
-x,1/2+y,-z
-x,-y,-z
1/2+x,1/2+y,-z
1/2-x,y,z
x,1/2-y,z
loop_
_atom_site_type_symbol
_atom_site_label
_atom_site_fract_x
_atom_site_fract_y
_atom_site_fract_z
Si Si1 0.923877 0.002801 0.159575
Si Si2 0.930259 0.750000 0.779802
Si Si3 0.072440 0.077393 0.035581
Si Si4 0.064704 0.250000 0.055635
Si Si5 0.070808 0.839976 0.346807
Si Si6 0.428586 0.839871 0.176818
Si Si7 0.927012 0.098876 0.297099
Si Si8 0.931382 0.991834 0.422795
O O1 0.750000 0.015856 0.137665
O O2 0.973460 0.911900 0.146447
O O3 0.935693 0.025913 0.241285
O O4 0.034689 0.061047 0.117396
O O5 0.750000 0.750000 0.782210
O O6 0.983446 0.750000 0.861789
O O7 0.987522 0.672715 0.737447
O O8 0.250000 0.075894 0.022531
O O9 0.013999 0.166842 0.020300
O O10 0.000000 0.000000 0.000000
O O11 0.250000 0.250000 0.055003
O O12 0.250000 0.848821 0.361159
O O13 0.024611 0.750000 0.368151
O O14 0.054055 0.844034 0.261904
O O15 0.982916 0.909371 0.386445
O O16 0.250000 0.851928 0.161365
O O17 0.471572 0.750000 0.154802
O O18 0.750000 0.120784 0.303317
O O19 0.982200 0.064299 0.371356
O O20 0.750000 0.994247 0.425746
O O21 0.000000 0.000000 0.500000
#
# Coordination Sequence:
#
# PCOD9452768 Si02
#       8
#     8   4   8   4   8   8   8   8
#     4  11  21  36  60  90 120 156 197 246 305 362
#     4  11  21  37  65  97 119 152 203 254 309 363
#     4  11  23  43  65  91 124 163 208 257 310 371
#     4   9  20  39  65  93 125 160 201 254 311 363
#     4   9  18  34  57  83 111 146 186 231 286 344
#     4   9  18  33  55  84 116 150 190 236 285 342
#     4  10  22  39  59  87 122 155 194 249 309 366
#     4  11  23  40  59  83 116 157 200 246 304 364
#
# _framework density 19.956482000000001
#
# number of rings (size 3 to 8) (size 9 to 14) (size 15 to 20)
#    0.000    1.857    2.857    2.357    0.000    2.286 
#    2.571    2.857    0.000    0.000    0.000    0.000 
#    0.000    0.000    0.000    0.000    0.000    0.000 
#
# Total GULP energy -312673.459376 kJ/mol
# GULP energy per Si atom -5583.454632 kJ/mol
# Density = 1.991106 g / cm^3
# Si number density = 19.956482 Si / 1000 Ang^3
#
#
#
# Elastic Constant Matrix: (Units=GPa)
#
#
# Indices 1 2 3 4 5 6 
#
# 1 31.0739 40.2210 9.5149 0.0000 0.0000 0.0000
# 2 40.2210 156.8110 27.0750 0.0000 0.0000 0.0000
# 3 9.5149 27.0750 61.7514 0.0000 0.0000 0.0000
# 4 0.0000 0.0000 0.0000 25.5592 0.0000 0.0000
# 5 0.0000 0.0000 0.0000 0.0000 25.8619 0.0000
# 6 0.0000 0.0000 0.0000 0.0000 0.0000 34.5922
#
#
#
# Elastic Compliance Matrix: (Units=1/GPa)
#
#
# Indices 1 2 3 4 5 6 
#
# 1 0.048446 -0.012049 -0.002182 0.000000 0.000000 0.000000
# 2 -0.012049 0.009896 -0.002482 0.000000 0.000000 0.000000
# 3 -0.002182 -0.002482 0.017619 0.000000 0.000000 0.000000
# 4 0.000000 0.000000 0.000000 0.039125 0.000000 0.000000
# 5 0.000000 0.000000 0.000000 0.000000 0.038667 0.000000
# 6 0.000000 0.000000 0.000000 0.000000 0.000000 0.028908
#
#
# Mechanical properties :
#
#
# Convention : Reuss Voigt Hill
#
# Bulk Modulus (GPa) = 23.51080 44.80647 34.15863
# Shear Modulus (GPa) = 21.71409 28.72434 25.21921
#
# Velocity S-wave (km/s) = 3.30217 3.79799 3.55873
# Velocity P-wave (km/s) = 5.13281 6.46017 5.83436
#
# Compressibility (1/GPa) = 0.04253364
#
# Stress axis : x y z
#
# Youngs Moduli (GPa) = 20.64170 101.04794 56.75830
#
# Poissons Ratio (x) = 1.21756 0.12383
# Poissons Ratio (y) = 0.24872 0.14090
# Poissons Ratio (z) = 0.04503 0.25085
#
# Static dielectric constant tensor:
#      x y z
#    x 1.679620 0.000000 0.000000 
#    y 0.000000 1.715170 0.000000 
#    z 0.000000 0.000000 1.732060 
# 
# From -- ./inp_files/29251.got.cif
#   From: 2010.05.17/outbox.cif.g08.bks.cpg/sg59_15_cif.got.tgz:29251.got - 2010.06.03 14:40:33.
