data_PCOD9452094
_publ_section_title
;
Structure prediction by ZEFSAII (Michael W. Deem and Ramdas Pophale) SiO2 
 PCOD9452094
Probable space group: P M M N
;
_chemical_formula_sum "Si O2"
_cell_formula_units_Z 56
_cell_length_a 15.138048
_cell_length_b 8.376997
_cell_length_c 19.547296
_cell_angle_alpha 90.000000
_cell_angle_beta 90.000000
_cell_angle_gamma 90.000000
_cell_volume 2478.819633
_symmetry_space_group_name_H-M "P M M N"
_symmetry_group_IT_number 59
_space_group.IT_coordinate_system_code '2'
_symmetry_cell_setting 'orthorhombic'
loop_
_space_group_symop_operation_xyz
x,y,z
1/2-x,1/2-y,z
1/2+x,-y,-z
-x,1/2+y,-z
-x,-y,-z
1/2+x,1/2+y,-z
1/2-x,y,z
x,1/2-y,z
loop_
_atom_site_type_symbol
_atom_site_label
_atom_site_fract_x
_atom_site_fract_y
_atom_site_fract_z
Si Si1 0.397990 0.441996 0.002562
Si Si2 0.395277 0.561565 0.146914
Si Si3 0.921886 0.568333 0.716343
Si Si4 0.355708 0.927478 0.418687
Si Si5 0.607633 0.557388 0.144789
Si Si6 0.110342 0.064586 0.709029
Si Si7 0.855540 0.931543 0.439929
O O1 0.396801 0.250000 0.003690
O O2 0.358143 0.496384 0.929403
O O3 0.500000 0.500000 0.000000
O O4 0.359211 0.503811 0.073915
O O5 0.382250 0.750000 0.153006
O O6 0.365194 0.477068 0.216738
O O7 0.501583 0.527801 0.143721
O O8 0.952950 0.750000 0.724120
O O9 0.877170 0.544899 0.643214
O O10 0.004985 0.449314 0.715062
O O11 0.250000 0.920499 0.423637
O O12 0.388172 0.750000 0.401602
O O13 0.390167 0.979619 0.493042
O O14 0.618881 0.750000 0.147070
O O15 0.643006 0.496578 0.217947
O O16 0.139235 0.250000 0.705352
O O17 0.130554 0.992041 0.634875
O O18 0.750000 0.921483 0.447665
O O19 0.890887 0.750000 0.439363
#
# Coordination Sequence:
#
# PCOD9452094 Si02
#       7
#     8   8   8   8   8   8   8
#     4   9  14  21  35  57  86 122 162 198 235 280
#     4   9  16  27  41  60  90 124 157 194 238 287
#     4  11  21  32  49  73  99 125 157 199 243 288
#     4  10  21  37  55  72  93 124 159 194 237 290
#     4   7  12  22  37  58  86 121 156 190 229 274
#     4   9  17  31  49  70 100 132 160 196 242 288
#     4   9  18  33  53  75  97 124 161 202 240 280
#
# _framework density 22.591397000000001
#
# number of rings (size 3 to 8) (size 9 to 14) (size 15 to 20)
#    0.000    2.857    0.000    4.286    0.000    2.000 
#    0.000    0.714    0.000    0.000    0.000    1.000 
#    0.000    3.429    0.000    0.000    0.000    0.000 
#
# Total GULP energy -312007.255302 kJ/mol
# GULP energy per Si atom -5571.558130 kJ/mol
# Density = 2.253998 g / cm^3
# Si number density = 22.591397 Si / 1000 Ang^3
#
#
#
# Elastic Constant Matrix: (Units=GPa)
#
#
# Indices 1 2 3 4 5 6 
#
# 1 40.6678 0.2493 9.3007 0.0000 0.0000 0.0000
# 2 0.2493 45.3388 35.8419 0.0000 0.0000 0.0000
# 3 9.3007 35.8419 248.3849 0.0000 0.0000 0.0000
# 4 0.0000 0.0000 0.0000 28.9675 0.0000 0.0000
# 5 0.0000 0.0000 0.0000 0.0000 47.2850 0.0000
# 6 0.0000 0.0000 0.0000 0.0000 0.0000 1.7765
#
#
#
# Elastic Compliance Matrix: (Units=1/GPa)
#
#
# Indices 1 2 3 4 5 6 
#
# 1 0.024820 0.000675 -0.001027 0.000000 0.000000 0.000000
# 2 0.000675 0.024915 -0.003620 0.000000 0.000000 0.000000
# 3 -0.001027 -0.003620 0.004587 0.000000 0.000000 0.000000
# 4 0.000000 0.000000 0.000000 0.034521 0.000000 0.000000
# 5 0.000000 0.000000 0.000000 0.000000 0.021148 0.000000
# 6 0.000000 0.000000 0.000000 0.000000 0.000000 0.562910
#
#
# Mechanical properties :
#
#
# Convention : Reuss Voigt Hill
#
# Bulk Modulus (GPa) = 21.56214 47.24170 34.40192
# Shear Modulus (GPa) = 7.18077 34.87244 21.02661
#
# Velocity S-wave (km/s) = 1.78478 3.93315 3.05410
# Velocity P-wave (km/s) = 3.71650 6.44849 5.26286
#
# Compressibility (1/GPa) = 0.04637760
#
# Stress axis : x y z
#
# Youngs Moduli (GPa) = 40.28979 40.13716 218.01263
#
# Poissons Ratio (x) = -0.02710 0.22386
# Poissons Ratio (y) = -0.02721 0.78930
# Poissons Ratio (z) = 0.04137 0.14531
#
# Static dielectric constant tensor:
#      x y z
#    x 1.866760 0.000000 0.000000 
#    y 0.000000 1.794450 0.000000 
#    z 0.000000 0.000000 1.935160 
# 
# From -- ./inp_files/28064.got.cif
#   From: 2010.05.17/outbox.cif.g08.bks.cpg/sg59_15_cif.got.tgz:28064.got - 2010.06.03 14:40:33.
