data_PCOD9452162
_publ_section_title
;
Structure prediction by ZEFSAII (Michael W. Deem and Ramdas Pophale) SiO2 
 PCOD9452162
Probable space group: P M M N
;
_chemical_formula_sum "Si O2"
_cell_formula_units_Z 40
_cell_length_a 8.503230
_cell_length_b 26.170416
_cell_length_c 9.462350
_cell_angle_alpha 90.000000
_cell_angle_beta 90.000000
_cell_angle_gamma 90.000000
_cell_volume 2105.685761
_symmetry_space_group_name_H-M "P M M N"
_symmetry_group_IT_number 59
_space_group.IT_coordinate_system_code '2'
_symmetry_cell_setting 'orthorhombic'
loop_
_space_group_symop_operation_xyz
x,y,z
1/2-x,1/2-y,z
1/2+x,-y,-z
-x,1/2+y,-z
-x,-y,-z
1/2+x,1/2+y,-z
1/2-x,y,z
x,1/2-y,z
loop_
_atom_site_type_symbol
_atom_site_label
_atom_site_fract_x
_atom_site_fract_y
_atom_site_fract_z
Si Si1 0.558162 0.596782 0.340314
Si Si2 0.061775 0.097077 0.335587
Si Si3 0.061742 0.691229 0.837650
Si Si4 0.440172 0.308267 0.847381
Si Si5 0.438284 0.501285 0.840641
O O1 0.750000 0.596741 0.341518
O O2 0.506029 0.592781 0.502327
O O3 0.508389 0.649321 0.264924
O O4 0.506898 0.548419 0.247221
O O5 0.250000 0.093008 0.333926
O O6 0.012506 0.150979 0.268897
O O7 0.992992 0.051875 0.240326
O O8 0.250000 0.687714 0.831527
O O9 0.015259 0.750000 0.807491
O O10 0.006143 0.679642 0.997320
O O11 0.250000 0.309695 0.855408
O O12 0.486745 0.250000 0.811169
O O13 0.250000 0.500263 0.844627
O O14 0.500000 0.500000 0.000000
#
# Coordination Sequence:
#
# PCOD9452162 Si02
#       5
#     8   8   8   8   8
#     4   9  20  36  55  81 112 145 183 228 275 326
#     4  11  22  37  57  82 112 146 185 227 276 331
#     4  10  21  37  56  81 113 147 185 229 276 327
#     4   9  17  33  58  84 109 141 184 232 278 326
#     4  11  22  38  59  83 112 146 186 230 276 327
#
# _framework density 18.996188
#
# number of rings (size 3 to 8) (size 9 to 14) (size 15 to 20)
#    0.000    2.000    0.000    3.600    0.000    3.600 
#    0.000    8.000    0.000    2.400    0.000    0.000 
#    0.000    0.000    0.000    0.000    0.000    0.000 
#
# Total GULP energy -223466.926544 kJ/mol
# GULP energy per Si atom -5586.673164 kJ/mol
# Density = 1.895295 g / cm^3
# Si number density = 18.996188 Si / 1000 Ang^3
#
#
#
# Elastic Constant Matrix: (Units=GPa)
#
#
# Indices 1 2 3 4 5 6 
#
# 1 34.2120 28.9527 35.3564 0.0000 0.0000 0.0000
# 2 28.9527 130.0773 118.2532 0.0000 0.0000 0.0000
# 3 35.3564 118.2532 194.1212 0.0000 0.0000 0.0000
# 4 0.0000 0.0000 0.0000 -12.3018 0.0000 0.0000
# 5 0.0000 0.0000 0.0000 0.0000 20.6382 0.0000
# 6 0.0000 0.0000 0.0000 0.0000 0.0000 10.8377
#
#
#
# Elastic Compliance Matrix: (Units=1/GPa)
#
#
# Indices 1 2 3 4 5 6 
#
# 1 0.037279 -0.004762 -0.003889 0.000000 0.000000 0.000000
# 2 -0.004762 0.017838 -0.009999 0.000000 0.000000 0.000000
# 3 -0.003889 -0.009999 0.011951 0.000000 0.000000 0.000000
# 4 0.000000 0.000000 0.000000 -0.081289 0.000000 0.000000
# 5 0.000000 0.000000 0.000000 0.000000 0.048454 0.000000
# 6 0.000000 0.000000 0.000000 0.000000 0.000000 0.092271
#
#
# Mechanical properties :
#
#
# Convention : Reuss Voigt Hill
#
# Bulk Modulus (GPa) = 33.59392 80.39278 56.99335
# Shear Modulus (GPa) = 28.78126 15.55804 22.16965
#
# Velocity S-wave (km/s) = 3.89666 2.86494 3.41993
# Velocity P-wave (km/s) = 6.16184 7.30453 6.75738
#
# Compressibility (1/GPa) = 0.02976729
#
# Stress axis : x y z
#
# Youngs Moduli (GPa) = 26.82511 56.06121 83.67704
#
# Poissons Ratio (x) = 0.26697 0.32540
# Poissons Ratio (y) = 0.12775 0.83667
# Poissons Ratio (z) = 0.10432 0.56055
#
# Static dielectric constant tensor:
#      x y z
#    x 1.647150 0.000000 0.000000 
#    y 0.000000 1.650260 0.000000 
#    z 0.000000 0.000000 1.627370 
# 
# From -- ./inp_files/5649.got.cif
#   From: 2010.05.17/outbox.cif.g08.bks.cpg/sg59_3_cif.got.tgz:5649.got - 2010.06.03 14:40:33.
