data_PCOD9452991
_publ_section_title
;
Structure prediction by ZEFSAII (Michael W. Deem and Ramdas Pophale) SiO2 
 PCOD9452991
Probable space group: P M M N
;
_chemical_formula_sum "Si O2"
_cell_formula_units_Z 64
_cell_length_a 7.773861
_cell_length_b 30.717553
_cell_length_c 15.276414
_cell_angle_alpha 90.000000
_cell_angle_beta 90.000000
_cell_angle_gamma 90.000000
_cell_volume 3647.915810
_symmetry_space_group_name_H-M "P M M N"
_symmetry_group_IT_number 59
_space_group.IT_coordinate_system_code '2'
_symmetry_cell_setting 'orthorhombic'
loop_
_space_group_symop_operation_xyz
x,y,z
1/2-x,1/2-y,z
1/2+x,-y,-z
-x,1/2+y,-z
-x,-y,-z
1/2+x,1/2+y,-z
1/2-x,y,z
x,1/2-y,z
loop_
_atom_site_type_symbol
_atom_site_label
_atom_site_fract_x
_atom_site_fract_y
_atom_site_fract_z
Si Si1 0.957943 0.797987 0.801717
Si Si2 0.539134 0.884355 0.708119
Si Si3 0.953235 0.567161 0.543922
Si Si4 0.540459 0.974400 0.372040
Si Si5 0.050670 0.891714 0.055694
Si Si6 0.550004 0.970893 0.173085
Si Si7 0.955821 0.298501 0.994125
Si Si8 0.949832 0.563530 0.878114
O O1 0.750000 0.798573 0.801070
O O2 0.016274 0.750000 0.773884
O O3 0.017596 0.837322 0.741492
O O4 0.012556 0.804288 0.902191
O O5 0.750000 0.885130 0.705398
O O6 0.474977 0.898040 0.612565
O O7 0.488141 0.918537 0.784079
O O8 0.750000 0.575671 0.535144
O O9 0.020594 0.560073 0.445601
O O10 0.977553 0.521061 0.593354
O O11 0.750000 0.974714 0.373573
O O12 0.483363 0.967057 0.272603
O O13 0.250000 0.888744 0.080788
O O14 0.977439 0.842552 0.051427
O O15 0.966413 0.926005 0.121185
O O16 0.040172 0.913105 0.959061
O O17 0.750000 0.982837 0.178253
O O18 0.464084 0.011408 0.123224
O O19 0.750000 0.297769 0.980919
O O20 0.022746 0.250000 0.970148
O O21 0.750000 0.575837 0.886524
#
# Coordination Sequence:
#
# PCOD9452991 Si02
#       8
#     8   8   8   8   8   8   8   8
#     4   9  16  27  44  66  91 117 146 179 216 264
#     4   9  16  26  44  68  91 118 148 177 217 264
#     4   9  16  29  47  65  87 115 146 181 222 267
#     4   9  18  30  45  65  87 113 148 188 226 259
#     4  11  22  34  48  67  90 122 156 188 227 272
#     4  11  22  34  46  64  92 124 159 195 228 264
#     4   9  18  32  48  66  88 113 145 187 230 269
#     4  11  20  32  47  66  93 125 158 187 220 264
#
# _framework density 17.544263999999998
#
# number of rings (size 3 to 8) (size 9 to 14) (size 15 to 20)
#    0.000    2.250    2.500    1.500    0.000    1.000 
#    0.000    0.625    0.000    0.000    0.000    0.875 
#    0.000    3.000    0.000    0.000    0.000    0.000 
#
# Total GULP energy -356822.430095 kJ/mol
# GULP energy per Si atom -5575.350470 kJ/mol
# Density = 1.750433 g / cm^3
# Si number density = 17.544264 Si / 1000 Ang^3
#
#
#
# Elastic Constant Matrix: (Units=GPa)
#
#
# Indices 1 2 3 4 5 6 
#
# 1 25.1971 -7.1982 -5.3171 0.0000 0.0000 0.0000
# 2 -7.1982 115.4398 27.8168 0.0000 0.0000 0.0000
# 3 -5.3171 27.8168 49.7219 0.0000 0.0000 0.0000
# 4 0.0000 0.0000 0.0000 24.1617 0.0000 0.0000
# 5 0.0000 0.0000 0.0000 0.0000 7.6930 0.0000
# 6 0.0000 0.0000 0.0000 0.0000 0.0000 9.6148
#
#
#
# Elastic Compliance Matrix: (Units=1/GPa)
#
#
# Indices 1 2 3 4 5 6 
#
# 1 0.040900 0.001730 0.003406 0.000000 0.000000 0.000000
# 2 0.001730 0.010085 -0.005457 0.000000 0.000000 0.000000
# 3 0.003406 -0.005457 0.023529 0.000000 0.000000 0.000000
# 4 0.000000 0.000000 0.000000 0.041388 0.000000 0.000000
# 5 0.000000 0.000000 0.000000 0.000000 0.129989 0.000000
# 6 0.000000 0.000000 0.000000 0.000000 0.000000 0.104007
#
#
# Mechanical properties :
#
#
# Convention : Reuss Voigt Hill
#
# Bulk Modulus (GPa) = 13.53707 24.55130 19.04419
# Shear Modulus (GPa) = 13.32748 19.96438 16.64593
#
# Velocity S-wave (km/s) = 2.75916 3.37700 3.08360
# Velocity P-wave (km/s) = 4.22887 5.40646 4.85351
#
# Compressibility (1/GPa) = 0.07387124
#
# Stress axis : x y z
#
# Youngs Moduli (GPa) = 24.44994 99.15346 42.50041
#
# Poissons Ratio (x) = -0.17149 -0.14476
# Poissons Ratio (y) = -0.04229 0.23194
# Poissons Ratio (z) = -0.08328 0.54111
#
# Static dielectric constant tensor:
#      x y z
#    x 1.635650 0.000000 0.000000 
#    y 0.000000 1.619740 0.000000 
#    z 0.000000 0.000000 1.595250 
# 
# From -- ./inp_files/21942.got.cif
#   From: 2010.05.17/outbox.cif.g08.bks.cpg/sg59_11_cif.got.tgz:21942.got - 2010.06.03 14:40:33.
