data_PCOD9452059
_publ_section_title
;
Structure prediction by ZEFSAII (Michael W. Deem and Ramdas Pophale) SiO2 
 PCOD9452059
Probable space group: P M M N
;
_chemical_formula_sum "Si O2"
_cell_formula_units_Z 64
_cell_length_a 8.695385
_cell_length_b 29.536526
_cell_length_c 13.045615
_cell_angle_alpha 90.000000
_cell_angle_beta 90.000000
_cell_angle_gamma 90.000000
_cell_volume 3350.524414
_symmetry_space_group_name_H-M "P M M N"
_symmetry_group_IT_number 59
_space_group.IT_coordinate_system_code '2'
_symmetry_cell_setting 'orthorhombic'
loop_
_space_group_symop_operation_xyz
x,y,z
1/2-x,1/2-y,z
1/2+x,-y,-z
-x,1/2+y,-z
-x,-y,-z
1/2+x,1/2+y,-z
1/2-x,y,z
x,1/2-y,z
loop_
_atom_site_type_symbol
_atom_site_label
_atom_site_fract_x
_atom_site_fract_y
_atom_site_fract_z
Si Si1 0.066879 0.302595 0.453432
Si Si2 0.564491 0.056315 0.168019
Si Si3 0.065038 0.452622 0.542525
Si Si4 0.437117 0.454253 0.777053
Si Si5 0.433538 0.611738 0.630134
Si Si6 0.935368 0.698486 0.110364
Si Si7 0.424396 0.804790 0.329617
Si Si8 0.435911 0.105401 0.969163
O O1 0.250000 0.305946 0.445822
O O2 0.022664 0.250000 0.439140
O O3 0.987270 0.336570 0.375172
O O4 0.015100 0.317118 0.567842
O O5 0.750000 0.056227 0.162275
O O6 0.519013 0.086490 0.265878
O O7 0.514732 0.004656 0.188429
O O8 0.499287 0.077802 0.064931
O O9 0.250000 0.454547 0.541880
O O10 0.013238 0.445238 0.660259
O O11 0.000000 0.500000 0.500000
O O12 0.007842 0.414237 0.465622
O O13 0.250000 0.453745 0.775597
O O14 0.486141 0.418679 0.863305
O O15 0.250000 0.608856 0.621537
O O16 0.750000 0.699662 0.111767
O O17 0.989517 0.750000 0.088554
O O18 0.983893 0.658179 0.034790
O O19 0.991498 0.684457 0.223741
O O20 0.250000 0.822300 0.332282
O O21 0.417429 0.750000 0.330941
O O22 0.250000 0.103991 0.972636
#
# Coordination Sequence:
#
# PCOD9452059 Si02
#       8
#     8   8   8   8   8   8   8   8
#     4  10  21  37  57  83 115 153 197 242 290 346
#     4  10  21  40  59  78 112 151 187 238 297 347
#     4  11  21  37  60  87 121 157 193 234 291 356
#     4   9  19  37  58  82 116 149 181 233 293 344
#     4  11  23  39  59  85 119 157 196 240 294 352
#     4   9  18  33  52  77 112 150 187 232 287 342
#     4   9  17  30  50  77 110 146 183 228 281 337
#     4  10  21  36  58  84 109 145 195 241 287 344
#
# _framework density 19.101486000000001
#
# number of rings (size 3 to 8) (size 9 to 14) (size 15 to 20)
#    0.000    2.125    1.250    1.875    1.750    3.750 
#    0.000    1.875    0.000    2.250    0.000    0.000 
#    0.000    0.000    0.000    0.000    0.000    0.000 
#
# Total GULP energy -357261.248658 kJ/mol
# GULP energy per Si atom -5582.207010 kJ/mol
# Density = 1.905801 g / cm^3
# Si number density = 19.101486 Si / 1000 Ang^3
#
#
#
# Elastic Constant Matrix: (Units=GPa)
#
#
# Indices 1 2 3 4 5 6 
#
# 1 21.7089 21.8182 19.6850 0.0000 0.0000 0.0000
# 2 21.8182 96.5974 60.8091 0.0000 0.0000 0.0000
# 3 19.6850 60.8091 118.6400 0.0000 0.0000 0.0000
# 4 0.0000 0.0000 0.0000 14.7049 0.0000 0.0000
# 5 0.0000 0.0000 0.0000 0.0000 29.8147 0.0000
# 6 0.0000 0.0000 0.0000 0.0000 0.0000 24.9813
#
#
#
# Elastic Compliance Matrix: (Units=1/GPa)
#
#
# Indices 1 2 3 4 5 6 
#
# 1 0.061198 -0.010970 -0.004531 0.000000 0.000000 0.000000
# 2 -0.010970 0.017250 -0.007021 0.000000 0.000000 0.000000
# 3 -0.004531 -0.007021 0.012780 0.000000 0.000000 0.000000
# 4 0.000000 0.000000 0.000000 0.068004 0.000000 0.000000
# 5 0.000000 0.000000 0.000000 0.000000 0.033541 0.000000
# 6 0.000000 0.000000 0.000000 0.000000 0.000000 0.040030
#
#
# Mechanical properties :
#
#
# Convention : Reuss Voigt Hill
#
# Bulk Modulus (GPa) = 21.65339 49.06340 35.35840
# Shear Modulus (GPa) = 17.05074 22.87580 19.96327
#
# Velocity S-wave (km/s) = 2.99095 3.46438 3.23633
# Velocity P-wave (km/s) = 4.82579 6.46096 5.70229
#
# Compressibility (1/GPa) = 0.04618214
#
# Stress axis : x y z
#
# Youngs Moduli (GPa) = 16.34033 57.97086 78.25022
#
# Poissons Ratio (x) = 0.63595 0.35458
# Poissons Ratio (y) = 0.17926 0.54942
# Poissons Ratio (z) = 0.07404 0.40703
#
# Static dielectric constant tensor:
#      x y z
#    x 1.652320 0.000000 0.000000 
#    y 0.000000 1.695380 0.000000 
#    z 0.000000 0.000000 1.634840 
# 
# From -- ./inp_files/14960.got.cif
#   From: 2010.05.17/outbox.cif.g08.bks.cpg/sg59_8_cif.got.tgz:14960.got - 2010.06.03 14:40:33.
