data_PCOD9452449
_publ_section_title
;
Structure prediction by ZEFSAII (Michael W. Deem and Ramdas Pophale) SiO2 
 PCOD9452449
Probable space group: P M M N
;
_chemical_formula_sum "Si O2"
_cell_formula_units_Z 64
_cell_length_a 8.837479
_cell_length_b 14.254049
_cell_length_c 26.533469
_cell_angle_alpha 90.000000
_cell_angle_beta 90.000000
_cell_angle_gamma 90.000000
_cell_volume 3342.417341
_symmetry_space_group_name_H-M "P M M N"
_symmetry_group_IT_number 59
_space_group.IT_coordinate_system_code '2'
_symmetry_cell_setting 'orthorhombic'
loop_
_space_group_symop_operation_xyz
x,y,z
1/2-x,1/2-y,z
1/2+x,-y,-z
-x,1/2+y,-z
-x,-y,-z
1/2+x,1/2+y,-z
1/2-x,y,z
x,1/2-y,z
loop_
_atom_site_type_symbol
_atom_site_label
_atom_site_fract_x
_atom_site_fract_y
_atom_site_fract_z
Si Si1 0.430311 0.955784 0.871412
Si Si2 0.924258 0.635745 0.471513
Si Si3 0.925933 0.863040 0.967840
Si Si4 0.429231 0.965688 0.678721
Si Si5 0.568790 0.862128 0.583267
Si Si6 0.570702 0.140332 0.633759
Si Si7 0.568724 0.640848 0.773760
Si Si8 0.065749 0.356131 0.918470
O O1 0.250000 0.951924 0.864085
O O2 0.474970 0.905897 0.923667
O O3 0.511231 0.905207 0.825322
O O4 0.478271 0.064245 0.879064
O O5 0.750000 0.605175 0.463874
O O6 0.921309 0.750000 0.473825
O O7 0.978324 0.605784 0.527001
O O8 0.023545 0.611790 0.423188
O O9 0.750000 0.893197 0.962405
O O10 0.927351 0.750000 0.963951
O O11 0.980360 0.884574 0.024635
O O12 0.250000 0.962485 0.682642
O O13 0.484433 0.912569 0.628376
O O14 0.502430 0.915233 0.726564
O O15 0.485953 0.072046 0.671849
O O16 0.750000 0.877915 0.587315
O O17 0.544519 0.750000 0.587068
O O18 0.750000 0.129961 0.639345
O O19 0.530813 0.250000 0.640130
O O20 0.750000 0.637615 0.771963
O O21 0.521692 0.750000 0.771499
O O22 0.250000 0.354097 0.919950
O O23 0.014251 0.250000 0.907972
#
# Coordination Sequence:
#
# PCOD9452449 Si02
#       8
#     8   8   8   8   8   8   8   8
#     4  11  21  33  55  85 113 144 186 237 285 326
#     4   8  15  30  53  81 113 148 185 226 272 323
#     4   9  17  31  52  78 112 155 194 225 268 330
#     4  12  25  39  59  85 111 142 182 232 286 335
#     4   9  18  34  56  82 115 153 188 225 275 335
#     4  10  21  38  60  84 112 147 186 228 273 326
#     4  11  25  45  65  82 107 145 184 225 277 337
#     4   8  16  32  53  79 114 154 191 225 267 324
#
# _framework density 19.147819999999999
#
# number of rings (size 3 to 8) (size 9 to 14) (size 15 to 20)
#    0.000    2.250    0.000    4.875    0.000    6.250 
#    0.000    2.500    0.000    5.250    0.000    0.000 
#    0.000    0.000    0.000    0.000    0.000    0.000 
#
# Total GULP energy -357473.713980 kJ/mol
# GULP energy per Si atom -5585.526781 kJ/mol
# Density = 1.910424 g / cm^3
# Si number density = 19.147820 Si / 1000 Ang^3
#
#
#
# Elastic Constant Matrix: (Units=GPa)
#
#
# Indices 1 2 3 4 5 6 
#
# 1 56.4439 46.5460 42.8664 0.0000 0.0000 0.0000
# 2 46.5460 105.0846 77.7831 0.0000 0.0000 0.0000
# 3 42.8664 77.7831 100.7584 0.0000 0.0000 0.0000
# 4 0.0000 0.0000 0.0000 33.1921 0.0000 0.0000
# 5 0.0000 0.0000 0.0000 0.0000 17.7157 0.0000
# 6 0.0000 0.0000 0.0000 0.0000 0.0000 24.3392
#
#
#
# Elastic Compliance Matrix: (Units=1/GPa)
#
#
# Indices 1 2 3 4 5 6 
#
# 1 0.029250 -0.008738 -0.005699 0.000000 0.000000 0.000000
# 2 -0.008738 0.024814 -0.015438 0.000000 0.000000 0.000000
# 3 -0.005699 -0.015438 0.024267 0.000000 0.000000 0.000000
# 4 0.000000 0.000000 0.000000 0.030128 0.000000 0.000000
# 5 0.000000 0.000000 0.000000 0.000000 0.056447 0.000000
# 6 0.000000 0.000000 0.000000 0.000000 0.000000 0.041086
#
#
# Mechanical properties :
#
#
# Convention : Reuss Voigt Hill
#
# Bulk Modulus (GPa) = 53.81698 66.29754 60.05726
# Shear Modulus (GPa) = 18.38673 21.38884 19.88778
#
# Velocity S-wave (km/s) = 3.10215 3.34584 3.22630
# Velocity P-wave (km/s) = 6.40299 7.04453 6.73141
#
# Compressibility (1/GPa) = 0.01858150
#
# Stress axis : x y z
#
# Youngs Moduli (GPa) = 34.18779 40.30017 41.20801
#
# Poissons Ratio (x) = 0.35214 0.23483
# Poissons Ratio (y) = 0.29873 0.63618
# Poissons Ratio (z) = 0.19483 0.62216
#
# Static dielectric constant tensor:
#      x y z
#    x 1.634170 0.000000 0.000000 
#    y 0.000000 1.703310 0.000000 
#    z 0.000000 0.000000 1.639770 
# 
# From -- ./inp_files/31557.got.cif
#   From: 2010.05.17/outbox.cif.g08.bks.cpg/sg59_16_cif.got.tgz:31557.got - 2010.06.03 14:40:33.
