data_PCOD9452754
_publ_section_title
;
Structure prediction by ZEFSAII (Michael W. Deem and Ramdas Pophale) SiO2 
 PCOD9452754
Probable space group: P M M N
;
_chemical_formula_sum "Si O2"
_cell_formula_units_Z 48
_cell_length_a 9.027650
_cell_length_b 15.167939
_cell_length_c 19.365444
_cell_angle_alpha 90.000000
_cell_angle_beta 90.000000
_cell_angle_gamma 90.000000
_cell_volume 2651.726601
_symmetry_space_group_name_H-M "P M M N"
_symmetry_group_IT_number 59
_space_group.IT_coordinate_system_code '2'
_symmetry_cell_setting 'orthorhombic'
loop_
_space_group_symop_operation_xyz
x,y,z
1/2-x,1/2-y,z
1/2+x,-y,-z
-x,1/2+y,-z
-x,-y,-z
1/2+x,1/2+y,-z
1/2-x,y,z
x,1/2-y,z
loop_
_atom_site_type_symbol
_atom_site_label
_atom_site_fract_x
_atom_site_fract_y
_atom_site_fract_z
Si Si1 0.428778 0.146632 0.000123
Si Si2 0.921310 0.649742 0.640144
Si Si3 0.925064 0.149646 0.654753
Si Si4 0.073238 0.993508 0.736122
Si Si5 0.926889 0.096041 0.498812
Si Si6 0.428307 0.509387 0.896730
O O1 0.250000 0.146485 0.005994
O O2 0.475033 0.250000 0.995380
O O3 0.467702 0.083016 0.934995
O O4 0.497661 0.091864 0.063897
O O5 0.750000 0.622990 0.630648
O O6 0.926098 0.750000 0.665143
O O7 0.998969 0.585347 0.693757
O O8 0.002382 0.644136 0.566518
O O9 0.750000 0.129925 0.663432
O O10 0.952075 0.250000 0.675557
O O11 0.956911 0.139221 0.573129
O O12 0.019600 0.082132 0.698907
O O13 0.250000 0.986105 0.731745
O O14 0.030002 0.992787 0.816492
O O15 0.750000 0.090431 0.490075
O O16 0.000000 0.000000 0.500000
O O17 0.250000 0.518523 0.901799
#
# Coordination Sequence:
#
# PCOD9452754 Si02
#       6
#     8   8   8   8   8   8
#     4   9  18  35  60  86 112 145 183 222 269 326
#     4  11  24  40  58  81 111 150 195 241 288 339
#     4  10  22  39  58  81 112 149 187 232 285 338
#     4  11  23  38  58  83 114 152 189 231 283 336
#     4  11  21  36  60  85 111 146 189 237 290 340
#     4   9  20  37  56  83 116 147 182 226 274 326
#
# _framework density 18.101413999999998
#
# number of rings (size 3 to 8) (size 9 to 14) (size 15 to 20)
#    0.000    1.833    1.667    2.000    0.000    6.000 
#    0.000    5.000    0.000    0.000    0.000    0.000 
#    0.000    0.000    0.000    0.000    0.000    0.000 
#
# Total GULP energy -267975.041764 kJ/mol
# GULP energy per Si atom -5582.813370 kJ/mol
# Density = 1.806021 g / cm^3
# Si number density = 18.101414 Si / 1000 Ang^3
#
#
#
# Elastic Constant Matrix: (Units=GPa)
#
#
# Indices 1 2 3 4 5 6 
#
# 1 56.9037 47.5143 59.0042 0.0000 0.0000 0.0000
# 2 47.5143 124.3852 58.2154 0.0000 0.0000 0.0000
# 3 59.0042 58.2154 138.6781 0.0000 0.0000 0.0000
# 4 0.0000 0.0000 0.0000 -642.2379 0.0000 0.0000
# 5 0.0000 0.0000 0.0000 0.0000 23.3349 0.0000
# 6 0.0000 0.0000 0.0000 0.0000 0.0000 19.6677
#
#
#
# Elastic Compliance Matrix: (Units=1/GPa)
#
#
# Indices 1 2 3 4 5 6 
#
# 1 0.037562 -0.008548 -0.012393 0.000000 0.000000 0.000000
# 2 -0.008548 0.011951 -0.001380 0.000000 0.000000 0.000000
# 3 -0.012393 -0.001380 0.013063 0.000000 0.000000 0.000000
# 4 0.000000 0.000000 0.000000 -0.001557 0.000000 0.000000
# 5 0.000000 0.000000 0.000000 0.000000 0.042854 0.000000
# 6 0.000000 0.000000 0.000000 0.000000 0.000000 0.050845
#
#
# Mechanical properties :
#
#
# Convention : Reuss Voigt Hill
#
# Bulk Modulus (GPa) = 55.76148 72.15942 63.96045
# Shear Modulus (GPa) = 24.35013 -109.49818 -42.57403
#
# Velocity S-wave (km/s) = 3.67168 -7.78607 -4.85498
# Velocity P-wave (km/s) = 6.98906 6.39374 1.99587
#
# Compressibility (1/GPa) = 0.01793353
#
# Stress axis : x y z
#
# Youngs Moduli (GPa) = 26.62272 83.67793 76.55094
#
# Poissons Ratio (x) = 0.71528 0.94872
# Poissons Ratio (y) = 0.22757 0.10562
# Poissons Ratio (z) = 0.32994 0.11545
#
# Static dielectric constant tensor:
#      x y z
#    x 1.611400 0.000000 0.000000 
#    y 0.000000 1.623040 0.000000 
#    z 0.000000 0.000000 1.605890 
# 
# From -- ./inp_files/25441.got.cif
#   From: 2010.05.17/outbox.cif.g08.bks.cpg/sg59_13_cif.got.tgz:25441.got - 2010.06.03 14:40:33.
