data_PCOD9452427
_publ_section_title
;
Structure prediction by ZEFSAII (Michael W. Deem and Ramdas Pophale) SiO2 
 PCOD9452427
Probable space group: P M M N
;
_chemical_formula_sum "Si O2"
_cell_formula_units_Z 32
_cell_length_a 10.076579
_cell_length_b 7.851080
_cell_length_c 18.927839
_cell_angle_alpha 90.000000
_cell_angle_beta 90.000000
_cell_angle_gamma 90.000000
_cell_volume 1497.419726
_symmetry_space_group_name_H-M "P M M N"
_symmetry_group_IT_number 59
_space_group.IT_coordinate_system_code '2'
_symmetry_cell_setting 'orthorhombic'
loop_
_space_group_symop_operation_xyz
x,y,z
1/2-x,1/2-y,z
1/2+x,-y,-z
-x,1/2+y,-z
-x,-y,-z
1/2+x,1/2+y,-z
1/2-x,y,z
x,1/2-y,z
loop_
_atom_site_type_symbol
_atom_site_label
_atom_site_fract_x
_atom_site_fract_y
_atom_site_fract_z
Si Si1 0.098253 0.955502 0.064110
Si Si2 0.395231 0.048784 0.821605
Si Si3 0.250000 0.045908 0.555738
Si Si4 0.527781 0.048063 0.333899
Si Si5 0.750000 0.541150 0.606559
O O1 0.250000 0.020040 0.057147
O O2 0.107653 0.750000 0.067306
O O3 0.019692 0.019135 0.133824
O O4 0.000000 0.000000 0.000000
O O5 0.250000 0.975248 0.840916
O O6 0.389576 0.250000 0.836977
O O7 0.417106 0.028683 0.738250
O O8 0.250000 0.250000 0.554734
O O9 0.250000 0.985033 0.475048
O O10 0.376812 0.986500 0.600076
O O11 0.522171 0.250000 0.322667
O O12 0.381993 0.984174 0.353718
O O13 0.750000 0.750000 0.605779
#
# Coordination Sequence:
#
# PCOD9452427 Si02
#       5
#     8   8   4   8   4
#     4  10  22  40  63  92 124 158 198 240 285 344
#     4  10  21  38  59  84 119 158 197 241 293 349
#     4  11  21  39  61  83 114 155 198 243 299 358
#     4  11  22  38  59  86 118 153 197 247 297 350
#     4   9  22  39  57  83 118 153 194 249 301 352
#
# _framework density 21.370094999999999
#
# number of rings (size 3 to 8) (size 9 to 14) (size 15 to 20)
#    0.000    1.750    1.250    2.625    1.750    2.500 
#    0.000    5.625    0.000    0.000    0.000    0.000 
#    0.000    0.000    0.000    0.000    0.000    0.000 
#
# Total GULP energy -178787.702547 kJ/mol
# GULP energy per Si atom -5587.115705 kJ/mol
# Density = 2.132146 g / cm^3
# Si number density = 21.370095 Si / 1000 Ang^3
#
#
#
# Elastic Constant Matrix: (Units=GPa)
#
#
# Indices 1 2 3 4 5 6 
#
# 1 216.1907 10.4921 53.9515 0.0000 0.0000 0.0000
# 2 10.4921 23.7332 -3.8623 0.0000 0.0000 0.0000
# 3 53.9515 -3.8623 80.9385 0.0000 0.0000 0.0000
# 4 0.0000 0.0000 0.0000 23.9567 0.0000 0.0000
# 5 0.0000 0.0000 0.0000 0.0000 41.7105 0.0000
# 6 0.0000 0.0000 0.0000 0.0000 0.0000 26.6632
#
#
#
# Elastic Compliance Matrix: (Units=1/GPa)
#
#
# Indices 1 2 3 4 5 6 
#
# 1 0.005781 -0.003208 -0.004007 0.000000 0.000000 0.000000
# 2 -0.003208 0.044245 0.004250 0.000000 0.000000 0.000000
# 3 -0.004007 0.004250 0.015229 0.000000 0.000000 0.000000
# 4 0.000000 0.000000 0.000000 0.041742 0.000000 0.000000
# 5 0.000000 0.000000 0.000000 0.000000 0.023975 0.000000
# 6 0.000000 0.000000 0.000000 0.000000 0.000000 0.037505
#
#
# Mechanical properties :
#
#
# Convention : Reuss Voigt Hill
#
# Bulk Modulus (GPa) = 16.85638 49.11389 32.98514
# Shear Modulus (GPa) = 25.74924 35.81817 30.78371
#
# Velocity S-wave (km/s) = 3.47496 4.09845 3.79951
# Velocity P-wave (km/s) = 4.89953 6.74009 5.89212
#
# Compressibility (1/GPa) = 0.05932472
#
# Stress axis : x y z
#
# Youngs Moduli (GPa) = 172.97769 22.60155 65.66619
#
# Poissons Ratio (x) = 0.07250 0.26310
# Poissons Ratio (y) = 0.55487 -0.27905
# Poissons Ratio (z) = 0.69305 -0.09605
#
# Static dielectric constant tensor:
#      x y z
#    x 1.793460 0.000000 0.000000 
#    y 0.000000 1.783500 0.000000 
#    z 0.000000 0.000000 1.735800 
# 
# From -- ./inp_files/28582.got.cif
#   From: 2010.05.17/outbox.cif.g08.bks.cpg/sg59_15_cif.got.tgz:28582.got - 2010.06.03 14:40:33.
