data_PCOD9452722
_publ_section_title
;
Structure prediction by ZEFSAII (Michael W. Deem and Ramdas Pophale) SiO2 
 PCOD9452722
Probable space group: P M M N
;
_chemical_formula_sum "Si O2"
_cell_formula_units_Z 56
_cell_length_a 14.391702
_cell_length_b 14.823219
_cell_length_c 12.992864
_cell_angle_alpha 90.000000
_cell_angle_beta 90.000000
_cell_angle_gamma 90.000000
_cell_volume 2771.785224
_symmetry_space_group_name_H-M "P M M N"
_symmetry_group_IT_number 59
_space_group.IT_coordinate_system_code '2'
_symmetry_cell_setting 'orthorhombic'
loop_
_space_group_symop_operation_xyz
x,y,z
1/2-x,1/2-y,z
1/2+x,-y,-z
-x,1/2+y,-z
-x,-y,-z
1/2+x,1/2+y,-z
1/2-x,y,z
x,1/2-y,z
loop_
_atom_site_type_symbol
_atom_site_label
_atom_site_fract_x
_atom_site_fract_y
_atom_site_fract_z
Si Si1 0.638155 0.145040 0.734900
Si Si2 0.143552 0.143602 0.829547
Si Si3 0.861258 0.011243 0.328115
Si Si4 0.958179 0.142429 0.169642
Si Si5 0.039422 0.640847 0.057911
Si Si6 0.637130 0.493550 0.561539
Si Si7 0.644364 0.643901 0.722089
O O1 0.750000 0.140925 0.740202
O O2 0.611273 0.250000 0.722837
O O3 0.597072 0.109866 0.842764
O O4 0.606436 0.086051 0.638088
O O5 0.250000 0.125707 0.860734
O O6 0.135383 0.250000 0.805917
O O7 0.067962 0.122230 0.916220
O O8 0.121888 0.083205 0.730106
O O9 0.750000 0.024111 0.330571
O O10 0.905169 0.088342 0.257503
O O11 0.897301 0.011445 0.444928
O O12 0.939946 0.250000 0.176982
O O13 0.067827 0.128730 0.190562
O O14 0.933360 0.108806 0.055295
O O15 0.050122 0.750000 0.054387
O O16 0.750000 0.487651 0.555247
O O17 0.617679 0.585760 0.622360
O O18 0.750000 0.618797 0.752017
O O19 0.643238 0.750000 0.697833
#
# Coordination Sequence:
#
# PCOD9452722 Si02
#       7
#     8   8   8   8   8   8   8
#     4   9  18  34  56  82 110 142 183 226 272 330
#     4   9  19  37  58  81 111 147 188 232 278 328
#     4  10  22  38  57  84 116 149 186 228 279 338
#     4  10  22  38  57  84 116 149 186 228 279 338
#     4   9  19  36  57  81 110 145 185 229 275 325
#     4   9  19  36  57  81 110 145 185 229 275 325
#     4   9  19  37  58  81 111 147 188 232 278 328
#
# _framework density 20.203586000000001
#
# number of rings (size 3 to 8) (size 9 to 14) (size 15 to 20)
#    0.000    2.714    0.000    0.000    2.000    3.714 
#    0.000    8.571    0.000    0.000    0.000    0.000 
#    0.000    0.000    0.000    0.000    0.000    0.000 
#
# Total GULP energy -312566.096662 kJ/mol
# GULP energy per Si atom -5581.537440 kJ/mol
# Density = 2.015760 g / cm^3
# Si number density = 20.203586 Si / 1000 Ang^3
#
#
#
# Elastic Constant Matrix: (Units=GPa)
#
#
# Indices 1 2 3 4 5 6 
#
# 1 19.6415 0.8572 -6.9579 0.0000 0.0000 0.0000
# 2 0.8572 48.6279 15.3337 0.0000 0.0000 0.0000
# 3 -6.9579 15.3337 94.8829 0.0000 0.0000 0.0000
# 4 0.0000 0.0000 0.0000 27.1293 0.0000 0.0000
# 5 0.0000 0.0000 0.0000 0.0000 25.4676 0.0000
# 6 0.0000 0.0000 0.0000 0.0000 0.0000 17.8084
#
#
#
# Elastic Compliance Matrix: (Units=1/GPa)
#
#
# Indices 1 2 3 4 5 6 
#
# 1 0.052504 -0.002255 0.004215 0.000000 0.000000 0.000000
# 2 -0.002255 0.021765 -0.003683 0.000000 0.000000 0.000000
# 3 0.004215 -0.003683 0.011444 0.000000 0.000000 0.000000
# 4 0.000000 0.000000 0.000000 0.036861 0.000000 0.000000
# 5 0.000000 0.000000 0.000000 0.000000 0.039266 0.000000
# 6 0.000000 0.000000 0.000000 0.000000 0.000000 0.056153
#
#
# Mechanical properties :
#
#
# Convention : Reuss Voigt Hill
#
# Bulk Modulus (GPa) = 12.15551 20.17984 16.16767
# Shear Modulus (GPa) = 20.09161 24.34234 22.21698
#
# Velocity S-wave (km/s) = 3.15692 3.47486 3.31970
# Velocity P-wave (km/s) = 4.39520 5.10975 4.76588
#
# Compressibility (1/GPa) = 0.08226724
#
# Stress axis : x y z
#
# Youngs Moduli (GPa) = 19.04619 45.94462 87.38568
#
# Poissons Ratio (x) = 0.10358 -0.36829
# Poissons Ratio (y) = 0.04294 0.32182
# Poissons Ratio (z) = -0.08027 0.16920
#
# Static dielectric constant tensor:
#      x y z
#    x 1.747780 0.000000 0.000000 
#    y 0.000000 1.718810 0.000000 
#    z 0.000000 0.000000 1.684740 
# 
# From -- ./inp_files/16945.got.cif
#   From: 2010.05.17/outbox.cif.g08.bks.cpg/sg59_9_cif.got.tgz:16945.got - 2010.06.03 14:40:33.
