data_PCOD9452228
_publ_section_title
;
Structure prediction by ZEFSAII (Michael W. Deem and Ramdas Pophale) SiO2 
 PCOD9452228
Probable space group: P M M N
;
_chemical_formula_sum "Si O2"
_cell_formula_units_Z 64
_cell_length_a 8.599372
_cell_length_b 26.092752
_cell_length_c 14.798591
_cell_angle_alpha 90.000000
_cell_angle_beta 90.000000
_cell_angle_gamma 90.000000
_cell_volume 3320.526805
_symmetry_space_group_name_H-M "P M M N"
_symmetry_group_IT_number 59
_space_group.IT_coordinate_system_code '2'
_symmetry_cell_setting 'orthorhombic'
loop_
_space_group_symop_operation_xyz
x,y,z
1/2-x,1/2-y,z
1/2+x,-y,-z
-x,1/2+y,-z
-x,-y,-z
1/2+x,1/2+y,-z
1/2-x,y,z
x,1/2-y,z
loop_
_atom_site_type_symbol
_atom_site_label
_atom_site_fract_x
_atom_site_fract_y
_atom_site_fract_z
Si Si1 0.939509 0.599039 0.090805
Si Si2 0.062045 0.496734 0.788112
Si Si3 0.063588 0.808493 0.766398
Si Si4 0.436323 0.523771 0.592037
Si Si5 0.937906 0.808936 0.217395
Si Si6 0.434278 0.138246 0.408785
Si Si7 0.933836 0.311059 0.585458
Si Si8 0.563270 0.901392 0.882851
O O1 0.750000 0.598327 0.090243
O O2 0.991646 0.550666 0.150581
O O3 0.987098 0.651352 0.140470
O O4 0.990002 0.595931 0.987081
O O5 0.250000 0.497752 0.790886
O O6 0.016102 0.493293 0.682830
O O7 0.000970 0.549841 0.828794
O O8 0.250000 0.811413 0.769790
O O9 0.015655 0.750000 0.785253
O O10 0.008547 0.825169 0.666780
O O11 0.993556 0.849469 0.835646
O O12 0.500000 0.500000 0.500000
O O13 0.250000 0.524359 0.588000
O O14 0.497237 0.581517 0.602543
O O15 0.750000 0.810548 0.224224
O O16 0.983237 0.750000 0.198490
O O17 0.007233 0.824148 0.314354
O O18 0.250000 0.136800 0.396170
O O19 0.476873 0.158792 0.507785
O O20 0.750000 0.320881 0.577558
O O21 0.959967 0.250000 0.573541
O O22 0.750000 0.902791 0.880484
#
# Coordination Sequence:
#
# PCOD9452228 Si02
#       8
#     8   8   8   8   8   8   8   8
#     4   9  20  37  60  90 119 155 204 254 302 358
#     4  10  21  40  63  85 120 164 201 244 303 363
#     4  11  24  42  63  88 122 163 205 252 310 373
#     4  11  24  40  61  90 126 164 200 245 302 359
#     4   9  18  35  59  86 118 156 198 247 303 359
#     4  12  24  39  62  89 120 156 201 251 300 363
#     4  10  21  37  57  84 119 155 193 240 294 355
#     4  11  22  38  62  91 122 155 200 256 307 360
#
# _framework density 19.274051
#
# number of rings (size 3 to 8) (size 9 to 14) (size 15 to 20)
#    0.000    1.625    1.250    3.375    1.750    4.250 
#    0.000    3.750    0.000    1.500    0.000    0.000 
#    0.000    0.000    0.000    0.000    0.000    0.000 
#
# Total GULP energy -357717.974235 kJ/mol
# GULP energy per Si atom -5589.343347 kJ/mol
# Density = 1.923018 g / cm^3
# Si number density = 19.274051 Si / 1000 Ang^3
#
#
#
# Elastic Constant Matrix: (Units=GPa)
#
#
# Indices 1 2 3 4 5 6 
#
# 1 25.7121 14.7825 21.4113 0.0000 0.0000 0.0000
# 2 14.7825 104.2437 68.8940 0.0000 0.0000 0.0000
# 3 21.4113 68.8940 152.5840 0.0000 0.0000 0.0000
# 4 0.0000 0.0000 0.0000 56.6897 0.0000 0.0000
# 5 0.0000 0.0000 0.0000 0.0000 22.8433 0.0000
# 6 0.0000 0.0000 0.0000 0.0000 0.0000 1.1559
#
#
#
# Elastic Compliance Matrix: (Units=1/GPa)
#
#
# Indices 1 2 3 4 5 6 
#
# 1 0.044743 -0.003129 -0.004866 0.000000 0.000000 0.000000
# 2 -0.003129 0.013892 -0.005833 0.000000 0.000000 0.000000
# 3 -0.004866 -0.005833 0.009870 0.000000 0.000000 0.000000
# 4 0.000000 0.000000 0.000000 0.017640 0.000000 0.000000
# 5 0.000000 0.000000 0.000000 0.000000 0.043776 0.000000
# 6 0.000000 0.000000 0.000000 0.000000 0.000000 0.865130
#
#
# Mechanical properties :
#
#
# Convention : Reuss Voigt Hill
#
# Bulk Modulus (GPa) = 24.48045 54.74616 39.61330
# Shear Modulus (GPa) = 4.82475 27.96791 16.39633
#
# Velocity S-wave (km/s) = 1.58388 3.81342 2.91983
# Velocity P-wave (km/s) = 4.00920 6.91775 5.65372
#
# Compressibility (1/GPa) = 0.04084893
#
# Stress axis : x y z
#
# Youngs Moduli (GPa) = 22.34985 71.98482 101.31349
#
# Poissons Ratio (x) = 0.22525 0.49296
# Poissons Ratio (y) = 0.06994 0.59099
# Poissons Ratio (z) = 0.10875 0.41991
#
# Static dielectric constant tensor:
#      x y z
#    x 1.650540 0.000000 0.000000 
#    y 0.000000 1.650490 0.000000 
#    z 0.000000 0.000000 1.651860 
# 
# From -- ./inp_files/21611.got.cif
#   From: 2010.05.17/outbox.cif.g08.bks.cpg/sg59_11_cif.got.tgz:21611.got - 2010.06.03 14:40:33.
