data_PCOD9452319
_publ_section_title
;
Structure prediction by ZEFSAII (Michael W. Deem and Ramdas Pophale) SiO2 
 PCOD9452319
Probable space group: P M M N
;
_chemical_formula_sum "Si O2"
_cell_formula_units_Z 64
_cell_length_a 29.474971
_cell_length_b 8.738261
_cell_length_c 12.835554
_cell_angle_alpha 90.000000
_cell_angle_beta 90.000000
_cell_angle_gamma 90.000000
_cell_volume 3305.925154
_symmetry_space_group_name_H-M "P M M N"
_symmetry_group_IT_number 59
_space_group.IT_coordinate_system_code '2'
_symmetry_cell_setting 'orthorhombic'
loop_
_space_group_symop_operation_xyz
x,y,z
1/2-x,1/2-y,z
1/2+x,-y,-z
-x,1/2+y,-z
-x,-y,-z
1/2+x,1/2+y,-z
1/2-x,y,z
x,1/2-y,z
loop_
_atom_site_type_symbol
_atom_site_label
_atom_site_fract_x
_atom_site_fract_y
_atom_site_fract_z
Si Si1 0.450780 0.570301 0.484232
Si Si2 0.977608 0.068400 0.104241
Si Si3 0.844259 0.433580 0.788769
Si Si4 0.621205 0.564425 0.155848
Si Si5 0.367483 0.065921 0.607390
Si Si6 0.697296 0.564800 0.577299
Si Si7 0.801258 0.934637 0.993045
Si Si8 0.055089 0.569443 0.238670
O O1 0.500000 0.500000 0.500000
O O2 0.451084 0.750000 0.508536
O O3 0.414252 0.487666 0.555909
O O4 0.439097 0.552278 0.362441
O O5 0.974227 0.250000 0.094972
O O6 0.927910 0.999888 0.124948
O O7 0.012371 0.022547 0.196069
O O8 0.000000 0.000000 0.000000
O O9 0.842985 0.250000 0.784825
O O10 0.827663 0.498035 0.678284
O O11 0.896736 0.478936 0.809929
O O12 0.813265 0.496122 0.881075
O O13 0.618521 0.750000 0.154582
O O14 0.634225 0.514500 0.273023
O O15 0.660382 0.517101 0.075296
O O16 0.366322 0.250000 0.608890
O O17 0.327823 0.014616 0.528749
O O18 0.750000 0.520168 0.577820
O O19 0.694955 0.750000 0.582779
O O20 0.750000 0.977056 0.024271
O O21 0.802998 0.750000 0.985353
O O22 0.047492 0.750000 0.216584
#
# Coordination Sequence:
#
# PCOD9452319 Si02
#       8
#     8   8   8   8   8   8   8   8
#     4  11  22  37  57  84 118 156 198 243 294 350
#     4  12  25  40  61  89 120 158 202 249 302 362
#     4  11  22  38  60  88 120 156 199 251 307 361
#     4  10  22  41  63  88 121 160 201 249 301 358
#     4  10  21  38  60  87 120 157 200 247 297 356
#     4  10  21  37  59  88 122 160 202 249 302 361
#     4  10  22  40  62  88 117 153 198 249 306 365
#     4  10  22  39  58  83 119 158 199 247 297 355
#
# _framework density 19.359179999999999
#
# number of rings (size 3 to 8) (size 9 to 14) (size 15 to 20)
#    0.000    1.500    1.250    3.750    0.000   10.500 
#    0.000    2.500    0.000    0.000    0.000    3.500 
#    0.000    0.000    0.000    0.000    0.000    0.000 
#
# Total GULP energy -357736.402861 kJ/mol
# GULP energy per Si atom -5589.631295 kJ/mol
# Density = 1.931512 g / cm^3
# Si number density = 19.359180 Si / 1000 Ang^3
#
#
#
# Elastic Constant Matrix: (Units=GPa)
#
#
# Indices 1 2 3 4 5 6 
#
# 1 163.5860 32.8090 65.7588 0.0000 0.0000 0.0000
# 2 32.8090 22.4034 32.7733 0.0000 0.0000 0.0000
# 3 65.7588 32.7733 117.3088 0.0000 0.0000 0.0000
# 4 0.0000 0.0000 0.0000 20.5539 0.0000 0.0000
# 5 0.0000 0.0000 0.0000 0.0000 34.8722 0.0000
# 6 0.0000 0.0000 0.0000 0.0000 0.0000 26.7495
#
#
#
# Elastic Compliance Matrix: (Units=1/GPa)
#
#
# Indices 1 2 3 4 5 6 
#
# 1 0.009010 -0.009819 -0.002307 0.000000 0.000000 0.000000
# 2 -0.009819 0.086189 -0.018575 0.000000 0.000000 0.000000
# 3 -0.002307 -0.018575 0.015007 0.000000 0.000000 0.000000
# 4 0.000000 0.000000 0.000000 0.048653 0.000000 0.000000
# 5 0.000000 0.000000 0.000000 0.000000 0.028676 0.000000
# 6 0.000000 0.000000 0.000000 0.000000 0.000000 0.037384
#
#
# Mechanical properties :
#
#
# Convention : Reuss Voigt Hill
#
# Bulk Modulus (GPa) = 20.49058 62.88672 41.68865
# Shear Modulus (GPa) = 16.52409 27.89893 22.21151
#
# Velocity S-wave (km/s) = 2.92473 3.80033 3.39091
# Velocity P-wave (km/s) = 4.69178 7.19801 6.07553
#
# Compressibility (1/GPa) = 0.04880291
#
# Stress axis : x y z
#
# Youngs Moduli (GPa) = 110.98945 11.60247 66.63452
#
# Poissons Ratio (x) = 0.11393 0.15374
# Poissons Ratio (y) = 1.08984 1.23772
# Poissons Ratio (z) = 0.25608 0.21551
#
# Static dielectric constant tensor:
#      x y z
#    x 1.659050 0.000000 0.000000 
#    y 0.000000 1.655740 0.000000 
#    z 0.000000 0.000000 1.679950 
# 
# From -- ./inp_files/19395.got.cif
#   From: 2010.05.17/outbox.cif.g08.bks.cpg/sg59_10_cif.got.tgz:19395.got - 2010.06.03 14:40:33.
