data_PCOD9452835
_publ_section_title
;
Structure prediction by ZEFSAII (Michael W. Deem and Ramdas Pophale) SiO2 
 PCOD9452835
Probable space group: P M M N
;
_chemical_formula_sum "Si O2"
_cell_formula_units_Z 48
_cell_length_a 13.090699
_cell_length_b 27.791777
_cell_length_c 6.843555
_cell_angle_alpha 90.000000
_cell_angle_beta 90.000000
_cell_angle_gamma 90.000000
_cell_volume 2489.779664
_symmetry_space_group_name_H-M "P M M N"
_symmetry_group_IT_number 59
_space_group.IT_coordinate_system_code '2'
_symmetry_cell_setting 'orthorhombic'
loop_
_space_group_symop_operation_xyz
x,y,z
1/2-x,1/2-y,z
1/2+x,-y,-z
-x,1/2+y,-z
-x,-y,-z
1/2+x,1/2+y,-z
1/2-x,y,z
x,1/2-y,z
loop_
_atom_site_type_symbol
_atom_site_label
_atom_site_fract_x
_atom_site_fract_y
_atom_site_fract_z
Si Si1 0.509182 0.805434 0.154607
Si Si2 0.515058 0.562095 0.642324
Si Si3 0.367825 0.390383 0.008641
Si Si4 0.632700 0.521015 0.292699
Si Si5 0.632731 0.369255 0.566516
Si Si6 0.859676 0.301867 0.201639
O O1 0.533066 0.750000 0.213835
O O2 0.601096 0.842080 0.108667
O O3 0.430765 0.832929 0.297497
O O4 0.449331 0.803045 0.950534
O O5 0.604981 0.539612 0.510557
O O6 0.448382 0.521082 0.747962
O O7 0.437568 0.585076 0.482256
O O8 0.561435 0.598224 0.803107
O O9 0.250000 0.387250 0.071035
O O10 0.378151 0.435212 0.859534
O O11 0.750000 0.503812 0.284478
O O12 0.750000 0.378739 0.632121
O O13 0.638570 0.343267 0.357704
O O14 0.750000 0.304138 0.095171
O O15 0.863367 0.250000 0.306198
#
# Coordination Sequence:
#
# PCOD9452835 Si02
#       6
#     8   8   8   8   8   8
#     4  11  22  38  59  85 119 160 205 249 294 349
#     4  11  21  39  64  90 122 155 199 243 300 361
#     4  11  23  41  63  87 119 161 204 248 298 351
#     4  10  22  40  63  90 121 157 196 244 301 362
#     4  11  21  35  58  89 121 153 193 243 299 361
#     4   9  18  33  54  80 113 152 190 235 293 350
#
# _framework density 19.278814000000001
#
# number of rings (size 3 to 8) (size 9 to 14) (size 15 to 20)
#    0.000    1.500    3.333    2.500    0.000    2.000 
#    0.000    0.000    0.000    0.000    0.000    0.000 
#    0.000    0.000    0.000    0.000    0.000    0.000 
#
# Total GULP energy -267523.907920 kJ/mol
# GULP energy per Si atom -5573.414748 kJ/mol
# Density = 1.923493 g / cm^3
# Si number density = 19.278814 Si / 1000 Ang^3
#
#
#
# Elastic Constant Matrix: (Units=GPa)
#
#
# Indices 1 2 3 4 5 6 
#
# 1 102.3739 43.0158 27.5352 0.0000 0.0000 0.0000
# 2 43.0158 79.3949 11.5630 0.0000 0.0000 0.0000
# 3 27.5352 11.5630 37.7476 0.0000 0.0000 0.0000
# 4 0.0000 0.0000 0.0000 30.6785 0.0000 0.0000
# 5 0.0000 0.0000 0.0000 0.0000 26.4465 0.0000
# 6 0.0000 0.0000 0.0000 0.0000 0.0000 25.2325
#
#
#
# Elastic Compliance Matrix: (Units=1/GPa)
#
#
# Indices 1 2 3 4 5 6 
#
# 1 0.015032 -0.006853 -0.008866 0.000000 0.000000 0.000000
# 2 -0.006853 0.016308 0.000004 0.000000 0.000000 0.000000
# 3 -0.008866 0.000004 0.032958 0.000000 0.000000 0.000000
# 4 0.000000 0.000000 0.000000 0.032596 0.000000 0.000000
# 5 0.000000 0.000000 0.000000 0.000000 0.037812 0.000000
# 6 0.000000 0.000000 0.000000 0.000000 0.000000 0.039631
#
#
# Mechanical properties :
#
#
# Convention : Reuss Voigt Hill
#
# Bulk Modulus (GPa) = 30.42583 42.63828 36.53205
# Shear Modulus (GPa) = 23.07070 25.63168 24.35119
#
# Velocity S-wave (km/s) = 3.46307 3.65022 3.55788
# Velocity P-wave (km/s) = 5.63974 6.31903 5.98903
#
# Compressibility (1/GPa) = 0.03286682
#
# Stress axis : x y z
#
# Youngs Moduli (GPa) = 66.52280 61.32040 30.34150
#
# Poissons Ratio (x) = 0.42024 0.26901
# Poissons Ratio (y) = 0.45590 -0.00011
# Poissons Ratio (z) = 0.58980 -0.00022
#
# Static dielectric constant tensor:
#      x y z
#    x 1.713280 0.000000 0.000000 
#    y 0.000000 1.761910 0.000000 
#    z 0.000000 0.000000 1.650880 
# 
# From -- ./inp_files/2143.got.cif
#   From: 2010.05.17/outbox.cif.g08.bks.cpg/sg59_2_cif.got.tgz:2143.got - 2010.06.03 14:40:33.
