data_PCOD9452308
_publ_section_title
;
Structure prediction by ZEFSAII (Michael W. Deem and Ramdas Pophale) SiO2 
 PCOD9452308
Probable space group: P M M N
;
_chemical_formula_sum "Si O2"
_cell_formula_units_Z 48
_cell_length_a 14.058793
_cell_length_b 16.939609
_cell_length_c 8.710146
_cell_angle_alpha 90.000000
_cell_angle_beta 90.000000
_cell_angle_gamma 90.000000
_cell_volume 2074.325245
_symmetry_space_group_name_H-M "P M M N"
_symmetry_group_IT_number 59
_space_group.IT_coordinate_system_code '2'
_symmetry_cell_setting 'orthorhombic'
loop_
_space_group_symop_operation_xyz
x,y,z
1/2-x,1/2-y,z
1/2+x,-y,-z
-x,1/2+y,-z
-x,-y,-z
1/2+x,1/2+y,-z
1/2-x,y,z
x,1/2-y,z
loop_
_atom_site_type_symbol
_atom_site_label
_atom_site_fract_x
_atom_site_fract_y
_atom_site_fract_z
Si Si1 0.634144 0.663225 0.079774
Si Si2 0.363192 0.840115 0.925604
Si Si3 0.635153 0.995340 0.904938
Si Si4 0.037309 0.834968 0.601473
Si Si5 0.359774 0.972003 0.433202
Si Si6 0.859356 0.864211 0.428523
O O1 0.750000 0.661967 0.077223
O O2 0.604814 0.750000 0.016936
O O3 0.601786 0.582821 0.995942
O O4 0.606946 0.659843 0.259571
O O5 0.250000 0.845433 0.885559
O O6 0.376605 0.750000 0.989164
O O7 0.384546 0.917359 0.027644
O O8 0.427093 0.847081 0.773659
O O9 0.750000 0.988516 0.904634
O O10 0.603213 0.995128 0.728577
O O11 0.076681 0.750000 0.553930
O O12 0.078722 0.901273 0.492800
O O13 0.925574 0.834562 0.565372
O O14 0.250000 0.947444 0.412011
O O15 0.361103 0.041262 0.557800
O O16 0.750000 0.839830 0.448250
#
# Coordination Sequence:
#
# PCOD9452308 Si02
#       6
#     8   8   8   8   8   8
#     4   9  17  32  55  79 105 145 195 239 282 339
#     4   9  18  34  57  84 115 154 196 234 281 349
#     4   9  18  34  57  84 116 153 189 232 289 349
#     4  11  22  36  57  86 119 153 193 243 294 345
#     4  10  21  37  59  88 119 151 189 238 296 349
#     4  10  21  39  61  82 109 149 199 248 290 341
#
# _framework density 23.140053999999999
#
# number of rings (size 3 to 8) (size 9 to 14) (size 15 to 20)
#    0.000    2.333    0.000    2.500    0.000    5.333 
#    0.000    6.667    0.000   10.000    0.000    0.000 
#    0.000    0.000    0.000    0.000    0.000    0.000 
#
# Total GULP energy -268199.072207 kJ/mol
# GULP energy per Si atom -5587.480671 kJ/mol
# Density = 2.308739 g / cm^3
# Si number density = 23.140054 Si / 1000 Ang^3
#
#
#
# Elastic Constant Matrix: (Units=GPa)
#
#
# Indices 1 2 3 4 5 6 
#
# 1 68.3844 17.3806 11.8723 0.0000 0.0000 0.0000
# 2 17.3806 196.6421 74.5161 0.0000 0.0000 0.0000
# 3 11.8723 74.5161 69.5354 0.0000 0.0000 0.0000
# 4 0.0000 0.0000 0.0000 65.7367 0.0000 0.0000
# 5 0.0000 0.0000 0.0000 0.0000 28.5555 0.0000
# 6 0.0000 0.0000 0.0000 0.0000 0.0000 -11.4647
#
#
#
# Elastic Compliance Matrix: (Units=1/GPa)
#
#
# Indices 1 2 3 4 5 6 
#
# 1 0.015112 -0.000603 -0.001934 0.000000 0.000000 0.000000
# 2 -0.000603 0.008587 -0.009099 0.000000 0.000000 0.000000
# 3 -0.001934 -0.009099 0.024462 0.000000 0.000000 0.000000
# 4 0.000000 0.000000 0.000000 0.015212 0.000000 0.000000
# 5 0.000000 0.000000 0.000000 0.000000 0.035019 0.000000
# 6 0.000000 0.000000 0.000000 0.000000 0.000000 -0.087224
#
#
# Mechanical properties :
#
#
# Convention : Reuss Voigt Hill
#
# Bulk Modulus (GPa) = 40.17816 60.23331 50.20573
# Shear Modulus (GPa) = 116.99746 31.95169 74.47457
#
# Velocity S-wave (km/s) = 7.11831 3.71994 5.67927
# Velocity P-wave (km/s) = 9.21744 6.67360 8.04668
#
# Compressibility (1/GPa) = 0.02488914
#
# Stress axis : x y z
#
# Youngs Moduli (GPa) = 66.17154 116.46170 40.88011
#
# Poissons Ratio (x) = 0.07019 0.07908
# Poissons Ratio (y) = 0.03988 0.37195
# Poissons Ratio (z) = 0.12800 1.05964
#
# Static dielectric constant tensor:
#      x y z
#    x 1.892630 0.000000 0.000000 
#    y 0.000000 1.902900 0.000000 
#    z 0.000000 0.000000 1.808250 
# 
# From -- ./inp_files/10247.got.cif
#   From: 2010.05.17/outbox.cif.g08.bks.cpg/sg59_6_cif.got.tgz:10247.got - 2010.06.03 14:40:33.
