data_PCOD9452578
_publ_section_title
;
Structure prediction by ZEFSAII (Michael W. Deem and Ramdas Pophale) SiO2 
 PCOD9452578
Probable space group: P M M N
;
_chemical_formula_sum "Si O2"
_cell_formula_units_Z 48
_cell_length_a 28.603855
_cell_length_b 8.861657
_cell_length_c 10.242253
_cell_angle_alpha 90.000000
_cell_angle_beta 90.000000
_cell_angle_gamma 90.000000
_cell_volume 2596.181216
_symmetry_space_group_name_H-M "P M M N"
_symmetry_group_IT_number 59
_space_group.IT_coordinate_system_code '2'
_symmetry_cell_setting 'orthorhombic'
loop_
_space_group_symop_operation_xyz
x,y,z
1/2-x,1/2-y,z
1/2+x,-y,-z
-x,1/2+y,-z
-x,-y,-z
1/2+x,1/2+y,-z
1/2-x,y,z
x,1/2-y,z
loop_
_atom_site_type_symbol
_atom_site_label
_atom_site_fract_x
_atom_site_fract_y
_atom_site_fract_z
Si Si1 0.134934 0.930911 0.000328
Si Si2 0.874871 0.568403 0.287094
Si Si3 0.693905 0.576012 0.776980
Si Si4 0.966445 0.068783 0.891799
Si Si5 0.480952 0.431825 0.633056
Si Si6 0.805330 0.069331 0.500229
O O1 0.138009 0.750000 0.989139
O O2 0.086306 0.971639 0.072182
O O3 0.174562 0.994100 0.095374
O O4 0.134689 0.002745 0.856762
O O5 0.872475 0.750000 0.282993
O O6 0.927540 0.524947 0.332048
O O7 0.837297 0.504760 0.389495
O O8 0.750000 0.574374 0.780895
O O9 0.678078 0.750000 0.773623
O O10 0.680180 0.492663 0.642717
O O11 0.970084 0.250000 0.896674
O O12 0.985107 0.019683 0.751029
O O13 0.000000 0.000000 0.000000
O O14 0.500000 0.500000 0.500000
O O15 0.482011 0.250000 0.624652
O O16 0.750000 0.033656 0.481233
O O17 0.810311 0.250000 0.497434
#
# Coordination Sequence:
#
# PCOD9452578 Si02
#       6
#     8   8   8   8   8   8
#     4  11  23  38  61  91 120 158 200 245 298 351
#     4  11  23  40  61  88 121 158 200 247 297 352
#     4  10  22  41  64  90 120 155 196 243 296 355
#     4  10  21  39  60  85 118 156 196 240 291 346
#     4  10  23  40  58  86 120 156 197 243 293 349
#     4  10  22  41  64  89 119 155 195 244 299 355
#
# _framework density 18.488693999999999
#
# number of rings (size 3 to 8) (size 9 to 14) (size 15 to 20)
#    0.000    1.667    1.667    2.000    2.333    5.333 
#    0.000    0.000    0.000    0.000    0.000    0.000 
#    0.000    0.000    0.000    0.000    0.000    0.000 
#
# Total GULP energy -268167.796102 kJ/mol
# GULP energy per Si atom -5586.829085 kJ/mol
# Density = 1.844661 g / cm^3
# Si number density = 18.488694 Si / 1000 Ang^3
#
#
#
# Elastic Constant Matrix: (Units=GPa)
#
#
# Indices 1 2 3 4 5 6 
#
# 1 61.0390 44.5981 71.8045 0.0000 0.0000 0.0000
# 2 44.5981 62.8663 60.4441 0.0000 0.0000 0.0000
# 3 71.8045 60.4441 201.4157 0.0000 0.0000 0.0000
# 4 0.0000 0.0000 0.0000 41.4696 0.0000 0.0000
# 5 0.0000 0.0000 0.0000 0.0000 39.6151 0.0000
# 6 0.0000 0.0000 0.0000 0.0000 0.0000 23.8461
#
#
#
# Elastic Compliance Matrix: (Units=1/GPa)
#
#
# Indices 1 2 3 4 5 6 
#
# 1 0.042441 -0.021871 -0.008567 0.000000 0.000000 0.000000
# 2 -0.021871 0.033629 -0.002295 0.000000 0.000000 0.000000
# 3 -0.008567 -0.002295 0.008707 0.000000 0.000000 0.000000
# 4 0.000000 0.000000 0.000000 0.024114 0.000000 0.000000
# 5 0.000000 0.000000 0.000000 0.000000 0.025243 0.000000
# 6 0.000000 0.000000 0.000000 0.000000 0.000000 0.041936
#
#
# Mechanical properties :
#
#
# Convention : Reuss Voigt Hill
#
# Bulk Modulus (GPa) = 51.78222 75.44603 63.61412
# Shear Modulus (GPa) = 20.16352 30.88444 25.52398
#
# Velocity S-wave (km/s) = 3.30599 4.09155 3.71956
# Velocity P-wave (km/s) = 6.53001 7.95086 7.27520
#
# Compressibility (1/GPa) = 0.01931165
#
# Stress axis : x y z
#
# Youngs Moduli (GPa) = 23.56228 29.73624 114.84389
#
# Poissons Ratio (x) = 0.65037 0.98381
# Poissons Ratio (y) = 0.51534 0.26354
# Poissons Ratio (z) = 0.20185 0.06824
#
# Static dielectric constant tensor:
#      x y z
#    x 1.646110 0.000000 0.000000 
#    y 0.000000 1.625950 0.000000 
#    z 0.000000 0.000000 1.593830 
# 
# From -- ./inp_files/6214.got.cif
#   From: 2010.05.17/outbox.cif.g08.bks.cpg/sg59_4_cif.got.tgz:6214.got - 2010.06.03 14:40:33.
