data_PCOD9452042
_publ_section_title
;
Structure prediction by ZEFSAII (Michael W. Deem and Ramdas Pophale) SiO2 
 PCOD9452042
Probable space group: P M M N
;
_chemical_formula_sum "Si O2"
_cell_formula_units_Z 58
_cell_length_a 23.416727
_cell_length_b 16.866260
_cell_length_c 7.408015
_cell_angle_alpha 90.000000
_cell_angle_beta 90.000000
_cell_angle_gamma 90.000000
_cell_volume 2925.814829
_symmetry_space_group_name_H-M "P M M N"
_symmetry_group_IT_number 59
_space_group.IT_coordinate_system_code '2'
_symmetry_cell_setting 'orthorhombic'
loop_
_space_group_symop_operation_xyz
x,y,z
1/2-x,1/2-y,z
1/2+x,-y,-z
-x,1/2+y,-z
-x,-y,-z
1/2+x,1/2+y,-z
1/2-x,y,z
x,1/2-y,z
loop_
_atom_site_type_symbol
_atom_site_label
_atom_site_fract_x
_atom_site_fract_y
_atom_site_fract_z
Si Si1 0.315110 0.534630 0.860634
Si Si2 0.590777 0.339062 0.125937
Si Si3 0.989406 0.947318 0.771938
Si Si4 0.634877 0.502947 0.754008
Si Si5 0.750000 0.750000 0.411693
Si Si6 0.405909 0.665689 0.299149
Si Si7 0.529054 0.892577 0.360730
Si Si8 0.157502 0.391229 0.592145
O O1 0.250000 0.562416 0.839226
O O2 0.361056 0.601295 0.801555
O O3 0.324798 0.457114 0.739029
O O4 0.325943 0.513210 0.072343
O O5 0.590148 0.250000 0.202158
O O6 0.529130 0.380643 0.143049
O O7 0.604313 0.332934 0.914645
O O8 0.925339 0.965158 0.835510
O O9 0.980550 0.922385 0.564595
O O10 0.022441 0.030897 0.768532
O O11 0.620165 0.419880 0.649948
O O12 0.655876 0.564701 0.603519
O O13 0.700606 0.680617 0.411249
O O14 0.384633 0.750000 0.375015
O O15 0.474205 0.661034 0.324153
O O16 0.593404 0.862644 0.356849
#
# Coordination Sequence:
#
# PCOD9452042 Si02
#       8
#     8   8   8   8   2   8   8   8
#     4  11  23  40  66  86 114 171 211 246 302 363
#     4  10  21  36  56  89 129 155 200 260 303 361
#     4   9  17  34  56  90 116 156 197 244 307 367
#     4   9  22  40  64  89 123 163 207 246 308 375
#     4  12  28  44  66  88 126 158 208 268 296 344
#     4   9  19  33  56  94 124 157 194 246 308 368
#     4   9  18  32  58  83 119 156 197 239 303 367
#     4  11  23  44  60  89 120 158 204 259 300 355
#
# _framework density 19.823537000000002
#
# number of rings (size 3 to 8) (size 9 to 14) (size 15 to 20)
#    0.000    2.207    2.069    0.828    3.862    2.483 
#    3.724    1.379    0.000    0.000    0.000    0.000 
#    0.000    0.000    0.000    0.000    0.000    0.000 
#
# Total GULP energy -322918.208603 kJ/mol
# GULP energy per Si atom -5567.555321 kJ/mol
# Density = 1.977842 g / cm^3
# Si number density = 19.823537 Si / 1000 Ang^3
#
#
#
# Elastic Constant Matrix: (Units=GPa)
#
#
# Indices 1 2 3 4 5 6 
#
# 1 86.7525 40.8890 0.2140 0.0000 0.0000 0.0000
# 2 40.8890 136.5395 3.3947 0.0000 0.0000 0.0000
# 3 0.2140 3.3947 39.4268 0.0000 0.0000 0.0000
# 4 0.0000 0.0000 0.0000 13.8241 0.0000 0.0000
# 5 0.0000 0.0000 0.0000 0.0000 3.5261 0.0000
# 6 0.0000 0.0000 0.0000 0.0000 0.0000 40.9128
#
#
#
# Elastic Compliance Matrix: (Units=1/GPa)
#
#
# Indices 1 2 3 4 5 6 
#
# 1 0.013424 -0.004027 0.000274 0.000000 0.000000 0.000000
# 2 -0.004027 0.008548 -0.000714 0.000000 0.000000 0.000000
# 3 0.000274 -0.000714 0.025423 0.000000 0.000000 0.000000
# 4 0.000000 0.000000 0.000000 0.072338 0.000000 0.000000
# 5 0.000000 0.000000 0.000000 0.000000 0.283601 0.000000
# 6 0.000000 0.000000 0.000000 0.000000 0.000000 0.024442
#
#
# Mechanical properties :
#
#
# Convention : Reuss Voigt Hill
#
# Bulk Modulus (GPa) = 26.00035 39.07937 32.53986
# Shear Modulus (GPa) = 11.12270 26.20066 18.66168
#
# Velocity S-wave (km/s) = 2.37129 3.63946 3.07154
# Velocity P-wave (km/s) = 4.54332 6.11697 5.38790
#
# Compressibility (1/GPa) = 0.03846103
#
# Stress axis : x y z
#
# Youngs Moduli (GPa) = 74.49128 116.99212 39.33372
#
# Poissons Ratio (x) = 0.47112 -0.01077
# Poissons Ratio (y) = 0.29997 0.02809
# Poissons Ratio (z) = -0.02040 0.08354
#
# Static dielectric constant tensor:
#      x y z
#    x 1.700570 0.000000 0.000000 
#    y 0.000000 1.733270 0.000000 
#    z 0.000000 0.000000 1.726930 
# 
# From -- ./inp_files/12164.got.cif
#   From: 2010.05.17/outbox.cif.g08.bks.cpg/sg59_7_cif.got.tgz:12164.got - 2010.06.03 14:40:33.
