data_PCOD9452083
_publ_section_title
;
Structure prediction by ZEFSAII (Michael W. Deem and Ramdas Pophale) SiO2 
 PCOD9452083
Probable space group: P M M N
;
_chemical_formula_sum "Si O2"
_cell_formula_units_Z 64
_cell_length_a 19.626723
_cell_length_b 9.385111
_cell_length_c 20.822744
_cell_angle_alpha 90.000000
_cell_angle_beta 90.000000
_cell_angle_gamma 90.000000
_cell_volume 3835.528079
_symmetry_space_group_name_H-M "P M M N"
_symmetry_group_IT_number 59
_space_group.IT_coordinate_system_code '2'
_symmetry_cell_setting 'orthorhombic'
loop_
_space_group_symop_operation_xyz
x,y,z
1/2-x,1/2-y,z
1/2+x,-y,-z
-x,1/2+y,-z
-x,-y,-z
1/2+x,1/2+y,-z
1/2-x,y,z
x,1/2-y,z
loop_
_atom_site_type_symbol
_atom_site_label
_atom_site_fract_x
_atom_site_fract_y
_atom_site_fract_z
Si Si1 0.058390 0.586120 0.697181
Si Si2 0.893138 0.585859 0.680112
Si Si3 0.590970 0.085474 0.554335
Si Si4 0.329766 0.915148 0.054267
Si Si5 0.935168 0.920432 0.030196
Si Si6 0.543719 0.584235 0.177979
Si Si7 0.619606 0.416240 0.805614
Si Si8 0.425743 0.085610 0.571713
O O1 0.080221 0.750000 0.694293
O O2 0.072318 0.514438 0.765749
O O3 0.087678 0.494655 0.638418
O O4 0.975793 0.584456 0.688603
O O5 0.872107 0.750000 0.673668
O O6 0.879208 0.495262 0.616151
O O7 0.864377 0.512062 0.744073
O O8 0.612536 0.250000 0.550868
O O9 0.508361 0.085841 0.563106
O O10 0.603844 0.999914 0.488815
O O11 0.250000 0.919222 0.040725
O O12 0.353984 0.750000 0.047546
O O13 0.342768 0.954888 0.128614
O O14 0.371008 0.017411 0.007606
O O15 0.941694 0.750000 0.022636
O O16 0.932435 0.950992 0.106285
O O17 0.000000 0.000000 0.000000
O O18 0.559469 0.750000 0.191589
O O19 0.461334 0.571425 0.179874
O O20 0.633592 0.250000 0.790929
O O21 0.403947 0.250000 0.572628
#
# Coordination Sequence:
#
# PCOD9452083 Si02
#       8
#     8   8   8   8   8   8   8   8
#     4   9  16  24  35  54  78 106 142 184 226 273
#     4   9  16  24  35  54  77 104 142 186 227 268
#     4   9  15  22  32  47  69 102 142 182 221 265
#     4  10  21  37  54  73  99 130 163 201 249 302
#     4  11  21  34  53  75  99 126 162 204 249 299
#     4   9  17  29  44  63  87 116 150 192 237 284
#     4   9  16  29  45  62  86 117 151 189 234 283
#     4   9  15  22  32  46  70 105 141 179 221 268
#
# _framework density 16.686098000000001
#
# number of rings (size 3 to 8) (size 9 to 14) (size 15 to 20)
#    0.000    2.625    1.250    1.875    0.000    7.750 
#    0.000    0.000    0.000    0.000    0.000    0.000 
#    0.000    0.000    0.000    1.125    0.000   19.750 
#
# Total GULP energy -356747.875705 kJ/mol
# GULP energy per Si atom -5574.185558 kJ/mol
# Density = 1.664812 g / cm^3
# Si number density = 16.686098 Si / 1000 Ang^3
#
#
#
# Elastic Constant Matrix: (Units=GPa)
#
#
# Indices 1 2 3 4 5 6 
#
# 1 14.8408 21.0403 23.9860 0.0000 0.0000 0.0000
# 2 21.0403 145.3976 112.0531 0.0000 0.0000 0.0000
# 3 23.9860 112.0531 160.2430 0.0000 0.0000 0.0000
# 4 0.0000 0.0000 0.0000 37.2890 0.0000 0.0000
# 5 0.0000 0.0000 0.0000 0.0000 5.2962 0.0000
# 6 0.0000 0.0000 0.0000 0.0000 0.0000 9.4669
#
#
#
# Elastic Compliance Matrix: (Units=1/GPa)
#
#
# Indices 1 2 3 4 5 6 
#
# 1 0.091084 -0.005798 -0.009580 0.000000 0.000000 0.000000
# 2 -0.005798 0.015285 -0.009820 0.000000 0.000000 0.000000
# 3 -0.009580 -0.009820 0.014542 0.000000 0.000000 0.000000
# 4 0.000000 0.000000 0.000000 0.026818 0.000000 0.000000
# 5 0.000000 0.000000 0.000000 0.000000 0.188816 0.000000
# 6 0.000000 0.000000 0.000000 0.000000 0.000000 0.105632
#
#
# Mechanical properties :
#
#
# Convention : Reuss Voigt Hill
#
# Bulk Modulus (GPa) = 14.18142 70.51559 42.34851
# Shear Modulus (GPa) = 9.68847 21.30388 15.49617
#
# Velocity S-wave (km/s) = 2.41224 3.57703 3.05074
# Velocity P-wave (km/s) = 4.03435 7.70792 6.15175
#
# Compressibility (1/GPa) = 0.07051478
#
# Stress axis : x y z
#
# Youngs Moduli (GPa) = 10.97884 65.42337 68.76814
#
# Poissons Ratio (x) = 0.37933 0.65877
# Poissons Ratio (y) = 0.06366 0.67534
# Poissons Ratio (z) = 0.10517 0.64249
#
# Static dielectric constant tensor:
#      x y z
#    x 1.532710 0.000000 0.000000 
#    y 0.000000 1.563870 0.000000 
#    z 0.000000 0.000000 1.552350 
# 
# From -- ./inp_files/30895.got.cif
#   From: 2010.05.17/outbox.cif.g08.bks.cpg/sg59_16_cif.got.tgz:30895.got - 2010.06.03 14:40:33.
