data_PCOD9452144
_publ_section_title
;
Structure prediction by ZEFSAII (Michael W. Deem and Ramdas Pophale) SiO2 
 PCOD9452144
Probable space group: P M M N
;
_chemical_formula_sum "Si O2"
_cell_formula_units_Z 48
_cell_length_a 14.728062
_cell_length_b 7.924677
_cell_length_c 18.144903
_cell_angle_alpha 90.000000
_cell_angle_beta 90.000000
_cell_angle_gamma 90.000000
_cell_volume 2117.784788
_symmetry_space_group_name_H-M "P M M N"
_symmetry_group_IT_number 59
_space_group.IT_coordinate_system_code '2'
_symmetry_cell_setting 'orthorhombic'
loop_
_space_group_symop_operation_xyz
x,y,z
1/2-x,1/2-y,z
1/2+x,-y,-z
-x,1/2+y,-z
-x,-y,-z
1/2+x,1/2+y,-z
1/2-x,y,z
x,1/2-y,z
loop_
_atom_site_type_symbol
_atom_site_label
_atom_site_fract_x
_atom_site_fract_y
_atom_site_fract_z
Si Si1 0.896425 0.548123 0.018110
Si Si2 0.647569 0.943722 0.634601
Si Si3 0.846156 0.447897 0.861762
Si Si4 0.353265 0.942773 0.526595
Si Si5 0.044284 0.443946 0.667612
Si Si6 0.549418 0.542675 0.173200
O O1 0.882721 0.750000 0.014002
O O2 0.888431 0.494286 0.103511
O O3 0.844675 0.465106 0.950576
O O4 0.000000 0.500000 0.000000
O O5 0.750000 0.009297 0.646586
O O6 0.643362 0.750000 0.659364
O O7 0.631239 0.948355 0.546211
O O8 0.564932 0.043469 0.670049
O O9 0.750000 0.521128 0.833334
O O10 0.847251 0.250000 0.842661
O O11 0.944777 0.517734 0.838489
O O12 0.250000 0.974293 0.552145
O O13 0.359909 0.750000 0.500454
O O14 0.419566 0.967417 0.594710
O O15 0.071710 0.250000 0.660452
O O16 0.079831 0.511343 0.745747
O O17 0.546559 0.750000 0.172549
#
# Coordination Sequence:
#
# PCOD9452144 Si02
#       6
#     8   8   8   8   8   8
#     4   9  16  30  50  69  92 123 162 202 239 285
#     4  10  21  37  56  79 108 140 175 216 260 309
#     4   9  17  31  51  74 100 130 166 208 252 299
#     4  10  21  38  58  78 102 135 177 222 265 312
#     4  11  21  34  55  80 107 140 177 216 261 314
#     4   8  17  32  49  71  99 134 170 203 246 302
#
# _framework density 22.665192999999999
#
# number of rings (size 3 to 8) (size 9 to 14) (size 15 to 20)
#    0.000    2.500    0.000    3.500    0.000    3.000 
#    0.000   10.833    0.000    5.000    0.000    0.000 
#    0.000    0.000    0.000    0.000    0.000    0.000 
#
# Total GULP energy -267755.612626 kJ/mol
# GULP energy per Si atom -5578.241930 kJ/mol
# Density = 2.261361 g / cm^3
# Si number density = 22.665193 Si / 1000 Ang^3
#
#
#
# Elastic Constant Matrix: (Units=GPa)
#
#
# Indices 1 2 3 4 5 6 
#
# 1 36.4947 -2.2425 2.2225 0.0000 0.0000 0.0000
# 2 -2.2425 35.7126 -5.4590 0.0000 0.0000 0.0000
# 3 2.2225 -5.4590 84.6149 0.0000 0.0000 0.0000
# 4 0.0000 0.0000 0.0000 14.5247 0.0000 0.0000
# 5 0.0000 0.0000 0.0000 0.0000 0.1621 0.0000
# 6 0.0000 0.0000 0.0000 0.0000 0.0000 11.4941
#
#
#
# Elastic Compliance Matrix: (Units=1/GPa)
#
#
# Indices 1 2 3 4 5 6 
#
# 1 0.027539 0.001635 -0.000618 0.000000 0.000000 0.000000
# 2 0.001635 0.028377 0.001788 0.000000 0.000000 0.000000
# 3 -0.000618 0.001788 0.011950 0.000000 0.000000 0.000000
# 4 0.000000 0.000000 0.000000 0.068848 0.000000 0.000000
# 5 0.000000 0.000000 0.000000 0.000000 6.168992 0.000000
# 6 0.000000 0.000000 0.000000 0.000000 0.000000 0.087001
#
#
# Mechanical properties :
#
#
# Convention : Reuss Voigt Hill
#
# Bulk Modulus (GPa) = 13.60990 16.20714 14.90852
# Shear Modulus (GPa) = 0.77984 16.05625 8.41804
#
# Velocity S-wave (km/s) = 0.58721 2.66448 1.92929
# Velocity P-wave (km/s) = 2.54510 4.07826 3.39924
#
# Compressibility (1/GPa) = 0.07347594
#
# Stress axis : x y z
#
# Youngs Moduli (GPa) = 36.31167 35.23950 83.68323
#
# Poissons Ratio (x) = -0.05761 0.05171
# Poissons Ratio (y) = -0.05936 -0.14961
# Poissons Ratio (z) = 0.02244 -0.06300
#
# Static dielectric constant tensor:
#      x y z
#    x 1.865070 0.000000 0.000000 
#    y 0.000000 1.799780 0.000000 
#    z 0.000000 0.000000 1.874470 
# 
# From -- ./inp_files/25761.got.cif
#   From: 2010.05.17/outbox.cif.g08.bks.cpg/sg59_13_cif.got.tgz:25761.got - 2010.06.03 14:40:33.
