data_PCOD9452177
_publ_section_title
;
Structure prediction by ZEFSAII (Michael W. Deem and Ramdas Pophale) SiO2 
 PCOD9452177
Probable space group: P M M N
;
_chemical_formula_sum "Si O2"
_cell_formula_units_Z 64
_cell_length_a 13.886365
_cell_length_b 9.403651
_cell_length_c 26.729560
_cell_angle_alpha 90.000000
_cell_angle_beta 90.000000
_cell_angle_gamma 90.000000
_cell_volume 3490.413574
_symmetry_space_group_name_H-M "P M M N"
_symmetry_group_IT_number 59
_space_group.IT_coordinate_system_code '2'
_symmetry_cell_setting 'orthorhombic'
loop_
_space_group_symop_operation_xyz
x,y,z
1/2-x,1/2-y,z
1/2+x,-y,-z
-x,1/2+y,-z
-x,-y,-z
1/2+x,1/2+y,-z
1/2-x,y,z
x,1/2-y,z
loop_
_atom_site_type_symbol
_atom_site_label
_atom_site_fract_x
_atom_site_fract_y
_atom_site_fract_z
Si Si1 0.863738 0.079571 0.814956
Si Si2 0.133977 0.585316 0.877382
Si Si3 0.132956 0.586640 0.072031
Si Si4 0.635201 0.581382 0.318811
Si Si5 0.858101 0.419950 0.521341
Si Si6 0.632414 0.586393 0.024961
Si Si7 0.534569 0.080044 0.228459
Si Si8 0.444862 0.420162 0.572367
O O1 0.750000 0.054783 0.807700
O O2 0.879722 0.250000 0.811189
O O3 0.890195 0.035503 0.872017
O O4 0.930625 0.992774 0.777728
O O5 0.250000 0.575097 0.873745
O O6 0.110133 0.750000 0.888772
O O7 0.101751 0.487407 0.923388
O O8 0.090158 0.548515 0.823631
O O9 0.250000 0.588015 0.070761
O O10 0.102050 0.750000 0.066863
O O11 0.100706 0.495075 0.024977
O O12 0.750000 0.561478 0.321668
O O13 0.617037 0.750000 0.310133
O O14 0.590887 0.489906 0.274271
O O15 0.588220 0.541973 0.372039
O O16 0.750000 0.456631 0.537887
O O17 0.861742 0.250000 0.512729
O O18 0.883779 0.499900 0.470000
O O19 0.943337 0.453529 0.560376
O O20 0.750000 0.580898 0.025088
O O21 0.604275 0.750000 0.023051
O O22 0.528295 0.250000 0.233706
O O23 0.431363 0.250000 0.566708
#
# Coordination Sequence:
#
# PCOD9452177 Si02
#       8
#     8   8   8   8   8   8   8   8
#     4   9  19  37  59  79 100 131 171 213 261 320
#     4   9  18  33  50  68  96 134 170 205 254 316
#     4   8  14  27  48  71  95 126 162 200 248 309
#     4  10  21  37  57  80 108 144 184 225 268 317
#     4   9  17  30  51  81 116 151 186 227 275 322
#     4   9  16  25  42  71 101 127 159 202 252 306
#     4  11  23  37  55  79 105 134 173 223 274 321
#     4   9  18  33  53  79 112 150 192 232 269 315
#
# _framework density 18.335937000000001
#
# number of rings (size 3 to 8) (size 9 to 14) (size 15 to 20)
#    0.000    2.750    0.000    2.250    0.000    5.250 
#    0.000    3.750    0.000    2.250    0.000    0.000 
#    0.000    0.000    0.000    0.000    0.000    0.000 
#
# Total GULP energy -357245.426292 kJ/mol
# GULP energy per Si atom -5581.959786 kJ/mol
# Density = 1.829420 g / cm^3
# Si number density = 18.335937 Si / 1000 Ang^3
#
#
#
# Elastic Constant Matrix: (Units=GPa)
#
#
# Indices 1 2 3 4 5 6 
#
# 1 95.7819 40.1799 61.6899 0.0000 0.0000 0.0000
# 2 40.1799 58.5694 70.4730 0.0000 0.0000 0.0000
# 3 61.6899 70.4730 130.7606 0.0000 0.0000 0.0000
# 4 0.0000 0.0000 0.0000 32.2171 0.0000 0.0000
# 5 0.0000 0.0000 0.0000 0.0000 25.8558 0.0000
# 6 0.0000 0.0000 0.0000 0.0000 0.0000 16.2771
#
#
#
# Elastic Compliance Matrix: (Units=1/GPa)
#
#
# Indices 1 2 3 4 5 6 
#
# 1 0.015542 -0.005233 -0.004512 0.000000 0.000000 0.000000
# 2 -0.005233 0.050333 -0.024658 0.000000 0.000000 0.000000
# 3 -0.004512 -0.024658 0.023066 0.000000 0.000000 0.000000
# 4 0.000000 0.000000 0.000000 0.031039 0.000000 0.000000
# 5 0.000000 0.000000 0.000000 0.000000 0.038676 0.000000
# 6 0.000000 0.000000 0.000000 0.000000 0.000000 0.061436
#
#
# Mechanical properties :
#
#
# Convention : Reuss Voigt Hill
#
# Bulk Modulus (GPa) = 49.66615 69.97749 59.82182
# Shear Modulus (GPa) = 16.91421 22.38795 19.65108
#
# Velocity S-wave (km/s) = 3.04050 3.49805 3.27727
# Velocity P-wave (km/s) = 6.28266 7.38662 6.85689
#
# Compressibility (1/GPa) = 0.02013444
#
# Stress axis : x y z
#
# Youngs Moduli (GPa) = 64.34383 19.86752 43.35464
#
# Poissons Ratio (x) = 0.10397 0.19561
# Poissons Ratio (y) = 0.33671 1.06905
# Poissons Ratio (z) = 0.29031 0.48990
#
# Static dielectric constant tensor:
#      x y z
#    x 1.668320 0.000000 0.000000 
#    y 0.000000 1.610050 0.000000 
#    z 0.000000 0.000000 1.592030 
# 
# From -- ./inp_files/32150.got.cif
#   From: 2010.05.17/outbox.cif.g08.bks.cpg/sg59_17_cif.got.tgz:32150.got - 2010.06.03 14:40:33.
