data_PCOD9452595
_publ_section_title
;
Structure prediction by ZEFSAII (Michael W. Deem and Ramdas Pophale) SiO2 
 PCOD9452595
Probable space group: P M M N
;
_chemical_formula_sum "Si O2"
_cell_formula_units_Z 56
_cell_length_a 16.472501
_cell_length_b 8.167801
_cell_length_c 19.920666
_cell_angle_alpha 90.000000
_cell_angle_beta 90.000000
_cell_angle_gamma 90.000000
_cell_volume 2680.208280
_symmetry_space_group_name_H-M "P M M N"
_symmetry_group_IT_number 59
_space_group.IT_coordinate_system_code '2'
_symmetry_cell_setting 'orthorhombic'
loop_
_space_group_symop_operation_xyz
x,y,z
1/2-x,1/2-y,z
1/2+x,-y,-z
-x,1/2+y,-z
-x,-y,-z
1/2+x,1/2+y,-z
1/2-x,y,z
x,1/2-y,z
loop_
_atom_site_type_symbol
_atom_site_label
_atom_site_fract_x
_atom_site_fract_y
_atom_site_fract_z
Si Si1 0.602628 0.065689 0.717967
Si Si2 0.151953 0.439046 0.424903
Si Si3 0.423905 0.556240 0.708980
Si Si4 0.655243 0.551579 0.427880
Si Si5 0.661919 0.558495 0.851503
Si Si6 0.998975 0.051505 0.077022
Si Si7 0.339425 0.949063 0.843362
O O1 0.624481 0.250000 0.735498
O O2 0.623807 0.032176 0.640768
O O3 0.507099 0.034973 0.724971
O O4 0.648744 0.954408 0.771528
O O5 0.250000 0.439876 0.426659
O O6 0.125272 0.250000 0.418028
O O7 0.125502 0.502367 0.498185
O O8 0.439793 0.750000 0.714870
O O9 0.394060 0.515867 0.634599
O O10 0.358162 0.511585 0.765579
O O11 0.750000 0.504345 0.420593
O O12 0.651953 0.750000 0.427574
O O13 0.750000 0.485846 0.869476
O O14 0.664378 0.750000 0.869484
O O15 0.581011 0.489494 0.886497
O O16 0.998762 0.250000 0.082029
O O17 0.916305 0.993534 0.113224
O O18 0.000000 0.000000 0.000000
O O19 0.250000 0.008904 0.863414
O O20 0.338144 0.750000 0.848139
#
# Coordination Sequence:
#
# PCOD9452595 Si02
#       7
#     8   8   8   8   8   8   8
#     4  12  24  36  55  84 117 149 193 252 305 347
#     4   9  19  37  58  78 108 153 197 238 294 362
#     4  11  21  36  58  82 112 152 200 244 291 356
#     4   9  19  36  56  81 114 149 190 244 302 354
#     4  10  21  40  64  87 117 160 202 237 285 354
#     4  10  21  39  61  89 123 156 192 234 283 342
#     4   9  18  35  60  87 115 150 193 238 285 340
#
# _framework density 20.893896999999999
#
# number of rings (size 3 to 8) (size 9 to 14) (size 15 to 20)
#    0.000    2.000    1.429    3.429    0.000    5.429 
#    0.000    1.429    0.000    1.714    0.000    0.000 
#    0.000    0.000    0.000    0.000    0.000    0.000 
#
# Total GULP energy -312696.571604 kJ/mol
# GULP energy per Si atom -5583.867350 kJ/mol
# Density = 2.084634 g / cm^3
# Si number density = 20.893897 Si / 1000 Ang^3
#
#
#
# Elastic Constant Matrix: (Units=GPa)
#
#
# Indices 1 2 3 4 5 6 
#
# 1 139.0504 5.1754 61.4848 0.0000 0.0000 0.0000
# 2 5.1754 15.4194 -0.3843 0.0000 0.0000 0.0000
# 3 61.4848 -0.3843 116.6388 0.0000 0.0000 0.0000
# 4 0.0000 0.0000 0.0000 30.3174 0.0000 0.0000
# 5 0.0000 0.0000 0.0000 0.0000 15.6468 0.0000
# 6 0.0000 0.0000 0.0000 0.0000 0.0000 1.4417
#
#
#
# Elastic Compliance Matrix: (Units=1/GPa)
#
#
# Indices 1 2 3 4 5 6 
#
# 1 0.009545 -0.003329 -0.005043 0.000000 0.000000 0.000000
# 2 -0.003329 0.066020 0.001973 0.000000 0.000000 0.000000
# 3 -0.005043 0.001973 0.011238 0.000000 0.000000 0.000000
# 4 0.000000 0.000000 0.000000 0.032984 0.000000 0.000000
# 5 0.000000 0.000000 0.000000 0.000000 0.063911 0.000000
# 6 0.000000 0.000000 0.000000 0.000000 0.000000 0.693645
#
#
# Mechanical properties :
#
#
# Convention : Reuss Voigt Hill
#
# Bulk Modulus (GPa) = 13.51272 44.85117 29.18195
# Shear Modulus (GPa) = 5.46561 23.13668 14.30115
#
# Velocity S-wave (km/s) = 1.61913 3.33128 2.61907
# Velocity P-wave (km/s) = 3.15860 6.02573 4.81072
#
# Compressibility (1/GPa) = 0.07400432
#
# Stress axis : x y z
#
# Youngs Moduli (GPa) = 104.76348 15.14695 88.98250
#
# Poissons Ratio (x) = 0.05043 0.44871
# Poissons Ratio (y) = 0.34881 -0.17553
# Poissons Ratio (z) = 0.52829 -0.02988
#
# Static dielectric constant tensor:
#      x y z
#    x 1.760930 0.000000 0.000000 
#    y 0.000000 1.741410 0.000000 
#    z 0.000000 0.000000 1.723520 
# 
# From -- ./inp_files/30377.got.cif
#   From: 2010.05.17/outbox.cif.g08.bks.cpg/sg59_16_cif.got.tgz:30377.got - 2010.06.03 14:40:33.
