data_PCOD9452200
_publ_section_title
;
Structure prediction by ZEFSAII (Michael W. Deem and Ramdas Pophale) SiO2 
 PCOD9452200
Probable space group: P M M N
;
_chemical_formula_sum "Si O2"
_cell_formula_units_Z 64
_cell_length_a 15.704619
_cell_length_b 7.754498
_cell_length_c 24.176596
_cell_angle_alpha 90.000000
_cell_angle_beta 90.000000
_cell_angle_gamma 90.000000
_cell_volume 2944.260594
_symmetry_space_group_name_H-M "P M M N"
_symmetry_group_IT_number 59
_space_group.IT_coordinate_system_code '2'
_symmetry_cell_setting 'orthorhombic'
loop_
_space_group_symop_operation_xyz
x,y,z
1/2-x,1/2-y,z
1/2+x,-y,-z
-x,1/2+y,-z
-x,-y,-z
1/2+x,1/2+y,-z
1/2-x,y,z
x,1/2-y,z
loop_
_atom_site_type_symbol
_atom_site_label
_atom_site_fract_x
_atom_site_fract_y
_atom_site_fract_z
Si Si1 0.376801 0.446575 0.873019
Si Si2 0.655979 0.046403 0.797781
Si Si3 0.843890 0.960273 0.003765
Si Si4 0.149941 0.544783 0.515866
Si Si5 0.519018 0.959026 0.580119
Si Si6 0.517619 0.958995 0.705940
Si Si7 0.943015 0.550972 0.900426
Si Si8 0.340406 0.951046 0.751654
O O1 0.346376 0.250000 0.869620
O O2 0.478599 0.449993 0.874853
O O3 0.347322 0.540436 0.818119
O O4 0.352180 0.519403 0.933084
O O5 0.750000 0.992280 0.779919
O O6 0.655842 0.250000 0.808890
O O7 0.588475 0.010371 0.749928
O O8 0.630701 0.956787 0.855100
O O9 0.750000 0.005451 0.983203
O O10 0.850028 0.750000 0.005155
O O11 0.912799 0.020105 0.959452
O O12 0.250000 0.480570 0.517557
O O13 0.156593 0.750000 0.524758
O O14 0.098259 0.515487 0.458380
O O15 0.075127 0.480900 0.558483
O O16 0.517133 0.750000 0.577733
O O17 0.533243 0.014076 0.643153
O O18 0.514911 0.750000 0.706612
O O19 0.425904 0.026534 0.726273
O O20 0.969457 0.750000 0.907235
O O21 0.250000 0.029683 0.734816
O O22 0.338847 0.750000 0.735588
#
# Coordination Sequence:
#
# PCOD9452200 Si02
#       8
#     8   8   8   8   8   8   8   8
#     4  11  21  35  56  80 109 144 182 227 284 345
#     4  11  24  40  58  82 112 147 188 236 289 342
#     4   9  19  34  52  77 106 138 179 226 279 342
#     4   9  18  34  57  85 118 155 191 229 279 330
#     4   9  19  35  56  84 116 152 194 235 276 325
#     4  10  21  38  59  83 114 152 191 234 282 333
#     4  11  21  36  58  80 106 142 185 231 283 341
#     4  10  21  37  57  82 111 145 188 236 285 339
#
# _framework density 21.737206
#
# number of rings (size 3 to 8) (size 9 to 14) (size 15 to 20)
#    0.000    2.000    1.250    2.250    0.000    4.000 
#    0.000    6.875    0.000    4.500    0.000    3.500 
#    0.000    0.000    0.000    0.000    0.000    0.000 
#
# Total GULP energy -357194.015315 kJ/mol
# GULP energy per Si atom -5581.156489 kJ/mol
# Density = 2.168773 g / cm^3
# Si number density = 21.737206 Si / 1000 Ang^3
#
#
#
# Elastic Constant Matrix: (Units=GPa)
#
#
# Indices 1 2 3 4 5 6 
#
# 1 129.6995 1.6057 9.7771 0.0000 0.0000 0.0000
# 2 1.6057 40.6007 -7.4783 0.0000 0.0000 0.0000
# 3 9.7771 -7.4783 66.8982 0.0000 0.0000 0.0000
# 4 0.0000 0.0000 0.0000 15.7606 0.0000 0.0000
# 5 0.0000 0.0000 0.0000 0.0000 41.0677 0.0000
# 6 0.0000 0.0000 0.0000 0.0000 0.0000 14.4479
#
#
#
# Elastic Compliance Matrix: (Units=1/GPa)
#
#
# Indices 1 2 3 4 5 6 
#
# 1 0.007807 -0.000530 -0.001200 0.000000 0.000000 0.000000
# 2 -0.000530 0.025184 0.002893 0.000000 0.000000 0.000000
# 3 -0.001200 0.002893 0.015447 0.000000 0.000000 0.000000
# 4 0.000000 0.000000 0.000000 0.063449 0.000000 0.000000
# 5 0.000000 0.000000 0.000000 0.000000 0.024350 0.000000
# 6 0.000000 0.000000 0.000000 0.000000 0.000000 0.069214
#
#
# Mechanical properties :
#
#
# Convention : Reuss Voigt Hill
#
# Bulk Modulus (GPa) = 19.69937 27.22306 23.46121
# Shear Modulus (GPa) = 22.72240 29.80817 26.26528
#
# Velocity S-wave (km/s) = 3.23665 3.70712 3.47985
# Velocity P-wave (km/s) = 4.80105 5.55649 5.19253
#
# Compressibility (1/GPa) = 0.05076305
#
# Stress axis : x y z
#
# Youngs Moduli (GPa) = 128.08744 39.70791 64.73805
#
# Poissons Ratio (x) = 0.02104 0.07770
# Poissons Ratio (y) = 0.06787 -0.18726
# Poissons Ratio (z) = 0.15374 -0.11486
#
# Static dielectric constant tensor:
#      x y z
#    x 1.834750 0.000000 0.000000 
#    y 0.000000 1.790820 0.000000 
#    z 0.000000 0.000000 1.757450 
# 
# From -- ./inp_files/32114.got.cif
#   From: 2010.05.17/outbox.cif.g08.bks.cpg/sg59_17_cif.got.tgz:32114.got - 2010.06.03 14:40:33.
