data_PCOD9452309
_publ_section_title
;
Structure prediction by ZEFSAII (Michael W. Deem and Ramdas Pophale) SiO2 
 PCOD9452309
Probable space group: P M M N
;
_chemical_formula_sum "Si O2"
_cell_formula_units_Z 56
_cell_length_a 8.906600
_cell_length_b 20.990645
_cell_length_c 16.134462
_cell_angle_alpha 90.000000
_cell_angle_beta 90.000000
_cell_angle_gamma 90.000000
_cell_volume 3016.422841
_symmetry_space_group_name_H-M "P M M N"
_symmetry_group_IT_number 59
_space_group.IT_coordinate_system_code '2'
_symmetry_cell_setting 'orthorhombic'
loop_
_space_group_symop_operation_xyz
x,y,z
1/2-x,1/2-y,z
1/2+x,-y,-z
-x,1/2+y,-z
-x,-y,-z
1/2+x,1/2+y,-z
1/2-x,y,z
x,1/2-y,z
loop_
_atom_site_type_symbol
_atom_site_label
_atom_site_fract_x
_atom_site_fract_y
_atom_site_fract_z
Si Si1 0.569511 0.112602 0.216475
Si Si2 0.428931 0.447795 0.379063
Si Si3 0.574695 0.925282 0.432470
Si Si4 0.573298 0.366351 0.858536
Si Si5 0.069856 0.250000 0.960408
Si Si6 0.418626 0.674663 0.332023
Si Si7 0.930707 0.501326 0.091600
Si Si8 0.068264 0.750000 0.856873
O O1 0.750000 0.110400 0.223145
O O2 0.500880 0.090275 0.303455
O O3 0.526455 0.060933 0.145676
O O4 0.527858 0.184541 0.190515
O O5 0.250000 0.445699 0.371069
O O6 0.471831 0.423159 0.471104
O O7 0.485255 0.520545 0.382551
O O8 0.750000 0.941776 0.430114
O O9 0.539692 0.859654 0.388145
O O10 0.750000 0.371323 0.881028
O O11 0.495612 0.312693 0.915052
O O12 0.563231 0.344056 0.763680
O O13 0.493962 0.434358 0.867551
O O14 0.250000 0.250000 0.956680
O O15 0.011195 0.250000 0.054311
O O16 0.250000 0.654346 0.358045
O O17 0.428123 0.750000 0.338820
O O18 0.750000 0.503445 0.087035
O O19 0.000000 0.500000 0.000000
O O20 0.250000 0.750000 0.868466
#
# Coordination Sequence:
#
# PCOD9452309 Si02
#       8
#     8   8   8   8   4   8   8   4
#     4  10  22  40  62  88 118 154 200 248 296 352
#     4  10  21  38  61  87 116 153 195 241 294 350
#     4  10  21  37  59  88 119 153 192 239 292 346
#     4  11  22  39  60  84 119 159 197 244 295 352
#     4  12  24  38  60  89 118 155 200 245 296 359
#     4  10  21  38  58  85 118 156 197 234 284 349
#     4  11  23  38  58  89 121 155 200 250 303 356
#     4  10  22  42  64  85 116 157 198 243 298 355
#
# _framework density 18.565035999999999
#
# number of rings (size 3 to 8) (size 9 to 14) (size 15 to 20)
#    0.000    1.571    0.714    4.071    0.000    8.286 
#    1.286    0.000    0.000    0.000    0.000    0.000 
#    0.000    0.000    0.000    0.000    0.000    0.000 
#
# Total GULP energy -312892.488479 kJ/mol
# GULP energy per Si atom -5587.365866 kJ/mol
# Density = 1.852278 g / cm^3
# Si number density = 18.565036 Si / 1000 Ang^3
#
#
#
# Elastic Constant Matrix: (Units=GPa)
#
#
# Indices 1 2 3 4 5 6 
#
# 1 54.8792 48.4844 41.6729 0.0000 0.0000 0.0000
# 2 48.4844 144.9382 65.4533 0.0000 0.0000 0.0000
# 3 41.6729 65.4533 85.8324 0.0000 0.0000 0.0000
# 4 0.0000 0.0000 0.0000 29.6611 0.0000 0.0000
# 5 0.0000 0.0000 0.0000 0.0000 29.6289 0.0000
# 6 0.0000 0.0000 0.0000 0.0000 0.0000 31.0745
#
#
#
# Elastic Compliance Matrix: (Units=1/GPa)
#
#
# Indices 1 2 3 4 5 6 
#
# 1 0.031536 -0.005544 -0.011084 0.000000 0.000000 0.000000
# 2 -0.005544 0.011498 -0.006076 0.000000 0.000000 0.000000
# 3 -0.011084 -0.006076 0.021666 0.000000 0.000000 0.000000
# 4 0.000000 0.000000 0.000000 0.033714 0.000000 0.000000
# 5 0.000000 0.000000 0.000000 0.000000 0.033751 0.000000
# 6 0.000000 0.000000 0.000000 0.000000 0.000000 0.032181
#
#
# Mechanical properties :
#
#
# Convention : Reuss Voigt Hill
#
# Bulk Modulus (GPa) = 51.83547 66.31901 59.07724
# Shear Modulus (GPa) = 23.12839 26.74220 24.93529
#
# Velocity S-wave (km/s) = 3.53342 3.79946 3.66885
# Velocity P-wave (km/s) = 6.68045 7.41943 7.05961
#
# Compressibility (1/GPa) = 0.01929181
#
# Stress axis : x y z
#
# Youngs Moduli (GPa) = 31.70946 86.97019 46.15630
#
# Poissons Ratio (x) = 0.48218 0.51157
# Poissons Ratio (y) = 0.17580 0.28046
# Poissons Ratio (z) = 0.35145 0.52847
#
# Static dielectric constant tensor:
#      x y z
#    x 1.638210 0.000000 0.000000 
#    y 0.000000 1.629610 0.000000 
#    z 0.000000 0.000000 1.615660 
# 
# From -- ./inp_files/21091.got.cif
#   From: 2010.05.17/outbox.cif.g08.bks.cpg/sg59_11_cif.got.tgz:21091.got - 2010.06.03 14:40:33.
