data_PCOD9452626
_publ_section_title
;
Structure prediction by ZEFSAII (Michael W. Deem and Ramdas Pophale) SiO2 
 PCOD9452626
Probable space group: P M M N
;
_chemical_formula_sum "Si O2"
_cell_formula_units_Z 64
_cell_length_a 9.002514
_cell_length_b 19.150985
_cell_length_c 18.783400
_cell_angle_alpha 90.000000
_cell_angle_beta 90.000000
_cell_angle_gamma 90.000000
_cell_volume 3238.389842
_symmetry_space_group_name_H-M "P M M N"
_symmetry_group_IT_number 59
_space_group.IT_coordinate_system_code '2'
_symmetry_cell_setting 'orthorhombic'
loop_
_space_group_symop_operation_xyz
x,y,z
1/2-x,1/2-y,z
1/2+x,-y,-z
-x,1/2+y,-z
-x,-y,-z
1/2+x,1/2+y,-z
1/2-x,y,z
x,1/2-y,z
loop_
_atom_site_type_symbol
_atom_site_label
_atom_site_fract_x
_atom_site_fract_y
_atom_site_fract_z
Si Si1 0.925927 0.080517 0.863568
Si Si2 0.424682 0.330914 0.981858
Si Si3 0.571256 0.170144 0.438334
Si Si4 0.573207 0.538678 0.637903
Si Si5 0.424538 0.541188 0.788685
Si Si6 0.923700 0.666793 0.262509
Si Si7 0.927085 0.386845 0.594063
Si Si8 0.579239 0.831621 0.848467
O O1 0.750000 0.072403 0.860826
O O2 0.977946 0.116871 0.936043
O O3 0.983375 0.129204 0.799069
O O4 0.005215 0.006831 0.849969
O O5 0.250000 0.341128 0.964717
O O6 0.461037 0.250000 0.964669
O O7 0.441597 0.339676 0.066569
O O8 0.750000 0.165396 0.429991
O O9 0.526478 0.250000 0.421854
O O10 0.495993 0.109819 0.391941
O O11 0.536890 0.151951 0.520699
O O12 0.750000 0.546196 0.644396
O O13 0.502956 0.522367 0.714588
O O14 0.542751 0.470028 0.590039
O O15 0.250000 0.530511 0.783616
O O16 0.466370 0.620413 0.806530
O O17 0.750000 0.647530 0.255409
O O18 0.936315 0.750000 0.255063
O O19 0.984605 0.644104 0.339349
O O20 0.750000 0.378671 0.607225
O O21 0.750000 0.852249 0.831826
O O22 0.562945 0.750000 0.831905
#
# Coordination Sequence:
#
# PCOD9452626 Si02
#       8
#     8   8   8   8   8   8   8   8
#     4  12  24  38  58  86 122 162 204 249 299 357
#     4   9  19  38  63  90 122 160 201 247 302 360
#     4  10  22  40  62  90 123 159 201 248 300 359
#     4  11  23  40  63  90 120 158 203 250 304 362
#     4  12  25  41  63  89 121 160 202 252 305 358
#     4  11  23  37  57  87 122 161 203 246 295 353
#     4  10  21  39  63  89 119 159 201 247 299 355
#     4   9  20  41  67  92 120 156 199 250 305 361
#
# _framework density 19.762906999999998
#
# number of rings (size 3 to 8) (size 9 to 14) (size 15 to 20)
#    0.000    1.500    1.250    4.875    0.000    6.250 
#    0.000    1.250    0.000    0.000    0.000    0.000 
#    0.000    0.000    0.000    0.000    0.000    0.000 
#
# Total GULP energy -357858.985924 kJ/mol
# GULP energy per Si atom -5591.546655 kJ/mol
# Density = 1.971793 g / cm^3
# Si number density = 19.762907 Si / 1000 Ang^3
#
#
#
# Elastic Constant Matrix: (Units=GPa)
#
#
# Indices 1 2 3 4 5 6 
#
# 1 54.5183 31.1610 6.2524 0.0000 0.0000 0.0000
# 2 31.1610 71.7590 0.2688 0.0000 0.0000 0.0000
# 3 6.2524 0.2688 3.9767 0.0000 0.0000 0.0000
# 4 0.0000 0.0000 0.0000 29.5525 0.0000 0.0000
# 5 0.0000 0.0000 0.0000 0.0000 30.5544 0.0000
# 6 0.0000 0.0000 0.0000 0.0000 0.0000 29.0721
#
#
#
# Elastic Compliance Matrix: (Units=1/GPa)
#
#
# Indices 1 2 3 4 5 6 
#
# 1 0.031728 -0.013594 -0.048967 0.000000 0.000000 0.000000
# 2 -0.013594 0.019764 0.020038 0.000000 0.000000 0.000000
# 3 -0.048967 0.020038 0.327101 0.000000 0.000000 0.000000
# 4 0.000000 0.000000 0.000000 0.033838 0.000000 0.000000
# 5 0.000000 0.000000 0.000000 0.000000 0.032729 0.000000
# 6 0.000000 0.000000 0.000000 0.000000 0.000000 0.034397
#
#
# Mechanical properties :
#
#
# Convention : Reuss Voigt Hill
#
# Bulk Modulus (GPa) = 3.40661 22.84649 13.12655
# Shear Modulus (GPa) = 7.54772 24.00724 15.77748
#
# Velocity S-wave (km/s) = 1.95638 3.48913 2.82855
# Velocity P-wave (km/s) = 2.61356 5.27422 4.16222
#
# Compressibility (1/GPa) = 0.29354702
#
# Stress axis : x y z
#
# Youngs Moduli (GPa) = 31.51752 50.59753 3.05716
#
# Poissons Ratio (x) = 0.68785 0.14970
# Poissons Ratio (y) = 0.42846 -0.06126
# Poissons Ratio (z) = 1.54331 -1.01389
#
# Static dielectric constant tensor:
#      x y z
#    x 1.658830 0.000000 0.000000 
#    y 0.000000 1.707480 0.000000 
#    z 0.000000 0.000000 1.671480 
# 
# From -- ./inp_files/26255.got.cif
#   From: 2010.05.17/outbox.cif.g08.bks.cpg/sg59_14_cif.got.tgz:26255.got - 2010.06.03 14:40:33.
