data_PCOD9452775
_publ_section_title
;
Structure prediction by ZEFSAII (Michael W. Deem and Ramdas Pophale) SiO2 
 PCOD9452775
Probable space group: P M M N
;
_chemical_formula_sum "Si O2"
_cell_formula_units_Z 40
_cell_length_a 8.235617
_cell_length_b 29.984589
_cell_length_c 7.998792
_cell_angle_alpha 90.000000
_cell_angle_beta 90.000000
_cell_angle_gamma 90.000000
_cell_volume 1975.234422
_symmetry_space_group_name_H-M "P M M N"
_symmetry_group_IT_number 59
_space_group.IT_coordinate_system_code '2'
_symmetry_cell_setting 'orthorhombic'
loop_
_space_group_symop_operation_xyz
x,y,z
1/2-x,1/2-y,z
1/2+x,-y,-z
-x,1/2+y,-z
-x,-y,-z
1/2+x,1/2+y,-z
1/2-x,y,z
x,1/2-y,z
loop_
_atom_site_type_symbol
_atom_site_label
_atom_site_fract_x
_atom_site_fract_y
_atom_site_fract_z
Si Si1 0.444260 0.949115 0.999809
Si Si2 0.445668 0.606746 0.320276
Si Si3 0.443815 0.106836 0.319347
Si Si4 0.053664 0.298992 0.190692
Si Si5 0.946263 0.298846 0.804656
O O1 0.250000 0.947918 0.002751
O O2 0.504230 0.923113 0.165342
O O3 0.501435 0.923384 0.834758
O O4 0.500000 0.000000 0.000000
O O5 0.250000 0.607348 0.314231
O O6 0.497412 0.590117 0.501399
O O7 0.505152 0.657649 0.293104
O O8 0.250000 0.108069 0.320183
O O9 0.505969 0.157527 0.288560
O O10 0.250000 0.299217 0.194092
O O11 0.998049 0.250000 0.251143
O O12 0.998914 0.303370 0.997941
O O13 0.750000 0.298931 0.800042
O O14 0.003195 0.250000 0.744655
#
# Coordination Sequence:
#
# PCOD9452775 Si02
#       5
#     8   8   8   8   8
#     4  11  24  44  67  89 116 152 194 248 305 359
#     4  10  22  39  60  88 121 156 195 240 293 351
#     4  11  23  38  61  91 122 158 199 242 292 351
#     4   9  18  33  54  83 120 159 197 237 284 340
#     4   9  17  32  56  85 117 155 198 241 288 343
#
# _framework density 20.250762999999999
#
# number of rings (size 3 to 8) (size 9 to 14) (size 15 to 20)
#    0.000    2.000    2.000    1.200    0.000    4.800 
#    0.000    0.000    0.000    0.000    0.000    0.000 
#    0.000    0.000    0.000    0.000    0.000    0.000 
#
# Total GULP energy -223377.569766 kJ/mol
# GULP energy per Si atom -5584.439244 kJ/mol
# Density = 2.020467 g / cm^3
# Si number density = 20.250763 Si / 1000 Ang^3
#
#
#
# Elastic Constant Matrix: (Units=GPa)
#
#
# Indices 1 2 3 4 5 6 
#
# 1 15.4402 20.2857 12.5849 0.0000 0.0000 0.0000
# 2 20.2857 149.3284 88.8936 0.0000 0.0000 0.0000
# 3 12.5849 88.8936 159.0824 0.0000 0.0000 0.0000
# 4 0.0000 0.0000 0.0000 -2.2600 0.0000 0.0000
# 5 0.0000 0.0000 0.0000 0.0000 -65.1006 0.0000
# 6 0.0000 0.0000 0.0000 0.0000 0.0000 21.6187
#
#
#
# Elastic Compliance Matrix: (Units=1/GPa)
#
#
# Indices 1 2 3 4 5 6 
#
# 1 0.078851 -0.010487 -0.000378 0.000000 0.000000 0.000000
# 2 -0.010487 0.011429 -0.005557 0.000000 0.000000 0.000000
# 3 -0.000378 -0.005557 0.009421 0.000000 0.000000 0.000000
# 4 0.000000 0.000000 0.000000 -0.442481 0.000000 0.000000
# 5 0.000000 0.000000 0.000000 0.000000 -0.015361 0.000000
# 6 0.000000 0.000000 0.000000 0.000000 0.000000 0.046256
#
#
# Mechanical properties :
#
#
# Convention : Reuss Voigt Hill
#
# Bulk Modulus (GPa) = 14.95695 63.04215 38.99955
# Shear Modulus (GPa) = -19.47384 4.32409 -7.57488
#
# Velocity S-wave (km/s) = -3.10439 1.46284 -1.93615
# Velocity P-wave (km/s) = 2.33404 5.83537 3.78179
#
# Compressibility (1/GPa) = 0.06685856
#
# Stress axis : x y z
#
# Youngs Moduli (GPa) = 12.68208 87.49535 106.14462
#
# Poissons Ratio (x) = 0.91753 0.04013
# Poissons Ratio (y) = 0.13299 0.58984
# Poissons Ratio (z) = 0.00479 0.48620
#
# Static dielectric constant tensor:
#      x y z
#    x 1.703840 0.000000 0.000000 
#    y 0.000000 1.732560 0.000000 
#    z 0.000000 0.000000 1.694560 
# 
# From -- ./inp_files/4092.got.cif
#   From: 2010.05.17/outbox.cif.g08.bks.cpg/sg59_3_cif.got.tgz:4092.got - 2010.06.03 14:40:33.
