data_PCOD9452670
_publ_section_title
;
Structure prediction by ZEFSAII (Michael W. Deem and Ramdas Pophale) SiO2 
 PCOD9452670
Probable space group: P M M N
;
_chemical_formula_sum "Si O2"
_cell_formula_units_Z 40
_cell_length_a 26.534575
_cell_length_b 13.448091
_cell_length_c 4.962590
_cell_angle_alpha 90.000000
_cell_angle_beta 90.000000
_cell_angle_gamma 90.000000
_cell_volume 1770.847535
_symmetry_space_group_name_H-M "P M M N"
_symmetry_group_IT_number 59
_space_group.IT_coordinate_system_code '2'
_symmetry_cell_setting 'orthorhombic'
loop_
_space_group_symop_operation_xyz
x,y,z
1/2-x,1/2-y,z
1/2+x,-y,-z
-x,1/2+y,-z
-x,-y,-z
1/2+x,1/2+y,-z
1/2-x,y,z
x,1/2-y,z
loop_
_atom_site_type_symbol
_atom_site_label
_atom_site_fract_x
_atom_site_fract_y
_atom_site_fract_z
Si Si1 0.662091 0.362397 0.455556
Si Si2 0.891401 0.865612 0.720852
Si Si3 0.955819 0.139392 0.405977
Si Si4 0.044134 0.424632 0.786638
Si Si5 0.692909 0.485949 0.940087
O O1 0.675701 0.250000 0.376873
O O2 0.601912 0.364211 0.504957
O O3 0.689397 0.397103 0.724341
O O4 0.675412 0.439667 0.221649
O O5 0.878365 0.750000 0.710023
O O6 0.936949 0.882406 0.932067
O O7 0.912031 0.900056 0.431877
O O8 0.845468 0.931381 0.829621
O O9 0.964035 0.250000 0.290348
O O10 0.994607 0.121787 0.650033
O O11 0.961440 0.044237 0.211411
O O12 0.750000 0.523019 0.960493
#
# Coordination Sequence:
#
# PCOD9452670 Si02
#       5
#     8   8   8   8   8
#     4  11  24  43  66  96 132 165 203 256 318 378
#     4  12  24  44  65  91 127 167 214 260 316 369
#     4  10  21  40  67  98 132 167 205 251 310 379
#     4  11  24  42  65  96 132 168 206 252 310 378
#     4  12  25  44  65  93 125 163 218 266 314 368
#
# _framework density 22.588054
#
# number of rings (size 3 to 8) (size 9 to 14) (size 15 to 20)
#    0.000    0.800    4.000    3.000    0.000    7.600 
#    0.000    5.000    0.000    4.800    0.000    0.000 
#    0.000    0.000    0.000    0.000    0.000    0.000 
#
# Total GULP energy -224165.588640 kJ/mol
# GULP energy per Si atom -5604.139716 kJ/mol
# Density = 2.253664 g / cm^3
# Si number density = 22.588054 Si / 1000 Ang^3
#
#
#
# Elastic Constant Matrix: (Units=GPa)
#
#
# Indices 1 2 3 4 5 6 
#
# 1 126.2117 15.2748 5.8601 0.0000 0.0000 0.0000
# 2 15.2748 123.2568 -0.1772 0.0000 0.0000 0.0000
# 3 5.8601 -0.1772 67.0182 0.0000 0.0000 0.0000
# 4 0.0000 0.0000 0.0000 16.9688 0.0000 0.0000
# 5 0.0000 0.0000 0.0000 0.0000 117.5403 0.0000
# 6 0.0000 0.0000 0.0000 0.0000 0.0000 42.9574
#
#
#
# Elastic Compliance Matrix: (Units=1/GPa)
#
#
# Indices 1 2 3 4 5 6 
#
# 1 0.008077 -0.001002 -0.000709 0.000000 0.000000 0.000000
# 2 -0.001002 0.008237 0.000109 0.000000 0.000000 0.000000
# 3 -0.000709 0.000109 0.014984 0.000000 0.000000 0.000000
# 4 0.000000 0.000000 0.000000 0.058932 0.000000 0.000000
# 5 0.000000 0.000000 0.000000 0.000000 0.008508 0.000000
# 6 0.000000 0.000000 0.000000 0.000000 0.000000 0.023279
#
#
# Mechanical properties :
#
#
# Convention : Reuss Voigt Hill
#
# Bulk Modulus (GPa) = 35.59310 39.82245 37.70778
# Shear Modulus (GPa) = 37.15121 55.19521 46.17321
#
# Velocity S-wave (km/s) = 4.05992 4.94860 4.52612
# Velocity P-wave (km/s) = 6.14565 7.09363 6.63659
#
# Compressibility (1/GPa) = 0.02809533
#
# Stress axis : x y z
#
# Youngs Moduli (GPa) = 123.80245 121.39637 66.73963
#
# Poissons Ratio (x) = 0.12164 0.04731
# Poissons Ratio (y) = 0.12405 -0.00730
# Poissons Ratio (z) = 0.08777 -0.01328
#
# Static dielectric constant tensor:
#      x y z
#    x 1.832130 0.000000 0.000000 
#    y 0.000000 1.824510 0.000000 
#    z 0.000000 0.000000 1.798390 
# 
# From -- ./inp_files/4146.got.cif
#   From: 2010.05.17/outbox.cif.g08.bks.cpg/sg59_3_cif.got.tgz:4146.got - 2010.06.03 14:40:33.
