data_PCOD9452874
_publ_section_title
;
Structure prediction by ZEFSAII (Michael W. Deem and Ramdas Pophale) SiO2 
 PCOD9452874
Probable space group: P M M N
;
_chemical_formula_sum "Si O2"
_cell_formula_units_Z 48
_cell_length_a 17.480495
_cell_length_b 10.333558
_cell_length_c 14.910905
_cell_angle_alpha 90.000000
_cell_angle_beta 90.000000
_cell_angle_gamma 90.000000
_cell_volume 2693.441896
_symmetry_space_group_name_H-M "P M M N"
_symmetry_group_IT_number 59
_space_group.IT_coordinate_system_code '2'
_symmetry_cell_setting 'orthorhombic'
loop_
_space_group_symop_operation_xyz
x,y,z
1/2-x,1/2-y,z
1/2+x,-y,-z
-x,1/2+y,-z
-x,-y,-z
1/2+x,1/2+y,-z
1/2-x,y,z
x,1/2-y,z
loop_
_atom_site_type_symbol
_atom_site_label
_atom_site_fract_x
_atom_site_fract_y
_atom_site_fract_z
Si Si1 0.093885 0.004954 0.632536
Si Si2 0.660941 0.250000 0.452708
Si Si3 0.987452 0.595678 0.082874
Si Si4 0.837360 0.250000 0.667082
Si Si5 0.841338 0.750000 0.689670
Si Si6 0.433318 0.507720 0.267365
Si Si7 0.158402 0.250000 0.526854
Si Si8 0.335367 0.098936 0.811445
O O1 0.117531 0.125275 0.569976
O O2 0.142401 0.018235 0.724155
O O3 0.006208 0.004007 0.665358
O O4 0.117793 0.875418 0.582972
O O5 0.750000 0.250000 0.423374
O O6 0.660729 0.250000 0.559759
O O7 0.003250 0.750000 0.067192
O O8 0.035035 0.544223 0.168816
O O9 0.899111 0.584016 0.113230
O O10 0.000000 0.500000 0.000000
O O11 0.750000 0.250000 0.697248
O O12 0.879699 0.376227 0.701717
O O13 0.750000 0.750000 0.710208
O O14 0.885331 0.624272 0.727020
O O15 0.848153 0.750000 0.580924
O O16 0.250000 0.250000 0.548563
O O17 0.250000 0.069923 0.842290
O O18 0.338738 0.250000 0.782837
#
# Coordination Sequence:
#
# PCOD9452874 Si02
#       8
#     8   4   8   4   4   8   4   8
#     4  11  21  34  57  87 118 157 199 250 298 349
#     4  11  23  35  51  83 124 166 203 238 295 346
#     4  10  22  41  67  91 117 151 187 237 301 364
#     4  11  23  41  60  79 119 168 204 246 293 351
#     4  11  25  41  58  85 121 164 210 256 293 339
#     4  11  23  41  62  88 117 153 206 248 306 365
#     4  11  21  35  57  85 120 162 209 250 291 346
#     4   9  17  34  60  87 116 149 187 231 285 351
#
# _framework density 17.821064
#
# number of rings (size 3 to 8) (size 9 to 14) (size 15 to 20)
#    0.000    1.500    1.667    4.000    1.167    6.667 
#    1.500    1.667    0.000    0.000    0.000    0.000 
#    0.000    0.000    0.000    0.000    0.000    0.000 
#
# Total GULP energy -268099.389744 kJ/mol
# GULP energy per Si atom -5585.403953 kJ/mol
# Density = 1.778050 g / cm^3
# Si number density = 17.821064 Si / 1000 Ang^3
#
#
#
# Elastic Constant Matrix: (Units=GPa)
#
#
# Indices 1 2 3 4 5 6 
#
# 1 161.9080 91.4963 63.9365 0.0000 0.0000 0.0000
# 2 91.4963 179.2039 61.6504 0.0000 0.0000 0.0000
# 3 63.9365 61.6504 79.5587 0.0000 0.0000 0.0000
# 4 0.0000 0.0000 0.0000 18.5046 0.0000 0.0000
# 5 0.0000 0.0000 0.0000 0.0000 5.0243 0.0000
# 6 0.0000 0.0000 0.0000 0.0000 0.0000 69.9031
#
#
#
# Elastic Compliance Matrix: (Units=1/GPa)
#
#
# Indices 1 2 3 4 5 6 
#
# 1 0.010295 -0.003286 -0.005727 0.000000 0.000000 0.000000
# 2 -0.003286 0.008657 -0.004068 0.000000 0.000000 0.000000
# 3 -0.005727 -0.004068 0.020324 0.000000 0.000000 0.000000
# 4 0.000000 0.000000 0.000000 0.054041 0.000000 0.000000
# 5 0.000000 0.000000 0.000000 0.000000 0.199033 0.000000
# 6 0.000000 0.000000 0.000000 0.000000 0.000000 0.014306
#
#
# Mechanical properties :
#
#
# Convention : Reuss Voigt Hill
#
# Bulk Modulus (GPa) = 76.25178 94.98191 85.61684
# Shear Modulus (GPa) = 14.82846 32.25888 23.54367
#
# Velocity S-wave (km/s) = 2.88770 4.25921 3.63866
# Velocity P-wave (km/s) = 7.34838 8.80915 8.11171
#
# Compressibility (1/GPa) = 0.01311445
#
# Stress axis : x y z
#
# Youngs Moduli (GPa) = 97.13557 115.50741 49.20288
#
# Poissons Ratio (x) = 0.37956 0.28178
# Poissons Ratio (y) = 0.31919 0.20015
# Poissons Ratio (z) = 0.55630 0.46987
#
# Static dielectric constant tensor:
#      x y z
#    x 1.581910 0.000000 0.000000 
#    y 0.000000 1.580500 0.000000 
#    z 0.000000 0.000000 1.587650 
# 
# From -- ./inp_files/23810.got.cif
#   From: 2010.05.17/outbox.cif.g08.bks.cpg/sg59_12_cif.got.tgz:23810.got - 2010.06.03 14:40:33.
