data_PCOD9452665
_publ_section_title
;
Structure prediction by ZEFSAII (Michael W. Deem and Ramdas Pophale) SiO2 
 PCOD9452665
Probable space group: P M M N
;
_chemical_formula_sum "Si O2"
_cell_formula_units_Z 52
_cell_length_a 18.238507
_cell_length_b 9.943282
_cell_length_c 14.502248
_cell_angle_alpha 90.000000
_cell_angle_beta 90.000000
_cell_angle_gamma 90.000000
_cell_volume 2629.991642
_symmetry_space_group_name_H-M "P M M N"
_symmetry_group_IT_number 59
_space_group.IT_coordinate_system_code '2'
_symmetry_cell_setting 'orthorhombic'
loop_
_space_group_symop_operation_xyz
x,y,z
1/2-x,1/2-y,z
1/2+x,-y,-z
-x,1/2+y,-z
-x,-y,-z
1/2+x,1/2+y,-z
1/2-x,y,z
x,1/2-y,z
loop_
_atom_site_type_symbol
_atom_site_label
_atom_site_fract_x
_atom_site_fract_y
_atom_site_fract_z
Si Si1 0.335051 0.750000 0.573742
Si Si2 0.578816 0.979482 0.673815
Si Si3 0.559861 0.900753 0.885010
Si Si4 0.334412 0.750000 0.351430
Si Si5 0.893180 0.095141 0.038184
Si Si6 0.913216 0.527085 0.374287
Si Si7 0.118570 0.250000 0.468577
Si Si8 0.666605 0.598666 0.188799
O O1 0.250000 0.750000 0.603780
O O2 0.336743 0.750000 0.462956
O O3 0.376589 0.617536 0.607959
O O4 0.563332 0.926015 0.776284
O O5 0.618160 0.868061 0.611647
O O6 0.624648 0.115989 0.680119
O O7 0.500818 0.011550 0.625520
O O8 0.587341 0.750000 0.905767
O O9 0.475482 0.906008 0.918933
O O10 0.602238 0.014104 0.942626
O O11 0.250000 0.750000 0.322191
O O12 0.870618 0.250000 0.027573
O O13 0.845424 0.011265 0.110389
O O14 0.887289 0.632516 0.450727
O O15 0.887699 0.574915 0.273626
O O16 0.750000 0.590668 0.224227
O O17 0.654579 0.750000 0.152008
#
# Coordination Sequence:
#
# PCOD9452665 Si02
#       8
#     4   8   8   4   8   8   4   8
#     4  11  25  43  62  92 143 189 213 270 343 400
#     4  12  24  41  71  98 132 179 229 288 335 400
#     4  10  21  40  66  98 133 167 221 278 337 390
#     4  11  27  47  62  91 134 176 224 284 359 402
#     4  10  22  40  64  99 132 172 216 277 331 407
#     4  12  24  41  65 101 136 180 231 276 332 407
#     4  12  24  40  63 101 132 171 233 290 320 390
#     4  11  24  42  64  96 137 177 217 273 339 406
#
# _framework density 19.771927000000002
#
# number of rings (size 3 to 8) (size 9 to 14) (size 15 to 20)
#    0.000    0.923    4.615    2.308    4.308    0.923 
#    0.000    2.692    0.000    0.923    0.000    0.000 
#    0.000    0.000    0.000    0.000    0.000    0.000 
#
# Total GULP energy -289646.421997 kJ/mol
# GULP energy per Si atom -5570.123500 kJ/mol
# Density = 1.972693 g / cm^3
# Si number density = 19.771927 Si / 1000 Ang^3
#
#
#
# Elastic Constant Matrix: (Units=GPa)
#
#
# Indices 1 2 3 4 5 6 
#
# 1 51.9864 35.1527 -12.1857 0.0000 0.0000 0.0000
# 2 35.1527 193.8277 33.5077 0.0000 0.0000 0.0000
# 3 -12.1857 33.5077 84.3605 0.0000 0.0000 0.0000
# 4 0.0000 0.0000 0.0000 42.7646 0.0000 0.0000
# 5 0.0000 0.0000 0.0000 0.0000 16.3140 0.0000
# 6 0.0000 0.0000 0.0000 0.0000 0.0000 26.6139
#
#
#
# Elastic Compliance Matrix: (Units=1/GPa)
#
#
# Indices 1 2 3 4 5 6 
#
# 1 0.024174 -0.005356 0.005619 0.000000 0.000000 0.000000
# 2 -0.005356 0.006726 -0.003445 0.000000 0.000000 0.000000
# 3 0.005619 -0.003445 0.014034 0.000000 0.000000 0.000000
# 4 0.000000 0.000000 0.000000 0.023384 0.000000 0.000000
# 5 0.000000 0.000000 0.000000 0.000000 0.061297 0.000000
# 6 0.000000 0.000000 0.000000 0.000000 0.000000 0.037574
#
#
# Mechanical properties :
#
#
# Convention : Reuss Voigt Hill
#
# Bulk Modulus (GPa) = 25.92617 49.23601 37.58109
# Shear Modulus (GPa) = 26.82258 35.38517 31.10388
#
# Velocity S-wave (km/s) = 3.68720 4.23504 3.97058
# Velocity P-wave (km/s) = 5.59181 6.99071 6.33002
#
# Compressibility (1/GPa) = 0.03857107
#
# Stress axis : x y z
#
# Youngs Moduli (GPa) = 41.36611 148.67426 71.25564
#
# Poissons Ratio (x) = 0.79625 -0.40040
# Poissons Ratio (y) = 0.22154 0.24549
# Poissons Ratio (z) = -0.23244 0.51221
#
# Static dielectric constant tensor:
#      x y z
#    x 1.700900 0.000000 0.000000 
#    y 0.000000 1.661460 0.000000 
#    z 0.000000 0.000000 1.668050 
# 
# From -- ./inp_files/24163.got.cif
#   From: 2010.05.17/outbox.cif.g08.bks.cpg/sg59_13_cif.got.tgz:24163.got - 2010.06.03 14:40:33.
