data_PCOD9452257
_publ_section_title
;
Structure prediction by ZEFSAII (Michael W. Deem and Ramdas Pophale) SiO2 
 PCOD9452257
Probable space group: P M M N
;
_chemical_formula_sum "Si O2"
_cell_formula_units_Z 64
_cell_length_a 31.609592
_cell_length_b 8.918814
_cell_length_c 12.409726
_cell_angle_alpha 90.000000
_cell_angle_beta 90.000000
_cell_angle_gamma 90.000000
_cell_volume 3498.550843
_symmetry_space_group_name_H-M "P M M N"
_symmetry_group_IT_number 59
_space_group.IT_coordinate_system_code '2'
_symmetry_cell_setting 'orthorhombic'
loop_
_space_group_symop_operation_xyz
x,y,z
1/2-x,1/2-y,z
1/2+x,-y,-z
-x,1/2+y,-z
-x,-y,-z
1/2+x,1/2+y,-z
1/2-x,y,z
x,1/2-y,z
loop_
_atom_site_type_symbol
_atom_site_label
_atom_site_fract_x
_atom_site_fract_y
_atom_site_fract_z
Si Si1 0.633449 0.928356 0.101529
Si Si2 0.123131 0.070356 0.375063
Si Si3 0.559546 0.071441 0.245715
Si Si4 0.604157 0.928764 0.864565
Si Si5 0.013600 0.571869 0.113665
Si Si6 0.453088 0.928920 0.506804
Si Si7 0.699663 0.422446 0.245366
Si Si8 0.798770 0.569148 0.475935
O O1 0.629960 0.750000 0.114370
O O2 0.596448 0.004798 0.171557
O O3 0.676549 0.988279 0.151713
O O4 0.628349 0.963514 0.975252
O O5 0.118452 0.250000 0.388828
O O6 0.127373 0.040701 0.247795
O O7 0.165245 0.023189 0.439393
O O8 0.080857 0.995196 0.423053
O O9 0.557126 0.250000 0.230105
O O10 0.564743 0.041575 0.372574
O O11 0.516486 0.995800 0.205043
O O12 0.593939 0.750000 0.867147
O O13 0.561241 0.022484 0.865036
O O14 0.008942 0.750000 0.108499
O O15 0.000000 0.500000 0.000000
O O16 0.456714 0.750000 0.492251
O O17 0.500000 0.000000 0.500000
O O18 0.750000 0.425227 0.231225
O O19 0.685053 0.250000 0.246347
O O20 0.690574 0.497809 0.360516
O O21 0.750000 0.526974 0.503557
O O22 0.799719 0.750000 0.466799
#
# Coordination Sequence:
#
# PCOD9452257 Si02
#       8
#     8   8   8   8   8   8   8   8
#     4  11  22  36  57  83 111 145 186 230 277 332
#     4  10  21  38  59  83 116 154 190 237 291 342
#     4  11  23  38  57  82 113 146 185 234 283 332
#     4  10  22  39  56  80 114 151 192 236 282 335
#     4  12  23  36  56  81 110 148 192 237 283 334
#     4  11  24  39  56  81 113 150 191 237 286 341
#     4  10  21  37  58  84 115 147 179 226 286 340
#     4   9  18  35  61  90 116 146 188 234 284 345
#
# _framework density 18.293289000000001
#
# number of rings (size 3 to 8) (size 9 to 14) (size 15 to 20)
#    0.000    1.500    1.250    4.125    0.000    9.250 
#    0.000    0.625    0.000    2.250    0.000    1.750 
#    0.000    0.000    0.000    0.000    0.000    0.000 
#
# Total GULP energy -357614.857037 kJ/mol
# GULP energy per Si atom -5587.732141 kJ/mol
# Density = 1.825165 g / cm^3
# Si number density = 18.293289 Si / 1000 Ang^3
#
#
#
# Elastic Constant Matrix: (Units=GPa)
#
#
# Indices 1 2 3 4 5 6 
#
# 1 74.9108 34.6903 62.3896 0.0000 0.0000 0.0000
# 2 34.6903 58.8961 61.4950 0.0000 0.0000 0.0000
# 3 62.3896 61.4950 139.3364 0.0000 0.0000 0.0000
# 4 0.0000 0.0000 0.0000 18.4327 0.0000 0.0000
# 5 0.0000 0.0000 0.0000 0.0000 33.9652 0.0000
# 6 0.0000 0.0000 0.0000 0.0000 0.0000 28.7398
#
#
#
# Elastic Compliance Matrix: (Units=1/GPa)
#
#
# Indices 1 2 3 4 5 6 
#
# 1 0.022044 -0.004967 -0.007679 0.000000 0.000000 0.000000
# 2 -0.004967 0.032610 -0.012168 0.000000 0.000000 0.000000
# 3 -0.007679 -0.012168 0.015985 0.000000 0.000000 0.000000
# 4 0.000000 0.000000 0.000000 0.054252 0.000000 0.000000
# 5 0.000000 0.000000 0.000000 0.000000 0.029442 0.000000
# 6 0.000000 0.000000 0.000000 0.000000 0.000000 0.034795
#
#
# Mechanical properties :
#
#
# Convention : Reuss Voigt Hill
#
# Bulk Modulus (GPa) = 47.59117 65.58813 56.58965
# Shear Modulus (GPa) = 20.34517 23.86542 22.10529
#
# Velocity S-wave (km/s) = 3.33853 3.61584 3.47995
# Velocity P-wave (km/s) = 6.39791 7.30506 6.86648
#
# Compressibility (1/GPa) = 0.02101230
#
# Stress axis : x y z
#
# Youngs Moduli (GPa) = 45.36288 30.66588 62.55772
#
# Poissons Ratio (x) = 0.15232 0.48035
# Poissons Ratio (y) = 0.22532 0.76120
# Poissons Ratio (z) = 0.34832 0.37314
#
# Static dielectric constant tensor:
#      x y z
#    x 1.623110 0.000000 0.000000 
#    y 0.000000 1.617930 0.000000 
#    z 0.000000 0.000000 1.635860 
# 
# From -- ./inp_files/19229.got.cif
#   From: 2010.05.17/outbox.cif.g08.bks.cpg/sg59_10_cif.got.tgz:19229.got - 2010.06.03 14:40:33.
