data_PCOD9452807
_publ_section_title
;
Structure prediction by ZEFSAII (Michael W. Deem and Ramdas Pophale) SiO2 
 PCOD9452807
Probable space group: P M M N
;
_chemical_formula_sum "Si O2"
_cell_formula_units_Z 64
_cell_length_a 8.749295
_cell_length_b 14.977892
_cell_length_c 26.589681
_cell_angle_alpha 90.000000
_cell_angle_beta 90.000000
_cell_angle_gamma 90.000000
_cell_volume 3484.471219
_symmetry_space_group_name_H-M "P M M N"
_symmetry_group_IT_number 59
_space_group.IT_coordinate_system_code '2'
_symmetry_cell_setting 'orthorhombic'
loop_
_space_group_symop_operation_xyz
x,y,z
1/2-x,1/2-y,z
1/2+x,-y,-z
-x,1/2+y,-z
-x,-y,-z
1/2+x,1/2+y,-z
1/2-x,y,z
x,1/2-y,z
loop_
_atom_site_type_symbol
_atom_site_label
_atom_site_fract_x
_atom_site_fract_y
_atom_site_fract_z
Si Si1 0.431983 0.999627 0.788741
Si Si2 0.934981 0.354247 0.862574
Si Si3 0.434961 0.145817 0.137093
Si Si4 0.928897 0.849765 0.599975
Si Si5 0.933584 0.499771 0.944454
Si Si6 0.931821 0.001571 0.678132
Si Si7 0.431523 0.598875 0.496200
Si Si8 0.074325 0.147620 0.609015
O O1 0.250000 0.000057 0.792778
O O2 0.497882 0.912189 0.817112
O O3 0.498205 0.087430 0.816814
O O4 0.484422 0.999377 0.731175
O O5 0.750000 0.356402 0.859116
O O6 0.981852 0.250000 0.863600
O O7 0.978755 0.411950 0.912107
O O8 0.250000 0.143642 0.140668
O O9 0.481789 0.250000 0.135864
O O10 0.478496 0.087834 0.087682
O O11 0.750000 0.868384 0.587607
O O12 0.938735 0.750000 0.620496
O O13 0.022378 0.856070 0.548562
O O14 0.978568 0.920498 0.641456
O O15 0.750000 0.499599 0.947420
O O16 0.000000 0.500000 0.000000
O O17 0.750000 0.996277 0.686337
O O18 0.975272 0.088896 0.646591
O O19 0.500000 0.500000 0.500000
O O20 0.250000 0.597160 0.489989
O O21 0.507702 0.641625 0.447168
O O22 0.250000 0.115036 0.608491
O O23 0.073428 0.250000 0.625145
#
# Coordination Sequence:
#
# PCOD9452807 Si02
#       8
#     8   8   8   8   8   8   8   8
#     4  11  23  38  58  85 117 147 183 240 297 343
#     4   9  19  38  61  82 109 151 200 241 280 336
#     4   9  19  38  61  82 110 153 201 241 281 336
#     4  10  22  40  61  86 114 145 184 230 279 334
#     4   9  18  32  52  83 120 155 191 234 285 337
#     4  11  23  40  62  85 113 152 191 231 280 340
#     4  12  23  37  60  86 115 151 188 229 279 335
#     4  11  24  41  61  86 117 150 185 232 286 337
#
# _framework density 18.367205999999999
#
# number of rings (size 3 to 8) (size 9 to 14) (size 15 to 20)
#    0.000    1.750    1.250    4.125    0.000    7.250 
#    0.000    1.250    0.000    0.000    0.000    0.000 
#    0.000    0.000    0.000    0.000    0.000    0.000 
#
# Total GULP energy -357370.257029 kJ/mol
# GULP energy per Si atom -5583.910266 kJ/mol
# Density = 1.832540 g / cm^3
# Si number density = 18.367206 Si / 1000 Ang^3
#
#
#
# Elastic Constant Matrix: (Units=GPa)
#
#
# Indices 1 2 3 4 5 6 
#
# 1 33.5150 26.2202 21.5147 0.0000 0.0000 0.0000
# 2 26.2202 148.0430 63.0512 0.0000 0.0000 0.0000
# 3 21.5147 63.0512 134.3129 0.0000 0.0000 0.0000
# 4 0.0000 0.0000 0.0000 23.9028 0.0000 0.0000
# 5 0.0000 0.0000 0.0000 0.0000 34.6249 0.0000
# 6 0.0000 0.0000 0.0000 0.0000 0.0000 -3.0457
#
#
#
# Elastic Compliance Matrix: (Units=1/GPa)
#
#
# Indices 1 2 3 4 5 6 
#
# 1 0.035875 -0.004883 -0.003454 0.000000 0.000000 0.000000
# 2 -0.004883 0.009107 -0.003493 0.000000 0.000000 0.000000
# 3 -0.003454 -0.003493 0.009638 0.000000 0.000000 0.000000
# 4 0.000000 0.000000 0.000000 0.041836 0.000000 0.000000
# 5 0.000000 0.000000 0.000000 0.000000 0.028881 0.000000
# 6 0.000000 0.000000 0.000000 0.000000 0.000000 -0.328334
#
#
# Mechanical properties :
#
#
# Convention : Reuss Voigt Hill
#
# Bulk Modulus (GPa) = 32.29965 59.71590 46.00778
# Shear Modulus (GPa) = -29.58301 24.76873 -2.40714
#
# Velocity S-wave (km/s) = -4.01764 3.67622 -1.14604
# Velocity P-wave (km/s) = 1.97438 7.11353 4.83239
#
# Compressibility (1/GPa) = 0.03096009
#
# Stress axis : x y z
#
# Youngs Moduli (GPa) = 27.87465 109.80203 103.75089
#
# Poissons Ratio (x) = 0.53612 0.35841
# Poissons Ratio (y) = 0.13610 0.36242
# Poissons Ratio (z) = 0.09629 0.38356
#
# Static dielectric constant tensor:
#      x y z
#    x 1.625090 0.000000 0.000000 
#    y 0.000000 1.824210 0.000000 
#    z 0.000000 0.000000 1.597650 
# 
# From -- ./inp_files/31426.got.cif
#   From: 2010.05.17/outbox.cif.g08.bks.cpg/sg59_16_cif.got.tgz:31426.got - 2010.06.03 14:40:33.
