data_PCOD9452902
_publ_section_title
;
Structure prediction by ZEFSAII (Michael W. Deem and Ramdas Pophale) SiO2 
 PCOD9452902
Probable space group: P M M N
;
_chemical_formula_sum "Si O2"
_cell_formula_units_Z 48
_cell_length_a 8.550767
_cell_length_b 16.993717
_cell_length_c 16.614771
_cell_angle_alpha 90.000000
_cell_angle_beta 90.000000
_cell_angle_gamma 90.000000
_cell_volume 2414.280985
_symmetry_space_group_name_H-M "P M M N"
_symmetry_group_IT_number 59
_space_group.IT_coordinate_system_code '2'
_symmetry_cell_setting 'orthorhombic'
loop_
_space_group_symop_operation_xyz
x,y,z
1/2-x,1/2-y,z
1/2+x,-y,-z
-x,1/2+y,-z
-x,-y,-z
1/2+x,1/2+y,-z
1/2-x,y,z
x,1/2-y,z
loop_
_atom_site_type_symbol
_atom_site_label
_atom_site_fract_x
_atom_site_fract_y
_atom_site_fract_z
Si Si1 0.566512 0.043506 0.230862
Si Si2 0.433666 0.614646 0.298536
Si Si3 0.938264 0.078200 0.045720
Si Si4 0.562311 0.087494 0.517198
Si Si5 0.429427 0.157904 0.358391
Si Si6 0.070171 0.250000 0.808474
Si Si7 0.935297 0.250000 0.983196
O O1 0.750000 0.021894 0.232680
O O2 0.525872 0.068370 0.140254
O O3 0.533727 0.112471 0.294018
O O4 0.464739 0.970499 0.260894
O O5 0.250000 0.634773 0.294159
O O6 0.480605 0.612693 0.392336
O O7 0.531121 0.675464 0.246350
O O8 0.750000 0.077854 0.035831
O O9 0.995760 0.164906 0.016104
O O10 0.000000 0.000000 0.000000
O O11 0.750000 0.087497 0.511818
O O12 0.491138 0.141509 0.447895
O O13 0.500000 0.000000 0.500000
O O14 0.250000 0.129110 0.352717
O O15 0.432277 0.250000 0.341795
O O16 0.250000 0.250000 0.833899
O O17 0.965462 0.250000 0.888081
O O18 0.750000 0.250000 0.000874
#
# Coordination Sequence:
#
# PCOD9452902 Si02
#       7
#     8   8   8   8   8   4   4
#     4  11  23  40  66  96 126 163 211 261 314 375
#     4  11  24  42  64  92 127 168 211 255 314 379
#     4  10  23  41  65  95 127 164 210 260 318 383
#     4  11  23  40  64  90 122 162 210 258 310 372
#     4  11  25  42  61  90 128 168 213 260 313 371
#     4  12  26  42  64  95 128 161 210 265 312 369
#     4  10  22  44  68  91 126 169 208 257 320 387
#
# _framework density 19.881694
#
# number of rings (size 3 to 8) (size 9 to 14) (size 15 to 20)
#    0.000    1.167    1.667    3.750    2.333    8.000 
#    0.000    0.000    0.000    0.000    0.000    0.000 
#    0.000    0.000    0.000    0.000    0.000    0.000 
#
# Total GULP energy -268307.757702 kJ/mol
# GULP energy per Si atom -5589.744952 kJ/mol
# Density = 1.983644 g / cm^3
# Si number density = 19.881694 Si / 1000 Ang^3
#
#
#
# Elastic Constant Matrix: (Units=GPa)
#
#
# Indices 1 2 3 4 5 6 
#
# 1 18.8899 4.4548 6.3258 0.0000 0.0000 0.0000
# 2 4.4548 107.4858 44.0604 0.0000 0.0000 0.0000
# 3 6.3258 44.0604 118.8075 0.0000 0.0000 0.0000
# 4 0.0000 0.0000 0.0000 -20.9499 0.0000 0.0000
# 5 0.0000 0.0000 0.0000 0.0000 25.3934 0.0000
# 6 0.0000 0.0000 0.0000 0.0000 0.0000 9.0975
#
#
#
# Elastic Compliance Matrix: (Units=1/GPa)
#
#
# Indices 1 2 3 4 5 6 
#
# 1 0.054042 -0.001250 -0.002414 0.000000 0.000000 0.000000
# 2 -0.001250 0.011000 -0.004013 0.000000 0.000000 0.000000
# 3 -0.002414 -0.004013 0.010034 0.000000 0.000000 0.000000
# 4 0.000000 0.000000 0.000000 -0.047733 0.000000 0.000000
# 5 0.000000 0.000000 0.000000 0.000000 0.039380 0.000000
# 6 0.000000 0.000000 0.000000 0.000000 0.000000 0.109920
#
#
# Mechanical properties :
#
#
# Convention : Reuss Voigt Hill
#
# Bulk Modulus (GPa) = 16.74435 39.42946 28.08690
# Shear Modulus (GPa) = 23.59553 15.39768 19.49661
#
# Velocity S-wave (km/s) = 3.44873 2.78594 3.13490
# Velocity P-wave (km/s) = 4.92936 5.49761 5.22122
#
# Compressibility (1/GPa) = 0.05972165
#
# Stress axis : x y z
#
# Youngs Moduli (GPa) = 18.50426 90.90609 99.66392
#
# Poissons Ratio (x) = 0.11367 0.24056
# Poissons Ratio (y) = 0.02314 0.39995
# Poissons Ratio (z) = 0.04466 0.36480
#
# Static dielectric constant tensor:
#      x y z
#    x 1.705780 0.000000 0.000000 
#    y 0.000000 1.672350 0.000000 
#    z 0.000000 0.000000 1.647720 
# 
# From -- ./inp_files/20578.got.cif
#   From: 2010.05.17/outbox.cif.g08.bks.cpg/sg59_11_cif.got.tgz:20578.got - 2010.06.03 14:40:33.
