data_PCOD9452375
_publ_section_title
;
Structure prediction by ZEFSAII (Michael W. Deem and Ramdas Pophale) SiO2 
 PCOD9452375
Probable space group: P M M N
;
_chemical_formula_sum "Si O2"
_cell_formula_units_Z 64
_cell_length_a 8.030208
_cell_length_b 19.328479
_cell_length_c 21.716860
_cell_angle_alpha 90.000000
_cell_angle_beta 90.000000
_cell_angle_gamma 90.000000
_cell_volume 3370.710905
_symmetry_space_group_name_H-M "P M M N"
_symmetry_group_IT_number 59
_space_group.IT_coordinate_system_code '2'
_symmetry_cell_setting 'orthorhombic'
loop_
_space_group_symop_operation_xyz
x,y,z
1/2-x,1/2-y,z
1/2+x,-y,-z
-x,1/2+y,-z
-x,-y,-z
1/2+x,1/2+y,-z
1/2-x,y,z
x,1/2-y,z
loop_
_atom_site_type_symbol
_atom_site_label
_atom_site_fract_x
_atom_site_fract_y
_atom_site_fract_z
Si Si1 0.049281 0.829471 0.120263
Si Si2 0.951175 0.079675 0.995577
Si Si3 0.948487 0.672812 0.751240
Si Si4 0.049133 0.828989 0.890808
Si Si5 0.051060 0.673480 0.380081
Si Si6 0.950745 0.467066 0.564369
Si Si7 0.947192 0.608821 0.251544
Si Si8 0.048182 0.466923 0.307991
O O1 0.250000 0.827007 0.115927
O O2 0.988720 0.750000 0.114577
O O3 0.988929 0.879428 0.065226
O O4 0.005612 0.860992 0.186609
O O5 0.750000 0.083388 0.994954
O O6 0.010218 0.119461 0.056643
O O7 0.000000 0.000000 0.000000
O O8 0.750000 0.675756 0.740892
O O9 0.016996 0.750000 0.738269
O O10 0.014742 0.608078 0.712676
O O11 0.978152 0.657876 0.823221
O O12 0.250000 0.833605 0.886518
O O13 0.007716 0.750000 0.908228
O O14 0.250000 0.676660 0.389083
O O15 0.981265 0.750000 0.391154
O O16 0.986908 0.611117 0.422930
O O17 0.022296 0.650411 0.309518
O O18 0.750000 0.465170 0.566739
O O19 0.007333 0.511510 0.623539
O O20 0.000000 0.500000 0.500000
O O21 0.750000 0.615345 0.255191
O O22 0.995271 0.528676 0.262362
O O23 0.250000 0.465858 0.307593
#
# Coordination Sequence:
#
# PCOD9452375 Si02
#       8
#     8   8   8   8   8   8   8   8
#     4  10  21  38  57  74  99 140 180 209 252 319
#     4  10  22  37  53  74 100 133 173 215 258 307
#     4   9  18  33  55  80 102 129 171 219 260 302
#     4   9  18  34  54  74  99 131 167 210 260 311
#     4   9  18  35  57  78 104 141 181 215 255 314
#     4   9  18  33  53  77 105 139 176 211 250 298
#     4  11  22  33  51  81 111 135 168 219 270 309
#     4   9  19  36  55  75 105 144 179 210 253 314
#
# _framework density 18.987093000000002
#
# number of rings (size 3 to 8) (size 9 to 14) (size 15 to 20)
#    0.000    2.500    0.000    2.625    1.750    7.000 
#    0.000    0.625    0.000    3.000    0.000    0.000 
#    0.000    0.000    0.000    0.000    0.000    0.000 
#
# Total GULP energy -357051.193628 kJ/mol
# GULP energy per Si atom -5578.924900 kJ/mol
# Density = 1.894388 g / cm^3
# Si number density = 18.987093 Si / 1000 Ang^3
#
#
#
# Elastic Constant Matrix: (Units=GPa)
#
#
# Indices 1 2 3 4 5 6 
#
# 1 10.3297 9.2776 3.2182 0.0000 0.0000 0.0000
# 2 9.2776 200.2961 114.6214 0.0000 0.0000 0.0000
# 3 3.2182 114.6214 99.6583 0.0000 0.0000 0.0000
# 4 0.0000 0.0000 0.0000 22.0036 0.0000 0.0000
# 5 0.0000 0.0000 0.0000 0.0000 22.9129 0.0000
# 6 0.0000 0.0000 0.0000 0.0000 0.0000 16.7269
#
#
#
# Elastic Compliance Matrix: (Units=1/GPa)
#
#
# Indices 1 2 3 4 5 6 
#
# 1 0.102337 -0.008335 0.006282 0.000000 0.000000 0.000000
# 2 -0.008335 0.015285 -0.017311 0.000000 0.000000 0.000000
# 3 0.006282 -0.017311 0.029741 0.000000 0.000000 0.000000
# 4 0.000000 0.000000 0.000000 0.045447 0.000000 0.000000
# 5 0.000000 0.000000 0.000000 0.000000 0.043643 0.000000
# 6 0.000000 0.000000 0.000000 0.000000 0.000000 0.059784
#
#
# Mechanical properties :
#
#
# Convention : Reuss Voigt Hill
#
# Bulk Modulus (GPa) = 9.20512 62.72429 35.96470
# Shear Modulus (GPa) = 13.47066 24.53982 19.00524
#
# Velocity S-wave (km/s) = 2.66647 3.59896 3.16722
# Velocity P-wave (km/s) = 3.78664 7.09767 5.68839
#
# Compressibility (1/GPa) = 0.10863520
#
# Stress axis : x y z
#
# Youngs Moduli (GPa) = 9.77163 65.42424 33.62343
#
# Poissons Ratio (x) = 0.54530 -0.21121
# Poissons Ratio (y) = 0.08145 0.58204
# Poissons Ratio (z) = -0.06138 1.13254
#
# Static dielectric constant tensor:
#      x y z
#    x 1.681440 0.000000 0.000000 
#    y 0.000000 1.706640 0.000000 
#    z 0.000000 0.000000 1.625980 
# 
# From -- ./inp_files/29473.got.cif
#   From: 2010.05.17/outbox.cif.g08.bks.cpg/sg59_15_cif.got.tgz:29473.got - 2010.06.03 14:40:33.
