data_PCOD9452847
_publ_section_title
;
Structure prediction by ZEFSAII (Michael W. Deem and Ramdas Pophale) SiO2 
 PCOD9452847
Probable space group: P M M N
;
_chemical_formula_sum "Si O2"
_cell_formula_units_Z 60
_cell_length_a 19.810224
_cell_length_b 23.671662
_cell_length_c 4.958384
_cell_angle_alpha 90.000000
_cell_angle_beta 90.000000
_cell_angle_gamma 90.000000
_cell_volume 2325.189188
_symmetry_space_group_name_H-M "P M M N"
_symmetry_group_IT_number 59
_space_group.IT_coordinate_system_code '2'
_symmetry_cell_setting 'orthorhombic'
loop_
_space_group_symop_operation_xyz
x,y,z
1/2-x,1/2-y,z
1/2+x,-y,-z
-x,1/2+y,-z
-x,-y,-z
1/2+x,1/2+y,-z
1/2-x,y,z
x,1/2-y,z
loop_
_atom_site_type_symbol
_atom_site_label
_atom_site_fract_x
_atom_site_fract_y
_atom_site_fract_z
Si Si1 0.990764 0.811417 0.065131
Si Si2 0.173553 0.859834 0.905838
Si Si3 0.513235 0.591554 0.689057
Si Si4 0.639684 0.534706 0.919076
Si Si5 0.383028 0.690071 0.403400
Si Si6 0.872634 0.464277 0.431451
Si Si7 0.118111 0.182813 0.556826
Si Si8 0.250000 0.377550 0.314873
O O1 0.001203 0.750000 0.931722
O O2 0.911142 0.815487 0.135796
O O3 0.038476 0.808890 0.328750
O O4 0.014522 0.867881 0.922207
O O5 0.250000 0.841211 0.899404
O O6 0.131455 0.818209 0.713971
O O7 0.166364 0.918274 0.746497
O O8 0.149403 0.856952 0.212718
O O9 0.563507 0.547181 0.822730
O O10 0.449522 0.560665 0.551798
O O11 0.564575 0.635742 0.548510
O O12 0.657883 0.483218 0.716072
O O13 0.690874 0.585088 0.849016
O O14 0.633952 0.518922 0.233198
O O15 0.353618 0.750000 0.314835
O O16 0.114061 0.250000 0.476291
O O17 0.190376 0.158005 0.480822
#
# Coordination Sequence:
#
# PCOD9452847 Si02
#       8
#     8   8   8   8   8   8   8   4
#     4  10  22  40  69 106 141 182 230 292 367 445
#     4  12  26  43  68  98 138 185 234 295 354 432
#     4  11  23  42  71 101 142 179 237 302 365 436
#     4  11  28  44  72 102 136 191 242 304 358 429
#     4  11  24  44  69 101 140 184 230 287 360 437
#     4  12  26  47  70 100 141 183 246 301 367 418
#     4  10  22  43  74 110 151 192 242 302 381 466
#     4  10  25  48  72 106 148 200 249 308 374 446
#
# _framework density 25.804349999999999
#
# number of rings (size 3 to 8) (size 9 to 14) (size 15 to 20)
#    0.000    1.067    1.333    3.800    7.467    1.600 
#    2.400    0.000    0.000    1.600    0.000    0.000 
#    0.000    0.000    0.000    0.000    0.000    0.000 
#
# Total GULP energy -334139.942482 kJ/mol
# GULP energy per Si atom -5568.999041 kJ/mol
# Density = 2.574562 g / cm^3
# Si number density = 25.804350 Si / 1000 Ang^3
#
#
#
# Elastic Constant Matrix: (Units=GPa)
#
#
# Indices 1 2 3 4 5 6 
#
# 1 144.7041 19.4570 18.6532 0.0000 0.0000 0.0000
# 2 19.4570 93.5913 20.3367 0.0000 0.0000 0.0000
# 3 18.6532 20.3367 78.8951 0.0000 0.0000 0.0000
# 4 0.0000 0.0000 0.0000 37.5765 0.0000 0.0000
# 5 0.0000 0.0000 0.0000 0.0000 18.3287 0.0000
# 6 0.0000 0.0000 0.0000 0.0000 0.0000 26.1181
#
#
#
# Elastic Compliance Matrix: (Units=1/GPa)
#
#
# Indices 1 2 3 4 5 6 
#
# 1 0.007253 -0.001203 -0.001405 0.000000 0.000000 0.000000
# 2 -0.001203 0.011518 -0.002685 0.000000 0.000000 0.000000
# 3 -0.001405 -0.002685 0.013699 0.000000 0.000000 0.000000
# 4 0.000000 0.000000 0.000000 0.026612 0.000000 0.000000
# 5 0.000000 0.000000 0.000000 0.000000 0.054559 0.000000
# 6 0.000000 0.000000 0.000000 0.000000 0.000000 0.038288
#
#
# Mechanical properties :
#
#
# Convention : Reuss Voigt Hill
#
# Bulk Modulus (GPa) = 45.69062 48.23159 46.96111
# Shear Modulus (GPa) = 29.44464 33.65423 31.54944
#
# Velocity S-wave (km/s) = 3.38164 3.61530 3.50042
# Velocity P-wave (km/s) = 5.74390 6.01324 5.88011
#
# Compressibility (1/GPa) = 0.02188633
#
# Stress axis : x y z
#
# Youngs Moduli (GPa) = 137.86508 86.81954 72.99665
#
# Poissons Ratio (x) = 0.10442 0.10256
# Poissons Ratio (y) = 0.16581 0.19597
# Poissons Ratio (z) = 0.19369 0.23308
#
# Static dielectric constant tensor:
#      x y z
#    x 1.937410 0.000000 0.000000 
#    y 0.000000 2.154080 0.000000 
#    z 0.000000 0.000000 2.111900 
# 
# From -- ./inp_files/3487.got.cif
#   From: 2010.05.17/outbox.cif.g08.bks.cpg/sg59_2_cif.got.tgz:3487.got - 2010.06.03 14:40:33.
