data_PCOD9452193
_publ_section_title
;
Structure prediction by ZEFSAII (Michael W. Deem and Ramdas Pophale) SiO2 
 PCOD9452193
Probable space group: P M M N
;
_chemical_formula_sum "Si O2"
_cell_formula_units_Z 48
_cell_length_a 8.861969
_cell_length_b 15.240287
_cell_length_c 19.499478
_cell_angle_alpha 90.000000
_cell_angle_beta 90.000000
_cell_angle_gamma 90.000000
_cell_volume 2633.579043
_symmetry_space_group_name_H-M "P M M N"
_symmetry_group_IT_number 59
_space_group.IT_coordinate_system_code '2'
_symmetry_cell_setting 'orthorhombic'
loop_
_space_group_symop_operation_xyz
x,y,z
1/2-x,1/2-y,z
1/2+x,-y,-z
-x,1/2+y,-z
-x,-y,-z
1/2+x,1/2+y,-z
1/2-x,y,z
x,1/2-y,z
loop_
_atom_site_type_symbol
_atom_site_label
_atom_site_fract_x
_atom_site_fract_y
_atom_site_fract_z
Si Si1 0.932311 0.853023 0.004665
Si Si2 0.932084 0.496718 0.738552
Si Si3 0.928365 0.847938 0.637349
Si Si4 0.070489 0.596735 0.496940
Si Si5 0.067791 0.502530 0.103272
Si Si6 0.574842 0.850461 0.355078
O O1 0.750000 0.852743 0.009387
O O2 0.980186 0.750000 0.002338
O O3 0.973497 0.913705 0.938615
O O4 0.998596 0.911403 0.066847
O O5 0.750000 0.491967 0.737335
O O6 0.976821 0.580260 0.692558
O O7 0.979157 0.503298 0.817548
O O8 0.999248 0.413115 0.700261
O O9 0.750000 0.862097 0.622307
O O10 0.945539 0.750000 0.665130
O O11 0.016864 0.856959 0.566382
O O12 0.250000 0.592501 0.493688
O O13 0.000000 0.500000 0.500000
O O14 0.007128 0.640152 0.428096
O O15 0.250000 0.509675 0.100216
O O16 0.750000 0.875060 0.364572
O O17 0.566855 0.750000 0.332493
#
# Coordination Sequence:
#
# PCOD9452193 Si02
#       6
#     8   8   8   8   8   8
#     4   9  18  34  57  83 111 145 184 224 270 325
#     4  10  21  37  57  81 112 149 184 225 278 333
#     4  10  21  37  57  82 111 144 184 230 281 336
#     4  12  23  37  59  83 109 144 187 235 285 332
#     4   9  19  35  55  82 113 145 184 227 271 322
#     4  11  24  40  58  81 110 147 189 233 281 332
#
# _framework density 18.226147000000001
#
# number of rings (size 3 to 8) (size 9 to 14) (size 15 to 20)
#    0.000    1.833    1.667    2.500    0.000    6.000 
#    0.000    6.667    0.000    0.000    0.000    4.667 
#    0.000    0.000    0.000    0.000    0.000    0.000 
#
# Total GULP energy -267936.490589 kJ/mol
# GULP energy per Si atom -5582.010221 kJ/mol
# Density = 1.818466 g / cm^3
# Si number density = 18.226147 Si / 1000 Ang^3
#
#
#
# Elastic Constant Matrix: (Units=GPa)
#
#
# Indices 1 2 3 4 5 6 
#
# 1 31.4826 29.1032 38.6862 0.0000 0.0000 0.0000
# 2 29.1032 125.9819 64.2678 0.0000 0.0000 0.0000
# 3 38.6862 64.2678 153.2275 0.0000 0.0000 0.0000
# 4 0.0000 0.0000 0.0000 -79.9842 0.0000 0.0000
# 5 0.0000 0.0000 0.0000 0.0000 27.4779 0.0000
# 6 0.0000 0.0000 0.0000 0.0000 0.0000 27.9561
#
#
#
# Elastic Compliance Matrix: (Units=1/GPa)
#
#
# Indices 1 2 3 4 5 6 
#
# 1 0.049898 -0.006489 -0.009877 0.000000 0.000000 0.000000
# 2 -0.006489 0.010942 -0.002951 0.000000 0.000000 0.000000
# 3 -0.009877 -0.002951 0.010258 0.000000 0.000000 0.000000
# 4 0.000000 0.000000 0.000000 -0.012502 0.000000 0.000000
# 5 0.000000 0.000000 0.000000 0.000000 0.036393 0.000000
# 6 0.000000 0.000000 0.000000 0.000000 0.000000 0.035770
#
#
# Mechanical properties :
#
#
# Convention : Reuss Voigt Hill
#
# Bulk Modulus (GPa) = 30.80224 63.86738 47.33481
# Shear Modulus (GPa) = 27.74490 6.99895 17.37193
#
# Velocity S-wave (km/s) = 3.90585 1.96173 3.09063
# Velocity P-wave (km/s) = 6.10553 6.34420 6.22601
#
# Compressibility (1/GPa) = 0.03246517
#
# Stress axis : x y z
#
# Youngs Moduli (GPa) = 20.04079 91.39014 97.48827
#
# Poissons Ratio (x) = 0.59300 0.96285
# Poissons Ratio (y) = 0.13004 0.28771
# Poissons Ratio (z) = 0.19793 0.26971
#
# Static dielectric constant tensor:
#      x y z
#    x 1.624310 0.000000 0.000000 
#    y 0.000000 1.628590 0.000000 
#    z 0.000000 0.000000 1.618290 
# 
# From -- ./inp_files/25455.got.cif
#   From: 2010.05.17/outbox.cif.g08.bks.cpg/sg59_13_cif.got.tgz:25455.got - 2010.06.03 14:40:33.
