data_PCOD9452249
_publ_section_title
;
Structure prediction by ZEFSAII (Michael W. Deem and Ramdas Pophale) SiO2 
 PCOD9452249
Probable space group: P M M N
;
_chemical_formula_sum "Si O2"
_cell_formula_units_Z 48
_cell_length_a 8.687131
_cell_length_b 9.167501
_cell_length_c 31.731572
_cell_angle_alpha 90.000000
_cell_angle_beta 90.000000
_cell_angle_gamma 90.000000
_cell_volume 2527.079615
_symmetry_space_group_name_H-M "P M M N"
_symmetry_group_IT_number 59
_space_group.IT_coordinate_system_code '2'
_symmetry_cell_setting 'orthorhombic'
loop_
_space_group_symop_operation_xyz
x,y,z
1/2-x,1/2-y,z
1/2+x,-y,-z
-x,1/2+y,-z
-x,-y,-z
1/2+x,1/2+y,-z
1/2-x,y,z
x,1/2-y,z
loop_
_atom_site_type_symbol
_atom_site_label
_atom_site_fract_x
_atom_site_fract_y
_atom_site_fract_z
Si Si1 0.434487 0.919317 0.291297
Si Si2 0.934584 0.919793 0.958977
Si Si3 0.564030 0.580927 0.459126
Si Si4 0.936007 0.920142 0.123041
Si Si5 0.935996 0.419843 0.209379
Si Si6 0.436114 0.919774 0.626775
O O1 0.250000 0.924186 0.291486
O O2 0.483876 0.750000 0.291089
O O3 0.496078 0.000058 0.249879
O O4 0.497204 0.999118 0.332737
O O5 0.750000 0.925649 0.960141
O O6 0.982169 0.750000 0.958822
O O7 0.994414 0.999183 0.917160
O O8 0.000000 0.000000 0.000000
O O9 0.500000 0.500000 0.500000
O O10 0.750000 0.576857 0.460619
O O11 0.515624 0.750000 0.458431
O O12 0.515517 0.499348 0.416332
O O13 0.750000 0.927470 0.120213
O O14 0.980172 0.750000 0.123736
O O15 0.982678 0.999474 0.166318
O O16 0.750000 0.425998 0.211964
O O17 0.981393 0.250000 0.208441
O O18 0.250000 0.925777 0.628975
O O19 0.481695 0.750000 0.626285
#
# Coordination Sequence:
#
# PCOD9452249 Si02
#       6
#     8   8   8   8   8   8
#     4  11  24  39  56  82 115 150 188 231 280 332
#     4  11  24  40  59  85 116 151 191 234 282 335
#     4  10  21  37  58  84 113 147 186 228 277 332
#     4  10  21  38  61  88 116 148 188 232 279 333
#     4  10  21  38  61  87 114 148 189 231 279 335
#     4  10  21  38  60  84 110 144 187 232 279 333
#
# _framework density 18.994257999999999
#
# number of rings (size 3 to 8) (size 9 to 14) (size 15 to 20)
#    0.000    1.667    0.000    4.000    0.000   12.000 
#    0.000    0.000    0.000    0.000    0.000    0.000 
#    0.000    0.000    0.000    0.000    0.000    0.000 
#
# Total GULP energy -268390.448584 kJ/mol
# GULP energy per Si atom -5591.467679 kJ/mol
# Density = 1.895103 g / cm^3
# Si number density = 18.994258 Si / 1000 Ang^3
#
#
#
# Elastic Constant Matrix: (Units=GPa)
#
#
# Indices 1 2 3 4 5 6 
#
# 1 15.9728 51.0773 45.6214 0.0000 0.0000 0.0000
# 2 51.0773 240.2619 150.7233 0.0000 0.0000 0.0000
# 3 45.6214 150.7233 241.2650 0.0000 0.0000 0.0000
# 4 0.0000 0.0000 0.0000 46.5245 0.0000 0.0000
# 5 0.0000 0.0000 0.0000 0.0000 37.8996 0.0000
# 6 0.0000 0.0000 0.0000 0.0000 0.0000 29.6642
#
#
#
# Elastic Compliance Matrix: (Units=1/GPa)
#
#
# Indices 1 2 3 4 5 6 
#
# 1 0.259238 -0.040059 -0.023994 0.000000 0.000000 0.000000
# 2 -0.040059 0.013035 -0.000568 0.000000 0.000000 0.000000
# 3 -0.023994 -0.000568 0.009037 0.000000 0.000000 0.000000
# 4 0.000000 0.000000 0.000000 0.021494 0.000000 0.000000
# 5 0.000000 0.000000 0.000000 0.000000 0.026385 0.000000
# 6 0.000000 0.000000 0.000000 0.000000 0.000000 0.033711
#
#
# Mechanical properties :
#
#
# Convention : Reuss Voigt Hill
#
# Bulk Modulus (GPa) = 6.57607 110.26039 58.41823
# Shear Modulus (GPa) = 9.21097 39.48953 24.35025
#
# Velocity S-wave (km/s) = 2.20451 4.56458 3.58436
# Velocity P-wave (km/s) = 3.15428 9.27124 6.92479
#
# Compressibility (1/GPa) = 0.15206641
#
# Stress axis : x y z
#
# Youngs Moduli (GPa) = 3.85746 76.71794 110.65770
#
# Poissons Ratio (x) = 3.07326 2.65512
# Poissons Ratio (y) = 0.15453 0.06288
# Poissons Ratio (z) = 0.09256 0.04359
#
# Static dielectric constant tensor:
#      x y z
#    x 1.649120 0.000000 0.000000 
#    y 0.000000 1.643020 0.000000 
#    z 0.000000 0.000000 1.605240 
# 
# From -- ./inp_files/32846.got.cif
#   From: 2010.05.17/outbox.cif.g08.bks.cpg/sg59_17_cif.got.tgz:32846.got - 2010.06.03 14:40:33.
