data_PCOD9452871
_publ_section_title
;
Structure prediction by ZEFSAII (Michael W. Deem and Ramdas Pophale) SiO2 
 PCOD9452871
Probable space group: P M M N
;
_chemical_formula_sum "Si O2"
_cell_formula_units_Z 48
_cell_length_a 28.395705
_cell_length_b 8.727159
_cell_length_c 10.296069
_cell_angle_alpha 90.000000
_cell_angle_beta 90.000000
_cell_angle_gamma 90.000000
_cell_volume 2551.508318
_symmetry_space_group_name_H-M "P M M N"
_symmetry_group_IT_number 59
_space_group.IT_coordinate_system_code '2'
_symmetry_cell_setting 'orthorhombic'
loop_
_space_group_symop_operation_xyz
x,y,z
1/2-x,1/2-y,z
1/2+x,-y,-z
-x,1/2+y,-z
-x,-y,-z
1/2+x,1/2+y,-z
1/2-x,y,z
x,1/2-y,z
loop_
_atom_site_type_symbol
_atom_site_label
_atom_site_fract_x
_atom_site_fract_y
_atom_site_fract_z
Si Si1 0.605522 0.432829 0.749945
Si Si2 0.250000 0.567179 0.612848
Si Si3 0.491209 0.067674 0.356362
Si Si4 0.354394 0.433752 0.985010
Si Si5 0.750000 0.934047 0.097950
Si Si6 0.345597 0.066921 0.497789
Si Si7 0.594906 0.432454 0.268605
O O1 0.606877 0.250000 0.744550
O O2 0.553583 0.490599 0.710643
O O3 0.640182 0.503036 0.641996
O O4 0.621451 0.491606 0.890312
O O5 0.250000 0.750000 0.604039
O O6 0.250000 0.516502 0.763137
O O7 0.204063 0.498116 0.545203
O O8 0.483065 0.250000 0.368035
O O9 0.538840 0.043485 0.273857
O O10 0.500000 0.000000 0.500000
O O11 0.358635 0.250000 0.991509
O O12 0.298658 0.471823 0.974953
O O13 0.379808 0.494085 0.855198
O O14 0.750000 0.750000 0.121045
O O15 0.345052 0.250000 0.497018
O O16 0.383531 0.006925 0.602081
O O17 0.603954 0.250000 0.270962
#
# Coordination Sequence:
#
# PCOD9452871 Si02
#       7
#     8   4   8   8   4   8   8
#     4  12  26  44  65  94 133 172 220 273 329 389
#     4  12  24  39  66  99 132 166 216 272 322 379
#     4  11  23  40  66  96 131 171 218 269 330 390
#     4  11  24  43  67  95 132 174 218 267 329 395
#     4  10  22  41  66  95 128 170 216 262 322 391
#     4  12  24  41  66  95 130 169 216 266 323 384
#     4  11  23  40  65  98 130 167 216 267 321 385
#
# _framework density 18.812401999999999
#
# number of rings (size 3 to 8) (size 9 to 14) (size 15 to 20)
#    0.000    0.667    3.333    5.250    0.000    4.000 
#    0.000    2.500    0.000    0.000    0.000    0.000 
#    0.000    0.000    0.000    0.000    0.000    0.000 
#
# Total GULP energy -268603.651193 kJ/mol
# GULP energy per Si atom -5595.909400 kJ/mol
# Density = 1.876958 g / cm^3
# Si number density = 18.812402 Si / 1000 Ang^3
#
#
#
# Elastic Constant Matrix: (Units=GPa)
#
#
# Indices 1 2 3 4 5 6 
#
# 1 97.4861 55.4872 14.9225 0.0000 0.0000 0.0000
# 2 55.4872 111.1388 17.6061 0.0000 0.0000 0.0000
# 3 14.9225 17.6061 70.9158 0.0000 0.0000 0.0000
# 4 0.0000 0.0000 0.0000 38.3604 0.0000 0.0000
# 5 0.0000 0.0000 0.0000 0.0000 33.0154 0.0000
# 6 0.0000 0.0000 0.0000 0.0000 0.0000 20.9246
#
#
#
# Elastic Compliance Matrix: (Units=1/GPa)
#
#
# Indices 1 2 3 4 5 6 
#
# 1 0.014444 -0.007005 -0.001300 0.000000 0.000000 0.000000
# 2 -0.007005 0.012764 -0.001695 0.000000 0.000000 0.000000
# 3 -0.001300 -0.001695 0.014796 0.000000 0.000000 0.000000
# 4 0.000000 0.000000 0.000000 0.026069 0.000000 0.000000
# 5 0.000000 0.000000 0.000000 0.000000 0.030289 0.000000
# 6 0.000000 0.000000 0.000000 0.000000 0.000000 0.047791
#
#
# Mechanical properties :
#
#
# Convention : Reuss Voigt Hill
#
# Bulk Modulus (GPa) = 45.44870 50.61915 48.03392
# Shear Modulus (GPa) = 28.82064 31.22841 30.02453
#
# Velocity S-wave (km/s) = 3.91833 4.07872 3.99933
# Velocity P-wave (km/s) = 6.68449 7.01049 6.84943
#
# Compressibility (1/GPa) = 0.02200283
#
# Stress axis : x y z
#
# Youngs Moduli (GPa) = 69.23147 78.34661 67.58785
#
# Poissons Ratio (x) = 0.54886 0.08788
# Poissons Ratio (y) = 0.48500 0.11454
# Poissons Ratio (z) = 0.09002 0.13277
#
# Static dielectric constant tensor:
#      x y z
#    x 1.644100 0.000000 0.000000 
#    y 0.000000 1.626720 0.000000 
#    z 0.000000 0.000000 1.604600 
# 
# From -- ./inp_files/13042.got.cif
#   From: 2010.05.17/outbox.cif.g08.bks.cpg/sg59_7_cif.got.tgz:13042.got - 2010.06.03 14:40:33.
