data_PCOD9452529
_publ_section_title
;
Structure prediction by ZEFSAII (Michael W. Deem and Ramdas Pophale) SiO2 
 PCOD9452529
Probable space group: P M M N
;
_chemical_formula_sum "Si O2"
_cell_formula_units_Z 56
_cell_length_a 20.274929
_cell_length_b 13.907778
_cell_length_c 10.322311
_cell_angle_alpha 90.000000
_cell_angle_beta 90.000000
_cell_angle_gamma 90.000000
_cell_volume 2910.677117
_symmetry_space_group_name_H-M "P M M N"
_symmetry_group_IT_number 59
_space_group.IT_coordinate_system_code '2'
_symmetry_cell_setting 'orthorhombic'
loop_
_space_group_symop_operation_xyz
x,y,z
1/2-x,1/2-y,z
1/2+x,-y,-z
-x,1/2+y,-z
-x,-y,-z
1/2+x,1/2+y,-z
1/2-x,y,z
x,1/2-y,z
loop_
_atom_site_type_symbol
_atom_site_label
_atom_site_fract_x
_atom_site_fract_y
_atom_site_fract_z
Si Si1 0.673207 0.865483 0.759404
Si Si2 0.392401 0.461310 0.993917
Si Si3 0.956263 0.133833 0.610765
Si Si4 0.823887 0.135667 0.469334
Si Si5 0.674041 0.532777 0.282951
Si Si6 0.972887 0.364835 0.910491
Si Si7 0.591341 0.865252 0.504927
O O1 0.750000 0.886017 0.729800
O O2 0.667590 0.750000 0.779772
O O3 0.626400 0.892057 0.638882
O O4 0.649260 0.920447 0.886769
O O5 0.352217 0.458444 0.861244
O O6 0.457649 0.396013 0.972874
O O7 0.417531 0.569241 0.023030
O O8 0.955445 0.250000 0.612063
O O9 0.884151 0.104750 0.561074
O O10 0.972410 0.105916 0.758158
O O11 0.015186 0.105398 0.513928
O O12 0.750000 0.115369 0.522111
O O13 0.828609 0.250000 0.448504
O O14 0.830219 0.075971 0.337313
O O15 0.750000 0.563375 0.290357
O O16 0.631302 0.594079 0.383396
O O17 0.962936 0.250000 0.920908
O O18 0.593602 0.750000 0.498535
#
# Coordination Sequence:
#
# PCOD9452529 Si02
#       7
#     8   8   8   8   8   8   8
#     4  10  22  40  61  88 124 164 205 251 304 364
#     4  11  23  39  61  89 120 164 202 249 303 366
#     4   9  18  36  62  88 116 153 199 252 302 354
#     4   9  20  38  59  86 121 159 201 250 303 360
#     4  11  23  38  59  89 121 158 201 246 301 362
#     4  10  22  40  60  87 122 158 202 254 306 362
#     4  10  21  38  61  90 121 153 196 253 307 357
#
# _framework density 19.239509999999999
#
# number of rings (size 3 to 8) (size 9 to 14) (size 15 to 20)
#    0.000    2.000    1.429    1.286    2.000    4.857 
#    0.000    2.143    0.000    2.143    0.000    0.000 
#    0.000    0.000    0.000    0.000    0.000    0.000 
#
# Total GULP energy -312711.960406 kJ/mol
# GULP energy per Si atom -5584.142150 kJ/mol
# Density = 1.919572 g / cm^3
# Si number density = 19.239510 Si / 1000 Ang^3
#
#
#
# Elastic Constant Matrix: (Units=GPa)
#
#
# Indices 1 2 3 4 5 6 
#
# 1 106.1290 30.1592 47.8674 0.0000 0.0000 0.0000
# 2 30.1592 89.0397 31.4004 0.0000 0.0000 0.0000
# 3 47.8674 31.4004 108.9560 0.0000 0.0000 0.0000
# 4 0.0000 0.0000 0.0000 27.1332 0.0000 0.0000
# 5 0.0000 0.0000 0.0000 0.0000 18.0655 0.0000
# 6 0.0000 0.0000 0.0000 0.0000 0.0000 13.8678
#
#
#
# Elastic Compliance Matrix: (Units=1/GPa)
#
#
# Indices 1 2 3 4 5 6 
#
# 1 0.012232 -0.002502 -0.004653 0.000000 0.000000 0.000000
# 2 -0.002502 0.013013 -0.002651 0.000000 0.000000 0.000000
# 3 -0.004653 -0.002651 0.011986 0.000000 0.000000 0.000000
# 4 0.000000 0.000000 0.000000 0.036855 0.000000 0.000000
# 5 0.000000 0.000000 0.000000 0.000000 0.055354 0.000000
# 6 0.000000 0.000000 0.000000 0.000000 0.000000 0.072110
#
#
# Mechanical properties :
#
#
# Convention : Reuss Voigt Hill
#
# Bulk Modulus (GPa) = 56.75573 58.10874 57.43224
# Shear Modulus (GPa) = 22.02292 24.79314 23.40803
#
# Velocity S-wave (km/s) = 3.38697 3.59368 3.49186
# Velocity P-wave (km/s) = 6.69769 6.89114 6.79510
#
# Compressibility (1/GPa) = 0.01761937
#
# Stress axis : x y z
#
# Youngs Moduli (GPa) = 81.75180 76.84357 83.42997
#
# Poissons Ratio (x) = 0.19229 0.38818
# Poissons Ratio (y) = 0.20458 0.22117
# Poissons Ratio (z) = 0.38037 0.20371
#
# Static dielectric constant tensor:
#      x y z
#    x 1.672540 0.000000 0.000000 
#    y 0.000000 1.676830 0.000000 
#    z 0.000000 0.000000 1.627730 
# 
# From -- ./inp_files/9324.got.cif
#   From: 2010.05.17/outbox.cif.g08.bks.cpg/sg59_5_cif.got.tgz:9324.got - 2010.06.03 14:40:33.
