data_PCOD9452145
_publ_section_title
;
Structure prediction by ZEFSAII (Michael W. Deem and Ramdas Pophale) SiO2 
 PCOD9452145
Probable space group: P M M N
;
_chemical_formula_sum "Si O2"
_cell_formula_units_Z 40
_cell_length_a 9.623679
_cell_length_b 8.603501
_cell_length_c 26.616861
_cell_angle_alpha 90.000000
_cell_angle_beta 90.000000
_cell_angle_gamma 90.000000
_cell_volume 2203.805074
_symmetry_space_group_name_H-M "P M M N"
_symmetry_group_IT_number 59
_space_group.IT_coordinate_system_code '2'
_symmetry_cell_setting 'orthorhombic'
loop_
_space_group_symop_operation_xyz
x,y,z
1/2-x,1/2-y,z
1/2+x,-y,-z
-x,1/2+y,-z
-x,-y,-z
1/2+x,1/2+y,-z
1/2-x,y,z
x,1/2-y,z
loop_
_atom_site_type_symbol
_atom_site_label
_atom_site_fract_x
_atom_site_fract_y
_atom_site_fract_z
Si Si1 0.411014 0.436247 0.953504
Si Si2 0.088162 0.435721 0.138052
Si Si3 0.913201 0.436444 0.752838
Si Si4 0.911758 0.562777 0.454059
Si Si5 0.911429 0.939316 0.342577
O O1 0.250000 0.489115 0.955536
O O2 0.411105 0.250000 0.955784
O O3 0.487245 0.490251 0.902849
O O4 0.500000 0.500000 0.000000
O O5 0.250000 0.484840 0.130010
O O6 0.083310 0.250000 0.133490
O O7 0.048237 0.485897 0.194396
O O8 0.750000 0.465538 0.744265
O O9 0.932205 0.250000 0.757837
O O10 0.999501 0.492569 0.704787
O O11 0.750000 0.517625 0.459205
O O12 0.917584 0.750000 0.454749
O O13 0.959534 0.510941 0.398255
O O14 0.000000 0.500000 0.500000
O O15 0.750000 0.982972 0.336972
O O16 0.916716 0.750000 0.342494
#
# Coordination Sequence:
#
# PCOD9452145 Si02
#       5
#     8   8   8   8   8
#     4  11  24  40  59  84 111 140 176 216 258 304
#     4  10  21  37  56  79 109 143 176 211 254 304
#     4   9  17  30  50  75 100 129 168 211 254 301
#     4   9  18  32  49  71  99 131 168 210 257 308
#     4   8  15  29  48  69  95 127 164 208 255 303
#
# _framework density 18.150426
#
# number of rings (size 3 to 8) (size 9 to 14) (size 15 to 20)
#    0.000    2.600    0.000    3.000    0.000    7.200 
#    0.000    5.000    0.000    3.600    0.000    0.000 
#    0.000    0.000    0.000    0.000    0.000    0.000 
#
# Total GULP energy -223119.634615 kJ/mol
# GULP energy per Si atom -5577.990865 kJ/mol
# Density = 1.810911 g / cm^3
# Si number density = 18.150426 Si / 1000 Ang^3
#
#
#
# Elastic Constant Matrix: (Units=GPa)
#
#
# Indices 1 2 3 4 5 6 
#
# 1 103.7148 32.5859 111.0831 0.0000 0.0000 0.0000
# 2 32.5859 19.6961 38.9828 0.0000 0.0000 0.0000
# 3 111.0831 38.9828 189.5682 0.0000 0.0000 0.0000
# 4 0.0000 0.0000 0.0000 32.1025 0.0000 0.0000
# 5 0.0000 0.0000 0.0000 0.0000 42.6753 0.0000
# 6 0.0000 0.0000 0.0000 0.0000 0.0000 22.3166
#
#
#
# Elastic Compliance Matrix: (Units=1/GPa)
#
#
# Indices 1 2 3 4 5 6 
#
# 1 0.032792 -0.027354 -0.013590 0.000000 0.000000 0.000000
# 2 -0.027354 0.108436 -0.006270 0.000000 0.000000 0.000000
# 3 -0.013590 -0.006270 0.014528 0.000000 0.000000 0.000000
# 4 0.000000 0.000000 0.000000 0.031150 0.000000 0.000000
# 5 0.000000 0.000000 0.000000 0.000000 0.023433 0.000000
# 6 0.000000 0.000000 0.000000 0.000000 0.000000 0.044810
#
#
# Mechanical properties :
#
#
# Convention : Reuss Voigt Hill
#
# Bulk Modulus (GPa) = 16.30580 75.36476 45.83528
# Shear Modulus (GPa) = 13.51279 28.10738 20.81008
#
# Velocity S-wave (km/s) = 2.73149 3.93947 3.38972
# Velocity P-wave (km/s) = 4.35331 7.89335 6.37402
#
# Compressibility (1/GPa) = 0.06132785
#
# Stress axis : x y z
#
# Youngs Moduli (GPa) = 30.49532 9.22202 68.83161
#
# Poissons Ratio (x) = 0.25226 0.93545
# Poissons Ratio (y) = 0.83416 0.43158
# Poissons Ratio (z) = 0.41444 0.05782
#
# Static dielectric constant tensor:
#      x y z
#    x 1.610540 0.000000 0.000000 
#    y 0.000000 1.625250 0.000000 
#    z 0.000000 0.000000 1.612090 
# 
# From -- ./inp_files/31123.got.cif
#   From: 2010.05.17/outbox.cif.g08.bks.cpg/sg59_16_cif.got.tgz:31123.got - 2010.06.03 14:40:33.
