data_PCOD9452362
_publ_section_title
;
Structure prediction by ZEFSAII (Michael W. Deem and Ramdas Pophale) SiO2 
 PCOD9452362
Probable space group: P M M N
;
_chemical_formula_sum "Si O2"
_cell_formula_units_Z 40
_cell_length_a 15.367153
_cell_length_b 14.288915
_cell_length_c 8.052774
_cell_angle_alpha 90.000000
_cell_angle_beta 90.000000
_cell_angle_gamma 90.000000
_cell_volume 1768.227656
_symmetry_space_group_name_H-M "P M M N"
_symmetry_group_IT_number 59
_space_group.IT_coordinate_system_code '2'
_symmetry_cell_setting 'orthorhombic'
loop_
_space_group_symop_operation_xyz
x,y,z
1/2-x,1/2-y,z
1/2+x,-y,-z
-x,1/2+y,-z
-x,-y,-z
1/2+x,1/2+y,-z
1/2-x,y,z
x,1/2-y,z
loop_
_atom_site_type_symbol
_atom_site_label
_atom_site_fract_x
_atom_site_fract_y
_atom_site_fract_z
Si Si1 0.853517 0.356077 0.642245
Si Si2 0.896934 0.856952 0.753860
Si Si3 0.085530 0.948779 0.695529
Si Si4 0.600367 0.475238 0.957017
Si Si5 0.650922 0.855793 0.377637
O O1 0.750000 0.355039 0.666554
O O2 0.885846 0.250000 0.624646
O O3 0.872284 0.410856 0.472347
O O4 0.892693 0.405611 0.803317
O O5 0.902426 0.750000 0.811573
O O6 0.848235 0.858837 0.578374
O O7 0.992353 0.898432 0.709163
O O8 0.859477 0.927567 0.890875
O O9 0.087496 0.061648 0.679387
O O10 0.134360 0.932506 0.870684
O O11 0.500000 0.500000 0.000000
O O12 0.750000 0.873457 0.319803
O O13 0.625031 0.750000 0.329780
#
# Coordination Sequence:
#
# PCOD9452362 Si02
#       5
#     8   8   8   8   8
#     4  11  25  44  67  97 137 181 222 274 337 397
#     4  10  21  39  63  93 129 170 219 273 329 392
#     4  11  22  41  66  97 127 171 224 274 331 398
#     4  10  24  40  65  96 133 171 222 273 333 393
#     4  10  21  37  61  92 126 168 215 266 329 394
#
# _framework density 22.621521000000001
#
# number of rings (size 3 to 8) (size 9 to 14) (size 15 to 20)
#    0.000    1.600    2.000    1.800    2.800    6.400 
#    0.000    2.000    0.000    2.400    0.000    0.000 
#    0.000    0.000    0.000    0.000    0.000    0.000 
#
# Total GULP energy -223467.277554 kJ/mol
# GULP energy per Si atom -5586.681939 kJ/mol
# Density = 2.257003 g / cm^3
# Si number density = 22.621521 Si / 1000 Ang^3
#
#
#
# Elastic Constant Matrix: (Units=GPa)
#
#
# Indices 1 2 3 4 5 6 
#
# 1 60.2839 29.7108 20.7070 0.0000 0.0000 0.0000
# 2 29.7108 170.1707 62.2535 0.0000 0.0000 0.0000
# 3 20.7070 62.2535 165.1915 0.0000 0.0000 0.0000
# 4 0.0000 0.0000 0.0000 4.3627 0.0000 0.0000
# 5 0.0000 0.0000 0.0000 0.0000 -26.9105 0.0000
# 6 0.0000 0.0000 0.0000 0.0000 0.0000 -10.8815
#
#
#
# Elastic Compliance Matrix: (Units=1/GPa)
#
#
# Indices 1 2 3 4 5 6 
#
# 1 0.018377 -0.002744 -0.001269 0.000000 0.000000 0.000000
# 2 -0.002744 0.007226 -0.002379 0.000000 0.000000 0.000000
# 3 -0.001269 -0.002379 0.007109 0.000000 0.000000 0.000000
# 4 0.000000 0.000000 0.000000 0.229214 0.000000 0.000000
# 5 0.000000 0.000000 0.000000 0.000000 -0.037160 0.000000
# 6 0.000000 0.000000 0.000000 0.000000 0.000000 -0.091899
#
#
# Mechanical properties :
#
#
# Convention : Reuss Voigt Hill
#
# Bulk Modulus (GPa) = 50.18428 68.99877 59.59152
# Shear Modulus (GPa) = 32.83122 12.17912 22.50517
#
# Velocity S-wave (km/s) = 3.81376 2.32283 3.15756
# Velocity P-wave (km/s) = 6.45178 6.14505 6.30028
#
# Compressibility (1/GPa) = 0.01992656
#
# Stress axis : x y z
#
# Youngs Moduli (GPa) = 54.41694 138.39074 140.66065
#
# Poissons Ratio (x) = 0.37975 0.17856
# Poissons Ratio (y) = 0.14932 0.33465
# Poissons Ratio (z) = 0.06908 0.32925
#
# Static dielectric constant tensor:
#      x y z
#    x 1.873450 0.000000 0.000000 
#    y 0.000000 1.842390 0.000000 
#    z 0.000000 0.000000 1.892470 
# 
# From -- ./inp_files/10126.got.cif
#   From: 2010.05.17/outbox.cif.g08.bks.cpg/sg59_6_cif.got.tgz:10126.got - 2010.06.03 14:40:33.
