data_PCOD9452757
_publ_section_title
;
Structure prediction by ZEFSAII (Michael W. Deem and Ramdas Pophale) SiO2 
 PCOD9452757
Probable space group: P M M N
;
_chemical_formula_sum "Si O2"
_cell_formula_units_Z 56
_cell_length_a 8.647064
_cell_length_b 15.370953
_cell_length_c 22.496957
_cell_angle_alpha 90.000000
_cell_angle_beta 90.000000
_cell_angle_gamma 90.000000
_cell_volume 2990.151866
_symmetry_space_group_name_H-M "P M M N"
_symmetry_group_IT_number 59
_space_group.IT_coordinate_system_code '2'
_symmetry_cell_setting 'orthorhombic'
loop_
_space_group_symop_operation_xyz
x,y,z
1/2-x,1/2-y,z
1/2+x,-y,-z
-x,1/2+y,-z
-x,-y,-z
1/2+x,1/2+y,-z
1/2-x,y,z
x,1/2-y,z
loop_
_atom_site_type_symbol
_atom_site_label
_atom_site_fract_x
_atom_site_fract_y
_atom_site_fract_z
Si Si1 0.565551 0.491528 0.705621
Si Si2 0.061544 0.563004 0.163419
Si Si3 0.565362 0.347424 0.362815
Si Si4 0.935586 0.654212 0.380240
Si Si5 0.937996 0.250000 0.884976
Si Si6 0.063492 0.059951 0.053797
Si Si7 0.063785 0.750000 0.975292
Si Si8 0.435038 0.096119 0.489453
O O1 0.750000 0.497149 0.707279
O O2 0.509146 0.463933 0.770941
O O3 0.499298 0.582056 0.682458
O O4 0.516450 0.419620 0.657617
O O5 0.250000 0.565737 0.163948
O O6 0.008500 0.659926 0.144902
O O7 0.018692 0.491514 0.113994
O O8 0.750000 0.353984 0.364275
O O9 0.519703 0.250000 0.345665
O O10 0.504400 0.366295 0.429156
O O11 0.750000 0.643077 0.375578
O O12 0.977493 0.750000 0.358048
O O13 0.973703 0.647039 0.450079
O O14 0.750000 0.250000 0.881934
O O15 0.978297 0.250000 0.954583
O O16 0.250000 0.062520 0.050127
O O17 0.000131 0.158736 0.050593
O O18 0.000000 0.000000 0.000000
O O19 0.250000 0.750000 0.970384
O O20 0.250000 0.093792 0.483521
O O21 0.500000 0.000000 0.500000
#
# Coordination Sequence:
#
# PCOD9452757 Si02
#       8
#     8   8   8   8   4   8   4   8
#     4  11  23  39  62  88 114 153 203 247 291 352
#     4   9  20  37  59  87 120 160 199 243 297 353
#     4  11  24  42  63  85 115 156 201 250 305 358
#     4  10  22  39  58  83 120 157 186 231 298 356
#     4   9  16  33  61  89 121 155 190 233 288 355
#     4  11  21  38  62  90 124 158 200 252 302 356
#     4  11  21  37  63  93 123 161 200 245 308 363
#     4  11  21  36  61  89 118 152 193 242 298 355
#
# _framework density 18.728144
#
# number of rings (size 3 to 8) (size 9 to 14) (size 15 to 20)
#    0.000    1.571    2.857    2.357    1.000    2.571 
#    1.286    2.857    0.000    0.000    0.000    0.000 
#    0.000    0.000    0.000    0.000    0.000    0.000 
#
# Total GULP energy -312795.271436 kJ/mol
# GULP energy per Si atom -5585.629847 kJ/mol
# Density = 1.868552 g / cm^3
# Si number density = 18.728144 Si / 1000 Ang^3
#
#
#
# Elastic Constant Matrix: (Units=GPa)
#
#
# Indices 1 2 3 4 5 6 
#
# 1 34.0503 49.6372 30.1329 0.0000 0.0000 0.0000
# 2 49.6372 201.2786 90.3726 0.0000 0.0000 0.0000
# 3 30.1329 90.3726 133.6973 0.0000 0.0000 0.0000
# 4 0.0000 0.0000 0.0000 -13.6309 0.0000 0.0000
# 5 0.0000 0.0000 0.0000 0.0000 24.3087 0.0000
# 6 0.0000 0.0000 0.0000 0.0000 0.0000 19.2380
#
#
#
# Elastic Compliance Matrix: (Units=1/GPa)
#
#
# Indices 1 2 3 4 5 6 
#
# 1 0.047285 -0.009872 -0.003984 0.000000 0.000000 0.000000
# 2 -0.009872 0.009194 -0.003990 0.000000 0.000000 0.000000
# 3 -0.003984 -0.003990 0.011074 0.000000 0.000000 0.000000
# 4 0.000000 0.000000 0.000000 -0.073363 0.000000 0.000000
# 5 0.000000 0.000000 0.000000 0.000000 0.041138 0.000000
# 6 0.000000 0.000000 0.000000 0.000000 0.000000 0.051981
#
#
# Mechanical properties :
#
#
# Convention : Reuss Voigt Hill
#
# Bulk Modulus (GPa) = 31.38562 78.81238 55.09900
# Shear Modulus (GPa) = 37.41894 19.24205 28.33049
#
# Velocity S-wave (km/s) = 4.47475 3.20885 3.89359
# Velocity P-wave (km/s) = 6.59491 7.47681 7.04966
#
# Compressibility (1/GPa) = 0.03186172
#
# Stress axis : x y z
#
# Youngs Moduli (GPa) = 21.14822 108.76427 90.29793
#
# Poissons Ratio (x) = 1.07374 0.35976
# Poissons Ratio (y) = 0.20878 0.36027
# Poissons Ratio (z) = 0.08426 0.43395
#
# Static dielectric constant tensor:
#      x y z
#    x 1.637200 0.000000 0.000000 
#    y 0.000000 1.643010 0.000000 
#    z 0.000000 0.000000 1.633270 
# 
# From -- ./inp_files/29233.got.cif
#   From: 2010.05.17/outbox.cif.g08.bks.cpg/sg59_15_cif.got.tgz:29233.got - 2010.06.03 14:40:33.
