data_PCOD9452316
_publ_section_title
;
Structure prediction by ZEFSAII (Michael W. Deem and Ramdas Pophale) SiO2 
 PCOD9452316
Probable space group: P M M N
;
_chemical_formula_sum "Si O2"
_cell_formula_units_Z 48
_cell_length_a 8.811453
_cell_length_b 15.168087
_cell_length_c 19.334102
_cell_angle_alpha 90.000000
_cell_angle_beta 90.000000
_cell_angle_gamma 90.000000
_cell_volume 2584.058525
_symmetry_space_group_name_H-M "P M M N"
_symmetry_group_IT_number 59
_space_group.IT_coordinate_system_code '2'
_symmetry_cell_setting 'orthorhombic'
loop_
_space_group_symop_operation_xyz
x,y,z
1/2-x,1/2-y,z
1/2+x,-y,-z
-x,1/2+y,-z
-x,-y,-z
1/2+x,1/2+y,-z
1/2-x,y,z
x,1/2-y,z
loop_
_atom_site_type_symbol
_atom_site_label
_atom_site_fract_x
_atom_site_fract_y
_atom_site_fract_z
Si Si1 0.928516 0.151654 0.134863
Si Si2 0.566721 0.646528 0.492499
Si Si3 0.573529 0.351456 0.848927
Si Si4 0.931762 0.500686 0.605604
Si Si5 0.069465 0.402701 0.993503
Si Si6 0.431446 0.500791 0.757372
O O1 0.750000 0.135938 0.118219
O O2 0.942378 0.250000 0.163543
O O3 0.976392 0.079748 0.190756
O O4 0.021071 0.144444 0.064120
O O5 0.750000 0.646124 0.486823
O O6 0.519021 0.750000 0.494412
O O7 0.498862 0.587331 0.430494
O O8 0.526123 0.587459 0.560102
O O9 0.750000 0.378896 0.852041
O O10 0.566425 0.250000 0.827422
O O11 0.502242 0.360665 0.925076
O O12 0.484616 0.412666 0.795877
O O13 0.750000 0.494178 0.605447
O O14 0.993156 0.509057 0.682850
O O15 0.250000 0.405974 0.986503
O O16 0.000000 0.500000 0.000000
O O17 0.250000 0.502196 0.750068
#
# Coordination Sequence:
#
# PCOD9452316 Si02
#       6
#     8   8   8   8   8   8
#     4  10  22  40  60  84 115 152 195 244 296 348
#     4   9  19  38  63  89 117 152 193 234 279 337
#     4  11  24  41  61  85 115 152 195 247 301 350
#     4  10  21  37  59  88 121 153 189 237 287 338
#     4  12  23  37  60  86 114 151 196 246 298 351
#     4  11  23  39  60  85 118 159 196 236 286 347
#
# _framework density 18.575430000000001
#
# number of rings (size 3 to 8) (size 9 to 14) (size 15 to 20)
#    0.000    1.500    1.667    3.500    0.000    6.667 
#    0.000    0.000    0.000    0.000    0.000    0.000 
#    0.000    0.000    0.000    0.000    0.000    0.000 
#
# Total GULP energy -268144.261306 kJ/mol
# GULP energy per Si atom -5586.338777 kJ/mol
# Density = 1.853315 g / cm^3
# Si number density = 18.575430 Si / 1000 Ang^3
#
#
#
# Elastic Constant Matrix: (Units=GPa)
#
#
# Indices 1 2 3 4 5 6 
#
# 1 34.2053 21.5531 19.0618 0.0000 0.0000 0.0000
# 2 21.5531 104.2824 23.9174 0.0000 0.0000 0.0000
# 3 19.0618 23.9174 94.9899 0.0000 0.0000 0.0000
# 4 0.0000 0.0000 0.0000 -149.2453 0.0000 0.0000
# 5 0.0000 0.0000 0.0000 0.0000 15.2171 0.0000
# 6 0.0000 0.0000 0.0000 0.0000 0.0000 26.2771
#
#
#
# Elastic Compliance Matrix: (Units=1/GPa)
#
#
# Indices 1 2 3 4 5 6 
#
# 1 0.036332 -0.006195 -0.005731 0.000000 0.000000 0.000000
# 2 -0.006195 0.011233 -0.001585 0.000000 0.000000 0.000000
# 3 -0.005731 -0.001585 0.012077 0.000000 0.000000 0.000000
# 4 0.000000 0.000000 0.000000 -0.006700 0.000000 0.000000
# 5 0.000000 0.000000 0.000000 0.000000 0.065716 0.000000
# 6 0.000000 0.000000 0.000000 0.000000 0.000000 0.038056
#
#
# Mechanical properties :
#
#
# Convention : Reuss Voigt Hill
#
# Bulk Modulus (GPa) = 30.65600 40.28245 35.46922
# Shear Modulus (GPa) = 25.69251 -10.28719 7.70266
#
# Velocity S-wave (km/s) = 3.72310 -2.35586 2.03855
# Velocity P-wave (km/s) = 5.91788 3.78587 4.96760
#
# Compressibility (1/GPa) = 0.03262005
#
# Stress axis : x y z
#
# Youngs Moduli (GPa) = 27.52362 89.02135 82.80434
#
# Poissons Ratio (x) = 0.55146 0.47456
# Poissons Ratio (y) = 0.17050 0.13127
# Poissons Ratio (z) = 0.15774 0.14113
#
# Static dielectric constant tensor:
#      x y z
#    x 1.627880 0.000000 0.000000 
#    y 0.000000 1.779680 0.000000 
#    z 0.000000 0.000000 1.679700 
# 
# From -- ./inp_files/25411.got.cif
#   From: 2010.05.17/outbox.cif.g08.bks.cpg/sg59_13_cif.got.tgz:25411.got - 2010.06.03 14:40:33.
