data_PCOD9452009
_publ_section_title
;
Structure prediction by ZEFSAII (Michael W. Deem and Ramdas Pophale) SiO2 
 PCOD9452009
Probable space group: P M M N
;
_chemical_formula_sum "Si O2"
_cell_formula_units_Z 48
_cell_length_a 8.615587
_cell_length_b 31.644521
_cell_length_c 9.329485
_cell_angle_alpha 90.000000
_cell_angle_beta 90.000000
_cell_angle_gamma 90.000000
_cell_volume 2543.554627
_symmetry_space_group_name_H-M "P M M N"
_symmetry_group_IT_number 59
_space_group.IT_coordinate_system_code '2'
_symmetry_cell_setting 'orthorhombic'
loop_
_space_group_symop_operation_xyz
x,y,z
1/2-x,1/2-y,z
1/2+x,-y,-z
-x,1/2+y,-z
-x,-y,-z
1/2+x,1/2+y,-z
1/2-x,y,z
x,1/2-y,z
loop_
_atom_site_type_symbol
_atom_site_label
_atom_site_fract_x
_atom_site_fract_y
_atom_site_fract_z
Si Si1 0.436463 0.460614 0.410083
Si Si2 0.064477 0.877481 0.089624
Si Si3 0.439024 0.297497 0.411852
Si Si4 0.562650 0.701773 0.919860
Si Si5 0.936583 0.039836 0.088147
Si Si6 0.437580 0.122034 0.590977
O O1 0.500000 0.500000 0.500000
O O2 0.250000 0.462616 0.404829
O O3 0.501447 0.461135 0.249672
O O4 0.481895 0.417539 0.491735
O O5 0.250000 0.877510 0.093507
O O6 0.001175 0.882614 0.249689
O O7 0.013625 0.916967 0.991155
O O8 0.006285 0.833895 0.020684
O O9 0.250000 0.297517 0.414026
O O10 0.489401 0.250000 0.451499
O O11 0.483377 0.305600 0.246343
O O12 0.491824 0.334500 0.516517
O O13 0.750000 0.699555 0.926442
O O14 0.517951 0.750000 0.957585
O O15 0.750000 0.038229 0.089767
O O16 0.000000 0.000000 0.000000
O O17 0.250000 0.123027 0.597848
#
# Coordination Sequence:
#
# PCOD9452009 Si02
#       6
#     8   8   8   8   8   8
#     4  11  23  39  61  87 115 148 187 234 286 340
#     4  11  24  38  54  81 117 152 186 231 285 337
#     4   8  15  31  56  83 107 134 177 230 275 319
#     4   9  18  35  60  85 109 144 190 235 280 336
#     4  11  24  41  61  85 114 151 194 239 289 343
#     4  10  21  36  56  82 111 146 187 229 276 334
#
# _framework density 18.871227999999999
#
# number of rings (size 3 to 8) (size 9 to 14) (size 15 to 20)
#    0.000    2.000    0.000    4.500    0.000    9.000 
#    0.000    2.500    0.000    1.000    0.000    0.000 
#    0.000    0.000    0.000    0.000    0.000    0.000 
#
# Total GULP energy -268169.318351 kJ/mol
# GULP energy per Si atom -5586.860799 kJ/mol
# Density = 1.882828 g / cm^3
# Si number density = 18.871228 Si / 1000 Ang^3
#
#
#
# Elastic Constant Matrix: (Units=GPa)
#
#
# Indices 1 2 3 4 5 6 
#
# 1 26.7748 44.0931 42.1809 0.0000 0.0000 0.0000
# 2 44.0931 173.1284 127.1465 0.0000 0.0000 0.0000
# 3 42.1809 127.1465 191.6143 0.0000 0.0000 0.0000
# 4 0.0000 0.0000 0.0000 43.0297 0.0000 0.0000
# 5 0.0000 0.0000 0.0000 0.0000 29.6237 0.0000
# 6 0.0000 0.0000 0.0000 0.0000 0.0000 25.5459
#
#
#
# Elastic Compliance Matrix: (Units=1/GPa)
#
#
# Indices 1 2 3 4 5 6 
#
# 1 0.068645 -0.012454 -0.006847 0.000000 0.000000 0.000000
# 2 -0.012454 0.013526 -0.006234 0.000000 0.000000 0.000000
# 3 -0.006847 -0.006234 0.010862 0.000000 0.000000 0.000000
# 4 0.000000 0.000000 0.000000 0.023240 0.000000 0.000000
# 5 0.000000 0.000000 0.000000 0.000000 0.033757 0.000000
# 6 0.000000 0.000000 0.000000 0.000000 0.000000 0.039145
#
#
# Mechanical properties :
#
#
# Convention : Reuss Voigt Hill
#
# Bulk Modulus (GPa) = 23.83008 90.92874 57.37941
# Shear Modulus (GPa) = 19.66695 31.51300 25.58998
#
# Velocity S-wave (km/s) = 3.23176 4.09087 3.68643
# Velocity P-wave (km/s) = 5.15566 8.40250 6.97076
#
# Compressibility (1/GPa) = 0.04196377
#
# Stress axis : x y z
#
# Youngs Moduli (GPa) = 14.56760 73.93171 92.06068
#
# Poissons Ratio (x) = 0.92078 0.63034
# Poissons Ratio (y) = 0.18143 0.57387
# Poissons Ratio (z) = 0.09974 0.46086
#
# Static dielectric constant tensor:
#      x y z
#    x 1.651900 0.000000 0.000000 
#    y 0.000000 1.646260 0.000000 
#    z 0.000000 0.000000 1.615120 
# 
# From -- ./inp_files/6220.got.cif
#   From: 2010.05.17/outbox.cif.g08.bks.cpg/sg59_4_cif.got.tgz:6220.got - 2010.06.03 14:40:33.
