data_PCOD9452416
_publ_section_title
;
Structure prediction by ZEFSAII (Michael W. Deem and Ramdas Pophale) SiO2 
 PCOD9452416
Probable space group: P M M N
;
_chemical_formula_sum "Si O2"
_cell_formula_units_Z 56
_cell_length_a 14.548758
_cell_length_b 8.695353
_cell_length_c 24.201455
_cell_angle_alpha 90.000000
_cell_angle_beta 90.000000
_cell_angle_gamma 90.000000
_cell_volume 3061.643461
_symmetry_space_group_name_H-M "P M M N"
_symmetry_group_IT_number 59
_space_group.IT_coordinate_system_code '2'
_symmetry_cell_setting 'orthorhombic'
loop_
_space_group_symop_operation_xyz
x,y,z
1/2-x,1/2-y,z
1/2+x,-y,-z
-x,1/2+y,-z
-x,-y,-z
1/2+x,1/2+y,-z
1/2-x,y,z
x,1/2-y,z
loop_
_atom_site_type_symbol
_atom_site_label
_atom_site_fract_x
_atom_site_fract_y
_atom_site_fract_z
Si Si1 0.500000 0.565877 0.438478
Si Si2 0.857711 0.065159 0.352217
Si Si3 0.140516 0.568661 0.059721
Si Si4 0.359484 0.431340 0.940280
Si Si5 0.500000 0.568012 0.855213
Si Si6 0.642289 0.934841 0.647784
Si Si7 0.500000 0.433479 0.733188
O O1 0.500000 0.500000 0.500000
O O2 0.500000 0.750000 0.438956
O O3 0.588202 0.505010 0.404400
O O4 0.411798 0.505010 0.404400
O O5 0.750000 0.025899 0.351932
O O6 0.866692 0.250000 0.353512
O O7 0.911604 0.001108 0.298939
O O8 0.250000 0.549824 0.066055
O O9 0.119151 0.750000 0.060889
O O10 0.086784 0.483636 0.108089
O O11 0.114842 0.500001 0.000000
O O12 0.250000 0.450178 0.933945
O O13 0.380848 0.250000 0.939112
O O14 0.413216 0.516362 0.891911
O O15 0.499999 0.750000 0.846785
O O16 0.500000 0.484263 0.796481
O O17 0.750000 0.974101 0.648068
O O18 0.633308 0.750000 0.646488
O O19 0.588396 0.998893 0.701061
O O20 0.500000 0.250000 0.728042
#
# Coordination Sequence:
#
# PCOD9452416 Si02
#       7
#     8   8   8   8   8   8   8
#     4  11  22  37  59  87 121 155 191 236 279 327
#     4  10  21  39  62  86 115 151 189 231 281 335
#     4  10  21  38  59  83 112 145 183 228 279 337
#     4  10  21  38  59  83 112 145 183 228 279 337
#     4  12  24  38  58  82 112 148 187 232 281 334
#     4  10  21  39  62  86 115 151 189 231 281 335
#     4  11  23  39  59  83 113 147 188 236 280 331
#
# _framework density 18.29083
#
# number of rings (size 3 to 8) (size 9 to 14) (size 15 to 20)
#    0.000    1.429    0.000    7.714    0.000    5.714 
#    0.000    0.000    0.000    0.000    0.000    0.000 
#    0.000    0.000    0.000    0.000    0.000    0.000 
#
# Total GULP energy -313106.384272 kJ/mol
# GULP energy per Si atom -5591.185433 kJ/mol
# Density = 1.824920 g / cm^3
# Si number density = 18.290830 Si / 1000 Ang^3
#
#
#
# Elastic Constant Matrix: (Units=GPa)
#
#
# Indices 1 2 3 4 5 6 
#
# 1 147.8262 66.5524 74.4820 0.0000 0.0000 0.0000
# 2 66.5524 129.3064 50.0770 0.0000 0.0000 0.0000
# 3 74.4820 50.0770 158.9329 0.0000 0.0000 0.0000
# 4 0.0000 0.0000 0.0000 38.3175 0.0000 0.0000
# 5 0.0000 0.0000 0.0000 0.0000 5.6623 0.0000
# 6 0.0000 0.0000 0.0000 0.0000 0.0000 52.5920
#
#
#
# Elastic Compliance Matrix: (Units=1/GPa)
#
#
# Indices 1 2 3 4 5 6 
#
# 1 0.010355 -0.003930 -0.003615 0.000000 0.000000 0.000000
# 2 -0.003930 0.010300 -0.001404 0.000000 0.000000 0.000000
# 3 -0.003615 -0.001404 0.008428 0.000000 0.000000 0.000000
# 4 0.000000 0.000000 0.000000 0.026098 0.000000 0.000000
# 5 0.000000 0.000000 0.000000 0.000000 0.176607 0.000000
# 6 0.000000 0.000000 0.000000 0.000000 0.000000 0.019014
#
#
# Mechanical properties :
#
#
# Convention : Reuss Voigt Hill
#
# Bulk Modulus (GPa) = 89.38940 90.92093 90.15517
# Shear Modulus (GPa) = 18.35350 35.64463 26.99907
#
# Velocity S-wave (km/s) = 3.17113 4.41928 3.84617
# Velocity P-wave (km/s) = 7.89844 8.70956 8.31390
#
# Compressibility (1/GPa) = 0.01118701
#
# Stress axis : x y z
#
# Youngs Moduli (GPa) = 96.57036 97.08940 118.64996
#
# Poissons Ratio (x) = 0.38154 0.42887
# Poissons Ratio (y) = 0.37950 0.16654
# Poissons Ratio (z) = 0.34906 0.13628
#
# Static dielectric constant tensor:
#      x y z
#    x 1.624740 0.000000 0.000000 
#    y 0.000000 1.611620 0.000000 
#    z 0.000000 0.000000 1.588510 
# 
# From -- ./inp_files/30309.got.cif
#   From: 2010.05.17/outbox.cif.g08.bks.cpg/sg59_16_cif.got.tgz:30309.got - 2010.06.03 14:40:33.
