data_PCOD9452131
_publ_section_title
;
Structure prediction by ZEFSAII (Michael W. Deem and Ramdas Pophale) SiO2 
 PCOD9452131
Probable space group: P M M N
;
_chemical_formula_sum "Si O2"
_cell_formula_units_Z 64
_cell_length_a 9.046684
_cell_length_b 14.480984
_cell_length_c 26.932829
_cell_angle_alpha 90.000000
_cell_angle_beta 90.000000
_cell_angle_gamma 90.000000
_cell_volume 3528.332200
_symmetry_space_group_name_H-M "P M M N"
_symmetry_group_IT_number 59
_space_group.IT_coordinate_system_code '2'
_symmetry_cell_setting 'orthorhombic'
loop_
_space_group_symop_operation_xyz
x,y,z
1/2-x,1/2-y,z
1/2+x,-y,-z
-x,1/2+y,-z
-x,-y,-z
1/2+x,1/2+y,-z
1/2-x,y,z
x,1/2-y,z
loop_
_atom_site_type_symbol
_atom_site_label
_atom_site_fract_x
_atom_site_fract_y
_atom_site_fract_z
Si Si1 0.079182 0.361072 0.106444
Si Si2 0.573654 0.499241 0.446600
Si Si3 0.426295 0.994521 0.819680
Si Si4 0.918082 0.137484 0.005259
Si Si5 0.072575 0.141845 0.638162
Si Si6 0.425580 0.141803 0.903727
Si Si7 0.926692 0.499028 0.712376
Si Si8 0.072325 0.641775 0.638855
O O1 0.250000 0.389600 0.110891
O O2 0.072665 0.250000 0.109388
O O3 0.982775 0.406493 0.149509
O O4 0.013912 0.389043 0.052951
O O5 0.500000 0.500000 0.500000
O O6 0.750000 0.498547 0.453053
O O7 0.535272 0.588202 0.412797
O O8 0.533979 0.410961 0.412383
O O9 0.250000 0.990848 0.812029
O O10 0.460654 0.080844 0.855841
O O11 0.508573 0.001659 0.767589
O O12 0.750000 0.104501 0.010404
O O13 0.915928 0.250000 0.004985
O O14 0.988617 0.110340 0.952897
O O15 0.250000 0.130907 0.645702
O O16 0.038868 0.250000 0.636015
O O17 0.988367 0.088892 0.681914
O O18 0.250000 0.133697 0.913370
O O19 0.458370 0.250000 0.895087
O O20 0.750000 0.499834 0.712679
O O21 0.989548 0.587635 0.682566
O O22 0.250000 0.631055 0.645823
O O23 0.038016 0.750000 0.637381
#
# Coordination Sequence:
#
# PCOD9452131 Si02
#       8
#     8   8   8   8   8   8   8   8
#     4  10  21  37  56  78 106 139 175 219 269 319
#     4   9  18  32  52  83 120 153 185 225 272 319
#     4  11  23  38  57  80 106 140 180 220 268 327
#     4   9  17  31  53  79 106 137 172 211 259 318
#     4   9  19  38  61  81 107 149 195 231 268 321
#     4   9  19  36  56  78 104 135 173 215 259 312
#     4  11  23  38  56  81 112 140 175 230 285 330
#     4   9  19  38  61  81 106 147 194 231 268 321
#
# _framework density 18.138881999999999
#
# number of rings (size 3 to 8) (size 9 to 14) (size 15 to 20)
#    0.000    2.375    0.000    3.000    0.000    7.750 
#    0.000    1.250    0.000    0.000    0.000    0.000 
#    0.000    0.000    0.000    0.000    0.000    0.000 
#
# Total GULP energy -357358.382838 kJ/mol
# GULP energy per Si atom -5583.724732 kJ/mol
# Density = 1.809760 g / cm^3
# Si number density = 18.138882 Si / 1000 Ang^3
#
#
#
# Elastic Constant Matrix: (Units=GPa)
#
#
# Indices 1 2 3 4 5 6 
#
# 1 72.4537 53.8196 74.5136 0.0000 0.0000 0.0000
# 2 53.8196 118.6369 68.1998 0.0000 0.0000 0.0000
# 3 74.5136 68.1998 173.4687 0.0000 0.0000 0.0000
# 4 0.0000 0.0000 0.0000 8.9072 0.0000 0.0000
# 5 0.0000 0.0000 0.0000 0.0000 38.2855 0.0000
# 6 0.0000 0.0000 0.0000 0.0000 0.0000 18.2925
#
#
#
# Elastic Compliance Matrix: (Units=1/GPa)
#
#
# Indices 1 2 3 4 5 6 
#
# 1 0.029502 -0.007879 -0.009575 0.000000 0.000000 0.000000
# 2 -0.007879 0.012995 -0.001724 0.000000 0.000000 0.000000
# 3 -0.009575 -0.001724 0.010555 0.000000 0.000000 0.000000
# 4 0.000000 0.000000 0.000000 0.112269 0.000000 0.000000
# 5 0.000000 0.000000 0.000000 0.000000 0.026120 0.000000
# 6 0.000000 0.000000 0.000000 0.000000 0.000000 0.054667
#
#
# Mechanical properties :
#
#
# Convention : Reuss Voigt Hill
#
# Bulk Modulus (GPa) = 68.04939 84.18059 76.11499
# Shear Modulus (GPa) = 17.27936 24.29880 20.78908
#
# Velocity S-wave (km/s) = 3.08979 3.66402 3.38909
# Velocity P-wave (km/s) = 7.09410 8.02557 7.57417
#
# Compressibility (1/GPa) = 0.01469521
#
# Stress axis : x y z
#
# Youngs Moduli (GPa) = 33.89630 76.95376 94.73739
#
# Poissons Ratio (x) = 0.60634 0.90708
# Poissons Ratio (y) = 0.26708 0.16336
# Poissons Ratio (z) = 0.32455 0.13270
#
# Static dielectric constant tensor:
#      x y z
#    x 1.609000 0.000000 0.000000 
#    y 0.000000 1.637460 0.000000 
#    z 0.000000 0.000000 1.581400 
# 
# From -- ./inp_files/31615.got.cif
#   From: 2010.05.17/outbox.cif.g08.bks.cpg/sg59_16_cif.got.tgz:31615.got - 2010.06.03 14:40:33.
