data_PCOD9452953
_publ_section_title
;
Structure prediction by ZEFSAII (Michael W. Deem and Ramdas Pophale) SiO2 
 PCOD9452953
Probable space group: P M M N
;
_chemical_formula_sum "Si O2"
_cell_formula_units_Z 40
_cell_length_a 8.098615
_cell_length_b 25.306506
_cell_length_c 8.518593
_cell_angle_alpha 90.000000
_cell_angle_beta 90.000000
_cell_angle_gamma 90.000000
_cell_volume 1745.865609
_symmetry_space_group_name_H-M "P M M N"
_symmetry_group_IT_number 59
_space_group.IT_coordinate_system_code '2'
_symmetry_cell_setting 'orthorhombic'
loop_
_space_group_symop_operation_xyz
x,y,z
1/2-x,1/2-y,z
1/2+x,-y,-z
-x,1/2+y,-z
-x,-y,-z
1/2+x,1/2+y,-z
1/2-x,y,z
x,1/2-y,z
loop_
_atom_site_type_symbol
_atom_site_label
_atom_site_fract_x
_atom_site_fract_y
_atom_site_fract_z
Si Si1 0.054192 0.367255 0.677545
Si Si2 0.064700 0.834941 0.992396
Si Si3 0.447770 0.010015 0.673750
Si Si4 0.052095 0.689914 0.642059
Si Si5 0.937861 0.555053 0.930816
O O1 0.250000 0.367985 0.670639
O O2 0.003629 0.428780 0.709846
O O3 0.996002 0.346786 0.506240
O O4 0.006298 0.331137 0.829741
O O5 0.250000 0.813749 0.998479
O O6 0.986754 0.817293 0.823329
O O7 0.057989 0.897756 0.967352
O O8 0.250000 0.004473 0.701480
O O9 0.500000 0.000000 0.500000
O O10 0.546508 0.961914 0.753089
O O11 0.250000 0.684350 0.657447
O O12 0.010901 0.750000 0.596228
O O13 0.750000 0.568253 0.975885
O O14 0.000000 0.500000 0.000000
#
# Coordination Sequence:
#
# PCOD9452953 Si02
#       5
#     8   8   8   8   8
#     4  11  24  41  64  95 130 168 212 264 323 386
#     4  11  23  41  68  97 130 172 219 268 327 389
#     4  11  23  38  58  88 127 169 212 259 314 377
#     4  10  24  46  69  94 125 164 215 272 327 387
#     4  12  23  37  59  89 127 167 210 256 310 376
#
# _framework density 22.911269000000001
#
# number of rings (size 3 to 8) (size 9 to 14) (size 15 to 20)
#    0.000    1.000    2.000    4.800    0.000    8.400 
#    0.000    2.000    0.000    0.000    0.000    0.000 
#    0.000    0.000    0.000    0.000    0.000    0.000 
#
# Total GULP energy -222834.172279 kJ/mol
# GULP energy per Si atom -5570.854307 kJ/mol
# Density = 2.285912 g / cm^3
# Si number density = 22.911269 Si / 1000 Ang^3
#
#
#
# Elastic Constant Matrix: (Units=GPa)
#
#
# Indices 1 2 3 4 5 6 
#
# 1 57.8301 14.3649 9.6888 0.0000 0.0000 0.0000
# 2 14.3649 74.1439 15.5752 0.0000 0.0000 0.0000
# 3 9.6888 15.5752 142.3132 0.0000 0.0000 0.0000
# 4 0.0000 0.0000 0.0000 31.7021 0.0000 0.0000
# 5 0.0000 0.0000 0.0000 0.0000 27.9320 0.0000
# 6 0.0000 0.0000 0.0000 0.0000 0.0000 -1.9258
#
#
#
# Elastic Compliance Matrix: (Units=1/GPa)
#
#
# Indices 1 2 3 4 5 6 
#
# 1 0.018273 -0.003356 -0.000877 0.000000 0.000000 0.000000
# 2 -0.003356 0.014421 -0.001350 0.000000 0.000000 0.000000
# 3 -0.000877 -0.001350 0.007234 0.000000 0.000000 0.000000
# 4 0.000000 0.000000 0.000000 0.031544 0.000000 0.000000
# 5 0.000000 0.000000 0.000000 0.000000 0.035801 0.000000
# 6 0.000000 0.000000 0.000000 0.000000 0.000000 -0.519275
#
#
# Mechanical properties :
#
#
# Convention : Reuss Voigt Hill
#
# Bulk Modulus (GPa) = 34.76725 39.28276 37.02500
# Shear Modulus (GPa) = -12.77958 27.18556 7.20299
#
# Velocity S-wave (km/s) = -2.36431 3.44838 1.77502
# Velocity P-wave (km/s) = 2.78467 5.74787 4.51621
#
# Compressibility (1/GPa) = 0.02876270
#
# Stress axis : x y z
#
# Youngs Moduli (GPa) = 54.72687 69.34310 138.23291
#
# Poissons Ratio (x) = 0.23272 0.12119
# Poissons Ratio (y) = 0.18366 0.18659
# Poissons Ratio (z) = 0.04798 0.09360
#
# Static dielectric constant tensor:
#      x y z
#    x 1.735990 0.000000 0.000000 
#    y 0.000000 1.839960 0.000000 
#    z 0.000000 0.000000 1.662510 
# 
# From -- ./inp_files/5698.got.cif
#   From: 2010.05.17/outbox.cif.g08.bks.cpg/sg59_3_cif.got.tgz:5698.got - 2010.06.03 14:40:33.
