data_PCOD9452515
_publ_section_title
;
Structure prediction by ZEFSAII (Michael W. Deem and Ramdas Pophale) SiO2 
 PCOD9452515
Probable space group: P M M N
;
_chemical_formula_sum "Si O2"
_cell_formula_units_Z 40
_cell_length_a 8.836088
_cell_length_b 16.063221
_cell_length_c 14.920033
_cell_angle_alpha 90.000000
_cell_angle_beta 90.000000
_cell_angle_gamma 90.000000
_cell_volume 2117.690316
_symmetry_space_group_name_H-M "P M M N"
_symmetry_group_IT_number 59
_space_group.IT_coordinate_system_code '2'
_symmetry_cell_setting 'orthorhombic'
loop_
_space_group_symop_operation_xyz
x,y,z
1/2-x,1/2-y,z
1/2+x,-y,-z
-x,1/2+y,-z
-x,-y,-z
1/2+x,1/2+y,-z
1/2-x,y,z
x,1/2-y,z
loop_
_atom_site_type_symbol
_atom_site_label
_atom_site_fract_x
_atom_site_fract_y
_atom_site_fract_z
Si Si1 0.573559 0.847135 0.223952
Si Si2 0.931545 0.750000 0.714184
Si Si3 0.065765 0.250000 0.077762
Si Si4 0.569434 0.103666 0.403655
Si Si5 0.933170 0.586431 0.033484
Si Si6 0.570483 0.078337 0.605151
O O1 0.750000 0.867008 0.242775
O O2 0.566216 0.750000 0.200012
O O3 0.523321 0.897835 0.136768
O O4 0.477558 0.866076 0.311522
O O5 0.750000 0.750000 0.712693
O O6 0.981228 0.750000 0.818261
O O7 0.991996 0.830603 0.661620
O O8 0.250000 0.250000 0.075885
O O9 0.017688 0.166020 0.026079
O O10 0.750000 0.109295 0.393524
O O11 0.531025 0.118300 0.508744
O O12 0.513988 0.009893 0.385684
O O13 0.750000 0.583723 0.030085
O O14 0.000000 0.500000 0.000000
O O15 0.750000 0.063235 0.604707
#
# Coordination Sequence:
#
# PCOD9452515 Si02
#       6
#     8   4   4   8   8   8
#     4  10  21  38  61  88 118 155 195 240 297 357
#     4  11  23  37  60  89 118 156 199 239 290 349
#     4   9  20  41  62  83 118 156 195 241 292 353
#     4  10  22  41  60  84 119 156 196 243 292 348
#     4  10  21  40  63  87 118 156 197 244 298 355
#     4  10  22  39  61  86 117 154 195 243 295 349
#
# _framework density 18.888504000000001
#
# number of rings (size 3 to 8) (size 9 to 14) (size 15 to 20)
#    0.000    2.000    1.000    1.500    4.200    3.600 
#    0.000    1.500    0.000    0.000    0.000    0.000 
#    0.000    0.000    0.000    0.000    0.000    0.000 
#
# Total GULP energy -223392.296988 kJ/mol
# GULP energy per Si atom -5584.807425 kJ/mol
# Density = 1.884551 g / cm^3
# Si number density = 18.888504 Si / 1000 Ang^3
#
#
#
# Elastic Constant Matrix: (Units=GPa)
#
#
# Indices 1 2 3 4 5 6 
#
# 1 28.4558 11.3249 24.6878 0.0000 0.0000 0.0000
# 2 11.3249 71.5558 37.6251 0.0000 0.0000 0.0000
# 3 24.6878 37.6251 96.8495 0.0000 0.0000 0.0000
# 4 0.0000 0.0000 0.0000 33.4629 0.0000 0.0000
# 5 0.0000 0.0000 0.0000 0.0000 20.8730 0.0000
# 6 0.0000 0.0000 0.0000 0.0000 0.0000 37.2925
#
#
#
# Elastic Compliance Matrix: (Units=1/GPa)
#
#
# Indices 1 2 3 4 5 6 
#
# 1 0.045229 -0.001377 -0.010994 0.000000 0.000000 0.000000
# 2 -0.001377 0.017605 -0.006488 0.000000 0.000000 0.000000
# 3 -0.010994 -0.006488 0.015648 0.000000 0.000000 0.000000
# 4 0.000000 0.000000 0.000000 0.029884 0.000000 0.000000
# 5 0.000000 0.000000 0.000000 0.000000 0.047909 0.000000
# 6 0.000000 0.000000 0.000000 0.000000 0.000000 0.026815
#
#
# Mechanical properties :
#
#
# Convention : Reuss Voigt Hill
#
# Bulk Modulus (GPa) = 24.53233 38.23740 31.38486
# Shear Modulus (GPa) = 21.33140 26.54053 23.93597
#
# Velocity S-wave (km/s) = 3.36420 3.75255 3.56367
# Velocity P-wave (km/s) = 5.30157 6.25006 5.79525
#
# Compressibility (1/GPa) = 0.04076254
#
# Stress axis : x y z
#
# Youngs Moduli (GPa) = 22.10989 56.80308 63.90435
#
# Poissons Ratio (x) = 0.07824 0.70257
# Poissons Ratio (y) = 0.03045 0.41462
# Poissons Ratio (z) = 0.24308 0.36855
#
# Static dielectric constant tensor:
#      x y z
#    x 1.642790 0.000000 0.000000 
#    y 0.000000 1.631250 0.000000 
#    z 0.000000 0.000000 1.648430 
# 
# From -- ./inp_files/19911.got.cif
#   From: 2010.05.17/outbox.cif.g08.bks.cpg/sg59_10_cif.got.tgz:19911.got - 2010.06.03 14:40:33.
