data_PCOD9452274
_publ_section_title
;
Structure prediction by ZEFSAII (Michael W. Deem and Ramdas Pophale) SiO2 
 PCOD9452274
Probable space group: P M M N
;
_chemical_formula_sum "Si O2"
_cell_formula_units_Z 40
_cell_length_a 14.460043
_cell_length_b 10.199522
_cell_length_c 12.575383
_cell_angle_alpha 90.000000
_cell_angle_beta 90.000000
_cell_angle_gamma 90.000000
_cell_volume 1854.686985
_symmetry_space_group_name_H-M "P M M N"
_symmetry_group_IT_number 59
_space_group.IT_coordinate_system_code '2'
_symmetry_cell_setting 'orthorhombic'
loop_
_space_group_symop_operation_xyz
x,y,z
1/2-x,1/2-y,z
1/2+x,-y,-z
-x,1/2+y,-z
-x,-y,-z
1/2+x,1/2+y,-z
1/2-x,y,z
x,1/2-y,z
loop_
_atom_site_type_symbol
_atom_site_label
_atom_site_fract_x
_atom_site_fract_y
_atom_site_fract_z
Si Si1 0.355540 0.402412 0.490716
Si Si2 0.640849 0.609201 0.066650
Si Si3 0.854353 0.471465 0.278974
Si Si4 0.555762 0.603166 0.728173
Si Si5 0.361942 0.902002 0.102320
O O1 0.250000 0.415356 0.450464
O O2 0.371656 0.250000 0.517090
O O3 0.360915 0.481506 0.599664
O O4 0.421489 0.437216 0.393275
O O5 0.750000 0.615428 0.041709
O O6 0.599902 0.750000 0.034542
O O7 0.635327 0.587830 0.192820
O O8 0.608613 0.479856 0.004614
O O9 0.750000 0.416859 0.262061
O O10 0.945722 0.389077 0.258163
O O11 0.595741 0.750000 0.745481
O O12 0.597696 0.493169 0.804628
O O13 0.250000 0.901079 0.108981
O O14 0.391524 0.750000 0.106077
#
# Coordination Sequence:
#
# PCOD9452274 Si02
#       5
#     8   8   8   8   8
#     4   9  18  35  60  88 117 151 194 244 298 356
#     4   9  18  35  61  89 116 152 198 244 293 353
#     4  10  21  37  58  86 121 158 198 246 296 346
#     4  11  23  38  60  89 121 160 202 243 291 350
#     4  10  22  40  62  89 121 155 193 244 302 354
#
# _framework density 21.566979
#
# number of rings (size 3 to 8) (size 9 to 14) (size 15 to 20)
#    0.000    2.200    0.000    2.400    0.000    8.000 
#    0.000    3.000    0.000    1.200    0.000    0.000 
#    0.000    0.000    0.000    0.000    0.000    0.000 
#
# Total GULP energy -223089.652700 kJ/mol
# GULP energy per Si atom -5577.241317 kJ/mol
# Density = 2.151789 g / cm^3
# Si number density = 21.566979 Si / 1000 Ang^3
#
#
#
# Elastic Constant Matrix: (Units=GPa)
#
#
# Indices 1 2 3 4 5 6 
#
# 1 86.3885 38.1637 22.1408 0.0000 0.0000 0.0000
# 2 38.1637 144.5367 63.6317 0.0000 0.0000 0.0000
# 3 22.1408 63.6317 100.9063 0.0000 0.0000 0.0000
# 4 0.0000 0.0000 0.0000 22.3198 0.0000 0.0000
# 5 0.0000 0.0000 0.0000 0.0000 0.6173 0.0000
# 6 0.0000 0.0000 0.0000 0.0000 0.0000 5.6417
#
#
#
# Elastic Compliance Matrix: (Units=1/GPa)
#
#
# Indices 1 2 3 4 5 6 
#
# 1 0.013172 -0.003053 -0.000965 0.000000 0.000000 0.000000
# 2 -0.003053 0.010285 -0.005816 0.000000 0.000000 0.000000
# 3 -0.000965 -0.005816 0.013789 0.000000 0.000000 0.000000
# 4 0.000000 0.000000 0.000000 0.044803 0.000000 0.000000
# 5 0.000000 0.000000 0.000000 0.000000 1.620052 0.000000
# 6 0.000000 0.000000 0.000000 0.000000 0.000000 0.177251
#
#
# Mechanical properties :
#
#
# Convention : Reuss Voigt Hill
#
# Bulk Modulus (GPa) = 56.88757 64.41156 60.64957
# Shear Modulus (GPa) = 2.62484 19.57544 11.10014
#
# Velocity S-wave (km/s) = 1.10440 3.01600 2.27112
# Velocity P-wave (km/s) = 5.29724 6.48529 5.92114
#
# Compressibility (1/GPa) = 0.01757853
#
# Stress axis : x y z
#
# Youngs Moduli (GPa) = 75.92058 97.22636 72.51911
#
# Poissons Ratio (x) = 0.29684 0.06997
# Poissons Ratio (y) = 0.23179 0.42177
# Poissons Ratio (z) = 0.07325 0.56547
#
# Static dielectric constant tensor:
#      x y z
#    x 1.823160 0.000000 0.000000 
#    y 0.000000 1.824690 0.000000 
#    z 0.000000 0.000000 1.757830 
# 
# From -- ./inp_files/16593.got.cif
#   From: 2010.05.17/outbox.cif.g08.bks.cpg/sg59_9_cif.got.tgz:16593.got - 2010.06.03 14:40:33.
