data_PCOD9452295
_publ_section_title
;
Structure prediction by ZEFSAII (Michael W. Deem and Ramdas Pophale) SiO2 
 PCOD9452295
Probable space group: P M M N
;
_chemical_formula_sum "Si O2"
_cell_formula_units_Z 64
_cell_length_a 29.327892
_cell_length_b 7.862677
_cell_length_c 12.656301
_cell_angle_alpha 90.000000
_cell_angle_beta 90.000000
_cell_angle_gamma 90.000000
_cell_volume 2918.489119
_symmetry_space_group_name_H-M "P M M N"
_symmetry_group_IT_number 59
_space_group.IT_coordinate_system_code '2'
_symmetry_cell_setting 'orthorhombic'
loop_
_space_group_symop_operation_xyz
x,y,z
1/2-x,1/2-y,z
1/2+x,-y,-z
-x,1/2+y,-z
-x,-y,-z
1/2+x,1/2+y,-z
1/2-x,y,z
x,1/2-y,z
loop_
_atom_site_type_symbol
_atom_site_label
_atom_site_fract_x
_atom_site_fract_y
_atom_site_fract_z
Si Si1 0.887709 0.446009 0.829490
Si Si2 0.801678 0.541370 0.407052
Si Si3 0.544340 0.946838 0.654283
Si Si4 0.301283 0.548230 0.059161
Si Si5 0.052333 0.446623 0.981940
Si Si6 0.449093 0.547018 0.745520
Si Si7 0.397540 0.044475 0.536918
Si Si8 0.694853 0.558400 0.171978
O O1 0.883507 0.250000 0.794628
O O2 0.916445 0.543066 0.742047
O O3 0.838427 0.520400 0.859476
O O4 0.916173 0.450381 0.938261
O O5 0.750000 0.487578 0.434831
O O6 0.800638 0.750000 0.402620
O O7 0.844814 0.490344 0.477873
O O8 0.813306 0.481479 0.287325
O O9 0.533303 0.750000 0.631013
O O10 0.498225 0.021153 0.704102
O O11 0.566180 0.023582 0.548349
O O12 0.250000 0.477404 0.068725
O O13 0.298904 0.750000 0.076947
O O14 0.318111 0.525646 0.938279
O O15 0.057486 0.250000 0.011121
O O16 0.063255 0.471418 0.858888
O O17 0.000000 0.500000 0.000000
O O18 0.452379 0.750000 0.760906
O O19 0.414108 0.505363 0.652957
O O20 0.397850 0.250000 0.529035
O O21 0.750000 0.567031 0.168478
O O22 0.676215 0.750000 0.170883
#
# Coordination Sequence:
#
# PCOD9452295 Si02
#       8
#     8   8   8   8   8   8   8   8
#     4  11  23  38  60  86 116 157 199 240 292 349
#     4   8  15  30  52  79 111 144 182 233 291 344
#     4  10  22  40  59  81 115 156 197 245 295 347
#     4   9  19  35  53  78 113 151 192 238 287 340
#     4  12  24  40  62  89 120 153 190 234 288 351
#     4  11  23  39  59  85 119 156 193 238 292 349
#     4  10  21  37  59  87 114 149 199 245 290 343
#     4   8  14  26  46  72 102 139 180 221 274 338
#
# _framework density 21.929155999999999
#
# number of rings (size 3 to 8) (size 9 to 14) (size 15 to 20)
#    0.000    2.125    1.250    3.000    1.750    2.000 
#    0.000    0.625    0.000    1.125    0.000    0.000 
#    0.000    0.000    0.000    0.000    0.000    0.000 
#
# Total GULP energy -357285.528197 kJ/mol
# GULP energy per Si atom -5582.586378 kJ/mol
# Density = 2.187924 g / cm^3
# Si number density = 21.929156 Si / 1000 Ang^3
#
#
#
# Elastic Constant Matrix: (Units=GPa)
#
#
# Indices 1 2 3 4 5 6 
#
# 1 59.5985 -3.2594 -2.8528 0.0000 0.0000 0.0000
# 2 -3.2594 35.7716 -11.1642 0.0000 0.0000 0.0000
# 3 -2.8528 -11.1642 51.6355 0.0000 0.0000 0.0000
# 4 0.0000 0.0000 0.0000 9.1730 0.0000 0.0000
# 5 0.0000 0.0000 0.0000 0.0000 13.1466 0.0000
# 6 0.0000 0.0000 0.0000 0.0000 0.0000 0.1636
#
#
#
# Elastic Compliance Matrix: (Units=1/GPa)
#
#
# Indices 1 2 3 4 5 6 
#
# 1 0.016952 0.001970 0.001362 0.000000 0.000000 0.000000
# 2 0.001970 0.030207 0.006640 0.000000 0.000000 0.000000
# 3 0.001362 0.006640 0.020877 0.000000 0.000000 0.000000
# 4 0.000000 0.000000 0.000000 0.109016 0.000000 0.000000
# 5 0.000000 0.000000 0.000000 0.000000 0.076065 0.000000
# 6 0.000000 0.000000 0.000000 0.000000 0.000000 6.113834
#
#
# Mechanical properties :
#
#
# Convention : Reuss Voigt Hill
#
# Bulk Modulus (GPa) = 11.36614 12.49476 11.93045
# Shear Modulus (GPa) = 0.78415 15.44876 8.11646
#
# Velocity S-wave (km/s) = 0.59863 2.65709 1.92594
# Velocity P-wave (km/s) = 2.38163 3.88892 3.22458
#
# Compressibility (1/GPa) = 0.08798064
#
# Stress axis : x y z
#
# Youngs Moduli (GPa) = 58.99043 33.10502 47.89862
#
# Poissons Ratio (x) = -0.06521 -0.06526
# Poissons Ratio (y) = -0.11620 -0.31804
# Poissons Ratio (z) = -0.08037 -0.21981
#
# Static dielectric constant tensor:
#      x y z
#    x 1.843140 0.000000 0.000000 
#    y 0.000000 1.772560 0.000000 
#    z 0.000000 0.000000 1.801320 
# 
# From -- ./inp_files/19220.got.cif
#   From: 2010.05.17/outbox.cif.g08.bks.cpg/sg59_10_cif.got.tgz:19220.got - 2010.06.03 14:40:33.
