data_PCOD9452317
_publ_section_title
;
Structure prediction by ZEFSAII (Michael W. Deem and Ramdas Pophale) SiO2 
 PCOD9452317
Probable space group: P M M N
;
_chemical_formula_sum "Si O2"
_cell_formula_units_Z 64
_cell_length_a 8.679874
_cell_length_b 19.143545
_cell_length_c 20.349026
_cell_angle_alpha 90.000000
_cell_angle_beta 90.000000
_cell_angle_gamma 90.000000
_cell_volume 3381.266572
_symmetry_space_group_name_H-M "P M M N"
_symmetry_group_IT_number 59
_space_group.IT_coordinate_system_code '2'
_symmetry_cell_setting 'orthorhombic'
loop_
_space_group_symop_operation_xyz
x,y,z
1/2-x,1/2-y,z
1/2+x,-y,-z
-x,1/2+y,-z
-x,-y,-z
1/2+x,1/2+y,-z
1/2-x,y,z
x,1/2-y,z
loop_
_atom_site_type_symbol
_atom_site_label
_atom_site_fract_x
_atom_site_fract_y
_atom_site_fract_z
Si Si1 0.063769 0.669354 0.030632
Si Si2 0.935750 0.081718 0.096018
Si Si3 0.064167 0.169507 0.217280
Si Si4 0.934799 0.831495 0.393939
Si Si5 0.433183 0.922618 0.512222
Si Si6 0.565172 0.928973 0.138185
Si Si7 0.064823 0.084096 0.345989
Si Si8 0.065449 0.567396 0.285111
O O1 0.250000 0.667456 0.032329
O O2 0.016791 0.750000 0.022084
O O3 0.999728 0.635493 0.096872
O O4 0.010668 0.621772 0.969316
O O5 0.750000 0.082503 0.095701
O O6 0.993237 0.123334 0.159619
O O7 0.985703 0.001273 0.102810
O O8 0.250000 0.165905 0.212105
O O9 0.016474 0.250000 0.211349
O O10 0.022929 0.137417 0.287991
O O11 0.750000 0.837033 0.392986
O O12 0.977345 0.750000 0.394312
O O13 0.998059 0.870622 0.458183
O O14 0.002259 0.871088 0.330770
O O15 0.250000 0.924973 0.505363
O O16 0.482020 0.901502 0.585609
O O17 0.500000 0.000000 0.500000
O O18 0.750000 0.926842 0.138734
O O19 0.504432 0.930263 0.212462
O O20 0.250000 0.086896 0.356039
O O21 0.026238 0.006347 0.320032
O O22 0.250000 0.571110 0.280702
#
# Coordination Sequence:
#
# PCOD9452317 Si02
#       8
#     8   8   8   8   8   8   8   8
#     4  10  22  40  60  84 118 159 201 247 304 365
#     4  10  21  38  61  88 119 157 198 246 300 359
#     4  10  21  37  59  88 122 158 195 238 292 354
#     4  11  25  44  66  93 126 162 204 259 316 368
#     4  12  24  39  64  93 124 162 205 252 301 362
#     4  11  23  38  61  91 121 155 202 254 303 359
#     4  10  21  38  60  89 122 159 202 246 296 356
#     4  11  22  39  65  91 121 162 203 250 302 361
#
# _framework density 18.927820000000001
#
# number of rings (size 3 to 8) (size 9 to 14) (size 15 to 20)
#    0.000    1.375    2.500    3.000    0.000    5.000 
#    0.000    1.250    0.000    0.000    0.000    0.000 
#    0.000    0.000    0.000    0.000    0.000    0.000 
#
# Total GULP energy -357835.868652 kJ/mol
# GULP energy per Si atom -5591.185448 kJ/mol
# Density = 1.888474 g / cm^3
# Si number density = 18.927820 Si / 1000 Ang^3
#
#
#
# Elastic Constant Matrix: (Units=GPa)
#
#
# Indices 1 2 3 4 5 6 
#
# 1 26.3997 25.7270 22.3057 0.0000 0.0000 0.0000
# 2 25.7270 101.9617 50.3290 0.0000 0.0000 0.0000
# 3 22.3057 50.3290 118.5700 0.0000 0.0000 0.0000
# 4 0.0000 0.0000 0.0000 33.9798 0.0000 0.0000
# 5 0.0000 0.0000 0.0000 0.0000 25.0830 0.0000
# 6 0.0000 0.0000 0.0000 0.0000 0.0000 22.4358
#
#
#
# Elastic Compliance Matrix: (Units=1/GPa)
#
#
# Indices 1 2 3 4 5 6 
#
# 1 0.052844 -0.010660 -0.005416 0.000000 0.000000 0.000000
# 2 -0.010660 0.014558 -0.004174 0.000000 0.000000 0.000000
# 3 -0.005416 -0.004174 0.011224 0.000000 0.000000 0.000000
# 4 0.000000 0.000000 0.000000 0.029429 0.000000 0.000000
# 5 0.000000 0.000000 0.000000 0.000000 0.039868 0.000000
# 6 0.000000 0.000000 0.000000 0.000000 0.000000 0.044572
#
#
# Mechanical properties :
#
#
# Convention : Reuss Voigt Hill
#
# Bulk Modulus (GPa) = 26.22905 49.29500 37.76203
# Shear Modulus (GPa) = 20.34971 26.20436 23.27703
#
# Velocity S-wave (km/s) = 3.28246 3.72484 3.51062
# Velocity P-wave (km/s) = 5.31541 6.67828 6.03544
#
# Compressibility (1/GPa) = 0.03812566
#
# Stress axis : x y z
#
# Youngs Moduli (GPa) = 18.92356 68.69269 89.09155
#
# Poissons Ratio (x) = 0.73227 0.48255
# Poissons Ratio (y) = 0.20173 0.37185
# Poissons Ratio (z) = 0.10250 0.28671
#
# Static dielectric constant tensor:
#      x y z
#    x 1.636880 0.000000 0.000000 
#    y 0.000000 1.642070 0.000000 
#    z 0.000000 0.000000 1.623760 
# 
# From -- ./inp_files/29401.got.cif
#   From: 2010.05.17/outbox.cif.g08.bks.cpg/sg59_15_cif.got.tgz:29401.got - 2010.06.03 14:40:33.
