data_PCOD9452147
_publ_section_title
;
Structure prediction by ZEFSAII (Michael W. Deem and Ramdas Pophale) SiO2 
 PCOD9452147
Probable space group: P M M N
;
_chemical_formula_sum "Si O2"
_cell_formula_units_Z 48
_cell_length_a 9.444310
_cell_length_b 8.748389
_cell_length_c 31.850082
_cell_angle_alpha 90.000000
_cell_angle_beta 90.000000
_cell_angle_gamma 90.000000
_cell_volume 2631.533327
_symmetry_space_group_name_H-M "P M M N"
_symmetry_group_IT_number 59
_space_group.IT_coordinate_system_code '2'
_symmetry_cell_setting 'orthorhombic'
loop_
_space_group_symop_operation_xyz
x,y,z
1/2-x,1/2-y,z
1/2+x,-y,-z
-x,1/2+y,-z
-x,-y,-z
1/2+x,1/2+y,-z
1/2-x,y,z
x,1/2-y,z
loop_
_atom_site_type_symbol
_atom_site_label
_atom_site_fract_x
_atom_site_fract_y
_atom_site_fract_z
Si Si1 0.082267 0.434148 0.617453
Si Si2 0.913649 0.563981 0.288372
Si Si3 0.914478 0.566871 0.539292
Si Si4 0.914789 0.933275 0.039369
Si Si5 0.916241 0.567502 0.882711
Si Si6 0.417999 0.931880 0.206812
O O1 0.250000 0.468140 0.612012
O O2 0.067968 0.250000 0.614553
O O3 0.040417 0.482863 0.664796
O O4 0.989274 0.510683 0.581750
O O5 0.750000 0.519776 0.283037
O O6 0.918656 0.750000 0.288565
O O7 0.003999 0.512060 0.248679
O O8 0.750000 0.518353 0.537907
O O9 0.918872 0.750000 0.537222
O O10 0.000000 0.500000 0.500000
O O11 0.750000 0.980395 0.037815
O O12 0.920233 0.750000 0.037723
O O13 0.989076 0.990880 0.081734
O O14 0.000000 0.000000 0.000000
O O15 0.750000 0.523961 0.888259
O O16 0.925556 0.750000 0.886187
O O17 0.960227 0.514504 0.836167
O O18 0.250000 0.952386 0.212175
O O19 0.445250 0.750000 0.202026
#
# Coordination Sequence:
#
# PCOD9452147 Si02
#       6
#     8   8   8   8   8   8
#     4   9  18  34  56  81 108 139 176 217 262 313
#     4   8  15  29  50  76 105 136 172 216 262 308
#     4  11  24  39  55  78 106 136 173 216 262 314
#     4  11  24  40  59  84 111 140 176 218 265 317
#     4  10  21  37  56  79 109 145 183 222 266 315
#     4   9  17  30  50  76 105 139 179 220 262 309
#
# _framework density 18.240316
#
# number of rings (size 3 to 8) (size 9 to 14) (size 15 to 20)
#    0.000    2.333    0.000    3.500    0.000    9.333 
#    0.000    4.167    0.000    3.000    0.000    0.000 
#    0.000    0.000    0.000    0.000    0.000    0.000 
#
# Total GULP energy -267927.269795 kJ/mol
# GULP energy per Si atom -5581.818121 kJ/mol
# Density = 1.819880 g / cm^3
# Si number density = 18.240316 Si / 1000 Ang^3
#
#
#
# Elastic Constant Matrix: (Units=GPa)
#
#
# Indices 1 2 3 4 5 6 
#
# 1 113.1263 46.3930 110.2958 0.0000 0.0000 0.0000
# 2 46.3930 31.5454 49.2569 0.0000 0.0000 0.0000
# 3 110.2958 49.2569 195.3159 0.0000 0.0000 0.0000
# 4 0.0000 0.0000 0.0000 32.0476 0.0000 0.0000
# 5 0.0000 0.0000 0.0000 0.0000 42.2451 0.0000
# 6 0.0000 0.0000 0.0000 0.0000 0.0000 24.2825
#
#
#
# Elastic Compliance Matrix: (Units=1/GPa)
#
#
# Indices 1 2 3 4 5 6 
#
# 1 0.030493 -0.029623 -0.009749 0.000000 0.000000 0.000000
# 2 -0.029623 0.081069 -0.003717 0.000000 0.000000 0.000000
# 3 -0.009749 -0.003717 0.011563 0.000000 0.000000 0.000000
# 4 0.000000 0.000000 0.000000 0.031204 0.000000 0.000000
# 5 0.000000 0.000000 0.000000 0.000000 0.023671 0.000000
# 6 0.000000 0.000000 0.000000 0.000000 0.000000 0.041182
#
#
# Mechanical properties :
#
#
# Convention : Reuss Voigt Hill
#
# Bulk Modulus (GPa) = 27.06512 83.54213 55.30363
# Shear Modulus (GPa) = 15.73937 28.65117 22.19527
#
# Velocity S-wave (km/s) = 2.94068 3.96758 3.49209
# Velocity P-wave (km/s) = 5.13814 8.17858 6.82970
#
# Compressibility (1/GPa) = 0.03694793
#
# Stress axis : x y z
#
# Youngs Moduli (GPa) = 32.79451 12.33511 86.48586
#
# Poissons Ratio (x) = 0.36540 0.84315
# Poissons Ratio (y) = 0.97146 0.32147
# Poissons Ratio (z) = 0.31971 0.04585
#
# Static dielectric constant tensor:
#      x y z
#    x 1.612440 0.000000 0.000000 
#    y 0.000000 1.620410 0.000000 
#    z 0.000000 0.000000 1.610090 
# 
# From -- ./inp_files/32877.got.cif
#   From: 2010.05.17/outbox.cif.g08.bks.cpg/sg59_17_cif.got.tgz:32877.got - 2010.06.03 14:40:33.
