data_PCOD9452857
_publ_section_title
;
Structure prediction by ZEFSAII (Michael W. Deem and Ramdas Pophale) SiO2 
 PCOD9452857
Probable space group: P M M N
;
_chemical_formula_sum "Si O2"
_cell_formula_units_Z 48
_cell_length_a 28.526045
_cell_length_b 10.198851
_cell_length_c 9.065224
_cell_angle_alpha 90.000000
_cell_angle_beta 90.000000
_cell_angle_gamma 90.000000
_cell_volume 2637.371750
_symmetry_space_group_name_H-M "P M M N"
_symmetry_group_IT_number 59
_space_group.IT_coordinate_system_code '2'
_symmetry_cell_setting 'orthorhombic'
loop_
_space_group_symop_operation_xyz
x,y,z
1/2-x,1/2-y,z
1/2+x,-y,-z
-x,1/2+y,-z
-x,-y,-z
1/2+x,1/2+y,-z
1/2-x,y,z
x,1/2-y,z
loop_
_atom_site_type_symbol
_atom_site_label
_atom_site_fract_x
_atom_site_fract_y
_atom_site_fract_z
Si Si1 0.859029 0.013561 0.172751
Si Si2 0.945175 0.405583 0.358749
Si Si3 0.859409 0.005947 0.819641
Si Si4 0.193647 0.750000 0.325286
Si Si5 0.195632 0.250000 0.820987
Si Si6 0.195167 0.750000 0.677614
Si Si7 0.802443 0.750000 0.821253
Si Si8 0.055342 0.406167 0.357951
O O1 0.911126 0.039297 0.232888
O O2 0.828076 0.125082 0.247655
O O3 0.834766 0.877184 0.218872
O O4 0.858345 0.023042 0.995837
O O5 0.934588 0.250000 0.388443
O O6 0.937708 0.501960 0.498204
O O7 0.000181 0.412658 0.319779
O O8 0.833582 0.126494 0.742577
O O9 0.829509 0.878871 0.775990
O O10 0.911440 0.971556 0.764276
O O11 0.250000 0.750000 0.291594
O O12 0.188353 0.750000 0.501822
O O13 0.250000 0.250000 0.767480
O O14 0.198736 0.250000 0.999872
O O15 0.250000 0.750000 0.707924
O O16 0.750000 0.750000 0.764095
O O17 0.066225 0.250000 0.380178
#
# Coordination Sequence:
#
# PCOD9452857 Si02
#       8
#     8   8   8   4   4   4   4   8
#     4  11  22  38  62  90 120 159 200 249 304 353
#     4  10  22  41  63  89 121 160 200 246 299 362
#     4  11  22  38  62  91 121 157 200 250 305 354
#     4  11  25  41  60  89 124 161 202 249 298 361
#     4   9  20  36  56  85 120 155 192 237 288 351
#     4  11  23  41  60  85 122 161 204 249 300 361
#     4   9  18  36  58  83 118 153 192 239 294 353
#     4  10  22  41  64  89 120 159 201 247 301 361
#
# _framework density 18.199936999999998
#
# number of rings (size 3 to 8) (size 9 to 14) (size 15 to 20)
#    0.000    1.667    1.667    2.500    2.333    3.333 
#    0.000    0.000    0.000    4.000    0.000    0.000 
#    0.000    0.000    0.000    0.000    0.000    0.000 
#
# Total GULP energy -267813.103575 kJ/mol
# GULP energy per Si atom -5579.439658 kJ/mol
# Density = 1.815851 g / cm^3
# Si number density = 18.199937 Si / 1000 Ang^3
#
#
#
# Elastic Constant Matrix: (Units=GPa)
#
#
# Indices 1 2 3 4 5 6 
#
# 1 110.6645 72.6478 65.4742 0.0000 0.0000 0.0000
# 2 72.6478 181.6857 60.9507 0.0000 0.0000 0.0000
# 3 65.4742 60.9507 78.4879 0.0000 0.0000 0.0000
# 4 0.0000 0.0000 0.0000 -45.1619 0.0000 0.0000
# 5 0.0000 0.0000 0.0000 0.0000 27.9244 0.0000
# 6 0.0000 0.0000 0.0000 0.0000 0.0000 17.8877
#
#
#
# Elastic Compliance Matrix: (Units=1/GPa)
#
#
# Indices 1 2 3 4 5 6 
#
# 1 0.019045 -0.003091 -0.013487 0.000000 0.000000 0.000000
# 2 -0.003091 0.007945 -0.003591 0.000000 0.000000 0.000000
# 3 -0.013487 -0.003591 0.026780 0.000000 0.000000 0.000000
# 4 0.000000 0.000000 0.000000 -0.022143 0.000000 0.000000
# 5 0.000000 0.000000 0.000000 0.000000 0.035811 0.000000
# 6 0.000000 0.000000 0.000000 0.000000 0.000000 0.055904
#
#
# Mechanical properties :
#
#
# Convention : Reuss Voigt Hill
#
# Bulk Modulus (GPa) = 74.44895 85.44259 79.94577
# Shear Modulus (GPa) = 29.73405 11.58107 20.65756
#
# Velocity S-wave (km/s) = 4.04635 2.52528 3.37268
# Velocity P-wave (km/s) = 7.92625 7.45328 7.69340
#
# Compressibility (1/GPa) = 0.01343202
#
# Stress axis : x y z
#
# Youngs Moduli (GPa) = 52.50812 125.87194 37.34069
#
# Poissons Ratio (x) = 0.38902 0.50361
# Poissons Ratio (y) = 0.16228 0.13410
# Poissons Ratio (z) = 0.70817 0.45205
#
# Static dielectric constant tensor:
#      x y z
#    x 1.634620 0.000000 0.000000 
#    y 0.000000 1.566370 0.000000 
#    z 0.000000 0.000000 1.597280 
# 
# From -- ./inp_files/13087.got.cif
#   From: 2010.05.17/outbox.cif.g08.bks.cpg/sg59_7_cif.got.tgz:13087.got - 2010.06.03 14:40:33.
