data_PCOD9452989
_publ_section_title
;
Structure prediction by ZEFSAII (Michael W. Deem and Ramdas Pophale) SiO2 
 PCOD9452989
Probable space group: P M M N
;
_chemical_formula_sum "Si O2"
_cell_formula_units_Z 40
_cell_length_a 20.625996
_cell_length_b 8.744759
_cell_length_c 13.169544
_cell_angle_alpha 90.000000
_cell_angle_beta 90.000000
_cell_angle_gamma 90.000000
_cell_volume 2375.382277
_symmetry_space_group_name_H-M "P M M N"
_symmetry_group_IT_number 59
_space_group.IT_coordinate_system_code '2'
_symmetry_cell_setting 'orthorhombic'
loop_
_space_group_symop_operation_xyz
x,y,z
1/2-x,1/2-y,z
1/2+x,-y,-z
-x,1/2+y,-z
-x,-y,-z
1/2+x,1/2+y,-z
1/2-x,y,z
x,1/2-y,z
loop_
_atom_site_type_symbol
_atom_site_label
_atom_site_fract_x
_atom_site_fract_y
_atom_site_fract_z
Si Si1 0.676463 0.563467 0.885010
Si Si2 0.900200 0.566216 0.686596
Si Si3 0.071782 0.932922 0.518295
Si Si4 0.949975 0.066382 0.260495
Si Si5 0.433044 0.066849 0.956393
O O1 0.750000 0.511591 0.900629
O O2 0.676614 0.750000 0.885273
O O3 0.648209 0.517010 0.775438
O O4 0.626347 0.515338 0.972260
O O5 0.898183 0.750000 0.677477
O O6 0.887403 0.495848 0.575975
O O7 0.973791 0.527080 0.721927
O O8 0.068803 0.750000 0.513093
O O9 0.087178 0.974503 0.635001
O O10 0.000000 0.000000 0.500000
O O11 0.947075 0.250000 0.247465
O O12 0.925567 0.986591 0.159287
O O13 0.436674 0.250000 0.961247
O O14 0.500000 0.000000 0.000000
#
# Coordination Sequence:
#
# PCOD9452989 Si02
#       5
#     8   8   8   8   8
#     4   9  18  33  51  71  98 132 167 205 251 298
#     4   9  16  29  48  70  97 125 159 200 244 293
#     4   9  17  28  44  68  98 127 156 194 240 288
#     4   9  17  30  46  70 100 127 159 200 245 289
#     4  11  20  31  50  74  99 129 166 207 251 297
#
# _framework density 16.839393999999999
#
# number of rings (size 3 to 8) (size 9 to 14) (size 15 to 20)
#    0.000    2.600    2.000    2.400    0.000    4.000 
#    0.000    0.000    0.000    6.600    0.000    8.400 
#    0.000    0.000    0.000    0.000    0.000    0.000 
#
# Total GULP energy -222845.788309 kJ/mol
# GULP energy per Si atom -5571.144708 kJ/mol
# Density = 1.680107 g / cm^3
# Si number density = 16.839394 Si / 1000 Ang^3
#
#
#
# Elastic Constant Matrix: (Units=GPa)
#
#
# Indices 1 2 3 4 5 6 
#
# 1 90.8656 21.1937 74.5579 0.0000 0.0000 0.0000
# 2 21.1937 23.0942 43.6278 0.0000 0.0000 0.0000
# 3 74.5579 43.6278 192.2353 0.0000 0.0000 0.0000
# 4 0.0000 0.0000 0.0000 34.2184 0.0000 0.0000
# 5 0.0000 0.0000 0.0000 0.0000 18.3343 0.0000
# 6 0.0000 0.0000 0.0000 0.0000 0.0000 12.5394
#
#
#
# Elastic Compliance Matrix: (Units=1/GPa)
#
#
# Indices 1 2 3 4 5 6 
#
# 1 0.016511 -0.005347 -0.005190 0.000000 0.000000 0.000000
# 2 -0.005347 0.077530 -0.015521 0.000000 0.000000 0.000000
# 3 -0.005190 -0.015521 0.010738 0.000000 0.000000 0.000000
# 4 0.000000 0.000000 0.000000 0.029224 0.000000 0.000000
# 5 0.000000 0.000000 0.000000 0.000000 0.054542 0.000000
# 6 0.000000 0.000000 0.000000 0.000000 0.000000 0.079749
#
#
# Mechanical properties :
#
#
# Convention : Reuss Voigt Hill
#
# Bulk Modulus (GPa) = 18.98951 64.99491 41.99221
# Shear Modulus (GPa) = 14.79438 24.13948 19.46693
#
# Velocity S-wave (km/s) = 2.96726 3.79028 3.40374
# Velocity P-wave (km/s) = 4.80009 7.60498 6.35911
#
# Compressibility (1/GPa) = 0.05266065
#
# Stress axis : x y z
#
# Youngs Moduli (GPa) = 60.56474 12.89820 93.13087
#
# Poissons Ratio (x) = 0.06897 0.48337
# Poissons Ratio (y) = 0.32387 1.44553
# Poissons Ratio (z) = 0.31434 0.20020
#
# Static dielectric constant tensor:
#      x y z
#    x 1.557050 0.000000 0.000000 
#    y 0.000000 1.570310 0.000000 
#    z 0.000000 0.000000 1.606210 
# 
# From -- ./inp_files/14027.got.cif
#   From: 2010.05.17/outbox.cif.g08.bks.cpg/sg59_8_cif.got.tgz:14027.got - 2010.06.03 14:40:33.
