data_PCOD9452864
_publ_section_title
;
Structure prediction by ZEFSAII (Michael W. Deem and Ramdas Pophale) SiO2 
 PCOD9452864
Probable space group: P M M N
;
_chemical_formula_sum "Si O2"
_cell_formula_units_Z 56
_cell_length_a 15.064954
_cell_length_b 9.011302
_cell_length_c 20.655492
_cell_angle_alpha 90.000000
_cell_angle_beta 90.000000
_cell_angle_gamma 90.000000
_cell_volume 2804.083220
_symmetry_space_group_name_H-M "P M M N"
_symmetry_group_IT_number 59
_space_group.IT_coordinate_system_code '2'
_symmetry_cell_setting 'orthorhombic'
loop_
_space_group_symop_operation_xyz
x,y,z
1/2-x,1/2-y,z
1/2+x,-y,-z
-x,1/2+y,-z
-x,-y,-z
1/2+x,1/2+y,-z
1/2-x,y,z
x,1/2-y,z
loop_
_atom_site_type_symbol
_atom_site_label
_atom_site_fract_x
_atom_site_fract_y
_atom_site_fract_z
Si Si1 0.893734 0.417803 0.563508
Si Si2 0.856089 0.080109 0.705404
Si Si3 0.143911 0.419891 0.705404
Si Si4 0.893734 0.582197 0.436492
Si Si5 0.143647 0.574139 0.837949
Si Si6 0.500000 0.427790 0.929244
Si Si7 0.143647 0.425861 0.162051
O O1 0.858337 0.250000 0.565209
O O2 0.876832 0.484209 0.634471
O O3 0.859131 0.500000 0.500000
O O4 0.000000 0.410105 0.556921
O O5 0.750000 0.088990 0.709263
O O6 0.891349 0.250000 0.709067
O O7 0.884395 0.984427 0.766855
O O8 0.250000 0.411010 0.709263
O O9 0.108651 0.250000 0.709067
O O10 0.123168 0.484209 0.634471
O O11 0.115605 0.515573 0.766855
O O12 0.858337 0.750000 0.434791
O O13 0.250000 0.549270 0.845519
O O14 0.127544 0.750000 0.843383
O O15 0.085925 0.486099 0.890108
O O16 0.500000 0.250000 0.932749
O O17 0.585925 0.486099 0.890108
O O18 0.500000 0.500000 0.000000
O O19 0.250000 0.450730 0.154481
O O20 0.127544 0.250000 0.156617
#
# Coordination Sequence:
#
# PCOD9452864 Si02
#       7
#     8   8   8   8   8   8   8
#     4   9  18  31  46  68 101 141 187 238 294 350
#     4   9  18  33  53  78 108 146 193 242 294 352
#     4   9  18  33  53  78 108 146 193 242 294 352
#     4   9  18  31  46  68 101 141 187 238 294 350
#     4  10  22  41  64  93 128 162 201 250 301 356
#     4  12  26  44  68  96 127 162 203 244 292 356
#     4  10  22  41  64  93 128 162 201 250 301 356
#
# _framework density 19.970877000000002
#
# number of rings (size 3 to 8) (size 9 to 14) (size 15 to 20)
#    0.000    2.286    0.000    2.143    2.000    4.000 
#    0.000    0.000    0.000    0.000    0.000    0.000 
#    0.000    0.000    0.000    0.000    0.000    0.000 
#
# Total GULP energy -312550.807234 kJ/mol
# GULP energy per Si atom -5581.264415 kJ/mol
# Density = 1.992542 g / cm^3
# Si number density = 19.970877 Si / 1000 Ang^3
#
#
#
# Elastic Constant Matrix: (Units=GPa)
#
#
# Indices 1 2 3 4 5 6 
#
# 1 69.7416 43.3981 46.7457 0.0000 0.0000 0.0000
# 2 43.3981 119.2157 97.0169 0.0000 0.0000 0.0000
# 3 46.7457 97.0169 216.2926 0.0000 0.0000 0.0000
# 4 0.0000 0.0000 0.0000 37.6129 0.0000 0.0000
# 5 0.0000 0.0000 0.0000 0.0000 33.5865 0.0000
# 6 0.0000 0.0000 0.0000 0.0000 0.0000 21.7649
#
#
#
# Elastic Compliance Matrix: (Units=1/GPa)
#
#
# Indices 1 2 3 4 5 6 
#
# 1 0.018871 -0.005592 -0.001570 0.000000 0.000000 0.000000
# 2 -0.005592 0.014867 -0.005460 0.000000 0.000000 0.000000
# 3 -0.001570 -0.005460 0.007412 0.000000 0.000000 0.000000
# 4 0.000000 0.000000 0.000000 0.026587 0.000000 0.000000
# 5 0.000000 0.000000 0.000000 0.000000 0.029774 0.000000
# 6 0.000000 0.000000 0.000000 0.000000 0.000000 0.045945
#
#
# Mechanical properties :
#
#
# Convention : Reuss Voigt Hill
#
# Bulk Modulus (GPa) = 62.87091 86.61904 74.74498
# Shear Modulus (GPa) = 28.73543 33.13214 30.93379
#
# Velocity S-wave (km/s) = 3.79735 4.07753 3.93993
# Velocity P-wave (km/s) = 7.12574 8.10155 7.62926
#
# Compressibility (1/GPa) = 0.01590561
#
# Stress axis : x y z
#
# Youngs Moduli (GPa) = 52.99234 67.26293 134.91964
#
# Poissons Ratio (x) = 0.37611 0.21186
# Poissons Ratio (y) = 0.29631 0.73667
# Poissons Ratio (z) = 0.08321 0.36726
#
# Static dielectric constant tensor:
#      x y z
#    x 1.725110 0.000000 0.000000 
#    y 0.000000 1.694430 0.000000 
#    z 0.000000 0.000000 1.700830 
# 
# From -- ./inp_files/30391.got.cif
#   From: 2010.05.17/outbox.cif.g08.bks.cpg/sg59_16_cif.got.tgz:30391.got - 2010.06.03 14:40:33.
