data_PCOD9452476
_publ_section_title
;
Structure prediction by ZEFSAII (Michael W. Deem and Ramdas Pophale) SiO2 
 PCOD9452476
Probable space group: P M M N
;
_chemical_formula_sum "Si O2"
_cell_formula_units_Z 48
_cell_length_a 27.156270
_cell_length_b 14.266375
_cell_length_c 5.306974
_cell_angle_alpha 90.000000
_cell_angle_beta 90.000000
_cell_angle_gamma 90.000000
_cell_volume 2056.035994
_symmetry_space_group_name_H-M "P M M N"
_symmetry_group_IT_number 59
_space_group.IT_coordinate_system_code '2'
_symmetry_cell_setting 'orthorhombic'
loop_
_space_group_symop_operation_xyz
x,y,z
1/2-x,1/2-y,z
1/2+x,-y,-z
-x,1/2+y,-z
-x,-y,-z
1/2+x,1/2+y,-z
1/2-x,y,z
x,1/2-y,z
loop_
_atom_site_type_symbol
_atom_site_label
_atom_site_fract_x
_atom_site_fract_y
_atom_site_fract_z
Si Si1 0.517976 0.353979 0.907382
Si Si2 0.308817 0.139130 0.489249
Si Si3 0.650256 0.542161 0.008509
Si Si4 0.192542 0.856091 0.769975
Si Si5 0.896547 0.353704 0.561766
Si Si6 0.550602 0.506990 0.249410
O O1 0.500523 0.250000 0.956465
O O2 0.575422 0.349881 0.826664
O O3 0.484312 0.404998 0.697241
O O4 0.516643 0.424712 0.137153
O O5 0.250000 0.125588 0.473277
O O6 0.319157 0.250000 0.468830
O O7 0.327153 0.101106 0.758347
O O8 0.333685 0.084634 0.257077
O O9 0.670834 0.436793 0.051991
O O10 0.591656 0.541911 0.050735
O O11 0.250000 0.873188 0.723466
O O12 0.187135 0.750000 0.874097
O O13 0.160586 0.858468 0.511912
O O14 0.912000 0.250000 0.448961
O O15 0.917841 0.450214 0.451100
#
# Coordination Sequence:
#
# PCOD9452476 Si02
#       6
#     8   8   8   8   8   8
#     4  10  21  38  60  87 118 163 215 266 328 393
#     4  11  24  44  69  97 132 175 222 275 335 398
#     4  11  24  41  68  98 134 175 220 275 333 394
#     4   9  18  35  60  92 129 168 213 265 323 390
#     4   9  18  34  58  85 118 161 209 261 322 389
#     4  10  22  37  61  84 127 161 212 267 329 388
#
# _framework density 23.345894000000001
#
# number of rings (size 3 to 8) (size 9 to 14) (size 15 to 20)
#    0.000    2.000    0.000    3.000    4.667    3.333 
#    0.000    0.833    0.000    3.000    0.000    0.000 
#    0.000    0.000    0.000    0.000    0.000    0.000 
#
# Total GULP energy -267916.393709 kJ/mol
# GULP energy per Si atom -5581.591536 kJ/mol
# Density = 2.329276 g / cm^3
# Si number density = 23.345894 Si / 1000 Ang^3
#
#
#
# Elastic Constant Matrix: (Units=GPa)
#
#
# Indices 1 2 3 4 5 6 
#
# 1 113.5617 54.1157 11.0719 0.0000 0.0000 0.0000
# 2 54.1157 153.3859 39.8126 0.0000 0.0000 0.0000
# 3 11.0719 39.8126 78.6074 0.0000 0.0000 0.0000
# 4 0.0000 0.0000 0.0000 22.8698 0.0000 0.0000
# 5 0.0000 0.0000 0.0000 0.0000 23.3383 0.0000
# 6 0.0000 0.0000 0.0000 0.0000 0.0000 29.6598
#
#
#
# Elastic Compliance Matrix: (Units=1/GPa)
#
#
# Indices 1 2 3 4 5 6 
#
# 1 0.010600 -0.003860 0.000462 0.000000 0.000000 0.000000
# 2 -0.003860 0.008912 -0.003970 0.000000 0.000000 0.000000
# 3 0.000462 -0.003970 0.014667 0.000000 0.000000 0.000000
# 4 0.000000 0.000000 0.000000 0.043726 0.000000 0.000000
# 5 0.000000 0.000000 0.000000 0.000000 0.042848 0.000000
# 6 0.000000 0.000000 0.000000 0.000000 0.000000 0.033716
#
#
# Mechanical properties :
#
#
# Convention : Reuss Voigt Hill
#
# Bulk Modulus (GPa) = 51.43176 61.72839 56.58007
# Shear Modulus (GPa) = 28.46007 31.21055 29.83531
#
# Velocity S-wave (km/s) = 3.49529 3.66030 3.57875
# Velocity P-wave (km/s) = 6.19416 6.66047 6.43154
#
# Compressibility (1/GPa) = 0.01944324
#
# Stress axis : x y z
#
# Youngs Moduli (GPa) = 94.33970 112.21298 68.18004
#
# Poissons Ratio (x) = 0.43310 -0.03148
# Poissons Ratio (y) = 0.36412 0.27067
# Poissons Ratio (z) = -0.04356 0.44547
#
# Static dielectric constant tensor:
#      x y z
#    x 1.901680 0.000000 0.000000 
#    y 0.000000 1.903790 0.000000 
#    z 0.000000 0.000000 1.976880 
# 
# From -- ./inp_files/4185.got.cif
#   From: 2010.05.17/outbox.cif.g08.bks.cpg/sg59_3_cif.got.tgz:4185.got - 2010.06.03 14:40:33.
