data_PCOD9452016
_publ_section_title
;
Structure prediction by ZEFSAII (Michael W. Deem and Ramdas Pophale) SiO2 
 PCOD9452016
Probable space group: P M M N
;
_chemical_formula_sum "Si O2"
_cell_formula_units_Z 56
_cell_length_a 9.052922
_cell_length_b 18.682678
_cell_length_c 18.397036
_cell_angle_alpha 90.000000
_cell_angle_beta 90.000000
_cell_angle_gamma 90.000000
_cell_volume 3111.542701
_symmetry_space_group_name_H-M "P M M N"
_symmetry_group_IT_number 59
_space_group.IT_coordinate_system_code '2'
_symmetry_cell_setting 'orthorhombic'
loop_
_space_group_symop_operation_xyz
x,y,z
1/2-x,1/2-y,z
1/2+x,-y,-z
-x,1/2+y,-z
-x,-y,-z
1/2+x,1/2+y,-z
1/2-x,y,z
x,1/2-y,z
loop_
_atom_site_type_symbol
_atom_site_label
_atom_site_fract_x
_atom_site_fract_y
_atom_site_fract_z
Si Si1 0.575927 0.414503 0.077702
Si Si2 0.427460 0.077809 0.496085
Si Si3 0.575941 0.664435 0.788162
Si Si4 0.074609 0.835387 0.634762
Si Si5 0.076282 0.835788 0.208001
Si Si6 0.074079 0.166112 0.641372
Si Si7 0.076130 0.414054 0.925936
O O1 0.750000 0.398135 0.078825
O O2 0.494690 0.376219 0.144017
O O3 0.557963 0.500394 0.083881
O O4 0.505837 0.393136 0.000408
O O5 0.250000 0.072972 0.489567
O O6 0.493948 0.121293 0.428471
O O7 0.462025 0.120352 0.570443
O O8 0.500000 0.000000 0.500000
O O9 0.750000 0.648515 0.782044
O O10 0.559529 0.750000 0.798548
O O11 0.493348 0.645638 0.713207
O O12 0.250000 0.849348 0.633912
O O13 0.051969 0.750000 0.624071
O O14 0.250000 0.851632 0.204325
O O15 0.056323 0.750000 0.201858
O O16 0.011358 0.857242 0.286364
O O17 0.992223 0.874200 0.142801
O O18 0.250000 0.160471 0.654736
O O19 0.040429 0.250000 0.627846
O O20 0.250000 0.398891 0.932405
#
# Coordination Sequence:
#
# PCOD9452016 Si02
#       7
#     8   8   8   8   8   8   8
#     4  10  21  37  57  81 110 144 183 227 274 324
#     4  11  23  38  57  83 115 148 185 229 276 328
#     4  10  21  37  58  84 112 144 184 227 273 327
#     4  10  21  38  60  84 111 145 185 229 278 331
#     4  10  21  36  56  83 111 140 178 224 272 321
#     4   9  19  37  59  80 105 141 182 223 270 324
#     4  10  21  37  57  80 108 145 185 223 269 326
#
# _framework density 17.997502000000001
#
# number of rings (size 3 to 8) (size 9 to 14) (size 15 to 20)
#    0.000    2.000    0.000    3.000    0.000    7.714 
#    0.000    2.857    0.000    0.000    0.000    0.000 
#    0.000    0.000    0.000    0.000    0.000    0.000 
#
# Total GULP energy -312860.127577 kJ/mol
# GULP energy per Si atom -5586.787992 kJ/mol
# Density = 1.795654 g / cm^3
# Si number density = 17.997502 Si / 1000 Ang^3
#
#
#
# Elastic Constant Matrix: (Units=GPa)
#
#
# Indices 1 2 3 4 5 6 
#
# 1 120.7126 66.7575 109.4759 0.0000 0.0000 0.0000
# 2 66.7575 51.0024 79.1897 0.0000 0.0000 0.0000
# 3 109.4759 79.1897 192.9676 0.0000 0.0000 0.0000
# 4 0.0000 0.0000 0.0000 74.5422 0.0000 0.0000
# 5 0.0000 0.0000 0.0000 0.0000 40.1063 0.0000
# 6 0.0000 0.0000 0.0000 0.0000 0.0000 8.4457
#
#
#
# Elastic Compliance Matrix: (Units=1/GPa)
#
#
# Indices 1 2 3 4 5 6 
#
# 1 0.030443 -0.035915 -0.002532 0.000000 0.000000 0.000000
# 2 -0.035915 0.096411 -0.019190 0.000000 0.000000 0.000000
# 3 -0.002532 -0.019190 0.014494 0.000000 0.000000 0.000000
# 4 0.000000 0.000000 0.000000 0.013415 0.000000 0.000000
# 5 0.000000 0.000000 0.000000 0.000000 0.024934 0.000000
# 6 0.000000 0.000000 0.000000 0.000000 0.000000 0.118404
#
#
# Mechanical properties :
#
#
# Convention : Reuss Voigt Hill
#
# Bulk Modulus (GPa) = 38.35202 97.28098 67.81650
# Shear Modulus (GPa) = 11.84652 31.90281 21.87467
#
# Velocity S-wave (km/s) = 2.56839 4.21482 3.49008
# Velocity P-wave (km/s) = 5.49103 8.82361 7.34872
#
# Compressibility (1/GPa) = 0.02607425
#
# Stress axis : x y z
#
# Youngs Moduli (GPa) = 32.84863 10.37225 68.99489
#
# Poissons Ratio (x) = 0.37252 0.17472
# Poissons Ratio (y) = 1.17975 1.32398
# Poissons Ratio (z) = 0.08318 0.19904
#
# Static dielectric constant tensor:
#      x y z
#    x 1.599640 0.000000 0.000000 
#    y 0.000000 1.600040 0.000000 
#    z 0.000000 0.000000 1.574350 
# 
# From -- ./inp_files/21073.got.cif
#   From: 2010.05.17/outbox.cif.g08.bks.cpg/sg59_11_cif.got.tgz:21073.got - 2010.06.03 14:40:33.
