data_PCOD9452836
_publ_section_title
;
Structure prediction by ZEFSAII (Michael W. Deem and Ramdas Pophale) SiO2 
 PCOD9452836
Probable space group: P M M N
;
_chemical_formula_sum "Si O2"
_cell_formula_units_Z 64
_cell_length_a 8.508662
_cell_length_b 16.388948
_cell_length_c 22.747747
_cell_angle_alpha 90.000000
_cell_angle_beta 90.000000
_cell_angle_gamma 90.000000
_cell_volume 3172.128257
_symmetry_space_group_name_H-M "P M M N"
_symmetry_group_IT_number 59
_space_group.IT_coordinate_system_code '2'
_symmetry_cell_setting 'orthorhombic'
loop_
_space_group_symop_operation_xyz
x,y,z
1/2-x,1/2-y,z
1/2+x,-y,-z
-x,1/2+y,-z
-x,-y,-z
1/2+x,1/2+y,-z
1/2-x,y,z
x,1/2-y,z
loop_
_atom_site_type_symbol
_atom_site_label
_atom_site_fract_x
_atom_site_fract_y
_atom_site_fract_z
Si Si1 0.438588 0.844073 0.271676
Si Si2 0.437729 0.345002 0.858018
Si Si3 0.439168 0.502282 0.066367
Si Si4 0.567449 0.445954 0.612458
Si Si5 0.062406 0.344008 0.138350
Si Si6 0.073610 0.156884 0.513952
Si Si7 0.432158 0.616934 0.608467
Si Si8 0.072412 0.652691 0.737205
O O1 0.250000 0.848413 0.263912
O O2 0.480098 0.750000 0.285149
O O3 0.516425 0.865210 0.209447
O O4 0.477872 0.899804 0.327432
O O5 0.250000 0.345345 0.863964
O O6 0.491245 0.250000 0.869158
O O7 0.505524 0.415679 0.899924
O O8 0.250000 0.501827 0.067215
O O9 0.495620 0.417881 0.097481
O O10 0.500000 0.500000 0.000000
O O11 0.750000 0.471885 0.617207
O O12 0.546339 0.389372 0.555804
O O13 0.452805 0.520855 0.601892
O O14 0.250000 0.339726 0.131760
O O15 0.002835 0.250000 0.128121
O O16 0.022749 0.370224 0.205058
O O17 0.250000 0.122320 0.519132
O O18 0.077239 0.250000 0.533685
O O19 0.022095 0.154552 0.446263
O O20 0.250000 0.643040 0.607743
O O21 0.497774 0.634086 0.673545
O O22 0.250000 0.617889 0.739960
O O23 0.084574 0.750000 0.739711
#
# Coordination Sequence:
#
# PCOD9452836 Si02
#       8
#     8   8   8   8   8   8   8   8
#     4   9  19  37  60  86 116 152 195 242 295 356
#     4  10  22  40  63  91 125 165 208 257 310 363
#     4  11  24  41  63  93 127 165 208 252 305 366
#     4  11  23  38  58  84 116 152 192 240 296 355
#     4   9  20  39  62  88 121 160 201 248 301 359
#     4  11  24  41  60  81 108 146 193 244 297 356
#     4  11  23  38  57  83 116 152 191 239 294 351
#     4   9  19  36  58  85 115 149 191 238 289 346
#
# _framework density 20.175729
#
# number of rings (size 3 to 8) (size 9 to 14) (size 15 to 20)
#    0.000    1.875    0.000    3.000    1.750    6.250 
#    0.000    3.750    0.000    0.000    0.000    0.000 
#    0.000    0.000    0.000    0.000    0.000    0.000 
#
# Total GULP energy -357173.004476 kJ/mol
# GULP energy per Si atom -5580.828195 kJ/mol
# Density = 2.012981 g / cm^3
# Si number density = 20.175729 Si / 1000 Ang^3
#
#
#
# Elastic Constant Matrix: (Units=GPa)
#
#
# Indices 1 2 3 4 5 6 
#
# 1 30.8088 17.5322 12.3382 0.0000 0.0000 0.0000
# 2 17.5322 80.6525 54.0938 0.0000 0.0000 0.0000
# 3 12.3382 54.0938 114.3820 0.0000 0.0000 0.0000
# 4 0.0000 0.0000 0.0000 41.8984 0.0000 0.0000
# 5 0.0000 0.0000 0.0000 0.0000 29.9267 0.0000
# 6 0.0000 0.0000 0.0000 0.0000 0.0000 11.6570
#
#
#
# Elastic Compliance Matrix: (Units=1/GPa)
#
#
# Indices 1 2 3 4 5 6 
#
# 1 0.037046 -0.007869 -0.000275 0.000000 0.000000 0.000000
# 2 -0.007869 0.019830 -0.008529 0.000000 0.000000 0.000000
# 3 -0.000275 -0.008529 0.012806 0.000000 0.000000 0.000000
# 4 0.000000 0.000000 0.000000 0.023867 0.000000 0.000000
# 5 0.000000 0.000000 0.000000 0.000000 0.033415 0.000000
# 6 0.000000 0.000000 0.000000 0.000000 0.000000 0.085785
#
#
# Mechanical properties :
#
#
# Convention : Reuss Voigt Hill
#
# Bulk Modulus (GPa) = 27.52054 43.75240 35.63647
# Shear Modulus (GPa) = 19.36429 26.15502 22.75966
#
# Velocity S-wave (km/s) = 3.10140 3.60441 3.36232
# Velocity P-wave (km/s) = 5.14732 6.24941 5.72494
#
# Compressibility (1/GPa) = 0.03633650
#
# Stress axis : x y z
#
# Youngs Moduli (GPa) = 26.99333 50.42873 78.08876
#
# Poissons Ratio (x) = 0.39681 0.02146
# Poissons Ratio (y) = 0.21240 0.66604
# Poissons Ratio (z) = 0.00742 0.43012
#
# Static dielectric constant tensor:
#      x y z
#    x 1.707430 0.000000 0.000000 
#    y 0.000000 1.736720 0.000000 
#    z 0.000000 0.000000 1.700030 
# 
# From -- ./inp_files/29557.got.cif
#   From: 2010.05.17/outbox.cif.g08.bks.cpg/sg59_15_cif.got.tgz:29557.got - 2010.06.03 14:40:33.
