data_PCOD9452161
_publ_section_title
;
Structure prediction by ZEFSAII (Michael W. Deem and Ramdas Pophale) SiO2 
 PCOD9452161
Probable space group: P M M N
;
_chemical_formula_sum "Si O2"
_cell_formula_units_Z 48
_cell_length_a 13.900951
_cell_length_b 28.438960
_cell_length_c 4.996039
_cell_angle_alpha 90.000000
_cell_angle_beta 90.000000
_cell_angle_gamma 90.000000
_cell_volume 1975.077051
_symmetry_space_group_name_H-M "P M M N"
_symmetry_group_IT_number 59
_space_group.IT_coordinate_system_code '2'
_symmetry_cell_setting 'orthorhombic'
loop_
_space_group_symop_operation_xyz
x,y,z
1/2-x,1/2-y,z
1/2+x,-y,-z
-x,1/2+y,-z
-x,-y,-z
1/2+x,1/2+y,-z
1/2-x,y,z
x,1/2-y,z
loop_
_atom_site_type_symbol
_atom_site_label
_atom_site_fract_x
_atom_site_fract_y
_atom_site_fract_z
Si Si1 0.865081 0.532472 0.543839
Si Si2 0.142063 0.892216 0.334096
Si Si3 0.366409 0.979164 0.957688
Si Si4 0.649170 0.198964 0.028774
Si Si5 0.065154 0.195911 0.060498
Si Si6 0.058899 0.366572 0.524207
O O1 0.750000 0.529564 0.553951
O O2 0.898698 0.521019 0.843781
O O3 0.890718 0.583488 0.436022
O O4 0.898698 0.491536 0.340540
O O5 0.250000 0.903862 0.442376
O O6 0.052282 0.883160 0.527110
O O7 0.111832 0.931381 0.115672
O O8 0.150717 0.843647 0.174210
O O9 0.250000 0.979240 0.945939
O O10 0.750000 0.195841 0.189910
O O11 0.650326 0.250000 0.888299
O O12 0.545851 0.198959 0.164999
O O13 0.100213 0.250000 0.039759
O O14 0.108746 0.161554 0.281856
O O15 0.063666 0.168249 0.779496
#
# Coordination Sequence:
#
# PCOD9452161 Si02
#       6
#     8   8   8   8   8   8
#     4  10  21  38  58  81 108 141 184 227 272 327
#     4   9  19  34  53  81 115 147 184 225 267 319
#     4   9  19  35  55  79 111 147 179 223 275 318
#     4   8  15  30  52  77 107 145 185 222 261 312
#     4  10  21  37  56  81 112 143 179 223 273 327
#     4  11  22  36  59  83 107 146 183 222 274 320
#
# _framework density 24.302848000000001
#
# number of rings (size 3 to 8) (size 9 to 14) (size 15 to 20)
#    0.000    2.500    0.000    1.500    0.000    5.333 
#    0.000    5.000    0.000    7.000    0.000    0.000 
#    0.000    0.000    0.000    0.000    0.000    0.000 
#
# Total GULP energy -267859.889228 kJ/mol
# GULP energy per Si atom -5580.414359 kJ/mol
# Density = 2.424753 g / cm^3
# Si number density = 24.302848 Si / 1000 Ang^3
#
#
#
# Elastic Constant Matrix: (Units=GPa)
#
#
# Indices 1 2 3 4 5 6 
#
# 1 22.2451 -6.4176 2.4234 0.0000 0.0000 0.0000
# 2 -6.4176 161.2976 45.5001 0.0000 0.0000 0.0000
# 3 2.4234 45.5001 96.8227 0.0000 0.0000 0.0000
# 4 0.0000 0.0000 0.0000 27.7164 0.0000 0.0000
# 5 0.0000 0.0000 0.0000 0.0000 4.0388 0.0000
# 6 0.0000 0.0000 0.0000 0.0000 0.0000 28.5846
#
#
#
# Elastic Compliance Matrix: (Units=1/GPa)
#
#
# Indices 1 2 3 4 5 6 
#
# 1 0.045921 0.002480 -0.002315 0.000000 0.000000 0.000000
# 2 0.002480 0.007281 -0.003484 0.000000 0.000000 0.000000
# 3 -0.002315 -0.003484 0.012023 0.000000 0.000000 0.000000
# 4 0.000000 0.000000 0.000000 0.036080 0.000000 0.000000
# 5 0.000000 0.000000 0.000000 0.000000 0.247598 0.000000
# 6 0.000000 0.000000 0.000000 0.000000 0.000000 0.034984
#
#
# Mechanical properties :
#
#
# Convention : Reuss Voigt Hill
#
# Bulk Modulus (GPa) = 17.06814 40.37527 28.72171
# Shear Modulus (GPa) = 12.19353 27.99191 20.09272
#
# Velocity S-wave (km/s) = 2.24237 3.39749 2.87847
# Velocity P-wave (km/s) = 3.70711 5.66039 4.78449
#
# Compressibility (1/GPa) = 0.05858869
#
# Stress axis : x y z
#
# Youngs Moduli (GPa) = 21.77635 137.34182 83.17250
#
# Poissons Ratio (x) = -0.34062 0.19253
# Poissons Ratio (y) = -0.05401 0.28975
# Poissons Ratio (z) = 0.05041 0.47846
#
# Static dielectric constant tensor:
#      x y z
#    x 2.030700 0.000000 0.000000 
#    y 0.000000 1.918970 0.000000 
#    z 0.000000 0.000000 1.889540 
# 
# From -- ./inp_files/2133.got.cif
#   From: 2010.05.17/outbox.cif.g08.bks.cpg/sg59_2_cif.got.tgz:2133.got - 2010.06.03 14:40:33.
