data_PCOD9452643
_publ_section_title
;
Structure prediction by ZEFSAII (Michael W. Deem and Ramdas Pophale) SiO2 
 PCOD9452643
Probable space group: P M M N
;
_chemical_formula_sum "Si O2"
_cell_formula_units_Z 64
_cell_length_a 21.343164
_cell_length_b 8.877976
_cell_length_c 17.256187
_cell_angle_alpha 90.000000
_cell_angle_beta 90.000000
_cell_angle_gamma 90.000000
_cell_volume 3269.773024
_symmetry_space_group_name_H-M "P M M N"
_symmetry_group_IT_number 59
_space_group.IT_coordinate_system_code '2'
_symmetry_cell_setting 'orthorhombic'
loop_
_space_group_symop_operation_xyz
x,y,z
1/2-x,1/2-y,z
1/2+x,-y,-z
-x,1/2+y,-z
-x,-y,-z
1/2+x,1/2+y,-z
1/2-x,y,z
x,1/2-y,z
loop_
_atom_site_type_symbol
_atom_site_label
_atom_site_fract_x
_atom_site_fract_y
_atom_site_fract_z
Si Si1 0.570899 0.568641 0.920380
Si Si2 0.070983 0.929937 0.909059
Si Si3 0.348881 0.573529 0.635705
Si Si4 0.108261 0.926474 0.346894
Si Si5 0.322076 0.068515 0.202439
Si Si6 0.821537 0.569760 0.198085
Si Si7 0.679595 0.578751 0.520399
Si Si8 0.992632 0.073992 0.414856
O O1 0.572875 0.750000 0.933029
O O2 0.501523 0.534493 0.886169
O O3 0.628182 0.526793 0.864346
O O4 0.576623 0.485330 0.002313
O O5 0.078739 0.750000 0.903831
O O6 0.124259 0.009185 0.858323
O O7 0.331732 0.750000 0.629928
O O8 0.331216 0.508930 0.718957
O O9 0.319041 0.475447 0.567563
O O10 0.422875 0.560066 0.618211
O O11 0.104237 0.750000 0.334305
O O12 0.151104 0.001484 0.281740
O O13 0.138796 0.964953 0.429808
O O14 0.040052 0.999310 0.354170
O O15 0.250000 0.021518 0.188137
O O16 0.322632 0.250000 0.208178
O O17 0.750000 0.537522 0.170894
O O18 0.827263 0.750000 0.206063
O O19 0.750000 0.577547 0.551990
O O20 0.655462 0.750000 0.526047
O O21 0.007148 0.250000 0.422871
O O22 0.000000 0.000000 0.500000
#
# Coordination Sequence:
#
# PCOD9452643 Si02
#       8
#     8   8   8   8   8   8   8   8
#     4   9  20  40  65  94 128 165 205 248 303 371
#     4  10  21  39  65  96 128 163 206 254 304 361
#     4  11  24  40  61  89 120 155 200 255 311 367
#     4  12  25  39  58  87 121 159 203 255 308 361
#     4  10  22  41  64  90 123 164 208 255 308 369
#     4  11  25  43  63  90 126 167 210 254 305 370
#     4  11  23  39  60  83 113 158 205 250 306 369
#     4  11  23  40  62  88 118 155 202 254 311 372
#
# _framework density 19.573222999999999
#
# number of rings (size 3 to 8) (size 9 to 14) (size 15 to 20)
#    0.000    1.375    1.250    3.750    1.750    8.250 
#    0.000    1.250    0.000    0.000    0.000    0.000 
#    0.000    0.000    0.000    0.000    0.000    0.000 
#
# Total GULP energy -357679.321880 kJ/mol
# GULP energy per Si atom -5588.739404 kJ/mol
# Density = 1.952867 g / cm^3
# Si number density = 19.573223 Si / 1000 Ang^3
#
#
#
# Elastic Constant Matrix: (Units=GPa)
#
#
# Indices 1 2 3 4 5 6 
#
# 1 147.2483 44.9869 48.0293 0.0000 0.0000 0.0000
# 2 44.9869 53.4243 19.5070 0.0000 0.0000 0.0000
# 3 48.0293 19.5070 66.9707 0.0000 0.0000 0.0000
# 4 0.0000 0.0000 0.0000 34.3400 0.0000 0.0000
# 5 0.0000 0.0000 0.0000 0.0000 17.4035 0.0000
# 6 0.0000 0.0000 0.0000 0.0000 0.0000 19.7426
#
#
#
# Elastic Compliance Matrix: (Units=1/GPa)
#
#
# Indices 1 2 3 4 5 6 
#
# 1 0.010790 -0.007006 -0.005698 0.000000 0.000000 0.000000
# 2 -0.007006 0.025494 -0.002402 0.000000 0.000000 0.000000
# 3 -0.005698 -0.002402 0.019718 0.000000 0.000000 0.000000
# 4 0.000000 0.000000 0.000000 0.029121 0.000000 0.000000
# 5 0.000000 0.000000 0.000000 0.000000 0.057460 0.000000
# 6 0.000000 0.000000 0.000000 0.000000 0.000000 0.050652
#
#
# Mechanical properties :
#
#
# Convention : Reuss Voigt Hill
#
# Bulk Modulus (GPa) = 38.77178 54.74333 46.75755
# Shear Modulus (GPa) = 21.54788 24.63856 23.09322
#
# Velocity S-wave (km/s) = 3.32156 3.55179 3.43860
# Velocity P-wave (km/s) = 5.87894 6.69698 6.30125
#
# Compressibility (1/GPa) = 0.02579195
#
# Stress axis : x y z
#
# Youngs Moduli (GPa) = 92.67805 39.22471 50.71577
#
# Poissons Ratio (x) = 0.27479 0.28897
# Poissons Ratio (y) = 0.64926 0.12180
# Poissons Ratio (z) = 0.52806 0.09421
#
# Static dielectric constant tensor:
#      x y z
#    x 1.719160 0.000000 0.000000 
#    y 0.000000 1.651850 0.000000 
#    z 0.000000 0.000000 1.654120 
# 
# From -- ./inp_files/28158.got.cif
#   From: 2010.05.17/outbox.cif.g08.bks.cpg/sg59_15_cif.got.tgz:28158.got - 2010.06.03 14:40:33.
