data_PCOD9452047
_publ_section_title
;
Structure prediction by ZEFSAII (Michael W. Deem and Ramdas Pophale) SiO2 
 PCOD9452047
Probable space group: P M M N
;
_chemical_formula_sum "Si O2"
_cell_formula_units_Z 64
_cell_length_a 23.458929
_cell_length_b 16.096699
_cell_length_c 7.592386
_cell_angle_alpha 90.000000
_cell_angle_beta 90.000000
_cell_angle_gamma 90.000000
_cell_volume 2866.970892
_symmetry_space_group_name_H-M "P M M N"
_symmetry_group_IT_number 59
_space_group.IT_coordinate_system_code '2'
_symmetry_cell_setting 'orthorhombic'
loop_
_space_group_symop_operation_xyz
x,y,z
1/2-x,1/2-y,z
1/2+x,-y,-z
-x,1/2+y,-z
-x,-y,-z
1/2+x,1/2+y,-z
1/2-x,y,z
x,1/2-y,z
loop_
_atom_site_type_symbol
_atom_site_label
_atom_site_fract_x
_atom_site_fract_y
_atom_site_fract_z
Si Si1 0.185877 0.061434 0.714479
Si Si2 0.372340 0.016246 0.360720
Si Si3 0.855385 0.115274 0.885437
Si Si4 0.460440 0.152816 0.393338
Si Si5 0.688952 0.368081 0.231148
Si Si6 0.931231 0.849116 0.206658
Si Si7 0.528345 0.349824 0.066342
Si Si8 0.400774 0.839798 0.472885
O O1 0.250000 0.096041 0.739233
O O2 0.171586 0.047157 0.507802
O O3 0.131298 0.110399 0.789297
O O4 0.185257 0.967650 0.784152
O O5 0.412073 0.093251 0.317427
O O6 0.341429 0.975095 0.194223
O O7 0.411993 0.940373 0.442567
O O8 0.864487 0.166006 0.707731
O O9 0.816461 0.157124 0.029573
O O10 0.916183 0.108439 0.986176
O O11 0.446018 0.250000 0.368064
O O12 0.461315 0.135184 0.602397
O O13 0.515839 0.135068 0.273124
O O14 0.750000 0.346328 0.308886
O O15 0.639015 0.338383 0.356400
O O16 0.924424 0.750000 0.191923
O O17 0.974094 0.875611 0.052069
O O18 0.535510 0.250000 0.044903
O O19 0.434786 0.750000 0.472299
#
# Coordination Sequence:
#
# PCOD9452047 Si02
#       8
#     8   8   8   8   8   8   8   8
#     4   9  18  37  60  83 115 151 195 243 298 355
#     4   8  19  36  56  86 112 151 192 237 291 347
#     4  10  22  37  59  85 114 156 200 242 290 359
#     4   9  18  36  57  82 117 151 188 234 286 344
#     4  10  22  39  58  82 111 151 197 247 302 353
#     4   9  19  35  57  84 116 154 193 237 297 355
#     4  10  21  36  57  84 118 157 194 242 298 352
#     4   9  20  38  56  78 114 147 186 243 291 341
#
# _framework density 22.323214
#
# number of rings (size 3 to 8) (size 9 to 14) (size 15 to 20)
#    0.750    2.000    0.000    0.375    1.750    4.000 
#    0.000    2.500    0.000    0.000    0.000    3.500 
#    0.000    0.000    0.000    0.000    0.000    0.000 
#
# Total GULP energy -356479.216258 kJ/mol
# GULP energy per Si atom -5569.987754 kJ/mol
# Density = 2.227241 g / cm^3
# Si number density = 22.323214 Si / 1000 Ang^3
#
#
#
# Elastic Constant Matrix: (Units=GPa)
#
#
# Indices 1 2 3 4 5 6 
#
# 1 106.0302 20.4494 12.6048 0.0000 0.0000 0.0000
# 2 20.4494 50.7251 11.6315 0.0000 0.0000 0.0000
# 3 12.6048 11.6315 66.7972 0.0000 0.0000 0.0000
# 4 0.0000 0.0000 0.0000 27.2139 0.0000 0.0000
# 5 0.0000 0.0000 0.0000 0.0000 17.4107 0.0000
# 6 0.0000 0.0000 0.0000 0.0000 0.0000 -165.3544
#
#
#
# Elastic Compliance Matrix: (Units=1/GPa)
#
#
# Indices 1 2 3 4 5 6 
#
# 1 0.010330 -0.003872 -0.001275 0.000000 0.000000 0.000000
# 2 -0.003872 0.021985 -0.003098 0.000000 0.000000 0.000000
# 3 -0.001275 -0.003098 0.015751 0.000000 0.000000 0.000000
# 4 0.000000 0.000000 0.000000 0.036746 0.000000 0.000000
# 5 0.000000 0.000000 0.000000 0.000000 0.057436 0.000000
# 6 0.000000 0.000000 0.000000 0.000000 0.000000 -0.006048
#
#
# Mechanical properties :
#
#
# Convention : Reuss Voigt Hill
#
# Bulk Modulus (GPa) = 31.66923 34.76932 33.21928
# Shear Modulus (GPa) = 30.63452 -12.22149 9.20651
#
# Velocity S-wave (km/s) = 3.70850 -2.34237 2.03301
# Velocity P-wave (km/s) = 5.70568 2.87987 4.51931
#
# Compressibility (1/GPa) = 0.03157639
#
# Stress axis : x y z
#
# Youngs Moduli (GPa) = 96.80920 45.48477 63.48927
#
# Poissons Ratio (x) = 0.17611 0.08095
# Poissons Ratio (y) = 0.37484 0.19667
# Poissons Ratio (z) = 0.12343 0.14090
#
# Static dielectric constant tensor:
#      x y z
#    x 1.880050 0.000000 0.000000 
#    y 0.000000 1.834710 0.000000 
#    z 0.000000 0.000000 1.882010 
# 
# From -- ./inp_files/12197.got.cif
#   From: 2010.05.17/outbox.cif.g08.bks.cpg/sg59_7_cif.got.tgz:12197.got - 2010.06.03 14:40:33.
