data_PCOD9452438
_publ_section_title
;
Structure prediction by ZEFSAII (Michael W. Deem and Ramdas Pophale) SiO2 
 PCOD9452438
Probable space group: P M M N
;
_chemical_formula_sum "Si O2"
_cell_formula_units_Z 40
_cell_length_a 25.887507
_cell_length_b 8.859029
_cell_length_c 9.738212
_cell_angle_alpha 90.000000
_cell_angle_beta 90.000000
_cell_angle_gamma 90.000000
_cell_volume 2233.343770
_symmetry_space_group_name_H-M "P M M N"
_symmetry_group_IT_number 59
_space_group.IT_coordinate_system_code '2'
_symmetry_cell_setting 'orthorhombic'
loop_
_space_group_symop_operation_xyz
x,y,z
1/2-x,1/2-y,z
1/2+x,-y,-z
-x,1/2+y,-z
-x,-y,-z
1/2+x,1/2+y,-z
1/2-x,y,z
x,1/2-y,z
loop_
_atom_site_type_symbol
_atom_site_label
_atom_site_fract_x
_atom_site_fract_y
_atom_site_fract_z
Si Si1 0.750000 0.068260 0.604777
Si Si2 0.661132 0.429752 0.091098
Si Si3 0.458411 0.569284 0.897728
Si Si4 0.543648 0.930318 0.403634
Si Si5 0.750000 0.570999 0.907555
Si Si6 0.654238 0.431968 0.410719
O O1 0.750000 0.250000 0.618990
O O2 0.800358 0.027467 0.515214
O O3 0.750000 0.996759 0.754709
O O4 0.670244 0.250000 0.078291
O O5 0.600982 0.459632 0.057745
O O6 0.668538 0.469398 0.252377
O O7 0.700220 0.514455 0.992345
O O8 0.464397 0.750000 0.886413
O O9 0.464713 0.493673 0.749430
O O10 0.500000 0.500000 0.000000
O O11 0.541456 0.750000 0.405191
O O12 0.500000 0.000000 0.500000
O O13 0.600571 0.987740 0.445782
O O14 0.750000 0.750000 0.899667
O O15 0.646562 0.250000 0.414135
#
# Coordination Sequence:
#
# PCOD9452438 Si02
#       6
#     4   8   8   8   4   8
#     4  10  21  38  60  82 110 146 181 224 282 338
#     4   9  19  38  61  81 107 144 184 224 274 335
#     4  10  21  38  60  86 114 147 187 232 280 334
#     4  11  22  37  58  84 115 151 188 231 279 330
#     4  12  25  36  52  82 116 146 183 230 274 320
#     4   9  19  38  62  85 107 140 187 232 276 334
#
# _framework density 17.910364000000001
#
# number of rings (size 3 to 8) (size 9 to 14) (size 15 to 20)
#    0.000    2.000    0.000    5.100    0.000    8.000 
#    0.000    3.000    0.000    0.000    0.000    0.000 
#    0.000    0.000    0.000    0.000    0.000    0.000 
#
# Total GULP energy -223437.099690 kJ/mol
# GULP energy per Si atom -5585.927492 kJ/mol
# Density = 1.786960 g / cm^3
# Si number density = 17.910364 Si / 1000 Ang^3
#
#
#
# Elastic Constant Matrix: (Units=GPa)
#
#
# Indices 1 2 3 4 5 6 
#
# 1 176.3046 98.1549 131.7120 0.0000 0.0000 0.0000
# 2 98.1549 96.8576 77.3426 0.0000 0.0000 0.0000
# 3 131.7120 77.3426 130.5135 0.0000 0.0000 0.0000
# 4 0.0000 0.0000 0.0000 27.4588 0.0000 0.0000
# 5 0.0000 0.0000 0.0000 0.0000 37.7869 0.0000
# 6 0.0000 0.0000 0.0000 0.0000 0.0000 35.3675
#
#
#
# Elastic Compliance Matrix: (Units=1/GPa)
#
#
# Indices 1 2 3 4 5 6 
#
# 1 0.028198 -0.011109 -0.021874 0.000000 0.000000 0.000000
# 2 -0.011109 0.023975 -0.002997 0.000000 0.000000 0.000000
# 3 -0.021874 -0.002997 0.031512 0.000000 0.000000 0.000000
# 4 0.000000 0.000000 0.000000 0.036418 0.000000 0.000000
# 5 0.000000 0.000000 0.000000 0.000000 0.026464 0.000000
# 6 0.000000 0.000000 0.000000 0.000000 0.000000 0.028275
#
#
# Mechanical properties :
#
#
# Convention : Reuss Voigt Hill
#
# Bulk Modulus (GPa) = 85.27488 113.12161 99.19825
# Shear Modulus (GPa) = 19.94335 26.55374 23.24854
#
# Velocity S-wave (km/s) = 3.34055 3.85462 3.60675
# Velocity P-wave (km/s) = 7.91166 9.11635 8.53528
#
# Compressibility (1/GPa) = 0.01172678
#
# Stress axis : x y z
#
# Youngs Moduli (GPa) = 35.46350 41.70965 31.73364
#
# Poissons Ratio (x) = 0.46336 0.69413
# Poissons Ratio (y) = 0.39397 0.09509
# Poissons Ratio (z) = 0.77571 0.12499
#
# Static dielectric constant tensor:
#      x y z
#    x 1.601640 0.000000 0.000000 
#    y 0.000000 1.594800 0.000000 
#    z 0.000000 0.000000 1.630760 
# 
# From -- ./inp_files/5949.got.cif
#   From: 2010.05.17/outbox.cif.g08.bks.cpg/sg59_3_cif.got.tgz:5949.got - 2010.06.03 14:40:33.
