data_PCOD9452213
_publ_section_title
;
Structure prediction by ZEFSAII (Michael W. Deem and Ramdas Pophale) SiO2 
 PCOD9452213
Probable space group: P M M N
;
_chemical_formula_sum "Si O2"
_cell_formula_units_Z 40
_cell_length_a 10.893396
_cell_length_b 13.327259
_cell_length_c 12.141334
_cell_angle_alpha 90.000000
_cell_angle_beta 90.000000
_cell_angle_gamma 90.000000
_cell_volume 1762.668063
_symmetry_space_group_name_H-M "P M M N"
_symmetry_group_IT_number 59
_space_group.IT_coordinate_system_code '2'
_symmetry_cell_setting 'orthorhombic'
loop_
_space_group_symop_operation_xyz
x,y,z
1/2-x,1/2-y,z
1/2+x,-y,-z
-x,1/2+y,-z
-x,-y,-z
1/2+x,1/2+y,-z
1/2-x,y,z
x,1/2-y,z
loop_
_atom_site_type_symbol
_atom_site_label
_atom_site_fract_x
_atom_site_fract_y
_atom_site_fract_z
Si Si1 0.614117 0.075980 0.260913
Si Si2 0.570338 0.142391 0.586820
Si Si3 0.043257 0.135918 0.808970
Si Si4 0.385350 0.868419 0.989855
Si Si5 0.114713 0.085231 0.424772
O O1 0.750000 0.109608 0.299667
O O2 0.497908 0.099921 0.338778
O O3 0.619053 0.956184 0.239952
O O4 0.591033 0.120302 0.139514
O O5 0.620248 0.250000 0.550131
O O6 0.566181 0.142325 0.718973
O O7 0.433002 0.136723 0.535858
O O8 0.622049 0.034751 0.553186
O O9 0.094082 0.250000 0.816759
O O10 0.990498 0.099082 0.925896
O O11 0.250000 0.914027 0.012184
O O12 0.377331 0.750000 0.013386
O O13 0.250000 0.118890 0.389589
#
# Coordination Sequence:
#
# PCOD9452213 Si02
#       5
#     8   8   8   8   8
#     4  10  21  37  57  82 116 154 188 229 284 342
#     4   9  20  37  57  82 113 148 186 235 293 343
#     4   9  18  33  54  79 106 141 186 231 277 333
#     4   9  18  34  56  82 113 149 189 233 282 337
#     4  10  22  39  60  87 116 149 195 243 284 340
#
# _framework density 22.692872999999999
#
# number of rings (size 3 to 8) (size 9 to 14) (size 15 to 20)
#    0.000    2.600    0.000    0.600    0.000   12.400 
#    0.000    9.000    0.000    1.200    0.000    0.000 
#    0.000    0.000    0.000    0.000    0.000    0.000 
#
# Total GULP energy -222736.824642 kJ/mol
# GULP energy per Si atom -5568.420616 kJ/mol
# Density = 2.264122 g / cm^3
# Si number density = 22.692873 Si / 1000 Ang^3
#
#
#
# Elastic Constant Matrix: (Units=GPa)
#
#
# Indices 1 2 3 4 5 6 
#
# 1 144.9064 -8.6559 53.9970 0.0000 0.0000 0.0000
# 2 -8.6559 61.6011 -1.7383 0.0000 0.0000 0.0000
# 3 53.9970 -1.7383 99.6167 0.0000 0.0000 0.0000
# 4 0.0000 0.0000 0.0000 25.5963 0.0000 0.0000
# 5 0.0000 0.0000 0.0000 0.0000 -0.0876 0.0000
# 6 0.0000 0.0000 0.0000 0.0000 0.0000 -4.3202
#
#
#
# Elastic Compliance Matrix: (Units=1/GPa)
#
#
# Indices 1 2 3 4 5 6 
#
# 1 0.008721 0.001093 -0.004708 0.000000 0.000000 0.000000
# 2 0.001093 0.016378 -0.000306 0.000000 0.000000 0.000000
# 3 -0.004708 -0.000306 0.012585 0.000000 0.000000 0.000000
# 4 0.000000 0.000000 0.000000 0.039068 0.000000 0.000000
# 5 0.000000 0.000000 0.000000 0.000000-11.414586 0.000000
# 6 0.000000 0.000000 0.000000 0.000000 0.000000 -0.231472
#
#
# Mechanical properties :
#
#
# Convention : Reuss Voigt Hill
#
# Bulk Modulus (GPa) = 33.51160 43.70330 38.60745
# Shear Modulus (GPa) = -0.43284 21.73913 10.65314
#
# Velocity S-wave (km/s) = -0.43721 3.09847 2.16903
# Velocity P-wave (km/s) = 3.81374 5.66578 4.82938
#
# Compressibility (1/GPa) = 0.02984041
#
# Stress axis : x y z
#
# Youngs Moduli (GPa) = 114.67111 61.05626 79.45939
#
# Poissons Ratio (x) = -0.06671 0.37409
# Poissons Ratio (y) = -0.12528 0.02435
# Poissons Ratio (z) = 0.53986 0.01871
#
# Static dielectric constant tensor:
#      x y z
#    x 1.845310 0.000000 0.000000 
#    y 0.000000 1.899120 0.000000 
#    z 0.000000 0.000000 1.846150 
# 
# From -- ./inp_files/15528.got.cif
#   From: 2010.05.17/outbox.cif.g08.bks.cpg/sg59_8_cif.got.tgz:15528.got - 2010.06.03 14:40:33.
