data_PCOD9452424
_publ_section_title
;
Structure prediction by ZEFSAII (Michael W. Deem and Ramdas Pophale) SiO2 
 PCOD9452424
Probable space group: P M M N
;
_chemical_formula_sum "Si O2"
_cell_formula_units_Z 64
_cell_length_a 8.493374
_cell_length_b 15.538293
_cell_length_c 24.328097
_cell_angle_alpha 90.000000
_cell_angle_beta 90.000000
_cell_angle_gamma 90.000000
_cell_volume 3210.640603
_symmetry_space_group_name_H-M "P M M N"
_symmetry_group_IT_number 59
_space_group.IT_coordinate_system_code '2'
_symmetry_cell_setting 'orthorhombic'
loop_
_space_group_symop_operation_xyz
x,y,z
1/2-x,1/2-y,z
1/2+x,-y,-z
-x,1/2+y,-z
-x,-y,-z
1/2+x,1/2+y,-z
1/2-x,y,z
x,1/2-y,z
loop_
_atom_site_type_symbol
_atom_site_label
_atom_site_fract_x
_atom_site_fract_y
_atom_site_fract_z
Si Si1 0.570964 0.938996 0.895989
Si Si2 0.440182 0.148371 0.509317
Si Si3 0.569072 0.619488 0.113038
Si Si4 0.939504 0.342289 0.767678
Si Si5 0.429014 0.848993 0.995404
Si Si6 0.059753 0.492544 0.418778
Si Si7 0.935535 0.347953 0.205288
Si Si8 0.940913 0.984537 0.707810
O O1 0.750000 0.969442 0.889151
O O2 0.542585 0.903854 0.956958
O O3 0.530927 0.868791 0.850135
O O4 0.453414 0.017049 0.885204
O O5 0.250000 0.151035 0.509958
O O6 0.492742 0.250000 0.510267
O O7 0.488747 0.089992 0.456123
O O8 0.496246 0.083876 0.557980
O O9 0.750000 0.643875 0.106877
O O10 0.502131 0.652565 0.170371
O O11 0.475137 0.647824 0.059053
O O12 0.750000 0.345780 0.770149
O O13 0.986208 0.250000 0.743463
O O14 0.992373 0.423832 0.732799
O O15 0.250000 0.880266 0.988487
O O16 0.436114 0.750000 0.977056
O O17 0.250000 0.497196 0.421377
O O18 0.012699 0.478310 0.355738
O O19 0.750000 0.358955 0.193809
O O20 0.963244 0.250000 0.222117
O O21 0.989086 0.411820 0.253078
O O22 0.750000 0.979737 0.710726
#
# Coordination Sequence:
#
# PCOD9452424 Si02
#       8
#     8   8   8   8   8   8   8   8
#     4  12  24  40  62  86 114 149 193 243 298 358
#     4   9  18  34  56  84 121 163 202 245 297 348
#     4  12  24  39  60  85 114 149 193 243 297 359
#     4  10  21  38  59  84 116 154 196 245 301 358
#     4  11  24  41  60  84 115 149 188 239 298 359
#     4   9  19  35  57  87 120 156 202 251 295 344
#     4  11  24  41  61  87 120 157 196 243 299 356
#     4  10  21  38  61  88 119 158 202 247 295 350
#
# _framework density 19.933716
#
# number of rings (size 3 to 8) (size 9 to 14) (size 15 to 20)
#    0.000    1.500    1.250    4.125    0.000    7.000 
#    0.000    2.500    0.000    0.000    0.000    0.000 
#    0.000    0.000    0.000    0.000    0.000    0.000 
#
# Total GULP energy -357485.015761 kJ/mol
# GULP energy per Si atom -5585.703371 kJ/mol
# Density = 1.988835 g / cm^3
# Si number density = 19.933716 Si / 1000 Ang^3
#
#
#
# Elastic Constant Matrix: (Units=GPa)
#
#
# Indices 1 2 3 4 5 6 
#
# 1 25.9409 19.5556 9.5590 0.0000 0.0000 0.0000
# 2 19.5556 120.6866 23.5488 0.0000 0.0000 0.0000
# 3 9.5590 23.5488 84.2934 0.0000 0.0000 0.0000
# 4 0.0000 0.0000 0.0000 7.7163 0.0000 0.0000
# 5 0.0000 0.0000 0.0000 0.0000 23.0301 0.0000
# 6 0.0000 0.0000 0.0000 0.0000 0.0000 24.8251
#
#
#
# Elastic Compliance Matrix: (Units=1/GPa)
#
#
# Indices 1 2 3 4 5 6 
#
# 1 0.044726 -0.006618 -0.003223 0.000000 0.000000 0.000000
# 2 -0.006618 0.009743 -0.001971 0.000000 0.000000 0.000000
# 3 -0.003223 -0.001971 0.012780 0.000000 0.000000 0.000000
# 4 0.000000 0.000000 0.000000 0.129595 0.000000 0.000000
# 5 0.000000 0.000000 0.000000 0.000000 0.043422 0.000000
# 6 0.000000 0.000000 0.000000 0.000000 0.000000 0.040282
#
#
# Mechanical properties :
#
#
# Convention : Reuss Voigt Hill
#
# Bulk Modulus (GPa) = 22.92364 37.36087 30.14226
# Shear Modulus (GPa) = 15.68808 22.99814 19.34311
#
# Velocity S-wave (km/s) = 2.80842 3.40035 3.11846
# Velocity P-wave (km/s) = 4.69480 5.84805 5.30287
#
# Compressibility (1/GPa) = 0.04362308
#
# Stress axis : x y z
#
# Youngs Moduli (GPa) = 22.35834 102.63788 78.25002
#
# Poissons Ratio (x) = 0.67929 0.25221
# Poissons Ratio (y) = 0.14798 0.15426
# Poissons Ratio (z) = 0.07206 0.20233
#
# Static dielectric constant tensor:
#      x y z
#    x 1.691890 0.000000 0.000000 
#    y 0.000000 1.729440 0.000000 
#    z 0.000000 0.000000 1.674650 
# 
# From -- ./inp_files/31457.got.cif
#   From: 2010.05.17/outbox.cif.g08.bks.cpg/sg59_16_cif.got.tgz:31457.got - 2010.06.03 14:40:33.
