data_PCOD9452339
_publ_section_title
;
Structure prediction by ZEFSAII (Michael W. Deem and Ramdas Pophale) SiO2 
 PCOD9452339
Probable space group: P M M N
;
_chemical_formula_sum "Si O2"
_cell_formula_units_Z 64
_cell_length_a 27.696488
_cell_length_b 8.593820
_cell_length_c 13.550467
_cell_angle_alpha 90.000000
_cell_angle_beta 90.000000
_cell_angle_gamma 90.000000
_cell_volume 3225.263625
_symmetry_space_group_name_H-M "P M M N"
_symmetry_group_IT_number 59
_space_group.IT_coordinate_system_code '2'
_symmetry_cell_setting 'orthorhombic'
loop_
_space_group_symop_operation_xyz
x,y,z
1/2-x,1/2-y,z
1/2+x,-y,-z
-x,1/2+y,-z
-x,-y,-z
1/2+x,1/2+y,-z
1/2-x,y,z
x,1/2-y,z
loop_
_atom_site_type_symbol
_atom_site_label
_atom_site_fract_x
_atom_site_fract_y
_atom_site_fract_z
Si Si1 0.139859 0.567446 0.396346
Si Si2 0.551482 0.926288 0.720767
Si Si3 0.489274 0.561130 0.890906
Si Si4 0.382876 0.060441 0.826250
Si Si5 0.192408 0.070322 0.211506
Si Si6 0.306104 0.060173 0.994179
Si Si7 0.035112 0.926784 0.578868
Si Si8 0.864672 0.929271 0.392979
O O1 0.139069 0.750000 0.405728
O O2 0.087786 0.511022 0.353697
O O3 0.174536 0.517441 0.307510
O O4 0.154371 0.501089 0.504089
O O5 0.570026 0.750000 0.731218
O O6 0.536130 0.993649 0.826114
O O7 0.498527 0.916783 0.673347
O O8 0.489062 0.750000 0.888249
O O9 0.436672 0.502172 0.851701
O O10 0.500000 0.500000 0.000000
O O11 0.386205 0.250000 0.822395
O O12 0.344421 0.015554 0.910776
O O13 0.360736 0.007925 0.719546
O O14 0.250000 0.068322 0.208442
O O15 0.176970 0.250000 0.219929
O O16 0.177153 0.008634 0.103707
O O17 0.250000 0.011739 0.976607
O O18 0.305205 0.250000 0.997162
O O19 0.051686 0.750000 0.555382
O O20 0.078337 0.044978 0.591998
O O21 0.000000 0.000000 0.500000
O O22 0.850059 0.750000 0.391622
#
# Coordination Sequence:
#
# PCOD9452339 Si02
#       8
#     8   8   8   8   8   8   8   8
#     4  12  25  37  57  86 118 153 195 244 292 348
#     4  10  22  38  55  76 110 153 196 238 282 340
#     4  11  24  40  56  80 117 158 197 239 289 349
#     4  10  21  37  60  88 117 153 196 244 292 344
#     4   9  19  39  66  90 115 147 184 231 292 358
#     4   8  16  35  64  93 115 141 183 234 288 345
#     4  11  20  33  53  76 104 144 190 235 282 327
#     4  11  22  36  54  80 118 157 198 242 286 346
#
# _framework density 19.843339
#
# number of rings (size 3 to 8) (size 9 to 14) (size 15 to 20)
#    0.000    1.750    2.500    3.000    1.750    2.250 
#    0.000    0.625    0.000    3.375    0.000    0.000 
#    0.000    0.000    0.000    0.000    0.000    0.000 
#
# Total GULP energy -356496.581190 kJ/mol
# GULP energy per Si atom -5570.259081 kJ/mol
# Density = 1.979817 g / cm^3
# Si number density = 19.843339 Si / 1000 Ang^3
#
#
#
# Elastic Constant Matrix: (Units=GPa)
#
#
# Indices 1 2 3 4 5 6 
#
# 1 49.2794 9.2594 42.5391 0.0000 0.0000 0.0000
# 2 9.2594 46.2318 40.0052 0.0000 0.0000 0.0000
# 3 42.5391 40.0052 189.3652 0.0000 0.0000 0.0000
# 4 0.0000 0.0000 0.0000 18.4256 0.0000 0.0000
# 5 0.0000 0.0000 0.0000 0.0000 37.3871 0.0000
# 6 0.0000 0.0000 0.0000 0.0000 0.0000 20.6890
#
#
#
# Elastic Compliance Matrix: (Units=1/GPa)
#
#
# Indices 1 2 3 4 5 6 
#
# 1 0.025175 -0.000182 -0.005617 0.000000 0.000000 0.000000
# 2 -0.000182 0.026470 -0.005551 0.000000 0.000000 0.000000
# 3 -0.005617 -0.005551 0.007715 0.000000 0.000000 0.000000
# 4 0.000000 0.000000 0.000000 0.054272 0.000000 0.000000
# 5 0.000000 0.000000 0.000000 0.000000 0.026747 0.000000
# 6 0.000000 0.000000 0.000000 0.000000 0.000000 0.048335
#
#
# Mechanical properties :
#
#
# Convention : Reuss Voigt Hill
#
# Bulk Modulus (GPa) = 27.27700 52.05376 39.66538
# Shear Modulus (GPa) = 22.35784 28.17187 25.26486
#
# Velocity S-wave (km/s) = 3.36030 3.77200 3.57209
# Velocity P-wave (km/s) = 5.36950 6.72755 6.08652
#
# Compressibility (1/GPa) = 0.03666093
#
# Stress axis : x y z
#
# Youngs Moduli (GPa) = 39.72140 37.77848 129.61144
#
# Poissons Ratio (x) = 0.00686 0.72803
# Poissons Ratio (y) = 0.00722 0.71951
# Poissons Ratio (z) = 0.22312 0.20972
#
# Static dielectric constant tensor:
#      x y z
#    x 1.688390 0.000000 0.000000 
#    y 0.000000 1.690290 0.000000 
#    z 0.000000 0.000000 1.770790 
# 
# From -- ./inp_files/19342.got.cif
#   From: 2010.05.17/outbox.cif.g08.bks.cpg/sg59_10_cif.got.tgz:19342.got - 2010.06.03 14:40:33.
