data_PCOD9452993
_publ_section_title
;
Structure prediction by ZEFSAII (Michael W. Deem and Ramdas Pophale) SiO2 
 PCOD9452993
Probable space group: P M M N
;
_chemical_formula_sum "Si O2"
_cell_formula_units_Z 64
_cell_length_a 8.006245
_cell_length_b 30.807068
_cell_length_c 15.171940
_cell_angle_alpha 90.000000
_cell_angle_beta 90.000000
_cell_angle_gamma 90.000000
_cell_volume 3742.142830
_symmetry_space_group_name_H-M "P M M N"
_symmetry_group_IT_number 59
_space_group.IT_coordinate_system_code '2'
_symmetry_cell_setting 'orthorhombic'
loop_
_space_group_symop_operation_xyz
x,y,z
1/2-x,1/2-y,z
1/2+x,-y,-z
-x,1/2+y,-z
-x,-y,-z
1/2+x,1/2+y,-z
1/2-x,y,z
x,1/2-y,z
loop_
_atom_site_type_symbol
_atom_site_label
_atom_site_fract_x
_atom_site_fract_y
_atom_site_fract_z
Si Si1 0.953601 0.797679 0.799164
Si Si2 0.544817 0.884182 0.706431
Si Si3 0.948950 0.565877 0.543898
Si Si4 0.546806 0.974847 0.368969
Si Si5 0.059086 0.892353 0.029954
Si Si6 0.554293 0.961041 0.168670
Si Si7 0.048582 0.201691 0.995620
Si Si8 0.944282 0.554536 0.865122
O O1 0.750000 0.798376 0.798716
O O2 0.007156 0.750000 0.768914
O O3 0.011804 0.837610 0.740914
O O4 0.002350 0.802734 0.901486
O O5 0.750000 0.884405 0.707194
O O6 0.486109 0.897104 0.609169
O O7 0.492608 0.920027 0.778663
O O8 0.750000 0.571631 0.537224
O O9 0.010502 0.559180 0.444191
O O10 0.982923 0.521081 0.596083
O O11 0.750000 0.976525 0.368961
O O12 0.492669 0.965280 0.269520
O O13 0.250000 0.893048 0.001370
O O14 0.034219 0.924032 0.112494
O O15 0.010359 0.842603 0.049389
O O16 0.958926 0.913532 0.948473
O O17 0.750000 0.950209 0.170656
O O18 0.533628 0.008442 0.124399
O O19 0.250000 0.201857 0.992885
O O20 0.992671 0.250000 0.965328
O O21 0.750000 0.544357 0.851422
#
# Coordination Sequence:
#
# PCOD9452993 Si02
#       8
#     8   8   8   8   8   8   8   8
#     4   8  13  23  42  68  93 117 148 183 219 268
#     4   9  15  24  44  69  93 122 153 184 225 278
#     4   9  16  28  46  68  92 119 150 187 234 283
#     4   9  18  30  45  66  91 118 153 196 238 277
#     4  12  24  35  48  69  96 129 164 202 241 283
#     4  11  22  35  48  65  93 129 168 206 243 284
#     4   9  17  32  53  73  95 124 158 196 238 285
#     4  11  20  33  49  68  95 128 164 197 235 286
#
# _framework density 17.102501
#
# number of rings (size 3 to 8) (size 9 to 14) (size 15 to 20)
#    0.000    2.250    2.500    3.000    0.000    0.750 
#    0.000    0.000    0.000    0.000    0.000    0.875 
#    0.000    5.000    0.000    0.000    0.000    0.000 
#
# Total GULP energy -356814.826209 kJ/mol
# GULP energy per Si atom -5575.231660 kJ/mol
# Density = 1.706357 g / cm^3
# Si number density = 17.102501 Si / 1000 Ang^3
#
#
#
# Elastic Constant Matrix: (Units=GPa)
#
#
# Indices 1 2 3 4 5 6 
#
# 1 16.6112 0.5996 -5.2604 0.0000 0.0000 0.0000
# 2 0.5996 118.1537 23.4451 0.0000 0.0000 0.0000
# 3 -5.2604 23.4451 48.2902 0.0000 0.0000 0.0000
# 4 0.0000 0.0000 0.0000 24.3990 0.0000 0.0000
# 5 0.0000 0.0000 0.0000 0.0000 7.6602 0.0000
# 6 0.0000 0.0000 0.0000 0.0000 0.0000 14.7771
#
#
#
# Elastic Compliance Matrix: (Units=1/GPa)
#
#
# Indices 1 2 3 4 5 6 
#
# 1 0.062716 -0.001852 0.007731 0.000000 0.000000 0.000000
# 2 -0.001852 0.009421 -0.004776 0.000000 0.000000 0.000000
# 3 0.007731 -0.004776 0.023869 0.000000 0.000000 0.000000
# 4 0.000000 0.000000 0.000000 0.040985 0.000000 0.000000
# 5 0.000000 0.000000 0.000000 0.000000 0.130545 0.000000
# 6 0.000000 0.000000 0.000000 0.000000 0.000000 0.067672
#
#
# Mechanical properties :
#
#
# Convention : Reuss Voigt Hill
#
# Bulk Modulus (GPa) = 10.18210 24.51374 17.34792
# Shear Modulus (GPa) = 13.67095 20.31862 16.99479
#
# Velocity S-wave (km/s) = 2.83035 3.45055 3.15572
# Velocity P-wave (km/s) = 4.08016 5.49905 4.84186
#
# Compressibility (1/GPa) = 0.09821162
#
# Stress axis : x y z
#
# Youngs Moduli (GPa) = 15.94498 106.15088 41.89562
#
# Poissons Ratio (x) = 0.19663 -0.32390
# Poissons Ratio (y) = 0.02954 0.20007
# Poissons Ratio (z) = -0.12327 0.50692
#
# Static dielectric constant tensor:
#      x y z
#    x 1.608070 0.000000 0.000000 
#    y 0.000000 1.591340 0.000000 
#    z 0.000000 0.000000 1.583050 
# 
# From -- ./inp_files/21938.got.cif
#   From: 2010.05.17/outbox.cif.g08.bks.cpg/sg59_11_cif.got.tgz:21938.got - 2010.06.03 14:40:33.
