data_PCOD9452736
_publ_section_title
;
Structure prediction by ZEFSAII (Michael W. Deem and Ramdas Pophale) SiO2 
 PCOD9452736
Probable space group: P M M N
;
_chemical_formula_sum "Si O2"
_cell_formula_units_Z 64
_cell_length_a 22.371643
_cell_length_b 13.824840
_cell_length_c 10.144774
_cell_angle_alpha 90.000000
_cell_angle_beta 90.000000
_cell_angle_gamma 90.000000
_cell_volume 3137.620188
_symmetry_space_group_name_H-M "P M M N"
_symmetry_group_IT_number 59
_space_group.IT_coordinate_system_code '2'
_symmetry_cell_setting 'orthorhombic'
loop_
_space_group_symop_operation_xyz
x,y,z
1/2-x,1/2-y,z
1/2+x,-y,-z
-x,1/2+y,-z
-x,-y,-z
1/2+x,1/2+y,-z
1/2-x,y,z
x,1/2-y,z
loop_
_atom_site_type_symbol
_atom_site_label
_atom_site_fract_x
_atom_site_fract_y
_atom_site_fract_z
Si Si1 0.498261 0.639423 0.597142
Si Si2 0.890807 0.637357 0.799567
Si Si3 0.402613 0.866299 0.043480
Si Si4 0.817115 0.363911 0.188077
Si Si5 0.564913 0.940268 0.354226
Si Si6 0.680839 0.455970 0.739267
Si Si7 0.317044 0.505175 0.554458
Si Si8 0.540050 0.866974 0.065082
O O1 0.476615 0.750000 0.613433
O O2 0.555617 0.626667 0.693133
O O3 0.453094 0.553464 0.632808
O O4 0.519692 0.618993 0.447806
O O5 0.874302 0.750000 0.803268
O O6 0.836489 0.567773 0.763904
O O7 0.918404 0.608124 0.941006
O O8 0.402520 0.750000 0.039170
O O9 0.471346 0.897744 0.042077
O O10 0.366084 0.898296 0.172031
O O11 0.365882 0.899783 0.915616
O O12 0.750000 0.375484 0.130929
O O13 0.826226 0.250000 0.212055
O O14 0.818562 0.421397 0.323643
O O15 0.561131 0.907541 0.204512
O O16 0.630772 0.929694 0.415384
O O17 0.750000 0.435230 0.771780
O O18 0.671482 0.441008 0.583484
O O19 0.250000 0.463725 0.545567
O O20 0.540083 0.750000 0.072189
#
# Coordination Sequence:
#
# PCOD9452736 Si02
#       8
#     8   8   8   8   8   8   8   8
#     4  10  22  38  61  90 120 155 202 248 301 364
#     4  10  22  42  62  87 119 155 202 253 302 353
#     4  10  22  39  61  92 125 161 199 239 300 366
#     4   9  19  37  58  82 118 161 203 245 290 352
#     4  11  22  39  62  88 120 163 198 248 305 357
#     4  11  23  40  62  88 121 159 202 251 300 353
#     4  10  23  40  57  85 119 158 206 247 296 353
#     4  10  23  40  62  90 123 157 196 250 305 363
#
# _framework density 20.397625999999999
#
# number of rings (size 3 to 8) (size 9 to 14) (size 15 to 20)
#    0.000    1.875    1.250    1.500    5.250    3.000 
#    0.000    1.250    0.000    2.250    0.000    0.000 
#    0.000    0.000    0.000    0.000    0.000    0.000 
#
# Total GULP energy -357751.695404 kJ/mol
# GULP energy per Si atom -5589.870241 kJ/mol
# Density = 2.035120 g / cm^3
# Si number density = 20.397626 Si / 1000 Ang^3
#
#
#
# Elastic Constant Matrix: (Units=GPa)
#
#
# Indices 1 2 3 4 5 6 
#
# 1 65.4306 1.3704 24.5780 0.0000 0.0000 0.0000
# 2 1.3704 49.7087 7.9563 0.0000 0.0000 0.0000
# 3 24.5780 7.9563 122.2231 0.0000 0.0000 0.0000
# 4 0.0000 0.0000 0.0000 7.8667 0.0000 0.0000
# 5 0.0000 0.0000 0.0000 0.0000 32.1724 0.0000
# 6 0.0000 0.0000 0.0000 0.0000 0.0000 18.5582
#
#
#
# Elastic Compliance Matrix: (Units=1/GPa)
#
#
# Indices 1 2 3 4 5 6 
#
# 1 0.016532 0.000077 -0.003330 0.000000 0.000000 0.000000
# 2 0.000077 0.020329 -0.001339 0.000000 0.000000 0.000000
# 3 -0.003330 -0.001339 0.008938 0.000000 0.000000 0.000000
# 4 0.000000 0.000000 0.000000 0.127118 0.000000 0.000000
# 5 0.000000 0.000000 0.000000 0.000000 0.031083 0.000000
# 6 0.000000 0.000000 0.000000 0.000000 0.000000 0.053884
#
#
# Mechanical properties :
#
#
# Convention : Reuss Voigt Hill
#
# Bulk Modulus (GPa) = 27.30918 33.90797 30.60858
# Shear Modulus (GPa) = 17.90359 25.28330 21.59344
#
# Velocity S-wave (km/s) = 2.96586 3.52450 3.25718
# Velocity P-wave (km/s) = 5.01457 5.76389 5.40224
#
# Compressibility (1/GPa) = 0.03661772
#
# Stress axis : x y z
#
# Youngs Moduli (GPa) = 60.48708 49.18987 111.87607
#
# Poissons Ratio (x) = -0.00379 0.37250
# Poissons Ratio (y) = -0.00467 0.14979
# Poissons Ratio (z) = 0.20140 0.06586
#
# Static dielectric constant tensor:
#      x y z
#    x 1.735550 0.000000 0.000000 
#    y 0.000000 1.727760 0.000000 
#    z 0.000000 0.000000 1.704990 
# 
# From -- ./inp_files/12193.got.cif
#   From: 2010.05.17/outbox.cif.g08.bks.cpg/sg59_7_cif.got.tgz:12193.got - 2010.06.03 14:40:33.
