data_PCOD9452855
_publ_section_title
;
Structure prediction by ZEFSAII (Michael W. Deem and Ramdas Pophale) SiO2 
 PCOD9452855
Probable space group: P M M N
;
_chemical_formula_sum "Si O2"
_cell_formula_units_Z 56
_cell_length_a 8.651856
_cell_length_b 15.796401
_cell_length_c 21.844562
_cell_angle_alpha 90.000000
_cell_angle_beta 90.000000
_cell_angle_gamma 90.000000
_cell_volume 2985.456679
_symmetry_space_group_name_H-M "P M M N"
_symmetry_group_IT_number 59
_space_group.IT_coordinate_system_code '2'
_symmetry_cell_setting 'orthorhombic'
loop_
_space_group_symop_operation_xyz
x,y,z
1/2-x,1/2-y,z
1/2+x,-y,-z
-x,1/2+y,-z
-x,-y,-z
1/2+x,1/2+y,-z
1/2-x,y,z
x,1/2-y,z
loop_
_atom_site_type_symbol
_atom_site_label
_atom_site_fract_x
_atom_site_fract_y
_atom_site_fract_z
Si Si1 0.564667 0.496489 0.346920
Si Si2 0.436396 0.347829 0.430274
Si Si3 0.934268 0.095078 0.996233
Si Si4 0.435140 0.345610 0.867514
Si Si5 0.935681 0.844744 0.876363
Si Si6 0.438106 0.154261 0.571457
Si Si7 0.435292 0.000260 0.210439
O O1 0.750000 0.498733 0.344304
O O2 0.511476 0.415044 0.385299
O O3 0.509945 0.580858 0.382982
O O4 0.498896 0.494466 0.278767
O O5 0.250000 0.355252 0.426863
O O6 0.475682 0.250000 0.415914
O O7 0.482908 0.363757 0.501040
O O8 0.750000 0.092442 0.991309
O O9 0.003543 0.138263 0.935970
O O10 0.985458 0.141220 0.058200
O O11 0.000000 0.000000 0.000000
O O12 0.250000 0.353650 0.867665
O O13 0.475616 0.250000 0.848426
O O14 0.505219 0.416492 0.823553
O O15 0.750000 0.851984 0.884922
O O16 0.968796 0.750000 0.853468
O O17 0.984501 0.918290 0.829820
O O18 0.250000 0.154833 0.572249
O O19 0.488474 0.250000 0.587318
O O20 0.250000 0.999424 0.211814
#
# Coordination Sequence:
#
# PCOD9452855 Si02
#       7
#     8   8   8   8   8   8   8
#     4  11  22  35  56  85 118 153 191 239 293 347
#     4   9  18  35  59  84 112 149 193 238 286 345
#     4  12  23  37  62  92 122 153 189 239 295 349
#     4  11  24  42  64  89 119 155 194 241 297 351
#     4  10  22  41  63  86 113 149 194 244 298 351
#     4   8  16  33  57  84 113 148 190 235 288 349
#     4  11  24  41  60  83 116 160 202 243 286 342
#
# _framework density 18.7576
#
# number of rings (size 3 to 8) (size 9 to 14) (size 15 to 20)
#    0.000    1.714    1.429    4.286    0.000    5.143 
#    0.000    3.571    0.000    3.000    0.000    0.000 
#    0.000    0.000    0.000    0.000    0.000    0.000 
#
# Total GULP energy -312918.240707 kJ/mol
# GULP energy per Si atom -5587.825727 kJ/mol
# Density = 1.871491 g / cm^3
# Si number density = 18.757600 Si / 1000 Ang^3
#
#
#
# Elastic Constant Matrix: (Units=GPa)
#
#
# Indices 1 2 3 4 5 6 
#
# 1 38.8404 38.5703 27.8197 0.0000 0.0000 0.0000
# 2 38.5703 135.4664 68.8847 0.0000 0.0000 0.0000
# 3 27.8197 68.8847 115.1673 0.0000 0.0000 0.0000
# 4 0.0000 0.0000 0.0000 -4.6229 0.0000 0.0000
# 5 0.0000 0.0000 0.0000 0.0000 -49.5067 0.0000
# 6 0.0000 0.0000 0.0000 0.0000 0.0000 30.6052
#
#
#
# Elastic Compliance Matrix: (Units=1/GPa)
#
#
# Indices 1 2 3 4 5 6 
#
# 1 0.037012 -0.008611 -0.003790 0.000000 0.000000 0.000000
# 2 -0.008611 0.012612 -0.005463 0.000000 0.000000 0.000000
# 3 -0.003790 -0.005463 0.012866 0.000000 0.000000 0.000000
# 4 0.000000 0.000000 0.000000 -0.216314 0.000000 0.000000
# 5 0.000000 0.000000 0.000000 0.000000 -0.020199 0.000000
# 6 0.000000 0.000000 0.000000 0.000000 0.000000 0.032674
#
#
# Mechanical properties :
#
#
# Convention : Reuss Voigt Hill
#
# Bulk Modulus (GPa) = 37.36736 62.22481 49.79609
# Shear Modulus (GPa) = -51.70636 5.57509 -23.06563
#
# Velocity S-wave (km/s) = -5.25599 1.72587 -3.51047
# Velocity P-wave (km/s) = 4.10724 6.10054 3.18961
#
# Compressibility (1/GPa) = 0.02676132
#
# Stress axis : x y z
#
# Youngs Moduli (GPa) = 27.01817 79.29117 77.72191
#
# Poissons Ratio (x) = 0.68276 0.29458
# Poissons Ratio (y) = 0.23265 0.42463
# Poissons Ratio (z) = 0.10240 0.43320
#
# Static dielectric constant tensor:
#      x y z
#    x 1.639520 0.000000 0.000000 
#    y 0.000000 1.651760 0.000000 
#    z 0.000000 0.000000 1.606100 
# 
# From -- ./inp_files/28993.got.cif
#   From: 2010.05.17/outbox.cif.g08.bks.cpg/sg59_15_cif.got.tgz:28993.got - 2010.06.03 14:40:33.
