data_PCOD9452165
_publ_section_title
;
Structure prediction by ZEFSAII (Michael W. Deem and Ramdas Pophale) SiO2 
 PCOD9452165
Probable space group: P M M N
;
_chemical_formula_sum "Si O2"
_cell_formula_units_Z 40
_cell_length_a 8.998576
_cell_length_b 30.482249
_cell_length_c 7.599568
_cell_angle_alpha 90.000000
_cell_angle_beta 90.000000
_cell_angle_gamma 90.000000
_cell_volume 2084.537444
_symmetry_space_group_name_H-M "P M M N"
_symmetry_group_IT_number 59
_space_group.IT_coordinate_system_code '2'
_symmetry_cell_setting 'orthorhombic'
loop_
_space_group_symop_operation_xyz
x,y,z
1/2-x,1/2-y,z
1/2+x,-y,-z
-x,1/2+y,-z
-x,-y,-z
1/2+x,1/2+y,-z
1/2-x,y,z
x,1/2-y,z
loop_
_atom_site_type_symbol
_atom_site_label
_atom_site_fract_x
_atom_site_fract_y
_atom_site_fract_z
Si Si1 0.427518 0.135937 0.454553
Si Si2 0.430065 0.860787 0.930060
Si Si3 0.081632 0.954523 0.538464
Si Si4 0.084140 0.544476 0.960039
Si Si5 0.927629 0.301623 0.739796
O O1 0.250000 0.134274 0.447223
O O2 0.493273 0.144862 0.258994
O O3 0.491969 0.088705 0.516503
O O4 0.485329 0.172529 0.588922
O O5 0.250000 0.863178 0.904636
O O6 0.478436 0.907946 0.012415
O O7 0.462137 0.823074 0.070639
O O8 0.250000 0.954084 0.468177
O O9 0.091018 0.951896 0.749432
O O10 0.000000 0.000000 0.500000
O O11 0.250000 0.540457 0.033078
O O12 0.000000 0.500000 0.000000
O O13 0.750000 0.307608 0.710876
O O14 0.959735 0.250000 0.738040
#
# Coordination Sequence:
#
# PCOD9452165 Si02
#       5
#     8   8   8   8   8
#     4  11  23  39  60  89 125 163 200 246 305 365
#     4   9  20  40  61  85 118 158 203 252 301 354
#     4  10  21  37  56  83 117 157 202 244 293 353
#     4   9  19  33  51  79 113 149 192 236 286 346
#     4  10  22  41  66  92 117 155 206 255 307 363
#
# _framework density 19.188908999999999
#
# number of rings (size 3 to 8) (size 9 to 14) (size 15 to 20)
#    0.000    2.200    0.000    3.600    2.800    6.000 
#    0.000    2.000    0.000    0.000    0.000    0.000 
#    0.000    0.000    0.000    0.000    0.000    0.000 
#
# Total GULP energy -223257.474714 kJ/mol
# GULP energy per Si atom -5581.436868 kJ/mol
# Density = 1.914523 g / cm^3
# Si number density = 19.188909 Si / 1000 Ang^3
#
#
#
# Elastic Constant Matrix: (Units=GPa)
#
#
# Indices 1 2 3 4 5 6 
#
# 1 106.3262 89.4308 55.6646 0.0000 0.0000 0.0000
# 2 89.4308 183.0624 71.5022 0.0000 0.0000 0.0000
# 3 55.6646 71.5022 90.0450 0.0000 0.0000 0.0000
# 4 0.0000 0.0000 0.0000 37.6210 0.0000 0.0000
# 5 0.0000 0.0000 0.0000 0.0000 22.8514 0.0000
# 6 0.0000 0.0000 0.0000 0.0000 0.0000 29.2849
#
#
#
# Elastic Compliance Matrix: (Units=1/GPa)
#
#
# Indices 1 2 3 4 5 6 
#
# 1 0.017948 -0.006428 -0.005991 0.000000 0.000000 0.000000
# 2 -0.006428 0.010221 -0.004142 0.000000 0.000000 0.000000
# 3 -0.005991 -0.004142 0.018098 0.000000 0.000000 0.000000
# 4 0.000000 0.000000 0.000000 0.026581 0.000000 0.000000
# 5 0.000000 0.000000 0.000000 0.000000 0.043761 0.000000
# 6 0.000000 0.000000 0.000000 0.000000 0.000000 0.034147
#
#
# Mechanical properties :
#
#
# Convention : Reuss Voigt Hill
#
# Bulk Modulus (GPa) = 76.07655 90.29208 83.18432
# Shear Modulus (GPa) = 26.55892 28.80721 27.68307
#
# Velocity S-wave (km/s) = 3.72435 3.87879 3.80236
# Velocity P-wave (km/s) = 7.63064 8.19857 7.91969
#
# Compressibility (1/GPa) = 0.01314465
#
# Stress axis : x y z
#
# Youngs Moduli (GPa) = 55.71617 97.83884 55.25376
#
# Poissons Ratio (x) = 0.62892 0.33102
# Poissons Ratio (y) = 0.35815 0.22888
# Poissons Ratio (z) = 0.33379 0.40528
#
# Static dielectric constant tensor:
#      x y z
#    x 2.173010 0.000000 0.000000 
#    y 0.000000 1.677080 0.000000 
#    z 0.000000 0.000000 1.663150 
# 
# From -- ./inp_files/5707.got.cif
#   From: 2010.05.17/outbox.cif.g08.bks.cpg/sg59_3_cif.got.tgz:5707.got - 2010.06.03 14:40:33.
