data_PCOD9452223
_publ_section_title
;
Structure prediction by ZEFSAII (Michael W. Deem and Ramdas Pophale) SiO2 
 PCOD9452223
Probable space group: P M M N
;
_chemical_formula_sum "Si O2"
_cell_formula_units_Z 64
_cell_length_a 25.802113
_cell_length_b 9.025189
_cell_length_c 14.797146
_cell_angle_alpha 90.000000
_cell_angle_beta 90.000000
_cell_angle_gamma 90.000000
_cell_volume 3445.795799
_symmetry_space_group_name_H-M "P M M N"
_symmetry_group_IT_number 59
_space_group.IT_coordinate_system_code '2'
_symmetry_cell_setting 'orthorhombic'
loop_
_space_group_symop_operation_xyz
x,y,z
1/2-x,1/2-y,z
1/2+x,-y,-z
-x,1/2+y,-z
-x,-y,-z
1/2+x,1/2+y,-z
1/2-x,y,z
x,1/2-y,z
loop_
_atom_site_type_symbol
_atom_site_label
_atom_site_fract_x
_atom_site_fract_y
_atom_site_fract_z
Si Si1 0.604592 0.071536 0.405722
Si Si2 0.312350 0.923700 0.906099
Si Si3 0.004194 0.928823 0.711831
Si Si4 0.905405 0.428358 0.615385
Si Si5 0.643285 0.926684 0.915549
Si Si6 0.308838 0.928178 0.260322
Si Si7 0.478660 0.426845 0.090336
Si Si8 0.311051 0.426275 0.715888
O O1 0.610606 0.250000 0.401395
O O2 0.554818 0.030129 0.345272
O O3 0.596037 0.030157 0.510011
O O4 0.654462 0.994818 0.362846
O O5 0.250000 0.936780 0.916690
O O6 0.325686 0.750000 0.904179
O O7 0.326354 0.998898 0.811064
O O8 0.339188 0.002958 0.990083
O O9 0.999576 0.750000 0.710434
O O10 0.006334 0.975523 0.816847
O O11 0.953417 0.996959 0.665872
O O12 0.911012 0.250000 0.620704
O O13 0.851873 0.469107 0.665471
O O14 0.650446 0.750000 0.917794
O O15 0.582526 0.958360 0.899643
O O16 0.675761 0.996413 0.833837
O O17 0.250000 0.967353 0.286088
O O18 0.311054 0.750000 0.248694
O O19 0.484821 0.250000 0.082188
O O20 0.500000 0.500000 0.000000
O O21 0.250000 0.456737 0.701785
O O22 0.318043 0.250000 0.721627
#
# Coordination Sequence:
#
# PCOD9452223 Si02
#       8
#     8   8   8   8   8   8   8   8
#     4  10  22  38  61  90 117 153 199 243 294 354
#     4  10  21  37  58  83 112 149 189 230 281 340
#     4  10  21  40  61  85 119 154 193 242 294 352
#     4  10  21  38  60  88 117 152 198 247 298 347
#     4  11  22  37  57  84 116 150 191 237 288 346
#     4  10  21  37  57  83 116 155 198 243 293 351
#     4  10  23  39  56  83 117 153 190 236 292 345
#     4  10  22  40  60  86 120 154 192 241 293 346
#
# _framework density 18.573357999999999
#
# number of rings (size 3 to 8) (size 9 to 14) (size 15 to 20)
#    0.000    1.875    1.250    1.875    1.750    6.250 
#    0.000    1.250    0.000    0.000    0.000    0.000 
#    0.000    0.000    0.000    0.000    0.000    0.000 
#
# Total GULP energy -357581.558957 kJ/mol
# GULP energy per Si atom -5587.211859 kJ/mol
# Density = 1.853108 g / cm^3
# Si number density = 18.573358 Si / 1000 Ang^3
#
#
#
# Elastic Constant Matrix: (Units=GPa)
#
#
# Indices 1 2 3 4 5 6 
#
# 1 83.4936 37.5084 59.6643 0.0000 0.0000 0.0000
# 2 37.5084 21.5685 33.1338 0.0000 0.0000 0.0000
# 3 59.6643 33.1338 151.5446 0.0000 0.0000 0.0000
# 4 0.0000 0.0000 0.0000 24.3972 0.0000 0.0000
# 5 0.0000 0.0000 0.0000 0.0000 -132.6966 0.0000
# 6 0.0000 0.0000 0.0000 0.0000 0.0000 30.6273
#
#
#
# Elastic Compliance Matrix: (Units=1/GPa)
#
#
# Indices 1 2 3 4 5 6 
#
# 1 0.054873 -0.093715 -0.001114 0.000000 0.000000 0.000000
# 2 -0.093715 0.229862 -0.013361 0.000000 0.000000 0.000000
# 3 -0.001114 -0.013361 0.009959 0.000000 0.000000 0.000000
# 4 0.000000 0.000000 0.000000 0.040988 0.000000 0.000000
# 5 0.000000 0.000000 0.000000 0.000000 -0.007536 0.000000
# 6 0.000000 0.000000 0.000000 0.000000 0.000000 0.032651
#
#
# Mechanical properties :
#
#
# Convention : Reuss Voigt Hill
#
# Bulk Modulus (GPa) = 12.76908 57.46886 35.11897
# Shear Modulus (GPa) = 8.28801 -7.11441 0.58680
#
# Velocity S-wave (km/s) = 2.11471 -1.95927 0.56269
# Velocity P-wave (km/s) = 3.58504 5.08826 4.40130
#
# Compressibility (1/GPa) = 0.07831418
#
# Stress axis : x y z
#
# Youngs Moduli (GPa) = 18.22379 4.35044 100.41563
#
# Poissons Ratio (x) = 0.40770 0.11189
# Poissons Ratio (y) = 1.70784 1.34163
# Poissons Ratio (z) = 0.02031 0.05813
#
# Static dielectric constant tensor:
#      x y z
#    x 1.629840 0.000000 0.000000 
#    y 0.000000 1.619020 0.000000 
#    z 0.000000 0.000000 1.613100 
# 
# From -- ./inp_files/21431.got.cif
#   From: 2010.05.17/outbox.cif.g08.bks.cpg/sg59_11_cif.got.tgz:21431.got - 2010.06.03 14:40:33.
