data_PCOD9452644
_publ_section_title
;
Structure prediction by ZEFSAII (Michael W. Deem and Ramdas Pophale) SiO2 
 PCOD9452644
Probable space group: P M M N
;
_chemical_formula_sum "Si O2"
_cell_formula_units_Z 48
_cell_length_a 17.463848
_cell_length_b 10.003319
_cell_length_c 14.705437
_cell_angle_alpha 90.000000
_cell_angle_beta 90.000000
_cell_angle_gamma 90.000000
_cell_volume 2568.987529
_symmetry_space_group_name_H-M "P M M N"
_symmetry_group_IT_number 59
_space_group.IT_coordinate_system_code '2'
_symmetry_cell_setting 'orthorhombic'
loop_
_space_group_symop_operation_xyz
x,y,z
1/2-x,1/2-y,z
1/2+x,-y,-z
-x,1/2+y,-z
-x,-y,-z
1/2+x,1/2+y,-z
1/2-x,y,z
x,1/2-y,z
loop_
_atom_site_type_symbol
_atom_site_label
_atom_site_fract_x
_atom_site_fract_y
_atom_site_fract_z
Si Si1 0.094561 0.990254 0.633107
Si Si2 0.662950 0.250000 0.470121
Si Si3 0.966757 0.585178 0.084213
Si Si4 0.834665 0.250000 0.685286
Si Si5 0.842623 0.750000 0.685978
Si Si6 0.438309 0.505137 0.263838
Si Si7 0.158073 0.250000 0.533043
Si Si8 0.340734 0.907441 0.828914
O O1 0.122781 0.124343 0.585521
O O2 0.115864 0.875960 0.562956
O O3 0.139486 0.952451 0.725956
O O4 0.006173 0.994391 0.662040
O O5 0.750000 0.250000 0.431214
O O6 0.670255 0.250000 0.577126
O O7 0.964011 0.750000 0.074473
O O8 0.019867 0.544045 0.170049
O O9 0.885669 0.513945 0.108436
O O10 0.000000 0.500000 0.000000
O O11 0.750000 0.250000 0.724969
O O12 0.881432 0.377180 0.713886
O O13 0.750000 0.750000 0.698727
O O14 0.886039 0.625460 0.731085
O O15 0.856473 0.750000 0.575978
O O16 0.250000 0.250000 0.543557
O O17 0.250000 0.912498 0.843673
O O18 0.365400 0.750000 0.840512
#
# Coordination Sequence:
#
# PCOD9452644 Si02
#       8
#     8   4   8   4   4   8   4   8
#     4  11  22  35  58  91 127 169 213 265 315 372
#     4  11  21  35  57  87 124 174 219 252 307 366
#     4  11  25  45  73 100 127 164 202 257 327 395
#     4  11  23  41  62  85 125 170 214 266 307 361
#     4  11  25  43  62  87 125 176 224 270 319 367
#     4  11  24  42  64  93 122 160 215 263 322 388
#     4  11  23  37  55  87 132 176 221 268 315 366
#     4  10  21  39  65  98 135 170 208 258 319 384
#
# _framework density 18.684403
#
# number of rings (size 3 to 8) (size 9 to 14) (size 15 to 20)
#    0.000    1.167    1.667    4.500    8.167    7.000 
#    0.000    1.667    0.000    0.000    0.000    0.000 
#    0.000    0.000    0.000    0.000    0.000    0.000 
#
# Total GULP energy -267908.382796 kJ/mol
# GULP energy per Si atom -5581.424642 kJ/mol
# Density = 1.864188 g / cm^3
# Si number density = 18.684403 Si / 1000 Ang^3
#
#
#
# Elastic Constant Matrix: (Units=GPa)
#
#
# Indices 1 2 3 4 5 6 
#
# 1 141.4120 78.5248 36.7489 0.0000 0.0000 0.0000
# 2 78.5248 215.7567 42.5088 0.0000 0.0000 0.0000
# 3 36.7489 42.5088 47.4735 0.0000 0.0000 0.0000
# 4 0.0000 0.0000 0.0000 32.8541 0.0000 0.0000
# 5 0.0000 0.0000 0.0000 0.0000 20.1883 0.0000
# 6 0.0000 0.0000 0.0000 0.0000 0.0000 48.0340
#
#
#
# Elastic Compliance Matrix: (Units=1/GPa)
#
#
# Indices 1 2 3 4 5 6 
#
# 1 0.009876 -0.002536 -0.005375 0.000000 0.000000 0.000000
# 2 -0.002536 0.006279 -0.003659 0.000000 0.000000 0.000000
# 3 -0.005375 -0.003659 0.028502 0.000000 0.000000 0.000000
# 4 0.000000 0.000000 0.000000 0.030438 0.000000 0.000000
# 5 0.000000 0.000000 0.000000 0.000000 0.049534 0.000000
# 6 0.000000 0.000000 0.000000 0.000000 0.000000 0.020819
#
#
# Mechanical properties :
#
#
# Convention : Reuss Voigt Hill
#
# Bulk Modulus (GPa) = 46.47431 80.02303 63.24867
# Shear Modulus (GPa) = 28.44826 36.67262 32.56044
#
# Velocity S-wave (km/s) = 3.90624 4.43509 4.17904
# Velocity P-wave (km/s) = 6.72847 8.31555 7.56375
#
# Compressibility (1/GPa) = 0.02151727
#
# Stress axis : x y z
#
# Youngs Moduli (GPa) = 101.25324 159.27092 35.08580
#
# Poissons Ratio (x) = 0.40383 0.18858
# Poissons Ratio (y) = 0.25673 0.12839
# Poissons Ratio (z) = 0.54421 0.58282
#
# Static dielectric constant tensor:
#      x y z
#    x 1.649210 0.000000 0.000000 
#    y 0.000000 1.605940 0.000000 
#    z 0.000000 0.000000 1.652000 
# 
# From -- ./inp_files/23809.got.cif
#   From: 2010.05.17/outbox.cif.g08.bks.cpg/sg59_12_cif.got.tgz:23809.got - 2010.06.03 14:40:33.
