data_PCOD9452581
_publ_section_title
;
Structure prediction by ZEFSAII (Michael W. Deem and Ramdas Pophale) SiO2 
 PCOD9452581
Probable space group: P M M N
;
_chemical_formula_sum "Si O2"
_cell_formula_units_Z 32
_cell_length_a 23.065274
_cell_length_b 13.196107
_cell_length_c 5.248341
_cell_angle_alpha 90.000000
_cell_angle_beta 90.000000
_cell_angle_gamma 90.000000
_cell_volume 1597.447122
_symmetry_space_group_name_H-M "P M M N"
_symmetry_group_IT_number 59
_space_group.IT_coordinate_system_code '2'
_symmetry_cell_setting 'orthorhombic'
loop_
_space_group_symop_operation_xyz
x,y,z
1/2-x,1/2-y,z
1/2+x,-y,-z
-x,1/2+y,-z
-x,-y,-z
1/2+x,1/2+y,-z
1/2-x,y,z
x,1/2-y,z
loop_
_atom_site_type_symbol
_atom_site_label
_atom_site_fract_x
_atom_site_fract_y
_atom_site_fract_z
Si Si1 0.925599 0.066705 0.440853
Si Si2 0.316690 0.635860 0.830201
Si Si3 0.090064 0.250000 0.958127
Si Si4 0.609154 0.529138 0.945630
Si Si5 0.486505 0.250000 0.458979
O O1 0.863163 0.120919 0.395864
O O2 0.973015 0.151571 0.488227
O O3 0.933272 0.007673 0.174058
O O4 0.919368 0.990263 0.673973
O O5 0.250000 0.624407 0.754408
O O6 0.324516 0.750000 0.933998
O O7 0.336796 0.547479 0.021904
O O8 0.040240 0.250000 0.175708
O O9 0.061875 0.250000 0.678434
O O10 0.123858 0.354488 0.004281
#
# Coordination Sequence:
#
# PCOD9452581 Si02
#       5
#     8   8   4   8   4
#     4  10  21  39  60  90 123 151 203 247 303 355
#     4   9  20  40  67  95 120 152 196 254 317 358
#     4  12  26  40  59  88 125 168 210 236 294 358
#     4  10  23  40  61  88 126 159 201 250 292 364
#     4  12  24  38  65  90 121 166 200 252 306 352
#
# _framework density 20.031962
#
# number of rings (size 3 to 8) (size 9 to 14) (size 15 to 20)
#    1.500    0.250    1.250    3.000    1.750    7.000 
#    0.000    3.125    0.000    0.000    0.000    0.000 
#    0.000    0.000    0.000    0.000    0.000    0.000 
#
# Total GULP energy -178433.312359 kJ/mol
# GULP energy per Si atom -5576.041011 kJ/mol
# Density = 1.998637 g / cm^3
# Si number density = 20.031962 Si / 1000 Ang^3
#
#
#
# Elastic Constant Matrix: (Units=GPa)
#
#
# Indices 1 2 3 4 5 6 
#
# 1 71.3460 31.5147 2.9744 0.0000 0.0000 0.0000
# 2 31.5147 141.4943 6.0961 0.0000 0.0000 0.0000
# 3 2.9744 6.0961 84.9781 0.0000 0.0000 0.0000
# 4 0.0000 0.0000 0.0000 25.8966 0.0000 0.0000
# 5 0.0000 0.0000 0.0000 0.0000 8.3043 0.0000
# 6 0.0000 0.0000 0.0000 0.0000 0.0000 22.6416
#
#
#
# Elastic Compliance Matrix: (Units=1/GPa)
#
#
# Indices 1 2 3 4 5 6 
#
# 1 0.015553 -0.003451 -0.000297 0.000000 0.000000 0.000000
# 2 -0.003451 0.007855 -0.000443 0.000000 0.000000 0.000000
# 3 -0.000297 -0.000443 0.011810 0.000000 0.000000 0.000000
# 4 0.000000 0.000000 0.000000 0.038615 0.000000 0.000000
# 5 0.000000 0.000000 0.000000 0.000000 0.120420 0.000000
# 6 0.000000 0.000000 0.000000 0.000000 0.000000 0.044167
#
#
# Mechanical properties :
#
#
# Convention : Reuss Voigt Hill
#
# Bulk Modulus (GPa) = 37.26265 42.10987 39.68626
# Shear Modulus (GPa) = 19.55061 28.51737 24.03399
#
# Velocity S-wave (km/s) = 3.12744 3.77715 3.46754
# Velocity P-wave (km/s) = 5.62878 6.33162 5.99052
#
# Compressibility (1/GPa) = 0.02683652
#
# Stress axis : x y z
#
# Youngs Moduli (GPa) = 64.29596 127.30417 84.67482
#
# Poissons Ratio (x) = 0.43937 0.02513
# Poissons Ratio (y) = 0.22191 0.03749
# Poissons Ratio (z) = 0.01908 0.05636
#
# Static dielectric constant tensor:
#      x y z
#    x 1.688720 0.000000 0.000000 
#    y 0.000000 1.735050 0.000000 
#    z 0.000000 0.000000 1.700930 
# 
# From -- ./inp_files/4075.got.cif
#   From: 2010.05.17/outbox.cif.g08.bks.cpg/sg59_3_cif.got.tgz:4075.got - 2010.06.03 14:40:33.
