data_PCOD9452695
_publ_section_title
;
Structure prediction by ZEFSAII (Michael W. Deem and Ramdas Pophale) SiO2 
 PCOD9452695
Probable space group: P M M N
;
_chemical_formula_sum "Si O2"
_cell_formula_units_Z 64
_cell_length_a 7.382219
_cell_length_b 25.349989
_cell_length_c 13.976924
_cell_angle_alpha 90.000000
_cell_angle_beta 90.000000
_cell_angle_gamma 90.000000
_cell_volume 2615.629963
_symmetry_space_group_name_H-M "P M M N"
_symmetry_group_IT_number 59
_space_group.IT_coordinate_system_code '2'
_symmetry_cell_setting 'orthorhombic'
loop_
_space_group_symop_operation_xyz
x,y,z
1/2-x,1/2-y,z
1/2+x,-y,-z
-x,1/2+y,-z
-x,-y,-z
1/2+x,1/2+y,-z
1/2-x,y,z
x,1/2-y,z
loop_
_atom_site_type_symbol
_atom_site_label
_atom_site_fract_x
_atom_site_fract_y
_atom_site_fract_z
Si Si1 0.541111 0.972270 0.377658
Si Si2 0.462224 0.146377 0.852498
Si Si3 0.037761 0.693311 0.552540
Si Si4 0.467693 0.971604 0.150648
Si Si5 0.960654 0.915833 0.867553
Si Si6 0.527944 0.692639 0.955361
Si Si7 0.029895 0.585297 0.642067
Si Si8 0.030281 0.358401 0.636795
O O1 0.750000 0.972075 0.405890
O O2 0.464865 0.029757 0.403611
O O3 0.534900 0.971181 0.260846
O O4 0.460292 0.915259 0.402061
O O5 0.250000 0.157676 0.843441
O O6 0.480132 0.085690 0.888631
O O7 0.530648 0.184575 0.934686
O O8 0.536738 0.149839 0.745035
O O9 0.250000 0.693873 0.577508
O O10 0.960540 0.750000 0.581705
O O11 0.961384 0.639635 0.597068
O O12 0.021268 0.685646 0.438725
O O13 0.250000 0.973713 0.153395
O O14 0.535913 0.026290 0.104099
O O15 0.750000 0.916124 0.896236
O O16 0.974130 0.915251 0.752726
O O17 0.037181 0.860238 0.902818
O O18 0.750000 0.692320 0.951942
O O19 0.470610 0.750000 0.918390
O O20 0.250000 0.584167 0.637969
O O21 0.250000 0.361634 0.639907
#
# Coordination Sequence:
#
# PCOD9452695 Si02
#       8
#     8   8   8   8   8   8   8   8
#     4   8  15  30  51  74  98 124 159 200 243 295
#     4   9  18  33  53  75  99 129 165 203 243 292
#     4  10  22  37  50  69  99 134 170 202 238 292
#     4   9  16  27  46  74 105 130 155 194 246 298
#     4   9  18  32  51  77 104 128 160 203 247 291
#     4   9  18  33  52  73  98 131 171 209 244 286
#     4   9  18  34  54  73  98 133 165 196 242 296
#     4   9  18  32  51  75  99 123 159 208 251 286
#
# _framework density 24.468294
#
# number of rings (size 3 to 8) (size 9 to 14) (size 15 to 20)
#    0.000    3.000    0.000    1.125    0.000    5.250 
#    0.000    1.875    0.000    1.125    0.000    0.000 
#    0.000    0.000    0.000    0.000    0.000    0.000 
#
# Total GULP energy -357305.701296 kJ/mol
# GULP energy per Si atom -5582.901583 kJ/mol
# Density = 2.441260 g / cm^3
# Si number density = 24.468294 Si / 1000 Ang^3
#
#
#
# Elastic Constant Matrix: (Units=GPa)
#
#
# Indices 1 2 3 4 5 6 
#
# 1 100.1992 -8.7287 -4.2796 0.0000 0.0000 0.0000
# 2 -8.7287 136.0492 18.5969 0.0000 0.0000 0.0000
# 3 -4.2796 18.5969 37.9753 0.0000 0.0000 0.0000
# 4 0.0000 0.0000 0.0000 25.6992 0.0000 0.0000
# 5 0.0000 0.0000 0.0000 0.0000 -0.7050 0.0000
# 6 0.0000 0.0000 0.0000 0.0000 0.0000 -3.1976
#
#
#
# Elastic Compliance Matrix: (Units=1/GPa)
#
#
# Indices 1 2 3 4 5 6 
#
# 1 0.010063 0.000526 0.000877 0.000000 0.000000 0.000000
# 2 0.000526 0.007905 -0.003812 0.000000 0.000000 0.000000
# 3 0.000877 -0.003812 0.028298 0.000000 0.000000 0.000000
# 4 0.000000 0.000000 0.000000 0.038912 0.000000 0.000000
# 5 0.000000 0.000000 0.000000 0.000000 -1.418457 0.000000
# 6 0.000000 0.000000 0.000000 0.000000 0.000000 -0.312734
#
#
# Mechanical properties :
#
#
# Convention : Reuss Voigt Hill
#
# Bulk Modulus (GPa) = 24.12672 31.71123 27.91897
# Shear Modulus (GPa) = -3.07243 22.26832 9.59794
#
# Velocity S-wave (km/s) = -1.12179 3.02004 1.98271
# Velocity P-wave (km/s) = 2.86425 5.01489 4.08369
#
# Compressibility (1/GPa) = 0.04144782
#
# Stress axis : x y z
#
# Youngs Moduli (GPa) = 99.37038 126.50093 35.33760
#
# Poissons Ratio (x) = -0.06652 -0.03098
# Poissons Ratio (y) = -0.05225 0.13470
# Poissons Ratio (z) = -0.08711 0.48221
#
# Static dielectric constant tensor:
#      x y z
#    x 1.889330 0.000000 0.000000 
#    y 0.000000 1.968920 0.000000 
#    z 0.000000 0.000000 1.944830 
# 
# From -- ./inp_files/21541.got.cif
#   From: 2010.05.17/outbox.cif.g08.bks.cpg/sg59_11_cif.got.tgz:21541.got - 2010.06.03 14:40:33.
