data_PCOD9452129
_publ_section_title
;
Structure prediction by ZEFSAII (Michael W. Deem and Ramdas Pophale) SiO2 
 PCOD9452129
Probable space group: P M M N
;
_chemical_formula_sum "Si O2"
_cell_formula_units_Z 56
_cell_length_a 8.001624
_cell_length_b 14.696608
_cell_length_c 22.095752
_cell_angle_alpha 90.000000
_cell_angle_beta 90.000000
_cell_angle_gamma 90.000000
_cell_volume 2598.388211
_symmetry_space_group_name_H-M "P M M N"
_symmetry_group_IT_number 59
_space_group.IT_coordinate_system_code '2'
_symmetry_cell_setting 'orthorhombic'
loop_
_space_group_symop_operation_xyz
x,y,z
1/2-x,1/2-y,z
1/2+x,-y,-z
-x,1/2+y,-z
-x,-y,-z
1/2+x,1/2+y,-z
1/2-x,y,z
x,1/2-y,z
loop_
_atom_site_type_symbol
_atom_site_label
_atom_site_fract_x
_atom_site_fract_y
_atom_site_fract_z
Si Si1 0.550436 0.352107 0.593806
Si Si2 0.451494 0.144346 0.460213
Si Si3 0.455498 0.470727 0.344459
Si Si4 0.442613 0.860676 0.033155
Si Si5 0.557004 0.538407 0.787520
Si Si6 0.449052 0.853313 0.903928
Si Si7 0.555429 0.854199 0.165766
O O1 0.750000 0.346467 0.600862
O O2 0.480131 0.250000 0.599743
O O3 0.517351 0.386464 0.525503
O O4 0.488662 0.426561 0.641005
O O5 0.250000 0.139092 0.462398
O O6 0.500009 0.250000 0.454057
O O7 0.508524 0.089520 0.401537
O O8 0.250000 0.469804 0.343199
O O9 0.513532 0.438556 0.278685
O O10 0.250000 0.890079 0.041816
O O11 0.441887 0.750000 0.027706
O O12 0.538987 0.880401 0.094753
O O13 0.513574 0.892372 0.968291
O O14 0.750000 0.564873 0.788381
O O15 0.477616 0.587113 0.845013
O O16 0.540597 0.430040 0.796699
O O17 0.250000 0.847456 0.913403
O O18 0.513020 0.750000 0.894525
O O19 0.750000 0.856888 0.182296
O O20 0.494120 0.750000 0.172432
#
# Coordination Sequence:
#
# PCOD9452129 Si02
#       7
#     8   8   8   8   8   8   8
#     4   9  17  31  52  76 100 126 161 206 252 298
#     4   9  17  31  52  76 101 128 160 202 251 299
#     4   9  19  34  50  71 100 135 172 206 245 296
#     4   8  15  31  56  81 102 130 171 217 266 318
#     4  11  23  36  53  78 106 142 186 221 254 307
#     4   9  19  37  58  79 107 140 173 217 271 319
#     4  10  21  37  56  78 106 138 173 219 272 320
#
# _framework density 21.551821
#
# number of rings (size 3 to 8) (size 9 to 14) (size 15 to 20)
#    0.000    2.714    0.000    2.143    0.000    3.429 
#    0.000    7.143    0.000    3.429    0.000    0.000 
#    0.000    0.000    0.000    0.000    0.000    0.000 
#
# Total GULP energy -312520.660372 kJ/mol
# GULP energy per Si atom -5580.726078 kJ/mol
# Density = 2.150277 g / cm^3
# Si number density = 21.551821 Si / 1000 Ang^3
#
#
#
# Elastic Constant Matrix: (Units=GPa)
#
#
# Indices 1 2 3 4 5 6 
#
# 1 15.4663 -3.7361 -6.0766 0.0000 0.0000 0.0000
# 2 -3.7361 34.7912 4.1097 0.0000 0.0000 0.0000
# 3 -6.0766 4.1097 52.0083 0.0000 0.0000 0.0000
# 4 0.0000 0.0000 0.0000 16.7679 0.0000 0.0000
# 5 0.0000 0.0000 0.0000 0.0000 20.8218 0.0000
# 6 0.0000 0.0000 0.0000 0.0000 0.0000 12.2025
#
#
#
# Elastic Compliance Matrix: (Units=1/GPa)
#
#
# Indices 1 2 3 4 5 6 
#
# 1 0.069210 0.006538 0.007570 0.000000 0.000000 0.000000
# 2 0.006538 0.029631 -0.001578 0.000000 0.000000 0.000000
# 3 0.007570 -0.001578 0.020237 0.000000 0.000000 0.000000
# 4 0.000000 0.000000 0.000000 0.059638 0.000000 0.000000
# 5 0.000000 0.000000 0.000000 0.000000 0.048027 0.000000
# 6 0.000000 0.000000 0.000000 0.000000 0.000000 0.081950
#
#
# Mechanical properties :
#
#
# Convention : Reuss Voigt Hill
#
# Bulk Modulus (GPa) = 6.93777 10.09554 8.51666
# Shear Modulus (GPa) = 15.07483 17.15636 16.11559
#
# Velocity S-wave (km/s) = 2.64762 2.82450 2.73749
# Velocity P-wave (km/s) = 3.54579 3.91555 3.73525
#
# Compressibility (1/GPa) = 0.14413852
#
# Stress axis : x y z
#
# Youngs Moduli (GPa) = 14.44877 33.74806 49.41492
#
# Poissons Ratio (x) = -0.22064 -0.37406
# Poissons Ratio (y) = -0.09447 0.07796
# Poissons Ratio (z) = -0.10937 0.05324
#
# Static dielectric constant tensor:
#      x y z
#    x 1.755980 0.000000 0.000000 
#    y 0.000000 1.804690 0.000000 
#    z 0.000000 0.000000 1.789790 
# 
# From -- ./inp_files/29031.got.cif
#   From: 2010.05.17/outbox.cif.g08.bks.cpg/sg59_15_cif.got.tgz:29031.got - 2010.06.03 14:40:33.
