data_PCOD9452113
_publ_section_title
;
Structure prediction by ZEFSAII (Michael W. Deem and Ramdas Pophale) SiO2 
 PCOD9452113
Probable space group: P M M N
;
_chemical_formula_sum "Si O2"
_cell_formula_units_Z 64
_cell_length_a 9.012207
_cell_length_b 14.663959
_cell_length_c 27.173775
_cell_angle_alpha 90.000000
_cell_angle_beta 90.000000
_cell_angle_gamma 90.000000
_cell_volume 3591.140288
_symmetry_space_group_name_H-M "P M M N"
_symmetry_group_IT_number 59
_space_group.IT_coordinate_system_code '2'
_symmetry_cell_setting 'orthorhombic'
loop_
_space_group_symop_operation_xyz
x,y,z
1/2-x,1/2-y,z
1/2+x,-y,-z
-x,1/2+y,-z
-x,-y,-z
1/2+x,1/2+y,-z
1/2-x,y,z
x,1/2-y,z
loop_
_atom_site_type_symbol
_atom_site_label
_atom_site_fract_x
_atom_site_fract_y
_atom_site_fract_z
Si Si1 0.072585 0.356541 0.097411
Si Si2 0.929275 0.500475 0.446529
Si Si3 0.572613 0.005048 0.821949
Si Si4 0.919187 0.138846 0.996044
Si Si5 0.069593 0.146206 0.634525
Si Si6 0.423062 0.140471 0.894999
Si Si7 0.070696 0.500862 0.715167
Si Si8 0.069618 0.646363 0.633896
O O1 0.250000 0.362858 0.090077
O O2 0.036035 0.250000 0.105776
O O3 0.031988 0.418518 0.143759
O O4 0.993376 0.388050 0.047406
O O5 0.750000 0.500636 0.450408
O O6 0.973551 0.588254 0.413660
O O7 0.973516 0.412428 0.413924
O O8 0.000000 0.500000 0.500000
O O9 0.750000 0.008889 0.818251
O O10 0.511646 0.091792 0.851659
O O11 0.501724 0.998866 0.768331
O O12 0.750000 0.106722 0.992512
O O13 0.918061 0.250000 0.996261
O O14 0.010274 0.112095 0.947761
O O15 0.250000 0.148024 0.634441
O O16 0.015945 0.250000 0.634792
O O17 0.027418 0.087377 0.682477
O O18 0.250000 0.116295 0.892281
O O19 0.435949 0.250000 0.891349
O O20 0.250000 0.500569 0.719713
O O21 0.027390 0.588406 0.682098
O O22 0.250000 0.648224 0.633774
O O23 0.015608 0.750000 0.633731
#
# Coordination Sequence:
#
# PCOD9452113 Si02
#       8
#     8   8   8   8   8   8   8   8
#     4   9  19  36  54  72  99 136 172 201 239 301
#     4   9  17  29  47  73 104 134 164 201 243 288
#     4  11  23  36  52  76 105 134 164 207 261 307
#     4   9  17  31  53  79 104 129 161 206 255 298
#     4   8  15  30  51  71  93 127 168 203 238 286
#     4  10  21  37  56  76 100 133 170 205 245 302
#     4   9  18  33  52  72  93 122 166 213 250 293
#     4   8  15  30  51  72  96 131 172 209 248 296
#
# _framework density 17.821636000000002
#
# number of rings (size 3 to 8) (size 9 to 14) (size 15 to 20)
#    0.000    2.875    0.000    2.625    0.000    5.250 
#    0.000    3.750    0.000    1.500    0.000    0.000 
#    0.000    0.000    0.000    0.000    0.000    0.000 
#
# Total GULP energy -356965.696613 kJ/mol
# GULP energy per Si atom -5577.589010 kJ/mol
# Density = 1.778107 g / cm^3
# Si number density = 17.821636 Si / 1000 Ang^3
#
#
#
# Elastic Constant Matrix: (Units=GPa)
#
#
# Indices 1 2 3 4 5 6 
#
# 1 36.5475 34.1555 54.9732 0.0000 0.0000 0.0000
# 2 34.1555 123.2755 80.0202 0.0000 0.0000 0.0000
# 3 54.9732 80.0202 196.8357 0.0000 0.0000 0.0000
# 4 0.0000 0.0000 0.0000 10.6233 0.0000 0.0000
# 5 0.0000 0.0000 0.0000 0.0000 36.9779 0.0000
# 6 0.0000 0.0000 0.0000 0.0000 0.0000 10.6266
#
#
#
# Elastic Compliance Matrix: (Units=1/GPa)
#
#
# Indices 1 2 3 4 5 6 
#
# 1 0.050870 -0.006619 -0.011516 0.000000 0.000000 0.000000
# 2 -0.006619 0.011881 -0.002982 0.000000 0.000000 0.000000
# 3 -0.011516 -0.002982 0.009509 0.000000 0.000000 0.000000
# 4 0.000000 0.000000 0.000000 0.094132 0.000000 0.000000
# 5 0.000000 0.000000 0.000000 0.000000 0.027043 0.000000
# 6 0.000000 0.000000 0.000000 0.000000 0.000000 0.094103
#
#
# Mechanical properties :
#
#
# Convention : Reuss Voigt Hill
#
# Bulk Modulus (GPa) = 33.30420 77.21740 55.26080
# Shear Modulus (GPa) = 14.71536 24.14622 19.43079
#
# Velocity S-wave (km/s) = 2.87662 3.68487 3.30554
# Velocity P-wave (km/s) = 5.45540 7.84387 6.75602
#
# Compressibility (1/GPa) = 0.03002625
#
# Stress axis : x y z
#
# Youngs Moduli (GPa) = 19.65803 84.16707 105.16542
#
# Poissons Ratio (x) = 0.55709 1.21113
# Poissons Ratio (y) = 0.13011 0.31355
# Poissons Ratio (z) = 0.22639 0.25095
#
# Static dielectric constant tensor:
#      x y z
#    x 1.592490 0.000000 0.000000 
#    y 0.000000 1.635680 0.000000 
#    z 0.000000 0.000000 1.567430 
# 
# From -- ./inp_files/31614.got.cif
#   From: 2010.05.17/outbox.cif.g08.bks.cpg/sg59_16_cif.got.tgz:31614.got - 2010.06.03 14:40:33.
