data_PCOD9452455
_publ_section_title
;
Structure prediction by ZEFSAII (Michael W. Deem and Ramdas Pophale) SiO2 
 PCOD9452455
Probable space group: P M M N
;
_chemical_formula_sum "Si O2"
_cell_formula_units_Z 48
_cell_length_a 15.262874
_cell_length_b 8.746456
_cell_length_c 19.563341
_cell_angle_alpha 90.000000
_cell_angle_beta 90.000000
_cell_angle_gamma 90.000000
_cell_volume 2611.628863
_symmetry_space_group_name_H-M "P M M N"
_symmetry_group_IT_number 59
_space_group.IT_coordinate_system_code '2'
_symmetry_cell_setting 'orthorhombic'
loop_
_space_group_symop_operation_xyz
x,y,z
1/2-x,1/2-y,z
1/2+x,-y,-z
-x,1/2+y,-z
-x,-y,-z
1/2+x,1/2+y,-z
1/2-x,y,z
x,1/2-y,z
loop_
_atom_site_type_symbol
_atom_site_label
_atom_site_fract_x
_atom_site_fract_y
_atom_site_fract_z
Si Si1 0.003286 0.068300 0.075706
Si Si2 0.146621 0.067768 0.324045
Si Si3 0.853176 0.933206 0.168508
Si Si4 0.349234 0.064071 0.675035
Si Si5 0.147045 0.932794 0.175800
Si Si6 0.504957 0.066144 0.575786
O O1 0.009140 0.250000 0.072311
O O2 0.085575 0.002873 0.118028
O O3 0.916709 0.017813 0.116910
O O4 0.000000 0.000000 0.000000
O O5 0.250000 0.037316 0.334214
O O6 0.133563 0.250000 0.323163
O O7 0.122123 0.998786 0.250155
O O8 0.089263 0.992928 0.383191
O O9 0.750000 0.960728 0.155806
O O10 0.867760 0.750000 0.163317
O O11 0.871697 0.980160 0.247097
O O12 0.250000 0.013117 0.659728
O O13 0.348201 0.250000 0.674937
O O14 0.420739 0.014839 0.620366
O O15 0.250000 0.968394 0.164512
O O16 0.136792 0.750000 0.176962
O O17 0.505564 0.250000 0.573287
O O18 0.500000 0.000000 0.500000
#
# Coordination Sequence:
#
# PCOD9452455 Si02
#       6
#     8   8   8   8   8   8
#     4  12  25  39  57  82 116 154 190 231 279 335
#     4  10  21  38  60  85 113 147 189 236 286 340
#     4   9  18  36  62  87 110 140 183 234 285 338
#     4   8  16  33  57  81 104 137 181 225 272 328
#     4  10  21  39  63  88 114 146 187 236 288 342
#     4  11  22  35  54  81 115 153 191 234 284 337
#
# _framework density 18.379335000000001
#
# number of rings (size 3 to 8) (size 9 to 14) (size 15 to 20)
#    0.000    2.000    0.000    5.000    0.000    5.000 
#    0.000    2.500    0.000    3.500    0.000    0.000 
#    0.000    0.000    0.000    0.000    0.000    0.000 
#
# Total GULP energy -268176.241592 kJ/mol
# GULP energy per Si atom -5587.005033 kJ/mol
# Density = 1.833750 g / cm^3
# Si number density = 18.379335 Si / 1000 Ang^3
#
#
#
# Elastic Constant Matrix: (Units=GPa)
#
#
# Indices 1 2 3 4 5 6 
#
# 1 101.1505 61.1066 107.8029 0.0000 0.0000 0.0000
# 2 61.1066 77.2876 72.2154 0.0000 0.0000 0.0000
# 3 107.8029 72.2154 189.1029 0.0000 0.0000 0.0000
# 4 0.0000 0.0000 0.0000 36.0390 0.0000 0.0000
# 5 0.0000 0.0000 0.0000 0.0000 -25.1949 0.0000
# 6 0.0000 0.0000 0.0000 0.0000 0.0000 29.7403
#
#
#
# Elastic Compliance Matrix: (Units=1/GPa)
#
#
# Indices 1 2 3 4 5 6 
#
# 1 0.031548 -0.012654 -0.013153 0.000000 0.000000 0.000000
# 2 -0.012654 0.025192 -0.002407 0.000000 0.000000 0.000000
# 3 -0.013153 -0.002407 0.013705 0.000000 0.000000 0.000000
# 4 0.000000 0.000000 0.000000 0.027748 0.000000 0.000000
# 5 0.000000 0.000000 0.000000 0.000000 -0.039691 0.000000
# 6 0.000000 0.000000 0.000000 0.000000 0.000000 0.033624
#
#
# Mechanical properties :
#
#
# Convention : Reuss Voigt Hill
#
# Bulk Modulus (GPa) = 71.33121 94.42120 82.87620
# Shear Modulus (GPa) = 32.63139 16.54463 24.58801
#
# Velocity S-wave (km/s) = 4.21817 3.00355 3.66157
# Velocity P-wave (km/s) = 7.91320 7.96954 7.94142
#
# Compressibility (1/GPa) = 0.01401911
#
# Stress axis : x y z
#
# Youngs Moduli (GPa) = 31.69750 39.69486 72.96492
#
# Poissons Ratio (x) = 0.50229 0.95968
# Poissons Ratio (y) = 0.40110 0.17562
# Poissons Ratio (z) = 0.41690 0.09554
#
# Static dielectric constant tensor:
#      x y z
#    x 1.633390 0.000000 0.000000 
#    y 0.000000 1.618850 0.000000 
#    z 0.000000 0.000000 1.593440 
# 
# From -- ./inp_files/25448.got.cif
#   From: 2010.05.17/outbox.cif.g08.bks.cpg/sg59_13_cif.got.tgz:25448.got - 2010.06.03 14:40:33.
