data_PCOD9452252
_publ_section_title
;
Structure prediction by ZEFSAII (Michael W. Deem and Ramdas Pophale) SiO2 
 PCOD9452252
Probable space group: P M M N
;
_chemical_formula_sum "Si O2"
_cell_formula_units_Z 40
_cell_length_a 7.879898
_cell_length_b 16.266063
_cell_length_c 15.119544
_cell_angle_alpha 90.000000
_cell_angle_beta 90.000000
_cell_angle_gamma 90.000000
_cell_volume 1937.946302
_symmetry_space_group_name_H-M "P M M N"
_symmetry_group_IT_number 59
_space_group.IT_coordinate_system_code '2'
_symmetry_cell_setting 'orthorhombic'
loop_
_space_group_symop_operation_xyz
x,y,z
1/2-x,1/2-y,z
1/2+x,-y,-z
-x,1/2+y,-z
-x,-y,-z
1/2+x,1/2+y,-z
1/2-x,y,z
x,1/2-y,z
loop_
_atom_site_type_symbol
_atom_site_label
_atom_site_fract_x
_atom_site_fract_y
_atom_site_fract_z
Si Si1 0.547190 0.103569 0.592866
Si Si2 0.541800 0.250000 0.718794
Si Si3 0.541696 0.250000 0.924392
Si Si4 0.549234 0.089905 0.032643
Si Si5 0.045884 0.341241 0.215391
Si Si6 0.955510 0.584621 0.600939
O O1 0.750000 0.100169 0.603524
O O2 0.484304 0.169698 0.663824
O O3 0.509699 0.125617 0.491062
O O4 0.482514 0.010130 0.603672
O O5 0.750000 0.250000 0.717972
O O6 0.490157 0.250000 0.821321
O O7 0.750000 0.250000 0.925291
O O8 0.481766 0.167510 0.975299
O O9 0.750000 0.096057 0.026533
O O10 0.498441 0.100713 0.134396
O O11 0.500000 0.000000 0.000000
O O12 0.250000 0.338191 0.220621
O O13 0.981059 0.250000 0.194703
O O14 0.984248 0.370508 0.310867
O O15 0.750000 0.583467 0.601208
#
# Coordination Sequence:
#
# PCOD9452252 Si02
#       6
#     8   4   4   8   8   8
#     4   9  18  33  53  78 106 139 181 227 270 322
#     4   9  18  32  54  79 102 136 181 223 268 327
#     4   9  20  38  60  83 112 148 191 235 282 345
#     4  11  23  40  62  88 115 151 193 239 292 344
#     4  10  21  37  58  84 114 150 189 234 286 341
#     4   9  19  34  54  78 109 146 182 222 275 332
#
# _framework density 20.640405999999999
#
# number of rings (size 3 to 8) (size 9 to 14) (size 15 to 20)
#    0.000    2.400    1.000    0.600    4.200    0.800 
#    0.000    0.000    0.000    2.400    0.000    0.000 
#    0.000    0.000    0.000    0.000    0.000    0.000 
#
# Total GULP energy -223279.532023 kJ/mol
# GULP energy per Si atom -5581.988301 kJ/mol
# Density = 2.059343 g / cm^3
# Si number density = 20.640406 Si / 1000 Ang^3
#
#
#
# Elastic Constant Matrix: (Units=GPa)
#
#
# Indices 1 2 3 4 5 6 
#
# 1 18.0169 5.9944 1.0907 0.0000 0.0000 0.0000
# 2 5.9944 78.6722 40.9554 0.0000 0.0000 0.0000
# 3 1.0907 40.9554 119.8684 0.0000 0.0000 0.0000
# 4 0.0000 0.0000 0.0000 33.4332 0.0000 0.0000
# 5 0.0000 0.0000 0.0000 0.0000 19.2527 0.0000
# 6 0.0000 0.0000 0.0000 0.0000 0.0000 15.2605
#
#
#
# Elastic Compliance Matrix: (Units=1/GPa)
#
#
# Indices 1 2 3 4 5 6 
#
# 1 0.057083 -0.004961 0.001176 0.000000 0.000000 0.000000
# 2 -0.004961 0.015892 -0.005385 0.000000 0.000000 0.000000
# 3 0.001176 -0.005385 0.010172 0.000000 0.000000 0.000000
# 4 0.000000 0.000000 0.000000 0.029910 0.000000 0.000000
# 5 0.000000 0.000000 0.000000 0.000000 0.051941 0.000000
# 6 0.000000 0.000000 0.000000 0.000000 0.000000 0.065529
#
#
# Mechanical properties :
#
#
# Convention : Reuss Voigt Hill
#
# Bulk Modulus (GPa) = 15.43068 34.73760 25.08414
# Shear Modulus (GPa) = 18.48638 24.82376 21.65507
#
# Velocity S-wave (km/s) = 2.99597 3.47173 3.24259
# Velocity P-wave (km/s) = 4.41135 5.73907 5.11844
#
# Compressibility (1/GPa) = 0.06480596
#
# Stress axis : x y z
#
# Youngs Moduli (GPa) = 17.51834 62.92385 98.31302
#
# Poissons Ratio (x) = 0.31220 -0.11560
# Poissons Ratio (y) = 0.08692 0.52939
# Poissons Ratio (z) = -0.02060 0.33883
#
# Static dielectric constant tensor:
#      x y z
#    x 1.751220 0.000000 0.000000 
#    y 0.000000 1.747860 0.000000 
#    z 0.000000 0.000000 1.699120 
# 
# From -- ./inp_files/20010.got.cif
#   From: 2010.05.17/outbox.cif.g08.bks.cpg/sg59_11_cif.got.tgz:20010.got - 2010.06.03 14:40:33.
