data_PCOD9452521
_publ_section_title
;
Structure prediction by ZEFSAII (Michael W. Deem and Ramdas Pophale) SiO2 
 PCOD9452521
Probable space group: P M M N
;
_chemical_formula_sum "Si O2"
_cell_formula_units_Z 56
_cell_length_a 8.779028
_cell_length_b 23.051297
_cell_length_c 15.093816
_cell_angle_alpha 90.000000
_cell_angle_beta 90.000000
_cell_angle_gamma 90.000000
_cell_volume 3054.505082
_symmetry_space_group_name_H-M "P M M N"
_symmetry_group_IT_number 59
_space_group.IT_coordinate_system_code '2'
_symmetry_cell_setting 'orthorhombic'
loop_
_space_group_symop_operation_xyz
x,y,z
1/2-x,1/2-y,z
1/2+x,-y,-z
-x,1/2+y,-z
-x,-y,-z
1/2+x,1/2+y,-z
1/2-x,y,z
x,1/2-y,z
loop_
_atom_site_type_symbol
_atom_site_label
_atom_site_fract_x
_atom_site_fract_y
_atom_site_fract_z
Si Si1 0.067310 0.087401 0.209455
Si Si2 0.069027 0.183654 0.065965
Si Si3 0.566898 0.314898 0.690561
Si Si4 0.432454 0.554914 0.610594
Si Si5 0.567440 0.577578 0.418583
Si Si6 0.068923 0.859139 0.115907
Si Si7 0.431596 0.015384 0.904051
O O1 0.250000 0.084852 0.213424
O O2 0.023264 0.139663 0.143595
O O3 0.999738 0.090250 0.307432
O O4 0.001461 0.029573 0.164964
O O5 0.250000 0.174667 0.049486
O O6 0.045753 0.250000 0.093010
O O7 0.982394 0.171154 0.974726
O O8 0.750000 0.317953 0.679768
O O9 0.516860 0.250000 0.663079
O O10 0.494848 0.368322 0.637192
O O11 0.534812 0.323462 0.795137
O O12 0.250000 0.558831 0.609013
O O13 0.499515 0.576534 0.517541
O O14 0.473508 0.486241 0.620449
O O15 0.750000 0.580616 0.422309
O O16 0.250000 0.869768 0.113085
O O17 0.981510 0.919972 0.120136
O O18 0.250000 0.010442 0.906510
O O19 0.500000 0.000000 0.000000
#
# Coordination Sequence:
#
# PCOD9452521 Si02
#       7
#     8   8   8   8   8   8   8
#     4  11  22  37  58  85 117 152 192 239 288 343
#     4  10  22  39  57  78 110 153 197 240 284 334
#     4  10  22  39  58  84 119 157 196 239 290 349
#     4  10  21  38  62  89 117 150 189 237 294 353
#     4  10  21  38  61  89 116 147 189 239 293 350
#     4  11  22  37  59  85 115 154 197 241 290 348
#     4  12  23  36  55  83 117 152 191 239 292 345
#
# _framework density 18.333576000000001
#
# number of rings (size 3 to 8) (size 9 to 14) (size 15 to 20)
#    0.000    1.429    1.429    4.286    0.000    6.857 
#    0.000    0.714    0.000    2.571    0.000    0.000 
#    0.000    0.000    0.000    0.000    0.000    0.000 
#
# Total GULP energy -312964.831366 kJ/mol
# GULP energy per Si atom -5588.657703 kJ/mol
# Density = 1.829185 g / cm^3
# Si number density = 18.333576 Si / 1000 Ang^3
#
#
#
# Elastic Constant Matrix: (Units=GPa)
#
#
# Indices 1 2 3 4 5 6 
#
# 1 56.3699 38.6028 46.9810 0.0000 0.0000 0.0000
# 2 38.6028 96.5482 55.0461 0.0000 0.0000 0.0000
# 3 46.9810 55.0461 124.2796 0.0000 0.0000 0.0000
# 4 0.0000 0.0000 0.0000 16.4995 0.0000 0.0000
# 5 0.0000 0.0000 0.0000 0.0000 33.0276 0.0000
# 6 0.0000 0.0000 0.0000 0.0000 0.0000 25.8841
#
#
#
# Elastic Compliance Matrix: (Units=1/GPa)
#
#
# Indices 1 2 3 4 5 6 
#
# 1 0.029221 -0.007205 -0.007855 0.000000 0.000000 0.000000
# 2 -0.007205 0.015633 -0.004201 0.000000 0.000000 0.000000
# 3 -0.007855 -0.004201 0.012876 0.000000 0.000000 0.000000
# 4 0.000000 0.000000 0.000000 0.060608 0.000000 0.000000
# 5 0.000000 0.000000 0.000000 0.000000 0.030278 0.000000
# 6 0.000000 0.000000 0.000000 0.000000 0.000000 0.038634
#
#
# Mechanical properties :
#
#
# Convention : Reuss Voigt Hill
#
# Bulk Modulus (GPa) = 52.05843 62.05084 57.05463
# Shear Modulus (GPa) = 21.53563 24.18676 22.86120
#
# Velocity S-wave (km/s) = 3.43104 3.63610 3.53506
# Velocity P-wave (km/s) = 6.64476 7.17964 6.91737
#
# Compressibility (1/GPa) = 0.01920919
#
# Stress axis : x y z
#
# Youngs Moduli (GPa) = 34.22240 63.96649 77.66181
#
# Poissons Ratio (x) = 0.46087 0.61004
# Poissons Ratio (y) = 0.24657 0.32623
# Poissons Ratio (z) = 0.26882 0.26870
#
# Static dielectric constant tensor:
#      x y z
#    x 1.611650 0.000000 0.000000 
#    y 0.000000 1.616090 0.000000 
#    z 0.000000 0.000000 1.612290 
# 
# From -- ./inp_files/20965.got.cif
#   From: 2010.05.17/outbox.cif.g08.bks.cpg/sg59_11_cif.got.tgz:20965.got - 2010.06.03 14:40:33.
