data_PCOD9452281
_publ_section_title
;
Structure prediction by ZEFSAII (Michael W. Deem and Ramdas Pophale) SiO2 
 PCOD9452281
Probable space group: P M M N
;
_chemical_formula_sum "Si O2"
_cell_formula_units_Z 48
_cell_length_a 14.028332
_cell_length_b 19.314074
_cell_length_c 9.402244
_cell_angle_alpha 90.000000
_cell_angle_beta 90.000000
_cell_angle_gamma 90.000000
_cell_volume 2547.483877
_symmetry_space_group_name_H-M "P M M N"
_symmetry_group_IT_number 59
_space_group.IT_coordinate_system_code '2'
_symmetry_cell_setting 'orthorhombic'
loop_
_space_group_symop_operation_xyz
x,y,z
1/2-x,1/2-y,z
1/2+x,-y,-z
-x,1/2+y,-z
-x,-y,-z
1/2+x,1/2+y,-z
1/2-x,y,z
x,1/2-y,z
loop_
_atom_site_type_symbol
_atom_site_label
_atom_site_fract_x
_atom_site_fract_y
_atom_site_fract_z
Si Si1 0.861237 0.829786 0.163423
Si Si2 0.136077 0.972991 0.122643
Si Si3 0.492203 0.108132 0.072573
Si Si4 0.482182 0.830707 0.621871
Si Si5 0.362749 0.557023 0.452086
Si Si6 0.636860 0.596630 0.455080
O O1 0.750000 0.841713 0.123570
O O2 0.869069 0.750000 0.210692
O O3 0.885185 0.879865 0.294810
O O4 0.932122 0.844508 0.034993
O O5 0.250000 0.980345 0.097522
O O6 0.122210 0.944582 0.282522
O O7 0.079947 0.045643 0.113210
O O8 0.083082 0.924131 0.009010
O O9 0.522959 0.147827 0.213839
O O10 0.462743 0.750000 0.601844
O O11 0.414791 0.880335 0.529073
O O12 0.586206 0.851573 0.563298
O O13 0.250000 0.562820 0.477452
O O14 0.393151 0.482195 0.514299
O O15 0.750000 0.600324 0.473852
#
# Coordination Sequence:
#
# PCOD9452281 Si02
#       6
#     8   8   8   8   8   8
#     4  10  21  37  58  88 126 165 202 243 301 368
#     4  10  22  40  62  89 117 156 208 256 301 357
#     4  11  23  37  61  89 125 161 197 250 309 368
#     4  12  25  39  61  92 127 160 198 249 310 369
#     4  10  22  42  65  88 120 159 208 255 296 355
#     4  10  21  38  63  91 120 159 206 254 299 354
#
# _framework density 18.842120999999999
#
# number of rings (size 3 to 8) (size 9 to 14) (size 15 to 20)
#    0.000    1.500    1.667    3.000    4.667    2.667 
#    0.000    0.833    0.000    3.500    0.000    0.000 
#    0.000    0.000    0.000    0.000    0.000    0.000 
#
# Total GULP energy -268253.535153 kJ/mol
# GULP energy per Si atom -5588.615316 kJ/mol
# Density = 1.879924 g / cm^3
# Si number density = 18.842121 Si / 1000 Ang^3
#
#
#
# Elastic Constant Matrix: (Units=GPa)
#
#
# Indices 1 2 3 4 5 6 
#
# 1 90.6691 43.7020 56.3372 0.0000 0.0000 0.0000
# 2 43.7020 118.6335 66.0289 0.0000 0.0000 0.0000
# 3 56.3372 66.0289 111.4430 0.0000 0.0000 0.0000
# 4 0.0000 0.0000 0.0000 17.7660 0.0000 0.0000
# 5 0.0000 0.0000 0.0000 0.0000 27.4325 0.0000
# 6 0.0000 0.0000 0.0000 0.0000 0.0000 11.6460
#
#
#
# Elastic Compliance Matrix: (Units=1/GPa)
#
#
# Indices 1 2 3 4 5 6 
#
# 1 0.016434 -0.002134 -0.007044 0.000000 0.000000 0.000000
# 2 -0.002134 0.012854 -0.006537 0.000000 0.000000 0.000000
# 3 -0.007044 -0.006537 0.016407 0.000000 0.000000 0.000000
# 4 0.000000 0.000000 0.000000 0.056287 0.000000 0.000000
# 5 0.000000 0.000000 0.000000 0.000000 0.036453 0.000000
# 6 0.000000 0.000000 0.000000 0.000000 0.000000 0.085866
#
#
# Mechanical properties :
#
#
# Convention : Reuss Voigt Hill
#
# Bulk Modulus (GPa) = 70.09612 72.54241 71.31927
# Shear Modulus (GPa) = 19.19489 21.68073 20.43781
#
# Velocity S-wave (km/s) = 3.19521 3.39581 3.29703
# Velocity P-wave (km/s) = 7.13408 7.34568 7.24065
#
# Compressibility (1/GPa) = 0.01426612
#
# Stress axis : x y z
#
# Youngs Moduli (GPa) = 60.84911 77.79854 60.94912
#
# Poissons Ratio (x) = 0.16599 0.42931
# Poissons Ratio (y) = 0.12983 0.39843
# Poissons Ratio (z) = 0.42860 0.50858
#
# Static dielectric constant tensor:
#      x y z
#    x 1.670350 0.000000 0.000000 
#    y 0.000000 1.629310 0.000000 
#    z 0.000000 0.000000 1.636660 
# 
# From -- ./inp_files/9008.got.cif
#   From: 2010.05.17/outbox.cif.g08.bks.cpg/sg59_5_cif.got.tgz:9008.got - 2010.06.03 14:40:33.
