data_PCOD9452535
_publ_section_title
;
Structure prediction by ZEFSAII (Michael W. Deem and Ramdas Pophale) SiO2 
 PCOD9452535
Probable space group: P M M N
;
_chemical_formula_sum "Si O2"
_cell_formula_units_Z 48
_cell_length_a 18.582671
_cell_length_b 11.826026
_cell_length_c 10.482854
_cell_angle_alpha 90.000000
_cell_angle_beta 90.000000
_cell_angle_gamma 90.000000
_cell_volume 2303.703089
_symmetry_space_group_name_H-M "P M M N"
_symmetry_group_IT_number 59
_space_group.IT_coordinate_system_code '2'
_symmetry_cell_setting 'orthorhombic'
loop_
_space_group_symop_operation_xyz
x,y,z
1/2-x,1/2-y,z
1/2+x,-y,-z
-x,1/2+y,-z
-x,-y,-z
1/2+x,1/2+y,-z
1/2-x,y,z
x,1/2-y,z
loop_
_atom_site_type_symbol
_atom_site_label
_atom_site_fract_x
_atom_site_fract_y
_atom_site_fract_z
Si Si1 0.622518 0.618557 0.327924
Si Si2 0.927427 0.066320 0.967733
Si Si3 0.332685 0.133490 0.121633
Si Si4 0.048186 0.625835 0.320750
Si Si5 0.665968 0.375892 0.199361
Si Si6 0.331155 0.452343 0.402647
O O1 0.633768 0.750000 0.276006
O O2 0.536280 0.600783 0.336828
O O3 0.651606 0.500442 0.264069
O O4 0.656166 0.615867 0.468751
O O5 0.937951 0.125857 0.831841
O O6 0.869064 0.971062 0.940545
O O7 0.893008 0.129797 0.086663
O O8 0.000000 0.000000 0.000000
O O9 0.250000 0.135318 0.083970
O O10 0.369348 0.250000 0.082319
O O11 0.335203 0.121013 0.274084
O O12 0.061532 0.750000 0.373777
O O13 0.104100 0.541130 0.385797
O O14 0.750000 0.379701 0.157048
O O15 0.659350 0.250000 0.267232
O O16 0.250000 0.502751 0.405200
#
# Coordination Sequence:
#
# PCOD9452535 Si02
#       6
#     8   8   8   8   8   8
#     4  11  23  42  67  95 129 170 216 265 319 380
#     4  11  21  39  61  87 122 164 212 259 314 375
#     4   9  19  35  57  87 118 152 201 257 309 364
#     4  10  22  40  62  92 126 163 214 267 318 379
#     4  11  25  43  63  92 131 173 215 261 319 382
#     4  10  21  38  61  90 125 164 206 257 320 381
#
# _framework density 20.836020000000001
#
# number of rings (size 3 to 8) (size 9 to 14) (size 15 to 20)
#    0.000    1.667    1.667    2.500    0.000    5.667 
#    0.000    0.833    0.000    0.000    0.000    0.000 
#    0.000    0.000    0.000    0.000    0.000    0.000 
#
# Total GULP energy -267270.480421 kJ/mol
# GULP energy per Si atom -5568.135009 kJ/mol
# Density = 2.078860 g / cm^3
# Si number density = 20.836020 Si / 1000 Ang^3
#
#
#
# Elastic Constant Matrix: (Units=GPa)
#
#
# Indices 1 2 3 4 5 6 
#
# 1 96.7942 52.6936 3.9372 0.0000 0.0000 0.0000
# 2 52.6936 144.9040 26.3375 0.0000 0.0000 0.0000
# 3 3.9372 26.3375 46.7763 0.0000 0.0000 0.0000
# 4 0.0000 0.0000 0.0000 36.6497 0.0000 0.0000
# 5 0.0000 0.0000 0.0000 0.0000 0.2395 0.0000
# 6 0.0000 0.0000 0.0000 0.0000 0.0000 -16.6138
#
#
#
# Elastic Compliance Matrix: (Units=1/GPa)
#
#
# Indices 1 2 3 4 5 6 
#
# 1 0.013008 -0.005048 0.001747 0.000000 0.000000 0.000000
# 2 -0.005048 0.009647 -0.005007 0.000000 0.000000 0.000000
# 3 0.001747 -0.005007 0.024050 0.000000 0.000000 0.000000
# 4 0.000000 0.000000 0.000000 0.027285 0.000000 0.000000
# 5 0.000000 0.000000 0.000000 0.000000 4.174824 0.000000
# 6 0.000000 0.000000 0.000000 0.000000 0.000000 -0.060191
#
#
# Mechanical properties :
#
#
# Convention : Reuss Voigt Hill
#
# Bulk Modulus (GPa) = 33.23296 50.49011 41.86154
# Shear Modulus (GPa) = 1.18616 17.75550 9.47083
#
# Velocity S-wave (km/s) = 0.75533 2.92234 2.13431
# Velocity P-wave (km/s) = 4.09208 5.97256 5.11940
#
# Compressibility (1/GPa) = 0.03009061
#
# Stress axis : x y z
#
# Youngs Moduli (GPa) = 76.87482 103.66125 41.57942
#
# Poissons Ratio (x) = 0.52328 -0.07265
# Poissons Ratio (y) = 0.38806 0.20818
# Poissons Ratio (z) = -0.13433 0.51901
#
# Static dielectric constant tensor:
#      x y z
#    x 1.678000 0.000000 0.000000 
#    y 0.000000 1.808690 0.000000 
#    z 0.000000 0.000000 1.759820 
# 
# From -- ./inp_files/17625.got.cif
#   From: 2010.05.17/outbox.cif.g08.bks.cpg/sg59_9_cif.got.tgz:17625.got - 2010.06.03 14:40:33.
