data_PCOD9452919
_publ_section_title
;
Structure prediction by ZEFSAII (Michael W. Deem and Ramdas Pophale) SiO2 
 PCOD9452919
Probable space group: P M M N
;
_chemical_formula_sum "Si O2"
_cell_formula_units_Z 48
_cell_length_a 8.618802
_cell_length_b 17.143817
_cell_length_c 16.558498
_cell_angle_alpha 90.000000
_cell_angle_beta 90.000000
_cell_angle_gamma 90.000000
_cell_volume 2446.669826
_symmetry_space_group_name_H-M "P M M N"
_symmetry_group_IT_number 59
_space_group.IT_coordinate_system_code '2'
_symmetry_cell_setting 'orthorhombic'
loop_
_space_group_symop_operation_xyz
x,y,z
1/2-x,1/2-y,z
1/2+x,-y,-z
-x,1/2+y,-z
-x,-y,-z
1/2+x,1/2+y,-z
1/2-x,y,z
x,1/2-y,z
loop_
_atom_site_type_symbol
_atom_site_label
_atom_site_fract_x
_atom_site_fract_y
_atom_site_fract_z
Si Si1 0.066913 0.250000 0.982859
Si Si2 0.935293 0.921637 0.955768
Si Si3 0.434047 0.555969 0.778364
Si Si4 0.430115 0.658910 0.626826
Si Si5 0.570076 0.250000 0.809465
Si Si6 0.067661 0.597307 0.297695
Si Si7 0.566882 0.916535 0.473080
O O1 0.250000 0.250000 0.001640
O O2 0.036965 0.250000 0.887422
O O3 0.007135 0.335146 0.014645
O O4 0.750000 0.923132 0.967270
O O5 0.978933 0.929014 0.861780
O O6 0.000000 0.000000 0.000000
O O7 0.250000 0.566093 0.791415
O O8 0.484501 0.612634 0.705592
O O9 0.470679 0.470390 0.744973
O O10 0.250000 0.635414 0.611451
O O11 0.433566 0.750000 0.643841
O O12 0.526570 0.639661 0.547260
O O13 0.750000 0.250000 0.837508
O O14 0.546725 0.324988 0.753861
O O15 0.250000 0.576139 0.297250
O O16 0.013153 0.607586 0.389571
O O17 0.750000 0.922003 0.460478
O O18 0.500000 0.000000 0.500000
#
# Coordination Sequence:
#
# PCOD9452919 Si02
#       7
#     4   8   8   8   4   8   8
#     4  10  24  44  66  93 128 167 208 259 317 374
#     4  11  24  43  66  95 129 167 210 263 319 381
#     4  11  23  40  65  95 125 164 209 257 312 376
#     4  10  23  42  63  89 126 168 211 260 311 369
#     4  10  24  42  64  93 124 161 206 255 311 372
#     4  11  23  41  64  92 126 167 210 259 313 372
#     4  12  24  40  62  90 122 164 212 260 314 373
#
# _framework density 19.618503
#
# number of rings (size 3 to 8) (size 9 to 14) (size 15 to 20)
#    0.000    1.167    1.667    4.000    2.333    6.333 
#    0.000    0.000    0.000    0.000    0.000    0.000 
#    0.000    0.000    0.000    0.000    0.000    0.000 
#
# Total GULP energy -268238.320893 kJ/mol
# GULP energy per Si atom -5588.298352 kJ/mol
# Density = 1.957385 g / cm^3
# Si number density = 19.618503 Si / 1000 Ang^3
#
#
#
# Elastic Constant Matrix: (Units=GPa)
#
#
# Indices 1 2 3 4 5 6 
#
# 1 28.4629 16.1806 12.9554 0.0000 0.0000 0.0000
# 2 16.1806 107.5619 37.0142 0.0000 0.0000 0.0000
# 3 12.9554 37.0142 102.8215 0.0000 0.0000 0.0000
# 4 0.0000 0.0000 0.0000 -26.4072 0.0000 0.0000
# 5 0.0000 0.0000 0.0000 0.0000 33.1432 0.0000
# 6 0.0000 0.0000 0.0000 0.0000 0.0000 26.9379
#
#
#
# Elastic Compliance Matrix: (Units=1/GPa)
#
#
# Indices 1 2 3 4 5 6 
#
# 1 0.039334 -0.004807 -0.003226 0.000000 0.000000 0.000000
# 2 -0.004807 0.011199 -0.003426 0.000000 0.000000 0.000000
# 3 -0.003226 -0.003426 0.011365 0.000000 0.000000 0.000000
# 4 0.000000 0.000000 0.000000 -0.037869 0.000000 0.000000
# 5 0.000000 0.000000 0.000000 0.000000 0.030172 0.000000
# 6 0.000000 0.000000 0.000000 0.000000 0.000000 0.037122
#
#
# Mechanical properties :
#
#
# Convention : Reuss Voigt Hill
#
# Bulk Modulus (GPa) = 25.65310 41.23852 33.44581
# Shear Modulus (GPa) = 39.29726 18.24788 28.77257
#
# Velocity S-wave (km/s) = 4.48042 3.05312 3.83378
# Velocity P-wave (km/s) = 6.31427 5.78745 6.05659
#
# Compressibility (1/GPa) = 0.03898164
#
# Stress axis : x y z
#
# Youngs Moduli (GPa) = 25.42308 89.29381 87.98760
#
# Poissons Ratio (x) = 0.42924 0.28381
# Poissons Ratio (y) = 0.12221 0.30143
# Poissons Ratio (z) = 0.08200 0.30590
#
# Static dielectric constant tensor:
#      x y z
#    x 1.703110 0.000000 0.000000 
#    y 0.000000 1.674320 0.000000 
#    z 0.000000 0.000000 1.671890 
# 
# From -- ./inp_files/20618.got.cif
#   From: 2010.05.17/outbox.cif.g08.bks.cpg/sg59_11_cif.got.tgz:20618.got - 2010.06.03 14:40:33.
