data_PCOD9452132
_publ_section_title
;
Structure prediction by ZEFSAII (Michael W. Deem and Ramdas Pophale) SiO2 
 PCOD9452132
Probable space group: P M M N
;
_chemical_formula_sum "Si O2"
_cell_formula_units_Z 48
_cell_length_a 8.946340
_cell_length_b 20.414052
_cell_length_c 15.595146
_cell_angle_alpha 90.000000
_cell_angle_beta 90.000000
_cell_angle_gamma 90.000000
_cell_volume 2848.157888
_symmetry_space_group_name_H-M "P M M N"
_symmetry_group_IT_number 59
_space_group.IT_coordinate_system_code '2'
_symmetry_cell_setting 'orthorhombic'
loop_
_space_group_symop_operation_xyz
x,y,z
1/2-x,1/2-y,z
1/2+x,-y,-z
-x,1/2+y,-z
-x,-y,-z
1/2+x,1/2+y,-z
1/2-x,y,z
x,1/2-y,z
loop_
_atom_site_type_symbol
_atom_site_label
_atom_site_fract_x
_atom_site_fract_y
_atom_site_fract_z
Si Si1 0.428262 0.065166 0.958331
Si Si2 0.572244 0.040920 0.779777
Si Si3 0.421372 0.434282 0.606185
Si Si4 0.070808 0.600929 0.750571
Si Si5 0.077861 0.590554 0.563621
Si Si6 0.427824 0.825988 0.923712
O O1 0.250000 0.058347 0.956683
O O2 0.492740 0.071185 0.862553
O O3 0.479498 0.126248 0.015546
O O4 0.500000 0.000000 0.000000
O O5 0.750000 0.042649 0.788813
O O6 0.520539 0.074011 0.690823
O O7 0.515296 0.965640 0.774055
O O8 0.250000 0.417425 0.624167
O O9 0.481352 0.398875 0.521100
O O10 0.426302 0.512316 0.584250
O O11 0.250000 0.586231 0.748282
O O12 0.028944 0.621950 0.653935
O O13 0.045049 0.653039 0.825136
O O14 0.250000 0.607949 0.546082
O O15 0.250000 0.836189 0.939609
O O16 0.462346 0.750000 0.937056
#
# Coordination Sequence:
#
# PCOD9452132 Si02
#       6
#     8   8   8   8   8   8
#     4  12  23  36  54  77 104 137 177 222 269 320
#     4  11  20  30  48  73 100 133 170 214 262 314
#     4   9  16  26  40  63  96 130 162 205 252 301
#     4   9  17  30  48  70 100 135 170 209 254 308
#     4   8  14  24  39  62  93 130 165 200 244 297
#     4  10  21  37  56  78 106 140 177 218 264 316
#
# _framework density 16.852999000000001
#
# number of rings (size 3 to 8) (size 9 to 14) (size 15 to 20)
#    0.000    2.167    1.667    4.500    0.000    4.333 
#    0.000    0.000    0.000    0.000    0.000    1.167 
#    0.000    6.667    0.000    0.000    0.000    0.000 
#
# Total GULP energy -267669.784022 kJ/mol
# GULP energy per Si atom -5576.453834 kJ/mol
# Density = 1.681464 g / cm^3
# Si number density = 16.852999 Si / 1000 Ang^3
#
#
#
# Elastic Constant Matrix: (Units=GPa)
#
#
# Indices 1 2 3 4 5 6 
#
# 1 109.3357 41.6718 70.8329 0.0000 0.0000 0.0000
# 2 41.6718 46.5471 41.3742 0.0000 0.0000 0.0000
# 3 70.8329 41.3742 137.1112 0.0000 0.0000 0.0000
# 4 0.0000 0.0000 0.0000 12.6462 0.0000 0.0000
# 5 0.0000 0.0000 0.0000 0.0000 32.4926 0.0000
# 6 0.0000 0.0000 0.0000 0.0000 0.0000 14.1795
#
#
#
# Elastic Compliance Matrix: (Units=1/GPa)
#
#
# Indices 1 2 3 4 5 6 
#
# 1 0.016489 -0.009826 -0.005553 0.000000 0.000000 0.000000
# 2 -0.009826 0.035213 -0.005550 0.000000 0.000000 0.000000
# 3 -0.005553 -0.005550 0.011837 0.000000 0.000000 0.000000
# 4 0.000000 0.000000 0.000000 0.079075 0.000000 0.000000
# 5 0.000000 0.000000 0.000000 0.000000 0.030776 0.000000
# 6 0.000000 0.000000 0.000000 0.000000 0.000000 0.070524
#
#
# Mechanical properties :
#
#
# Convention : Reuss Voigt Hill
#
# Bulk Modulus (GPa) = 46.12244 66.75020 56.43632
# Shear Modulus (GPa) = 17.06493 21.13801 19.10147
#
# Velocity S-wave (km/s) = 3.18555 3.54539 3.37028
# Velocity P-wave (km/s) = 6.39978 7.51352 6.97891
#
# Compressibility (1/GPa) = 0.02168142
#
# Stress axis : x y z
#
# Youngs Moduli (GPa) = 60.64767 28.39851 84.48134
#
# Poissons Ratio (x) = 0.27903 0.46915
# Poissons Ratio (y) = 0.59589 0.46886
# Poissons Ratio (z) = 0.33679 0.15761
#
# Static dielectric constant tensor:
#      x y z
#    x 1.568330 0.000000 0.000000 
#    y 0.000000 1.541570 0.000000 
#    z 0.000000 0.000000 1.599750 
# 
# From -- ./inp_files/20744.got.cif
#   From: 2010.05.17/outbox.cif.g08.bks.cpg/sg59_11_cif.got.tgz:20744.got - 2010.06.03 14:40:33.
