data_PCOD9452328
_publ_section_title
;
Structure prediction by ZEFSAII (Michael W. Deem and Ramdas Pophale) SiO2 
 PCOD9452328
Probable space group: P M M N
;
_chemical_formula_sum "Si O2"
_cell_formula_units_Z 64
_cell_length_a 8.418045
_cell_length_b 15.583314
_cell_length_c 24.358587
_cell_angle_alpha 90.000000
_cell_angle_beta 90.000000
_cell_angle_gamma 90.000000
_cell_volume 3195.384739
_symmetry_space_group_name_H-M "P M M N"
_symmetry_group_IT_number 59
_space_group.IT_coordinate_system_code '2'
_symmetry_cell_setting 'orthorhombic'
loop_
_space_group_symop_operation_xyz
x,y,z
1/2-x,1/2-y,z
1/2+x,-y,-z
-x,1/2+y,-z
-x,-y,-z
1/2+x,1/2+y,-z
1/2-x,y,z
x,1/2-y,z
loop_
_atom_site_type_symbol
_atom_site_label
_atom_site_fract_x
_atom_site_fract_y
_atom_site_fract_z
Si Si1 0.441185 0.350837 0.990508
Si Si2 0.056400 0.842609 0.265254
Si Si3 0.060833 0.489836 0.201386
Si Si4 0.432221 0.939338 0.605538
Si Si5 0.066868 0.619904 0.387229
Si Si6 0.060834 0.515485 0.920956
Si Si7 0.060024 0.846307 0.716893
Si Si8 0.569954 0.848885 0.505391
O O1 0.250000 0.346155 0.987743
O O2 0.497622 0.250000 0.987620
O O3 0.494163 0.421451 0.944257
O O4 0.488141 0.404221 0.045282
O O5 0.250000 0.847319 0.267105
O O6 0.011231 0.750000 0.242199
O O7 0.004148 0.848253 0.328675
O O8 0.000829 0.922544 0.229836
O O9 0.250000 0.496057 0.193697
O O10 0.982029 0.476957 0.142577
O O11 0.022487 0.414057 0.243641
O O12 0.250000 0.969176 0.611844
O O13 0.463978 0.870378 0.653058
O O14 0.457379 0.902811 0.544870
O O15 0.549907 0.017645 0.614982
O O16 0.250000 0.646108 0.392909
O O17 0.975387 0.647058 0.441690
O O18 0.250000 0.518922 0.928927
O O19 0.250000 0.850848 0.726428
O O20 0.005221 0.750000 0.727649
O O21 0.750000 0.880312 0.512404
O O22 0.561615 0.750000 0.522843
#
# Coordination Sequence:
#
# PCOD9452328 Si02
#       8
#     8   8   8   8   8   8   8   8
#     4   9  19  38  63  90 122 160 201 243 288 338
#     4   9  19  36  58  84 114 150 193 240 290 347
#     4  11  22  38  60  87 120 157 200 245 289 342
#     4  11  22  38  60  83 111 145 188 238 297 361
#     4  11  21  37  60  83 111 147 190 237 294 356
#     4  10  21  37  59  89 124 160 198 242 292 343
#     4  10  22  40  61  84 113 151 195 244 298 354
#     4  11  24  39  55  80 112 144 186 239 294 357
#
# _framework density 20.028886
#
# number of rings (size 3 to 8) (size 9 to 14) (size 15 to 20)
#    0.000    1.750    1.250    3.000    0.000    4.500 
#    0.000    0.000    0.000    3.375    0.000    0.000 
#    0.000    0.000    0.000    0.000    0.000    0.000 
#
# Total GULP energy -357277.326564 kJ/mol
# GULP energy per Si atom -5582.458228 kJ/mol
# Density = 1.998330 g / cm^3
# Si number density = 20.028886 Si / 1000 Ang^3
#
#
#
# Elastic Constant Matrix: (Units=GPa)
#
#
# Indices 1 2 3 4 5 6 
#
# 1 21.4789 11.9231 0.8597 0.0000 0.0000 0.0000
# 2 11.9231 115.7633 11.8426 0.0000 0.0000 0.0000
# 3 0.8597 11.8426 67.2037 0.0000 0.0000 0.0000
# 4 0.0000 0.0000 0.0000 18.9783 0.0000 0.0000
# 5 0.0000 0.0000 0.0000 0.0000 15.1638 0.0000
# 6 0.0000 0.0000 0.0000 0.0000 0.0000 117.6147
#
#
#
# Elastic Compliance Matrix: (Units=1/GPa)
#
#
# Indices 1 2 3 4 5 6 
#
# 1 0.049385 -0.005114 0.000269 0.000000 0.000000 0.000000
# 2 -0.005114 0.009326 -0.001578 0.000000 0.000000 0.000000
# 3 0.000269 -0.001578 0.015155 0.000000 0.000000 0.000000
# 4 0.000000 0.000000 0.000000 0.052692 0.000000 0.000000
# 5 0.000000 0.000000 0.000000 0.000000 0.065947 0.000000
# 6 0.000000 0.000000 0.000000 0.000000 0.000000 0.008502
#
#
# Mechanical properties :
#
#
# Convention : Reuss Voigt Hill
#
# Bulk Modulus (GPa) = 16.38773 28.18852 22.28813
# Shear Modulus (GPa) = 21.34991 42.33939 31.84465
#
# Velocity S-wave (km/s) = 3.26844 4.60272 3.99173
# Velocity P-wave (km/s) = 4.73745 6.50778 5.69186
#
# Compressibility (1/GPa) = 0.06102126
#
# Stress axis : x y z
#
# Youngs Moduli (GPa) = 20.24892 107.22156 65.98580
#
# Poissons Ratio (x) = 0.54834 -0.01778
# Poissons Ratio (y) = 0.10355 0.10413
# Poissons Ratio (z) = -0.00546 0.16921
#
# Static dielectric constant tensor:
#      x y z
#    x 1.696810 0.000000 0.000000 
#    y 0.000000 1.729240 0.000000 
#    z 0.000000 0.000000 1.677070 
# 
# From -- ./inp_files/31507.got.cif
#   From: 2010.05.17/outbox.cif.g08.bks.cpg/sg59_16_cif.got.tgz:31507.got - 2010.06.03 14:40:33.
