data_PCOD9452799
_publ_section_title
;
Structure prediction by ZEFSAII (Michael W. Deem and Ramdas Pophale) SiO2 
 PCOD9452799
Probable space group: P M M N
;
_chemical_formula_sum "Si O2"
_cell_formula_units_Z 40
_cell_length_a 8.718521
_cell_length_b 14.659388
_cell_length_c 17.641582
_cell_angle_alpha 90.000000
_cell_angle_beta 90.000000
_cell_angle_gamma 90.000000
_cell_volume 2254.738525
_symmetry_space_group_name_H-M "P M M N"
_symmetry_group_IT_number 59
_space_group.IT_coordinate_system_code '2'
_symmetry_cell_setting 'orthorhombic'
loop_
_space_group_symop_operation_xyz
x,y,z
1/2-x,1/2-y,z
1/2+x,-y,-z
-x,1/2+y,-z
-x,-y,-z
1/2+x,1/2+y,-z
1/2-x,y,z
x,1/2-y,z
loop_
_atom_site_type_symbol
_atom_site_label
_atom_site_fract_x
_atom_site_fract_y
_atom_site_fract_z
Si Si1 0.432585 0.250000 0.153182
Si Si2 0.935158 0.145086 0.514647
Si Si3 0.065651 0.939666 0.788202
Si Si4 0.934930 0.491988 0.381579
Si Si5 0.433578 0.948190 0.073169
Si Si6 0.433206 0.750000 0.015434
O O1 0.250000 0.250000 0.158494
O O2 0.500066 0.159550 0.191623
O O3 0.481898 0.250000 0.064987
O O4 0.750000 0.145111 0.517385
O O5 0.987339 0.250000 0.514857
O O6 0.981088 0.090087 0.438520
O O7 0.997478 0.084757 0.583914
O O8 0.250000 0.935598 0.791127
O O9 0.018168 0.970795 0.704144
O O10 0.005724 0.008887 0.851889
O O11 0.750000 0.497813 0.383547
O O12 0.250000 0.959981 0.075065
O O13 0.468708 0.841585 0.061377
O O14 0.500000 0.000000 0.000000
O O15 0.250000 0.750000 0.999336
#
# Coordination Sequence:
#
# PCOD9452799 Si02
#       6
#     4   8   8   8   8   4
#     4  12  24  36  58  88 115 146 189 240 287 340
#     4   9  18  35  60  85 111 147 187 229 280 337
#     4  11  23  39  59  84 117 154 188 235 288 341
#     4   9  20  37  58  83 114 150 187 229 280 338
#     4  11  22  38  60  84 114 152 193 238 285 339
#     4  10  22  40  60  80 109 152 195 236 291 342
#
# _framework density 17.740417000000001
#
# number of rings (size 3 to 8) (size 9 to 14) (size 15 to 20)
#    0.000    1.800    2.000    2.100    1.400    2.800 
#    1.800    0.000    0.000    0.000    0.000    0.000 
#    0.000    0.000    0.000    0.000    0.000    0.000 
#
# Total GULP energy -223403.056716 kJ/mol
# GULP energy per Si atom -5585.076418 kJ/mol
# Density = 1.770004 g / cm^3
# Si number density = 17.740417 Si / 1000 Ang^3
#
#
#
# Elastic Constant Matrix: (Units=GPa)
#
#
# Indices 1 2 3 4 5 6 
#
# 1 45.2006 54.3894 52.0018 0.0000 0.0000 0.0000
# 2 54.3894 187.9530 103.8058 0.0000 0.0000 0.0000
# 3 52.0018 103.8058 178.9533 0.0000 0.0000 0.0000
# 4 0.0000 0.0000 0.0000 7.8424 0.0000 0.0000
# 5 0.0000 0.0000 0.0000 0.0000 29.6809 0.0000
# 6 0.0000 0.0000 0.0000 0.0000 0.0000 29.0827
#
#
#
# Elastic Compliance Matrix: (Units=1/GPa)
#
#
# Indices 1 2 3 4 5 6 
#
# 1 0.039223 -0.007438 -0.007083 0.000000 0.000000 0.000000
# 2 -0.007438 0.009239 -0.003198 0.000000 0.000000 0.000000
# 3 -0.007083 -0.003198 0.009501 0.000000 0.000000 0.000000
# 4 0.000000 0.000000 0.000000 0.127512 0.000000 0.000000
# 5 0.000000 0.000000 0.000000 0.000000 0.033692 0.000000
# 6 0.000000 0.000000 0.000000 0.000000 0.000000 0.034385
#
#
# Mechanical properties :
#
#
# Convention : Reuss Voigt Hill
#
# Bulk Modulus (GPa) = 44.39533 92.50012 68.44773
# Shear Modulus (GPa) = 16.86350 26.78184 21.82267
#
# Velocity S-wave (km/s) = 3.08648 3.88964 3.51110
# Velocity P-wave (km/s) = 6.14663 8.51037 7.42319
#
# Compressibility (1/GPa) = 0.02252489
#
# Stress axis : x y z
#
# Youngs Moduli (GPa) = 25.49543 108.23524 105.24904
#
# Poissons Ratio (x) = 0.80509 0.74547
# Poissons Ratio (y) = 0.18964 0.33657
# Poissons Ratio (z) = 0.18058 0.34612
#
# Static dielectric constant tensor:
#      x y z
#    x 1.601650 0.000000 0.000000 
#    y 0.000000 1.724360 0.000000 
#    z 0.000000 0.000000 1.576800 
# 
# From -- ./inp_files/19934.got.cif
#   From: 2010.05.17/outbox.cif.g08.bks.cpg/sg59_10_cif.got.tgz:19934.got - 2010.06.03 14:40:33.
