data_PCOD9452655
_publ_section_title
;
Structure prediction by ZEFSAII (Michael W. Deem and Ramdas Pophale) SiO2 
 PCOD9452655
Probable space group: P M M N
;
_chemical_formula_sum "Si O2"
_cell_formula_units_Z 40
_cell_length_a 8.235122
_cell_length_b 26.336394
_cell_length_c 9.163725
_cell_angle_alpha 90.000000
_cell_angle_beta 90.000000
_cell_angle_gamma 90.000000
_cell_volume 1987.459996
_symmetry_space_group_name_H-M "P M M N"
_symmetry_group_IT_number 59
_space_group.IT_coordinate_system_code '2'
_symmetry_cell_setting 'orthorhombic'
loop_
_space_group_symop_operation_xyz
x,y,z
1/2-x,1/2-y,z
1/2+x,-y,-z
-x,1/2+y,-z
-x,-y,-z
1/2+x,1/2+y,-z
1/2-x,y,z
x,1/2-y,z
loop_
_atom_site_type_symbol
_atom_site_label
_atom_site_fract_x
_atom_site_fract_y
_atom_site_fract_z
Si Si1 0.439386 0.555949 0.942704
Si Si2 0.430129 0.546168 0.413072
Si Si3 0.565568 0.881871 0.202346
Si Si4 0.937690 0.890060 0.652556
Si Si5 0.445349 0.691167 0.463885
O O1 0.250000 0.550085 0.908438
O O2 0.462794 0.600806 0.062907
O O3 0.500000 0.500000 0.000000
O O4 0.530631 0.579909 0.802291
O O5 0.500000 0.500000 0.500000
O O6 0.250000 0.538455 0.352204
O O7 0.554164 0.565788 0.293905
O O8 0.432680 0.587962 0.538493
O O9 0.750000 0.870207 0.161148
O O10 0.500234 0.839958 0.317035
O O11 0.750000 0.900313 0.610923
O O12 0.970801 0.831193 0.612022
O O13 0.250000 0.688279 0.474882
O O14 0.490570 0.750000 0.445569
#
# Coordination Sequence:
#
# PCOD9452655 Si02
#       5
#     8   8   8   8   8
#     4  12  24  40  59  84 121 160 196 235 287 347
#     4  11  20  33  52  77 109 147 190 234 283 337
#     4  11  22  37  57  84 115 149 192 238 287 342
#     4  11  22  37  57  84 115 149 192 238 287 342
#     4  10  21  40  65  90 116 150 193 242 295 345
#
# _framework density 20.126193000000001
#
# number of rings (size 3 to 8) (size 9 to 14) (size 15 to 20)
#    0.000    1.000    0.000   11.400    0.000    1.600 
#    0.000    1.000    0.000    6.000    0.000    0.000 
#    0.000    0.000    0.000    0.000    0.000    0.000 
#
# Total GULP energy -222678.172252 kJ/mol
# GULP energy per Si atom -5566.954306 kJ/mol
# Density = 2.008039 g / cm^3
# Si number density = 20.126193 Si / 1000 Ang^3
#
#
#
# Elastic Constant Matrix: (Units=GPa)
#
#
# Indices 1 2 3 4 5 6 
#
# 1 115.7931 23.5079 3.2326 0.0000 0.0000 0.0000
# 2 23.5079 100.9011 17.9467 0.0000 0.0000 0.0000
# 3 3.2326 17.9467 62.3488 0.0000 0.0000 0.0000
# 4 0.0000 0.0000 0.0000 29.1067 0.0000 0.0000
# 5 0.0000 0.0000 0.0000 0.0000 29.4590 0.0000
# 6 0.0000 0.0000 0.0000 0.0000 0.0000 24.3097
#
#
#
# Elastic Compliance Matrix: (Units=1/GPa)
#
#
# Indices 1 2 3 4 5 6 
#
# 1 0.009066 -0.002138 0.000145 0.000000 0.000000 0.000000
# 2 -0.002138 0.010950 -0.003041 0.000000 0.000000 0.000000
# 3 0.000145 -0.003041 0.016907 0.000000 0.000000 0.000000
# 4 0.000000 0.000000 0.000000 0.034356 0.000000 0.000000
# 5 0.000000 0.000000 0.000000 0.000000 0.033945 0.000000
# 6 0.000000 0.000000 0.000000 0.000000 0.000000 0.041136
#
#
# Mechanical properties :
#
#
# Convention : Reuss Voigt Hill
#
# Bulk Modulus (GPa) = 37.23687 40.93526 39.08607
# Shear Modulus (GPa) = 30.23357 32.19880 31.21618
#
# Velocity S-wave (km/s) = 3.88003 4.00415 3.94258
# Velocity P-wave (km/s) = 6.21407 6.46228 6.33939
#
# Compressibility (1/GPa) = 0.02685510
#
# Stress axis : x y z
#
# Youngs Moduli (GPa) = 110.30101 91.32670 59.14853
#
# Poissons Ratio (x) = 0.19526 -0.00860
# Poissons Ratio (y) = 0.23583 0.17987
# Poissons Ratio (z) = -0.01604 0.27772
#
# Static dielectric constant tensor:
#      x y z
#    x 1.697440 0.000000 0.000000 
#    y 0.000000 1.510420 0.000000 
#    z 0.000000 0.000000 1.762020 
# 
# From -- ./inp_files/5871.got.cif
#   From: 2010.05.17/outbox.cif.g08.bks.cpg/sg59_3_cif.got.tgz:5871.got - 2010.06.03 14:40:33.
