data_PCOD9452395
_publ_section_title
;
Structure prediction by ZEFSAII (Michael W. Deem and Ramdas Pophale) SiO2 
 PCOD9452395
Probable space group: P M M N
;
_chemical_formula_sum "Si O2"
_cell_formula_units_Z 48
_cell_length_a 7.700769
_cell_length_b 22.605368
_cell_length_c 12.289507
_cell_angle_alpha 90.000000
_cell_angle_beta 90.000000
_cell_angle_gamma 90.000000
_cell_volume 2139.341613
_symmetry_space_group_name_H-M "P M M N"
_symmetry_group_IT_number 59
_space_group.IT_coordinate_system_code '2'
_symmetry_cell_setting 'orthorhombic'
loop_
_space_group_symop_operation_xyz
x,y,z
1/2-x,1/2-y,z
1/2+x,-y,-z
-x,1/2+y,-z
-x,-y,-z
1/2+x,1/2+y,-z
1/2-x,y,z
x,1/2-y,z
loop_
_atom_site_type_symbol
_atom_site_label
_atom_site_fract_x
_atom_site_fract_y
_atom_site_fract_z
Si Si1 0.456843 0.026873 0.117995
Si Si2 0.550927 0.340021 0.141707
Si Si3 0.547910 0.814891 0.618763
Si Si4 0.038446 0.814552 0.099073
Si Si5 0.054773 0.431002 0.495077
Si Si6 0.039026 0.916860 0.262547
O O1 0.250000 0.035891 0.123750
O O2 0.546379 0.089092 0.136007
O O3 0.506559 0.979739 0.209736
O O4 0.500000 0.000000 0.000000
O O5 0.750000 0.319662 0.149048
O O6 0.458961 0.319333 0.250682
O O7 0.477001 0.320322 0.025188
O O8 0.750000 0.814118 0.583939
O O9 0.473303 0.750000 0.587166
O O10 0.469235 0.876680 0.572666
O O11 0.250000 0.818666 0.093800
O O12 0.992313 0.750000 0.142209
O O13 0.981664 0.866913 0.177391
O O14 0.250000 0.434699 0.451555
O O15 0.000000 0.500000 0.500000
O O16 0.041927 0.410119 0.619609
O O17 0.250000 0.914355 0.272749
#
# Coordination Sequence:
#
# PCOD9452395 Si02
#       6
#     8   8   8   8   8   8
#     4  11  21  35  56  85 120 157 195 241 299 360
#     4  11  21  36  59  90 122 156 200 248 298 359
#     4  10  23  43  63  86 121 164 207 255 314 371
#     4   9  18  34  55  81 116 154 188 230 287 346
#     4  11  24  42  64  89 118 157 202 255 309 365
#     4  10  21  38  58  84 117 151 190 239 295 354
#
# _framework density 22.436810000000001
#
# number of rings (size 3 to 8) (size 9 to 14) (size 15 to 20)
#    0.000    1.667    1.667    3.000    0.000    8.333 
#    0.000    0.000    0.000    2.000    0.000    0.000 
#    0.000    0.000    0.000    0.000    0.000    0.000 
#
# Total GULP energy -268123.532864 kJ/mol
# GULP energy per Si atom -5585.906935 kJ/mol
# Density = 2.238574 g / cm^3
# Si number density = 22.436810 Si / 1000 Ang^3
#
#
#
# Elastic Constant Matrix: (Units=GPa)
#
#
# Indices 1 2 3 4 5 6 
#
# 1 40.6727 13.6853 -8.0549 0.0000 0.0000 0.0000
# 2 13.6853 195.1857 39.6156 0.0000 0.0000 0.0000
# 3 -8.0549 39.6156 90.0302 0.0000 0.0000 0.0000
# 4 0.0000 0.0000 0.0000 3.2048 0.0000 0.0000
# 5 0.0000 0.0000 0.0000 0.0000 22.9234 0.0000
# 6 0.0000 0.0000 0.0000 0.0000 0.0000 8.7026
#
#
#
# Elastic Compliance Matrix: (Units=1/GPa)
#
#
# Indices 1 2 3 4 5 6 
#
# 1 0.026122 -0.002532 0.003451 0.000000 0.000000 0.000000
# 2 -0.002532 0.005871 -0.002810 0.000000 0.000000 0.000000
# 3 0.003451 -0.002810 0.012653 0.000000 0.000000 0.000000
# 4 0.000000 0.000000 0.000000 0.312030 0.000000 0.000000
# 5 0.000000 0.000000 0.000000 0.000000 0.043624 0.000000
# 6 0.000000 0.000000 0.000000 0.000000 0.000000 0.114908
#
#
# Mechanical properties :
#
#
# Convention : Reuss Voigt Hill
#
# Bulk Modulus (GPa) = 24.47127 46.26452 35.36789
# Shear Modulus (GPa) = 9.38773 25.67567 17.53170
#
# Velocity S-wave (km/s) = 2.04772 3.38650 2.79835
# Velocity P-wave (km/s) = 4.06464 5.99632 5.12236
#
# Compressibility (1/GPa) = 0.04086425
#
# Stress axis : x y z
#
# Youngs Moduli (GPa) = 38.28196 170.32331 79.03489
#
# Poissons Ratio (x) = 0.43126 -0.27277
# Poissons Ratio (y) = 0.09693 0.22209
# Poissons Ratio (z) = -0.13212 0.47861
#
# Static dielectric constant tensor:
#      x y z
#    x 1.857480 0.000000 0.000000 
#    y 0.000000 1.952020 0.000000 
#    z 0.000000 0.000000 1.781580 
# 
# From -- ./inp_files/14377.got.cif
#   From: 2010.05.17/outbox.cif.g08.bks.cpg/sg59_8_cif.got.tgz:14377.got - 2010.06.03 14:40:33.
