data_PCOD9452547
_publ_section_title
;
Structure prediction by ZEFSAII (Michael W. Deem and Ramdas Pophale) SiO2 
 PCOD9452547
Probable space group: P M M N
;
_chemical_formula_sum "Si O2"
_cell_formula_units_Z 64
_cell_length_a 25.504567
_cell_length_b 8.602900
_cell_length_c 15.355951
_cell_angle_alpha 90.000000
_cell_angle_beta 90.000000
_cell_angle_gamma 90.000000
_cell_volume 3369.298954
_symmetry_space_group_name_H-M "P M M N"
_symmetry_group_IT_number 59
_space_group.IT_coordinate_system_code '2'
_symmetry_cell_setting 'orthorhombic'
loop_
_space_group_symop_operation_xyz
x,y,z
1/2-x,1/2-y,z
1/2+x,-y,-z
-x,1/2+y,-z
-x,-y,-z
1/2+x,1/2+y,-z
1/2-x,y,z
x,1/2-y,z
loop_
_atom_site_type_symbol
_atom_site_label
_atom_site_fract_x
_atom_site_fract_y
_atom_site_fract_z
Si Si1 0.451770 0.071990 0.949632
Si Si2 0.614934 0.936505 0.292357
Si Si3 0.610914 0.564446 0.785558
Si Si4 0.352858 0.569531 0.029559
Si Si5 0.004650 0.427445 0.754950
Si Si6 0.310470 0.564110 0.558854
Si Si7 0.308089 0.938133 0.854978
Si Si8 0.189593 0.437428 0.366692
O O1 0.439256 0.250000 0.977100
O O2 0.469030 0.077192 0.850281
O O3 0.500000 0.000000 0.000000
O O4 0.405138 0.957391 0.973015
O O5 0.611967 0.750000 0.287477
O O6 0.554319 0.994705 0.298671
O O7 0.649303 0.988482 0.374274
O O8 0.646977 0.994162 0.207263
O O9 0.610387 0.750000 0.787408
O O10 0.634577 0.508223 0.877972
O O11 0.551510 0.508732 0.766222
O O12 0.649447 0.512137 0.707997
O O13 0.342396 0.750000 0.046652
O O14 0.311912 0.510938 0.956642
O O15 0.994142 0.250000 0.726336
O O16 0.250000 0.516847 0.577633
O O17 0.313347 0.750000 0.566803
O O18 0.321742 0.513174 0.459959
O O19 0.250000 0.978492 0.821153
O O20 0.312900 0.750000 0.854167
O O21 0.250000 0.474913 0.343181
O O22 0.186075 0.250000 0.375513
#
# Coordination Sequence:
#
# PCOD9452547 Si02
#       8
#     8   8   8   8   8   8   8   8
#     4  11  20  33  53  77 106 143 191 238 278 322
#     4  11  22  37  58  85 115 150 189 231 283 338
#     4  11  23  37  59  87 114 148 191 236 284 337
#     4  11  22  35  53  77 110 151 191 233 280 330
#     4  10  22  37  54  80 116 152 190 234 279 334
#     4  10  21  38  62  91 117 145 185 231 281 339
#     4  10  22  38  54  77 112 152 193 237 284 336
#     4   9  20  41  65  88 114 144 183 234 287 338
#
# _framework density 18.995048000000001
#
# number of rings (size 3 to 8) (size 9 to 14) (size 15 to 20)
#    0.000    1.625    2.500    2.250    0.000    6.000 
#    0.000    0.625    0.000    0.000    0.000    0.000 
#    0.000    0.000    0.000    0.000    0.000    0.000 
#
# Total GULP energy -356870.661490 kJ/mol
# GULP energy per Si atom -5576.104086 kJ/mol
# Density = 1.895181 g / cm^3
# Si number density = 18.995048 Si / 1000 Ang^3
#
#
#
# Elastic Constant Matrix: (Units=GPa)
#
#
# Indices 1 2 3 4 5 6 
#
# 1 96.8983 20.9876 65.1834 0.0000 0.0000 0.0000
# 2 20.9876 30.2915 26.0276 0.0000 0.0000 0.0000
# 3 65.1834 26.0276 108.0217 0.0000 0.0000 0.0000
# 4 0.0000 0.0000 0.0000 21.2461 0.0000 0.0000
# 5 0.0000 0.0000 0.0000 0.0000 36.2419 0.0000
# 6 0.0000 0.0000 0.0000 0.0000 0.0000 16.9410
#
#
#
# Elastic Compliance Matrix: (Units=1/GPa)
#
#
# Indices 1 2 3 4 5 6 
#
# 1 0.017729 -0.003899 -0.009759 0.000000 0.000000 0.000000
# 2 -0.003899 0.042489 -0.007885 0.000000 0.000000 0.000000
# 3 -0.009759 -0.007885 0.017046 0.000000 0.000000 0.000000
# 4 0.000000 0.000000 0.000000 0.047068 0.000000 0.000000
# 5 0.000000 0.000000 0.000000 0.000000 0.027592 0.000000
# 6 0.000000 0.000000 0.000000 0.000000 0.000000 0.059028
#
#
# Mechanical properties :
#
#
# Convention : Reuss Voigt Hill
#
# Bulk Modulus (GPa) = 29.25771 51.06764 40.16268
# Shear Modulus (GPa) = 18.83727 23.08667 20.96197
#
# Velocity S-wave (km/s) = 3.15253 3.49005 3.32557
# Velocity P-wave (km/s) = 5.35607 6.57143 5.99463
#
# Compressibility (1/GPa) = 0.03417902
#
# Stress axis : x y z
#
# Youngs Moduli (GPa) = 56.40338 23.53555 58.66401
#
# Poissons Ratio (x) = 0.09175 0.57251
# Poissons Ratio (y) = 0.21989 0.46257
# Poissons Ratio (z) = 0.55045 0.18558
#
# Static dielectric constant tensor:
#      x y z
#    x 1.951370 0.000000 0.000000 
#    y 0.000000 1.691140 0.000000 
#    z 0.000000 0.000000 1.662300 
# 
# From -- ./inp_files/24702.got.cif
#   From: 2010.05.17/outbox.cif.g08.bks.cpg/sg59_13_cif.got.tgz:24702.got - 2010.06.03 14:40:33.
