data_PCOD9452548
_publ_section_title
;
Structure prediction by ZEFSAII (Michael W. Deem and Ramdas Pophale) SiO2 
 PCOD9452548
Probable space group: P M M N
;
_chemical_formula_sum "Si O2"
_cell_formula_units_Z 64
_cell_length_a 20.648224
_cell_length_b 16.291173
_cell_length_c 10.093597
_cell_angle_alpha 90.000000
_cell_angle_beta 90.000000
_cell_angle_gamma 90.000000
_cell_volume 3395.322407
_symmetry_space_group_name_H-M "P M M N"
_symmetry_group_IT_number 59
_space_group.IT_coordinate_system_code '2'
_symmetry_cell_setting 'orthorhombic'
loop_
_space_group_symop_operation_xyz
x,y,z
1/2-x,1/2-y,z
1/2+x,-y,-z
-x,1/2+y,-z
-x,-y,-z
1/2+x,1/2+y,-z
1/2-x,y,z
x,1/2-y,z
loop_
_atom_site_type_symbol
_atom_site_label
_atom_site_fract_x
_atom_site_fract_y
_atom_site_fract_z
Si Si1 0.439140 0.845802 0.955479
Si Si2 0.674684 0.526769 0.401821
Si Si3 0.825181 0.468735 0.103509
Si Si4 0.542721 0.388927 0.744761
Si Si5 0.678502 0.410584 0.650477
Si Si6 0.821348 0.569358 0.843401
Si Si7 0.042128 0.412276 0.253634
Si Si8 0.936236 0.655430 0.467287
O O1 0.428729 0.750000 0.932979
O O2 0.373425 0.897005 0.937218
O O3 0.490959 0.880599 0.851951
O O4 0.463628 0.860974 0.104444
O O5 0.750000 0.553125 0.408187
O O6 0.660523 0.498461 0.252207
O O7 0.668197 0.452533 0.506992
O O8 0.625661 0.597723 0.443326
O O9 0.750000 0.442776 0.098452
O O10 0.832255 0.540822 0.994668
O O11 0.613870 0.362940 0.691136
O O12 0.539978 0.488572 0.740807
O O13 0.486333 0.355367 0.652534
O O14 0.750000 0.370505 0.652890
O O15 0.681662 0.486024 0.755505
O O16 0.750000 0.608810 0.831289
O O17 0.885144 0.613793 0.790518
O O18 0.030075 0.376408 0.398556
O O19 0.917713 0.750000 0.481047
#
# Coordination Sequence:
#
# PCOD9452548 Si02
#       8
#     8   8   8   8   8   8   8   8
#     4  12  25  39  57  88 125 157 192 246 305 350
#     4  10  21  38  62  91 117 151 199 243 289 351
#     4  10  21  38  62  91 117 151 199 243 289 351
#     4  11  22  39  62  87 114 158 204 242 286 355
#     4   9  17  34  61  90 112 138 195 251 280 330
#     4   9  17  34  61  90 112 138 195 251 280 330
#     4  11  22  39  62  87 114 158 204 242 286 355
#     4  12  25  39  57  88 125 157 192 246 305 350
#
# _framework density 18.849461999999999
#
# number of rings (size 3 to 8) (size 9 to 14) (size 15 to 20)
#    0.000    1.500    5.000    2.250    3.500    0.500 
#    0.000    0.000    0.000    2.250    0.000    0.000 
#    0.000    0.000    0.000    0.000    0.000    0.000 
#
# Total GULP energy -357335.461275 kJ/mol
# GULP energy per Si atom -5583.366582 kJ/mol
# Density = 1.880656 g / cm^3
# Si number density = 18.849462 Si / 1000 Ang^3
#
#
#
# Elastic Constant Matrix: (Units=GPa)
#
#
# Indices 1 2 3 4 5 6 
#
# 1 55.2457 17.1351 6.2028 0.0000 0.0000 0.0000
# 2 17.1351 38.4040 1.5617 0.0000 0.0000 0.0000
# 3 6.2028 1.5617 96.3248 0.0000 0.0000 0.0000
# 4 0.0000 0.0000 0.0000 13.8172 0.0000 0.0000
# 5 0.0000 0.0000 0.0000 0.0000 32.7174 0.0000
# 6 0.0000 0.0000 0.0000 0.0000 0.0000 -4.7144
#
#
#
# Elastic Compliance Matrix: (Units=1/GPa)
#
#
# Indices 1 2 3 4 5 6 
#
# 1 0.021148 -0.009387 -0.001210 0.000000 0.000000 0.000000
# 2 -0.009387 0.030222 0.000114 0.000000 0.000000 0.000000
# 3 -0.001210 0.000114 0.010458 0.000000 0.000000 0.000000
# 4 0.000000 0.000000 0.000000 0.072373 0.000000 0.000000
# 5 0.000000 0.000000 0.000000 0.000000 0.030565 0.000000
# 6 0.000000 0.000000 0.000000 0.000000 0.000000 -0.212118
#
#
# Mechanical properties :
#
#
# Convention : Reuss Voigt Hill
#
# Bulk Modulus (GPa) = 24.47115 26.64152 25.55633
# Shear Modulus (GPa) = -391.64912 19.36904 -186.14004
#
# Velocity S-wave (km/s) = -14.43012 3.20904 -9.94813
# Velocity P-wave (km/s) = 16.26737 5.28158 10.87962
#
# Compressibility (1/GPa) = 0.04086445
#
# Stress axis : x y z
#
# Youngs Moduli (GPa) = 47.28544 33.08801 95.62437
#
# Poissons Ratio (x) = 0.31059 0.11567
# Poissons Ratio (y) = 0.44385 -0.01095
# Poissons Ratio (z) = 0.05720 -0.00379
#
# Static dielectric constant tensor:
#      x y z
#    x 1.681400 0.000000 0.000000 
#    y 0.000000 1.621400 0.000000 
#    z 0.000000 0.000000 1.652810 
# 
# From -- ./inp_files/11617.got.cif
#   From: 2010.05.17/outbox.cif.g08.bks.cpg/sg59_6_cif.got.tgz:11617.got - 2010.06.03 14:40:33.
