data_PCOD9452128
_publ_section_title
;
Structure prediction by ZEFSAII (Michael W. Deem and Ramdas Pophale) SiO2 
 PCOD9452128
Probable space group: P M M N
;
_chemical_formula_sum "Si O2"
_cell_formula_units_Z 56
_cell_length_a 20.743434
_cell_length_b 7.708725
_cell_length_c 15.379914
_cell_angle_alpha 90.000000
_cell_angle_beta 90.000000
_cell_angle_gamma 90.000000
_cell_volume 2459.331735
_symmetry_space_group_name_H-M "P M M N"
_symmetry_group_IT_number 59
_space_group.IT_coordinate_system_code '2'
_symmetry_cell_setting 'orthorhombic'
loop_
_space_group_symop_operation_xyz
x,y,z
1/2-x,1/2-y,z
1/2+x,-y,-z
-x,1/2+y,-z
-x,-y,-z
1/2+x,1/2+y,-z
1/2-x,y,z
x,1/2-y,z
loop_
_atom_site_type_symbol
_atom_site_label
_atom_site_fract_x
_atom_site_fract_y
_atom_site_fract_z
Si Si1 0.319785 0.048238 0.806928
Si Si2 0.460282 0.553472 0.584839
Si Si3 0.586801 0.036796 0.839480
Si Si4 0.678111 0.459027 0.993027
Si Si5 0.456644 0.448570 0.770489
Si Si6 0.823568 0.040759 0.680610
Si Si7 0.822874 0.547836 0.480653
O O1 0.250000 0.970869 0.782872
O O2 0.317757 0.250000 0.778740
O O3 0.386067 0.967485 0.773341
O O4 0.325168 0.039225 0.911446
O O5 0.500000 0.500000 0.500000
O O6 0.476646 0.750000 0.605648
O O7 0.477925 0.446592 0.670289
O O8 0.384150 0.536773 0.564958
O O9 0.586494 0.250000 0.839069
O O10 0.623697 0.982200 0.926259
O O11 0.513704 0.974817 0.828114
O O12 0.627540 0.982887 0.754821
O O13 0.750000 0.494510 0.957161
O O14 0.673045 0.250000 0.003203
O O15 0.448296 0.250000 0.800597
O O16 0.750000 0.998922 0.706153
O O17 0.828304 0.250000 0.673175
O O18 0.834182 0.967379 0.584384
O O19 0.750000 0.479935 0.463576
O O20 0.823490 0.750000 0.456040
#
# Coordination Sequence:
#
# PCOD9452128 Si02
#       7
#     8   8   8   8   8   8   8
#     4   9  19  36  55  76 106 143 181 222 270 322
#     4  12  25  41  61  84 113 148 188 233 282 339
#     4   9  17  30  50  76 105 137 176 221 268 323
#     4   9  17  31  53  79 106 138 176 217 263 318
#     4  10  21  37  56  78 105 141 182 224 275 329
#     4   9  16  28  49  76 106 140 177 219 271 330
#     4  10  21  37  57  82 112 145 184 232 285 338
#
# _framework density 22.770413000000001
#
# number of rings (size 3 to 8) (size 9 to 14) (size 15 to 20)
#    0.000    2.286    0.000    3.000    0.000    5.429 
#    0.000    2.857    0.000    3.429    0.000    0.000 
#    0.000    0.000    0.000    0.000    0.000    0.000 
#
# Total GULP energy -312827.120379 kJ/mol
# GULP energy per Si atom -5586.198578 kJ/mol
# Density = 2.271859 g / cm^3
# Si number density = 22.770413 Si / 1000 Ang^3
#
#
#
# Elastic Constant Matrix: (Units=GPa)
#
#
# Indices 1 2 3 4 5 6 
#
# 1 116.5650 9.2566 29.7260 0.0000 0.0000 0.0000
# 2 9.2566 47.9432 -8.0829 0.0000 0.0000 0.0000
# 3 29.7260 -8.0829 49.5054 0.0000 0.0000 0.0000
# 4 0.0000 0.0000 0.0000 15.9895 0.0000 0.0000
# 5 0.0000 0.0000 0.0000 0.0000 35.9998 0.0000
# 6 0.0000 0.0000 0.0000 0.0000 0.0000 8.6004
#
#
#
# Elastic Compliance Matrix: (Units=1/GPa)
#
#
# Indices 1 2 3 4 5 6 
#
# 1 0.010588 -0.003204 -0.006881 0.000000 0.000000 0.000000
# 2 -0.003204 0.022418 0.005584 0.000000 0.000000 0.000000
# 3 -0.006881 0.005584 0.025243 0.000000 0.000000 0.000000
# 4 0.000000 0.000000 0.000000 0.062541 0.000000 0.000000
# 5 0.000000 0.000000 0.000000 0.000000 0.027778 0.000000
# 6 0.000000 0.000000 0.000000 0.000000 0.000000 0.116274
#
#
# Mechanical properties :
#
#
# Convention : Reuss Voigt Hill
#
# Bulk Modulus (GPa) = 20.30548 30.64588 25.47568
# Shear Modulus (GPa) = 17.22591 24.32551 20.77571
#
# Velocity S-wave (km/s) = 2.75345 3.27202 3.02387
# Velocity P-wave (km/s) = 4.36411 5.26903 4.83778
#
# Compressibility (1/GPa) = 0.04924778
#
# Stress axis : x y z
#
# Youngs Moduli (GPa) = 94.44550 44.60664 39.61443
#
# Poissons Ratio (x) = 0.14294 0.27258
# Poissons Ratio (y) = 0.30264 -0.22122
# Poissons Ratio (z) = 0.64987 -0.24910
#
# Static dielectric constant tensor:
#      x y z
#    x 1.886040 0.000000 0.000000 
#    y 0.000000 1.827960 0.000000 
#    z 0.000000 0.000000 1.818090 
# 
# From -- ./inp_files/24246.got.cif
#   From: 2010.05.17/outbox.cif.g08.bks.cpg/sg59_13_cif.got.tgz:24246.got - 2010.06.03 14:40:33.
