data_PCOD9452431
_publ_section_title
;
Structure prediction by ZEFSAII (Michael W. Deem and Ramdas Pophale) SiO2 
 PCOD9452431
Probable space group: P M M N
;
_chemical_formula_sum "Si O2"
_cell_formula_units_Z 64
_cell_length_a 15.993516
_cell_length_b 8.440385
_cell_length_c 24.448208
_cell_angle_alpha 90.000000
_cell_angle_beta 90.000000
_cell_angle_gamma 90.000000
_cell_volume 3300.298621
_symmetry_space_group_name_H-M "P M M N"
_symmetry_group_IT_number 59
_space_group.IT_coordinate_system_code '2'
_symmetry_cell_setting 'orthorhombic'
loop_
_space_group_symop_operation_xyz
x,y,z
1/2-x,1/2-y,z
1/2+x,-y,-z
-x,1/2+y,-z
-x,-y,-z
1/2+x,1/2+y,-z
1/2-x,y,z
x,1/2-y,z
loop_
_atom_site_type_symbol
_atom_site_label
_atom_site_fract_x
_atom_site_fract_y
_atom_site_fract_z
Si Si1 0.157190 0.556733 0.381024
Si Si2 0.001466 0.939443 0.812705
Si Si3 0.404817 0.061208 0.003273
Si Si4 0.156161 0.560386 0.119237
Si Si5 0.657370 0.941282 0.383935
Si Si6 0.843508 0.441500 0.112503
Si Si7 0.904872 0.440197 0.499636
Si Si8 0.001614 0.058344 0.689255
O O1 0.250000 0.504552 0.364597
O O2 0.156493 0.750000 0.380176
O O3 0.137974 0.509508 0.443520
O O4 0.082322 0.503380 0.341826
O O5 0.004581 0.750000 0.811115
O O6 0.082055 0.995513 0.847622
O O7 0.917050 0.990579 0.843448
O O8 0.003660 0.004256 0.751496
O O9 0.405232 0.250000 0.008329
O O10 0.362012 0.988640 0.056810
O O11 0.500000 0.000000 0.000000
O O12 0.359569 0.009745 0.947697
O O13 0.250000 0.507860 0.134642
O O14 0.152747 0.750000 0.123327
O O15 0.750000 0.994098 0.366733
O O16 0.655736 0.750000 0.383278
O O17 0.582780 0.997261 0.344649
O O18 0.639595 0.995520 0.445657
O O19 0.750000 0.484437 0.131403
O O20 0.847867 0.250000 0.108844
O O21 0.904340 0.250000 0.498060
O O22 0.000000 0.500000 0.500000
O O23 0.001505 0.250000 0.687960
#
# Coordination Sequence:
#
# PCOD9452431 Si02
#       8
#     8   8   8   8   8   8   8   8
#     4   9  18  34  57  83 111 147 191 236 289 353
#     4  11  24  41  62  88 119 158 203 255 301 349
#     4  12  23  37  62  94 127 161 197 243 299 356
#     4  11  24  42  65  92 123 161 201 244 298 360
#     4  10  21  38  59  86 120 157 197 244 297 352
#     4  10  22  41  63  88 121 160 198 243 302 360
#     4  11  20  34  58  87 119 153 192 240 297 357
#     4  10  21  39  59  81 114 156 200 246 295 352
#
# _framework density 19.392185000000001
#
# number of rings (size 3 to 8) (size 9 to 14) (size 15 to 20)
#    0.000    1.500    2.500    3.000    0.000    5.500 
#    0.000    1.250    0.000    1.500    0.000    0.000 
#    0.000    0.000    0.000    0.000    0.000    0.000 
#
# Total GULP energy -357693.112745 kJ/mol
# GULP energy per Si atom -5588.954887 kJ/mol
# Density = 1.934805 g / cm^3
# Si number density = 19.392185 Si / 1000 Ang^3
#
#
#
# Elastic Constant Matrix: (Units=GPa)
#
#
# Indices 1 2 3 4 5 6 
#
# 1 185.1724 20.8236 75.7761 0.0000 0.0000 0.0000
# 2 20.8236 10.9408 9.0572 0.0000 0.0000 0.0000
# 3 75.7761 9.0572 140.8221 0.0000 0.0000 0.0000
# 4 0.0000 0.0000 0.0000 33.6299 0.0000 0.0000
# 5 0.0000 0.0000 0.0000 0.0000 0.5200 0.0000
# 6 0.0000 0.0000 0.0000 0.0000 0.0000 17.1438
#
#
#
# Elastic Compliance Matrix: (Units=1/GPa)
#
#
# Indices 1 2 3 4 5 6 
#
# 1 0.008345 -0.012849 -0.003664 0.000000 0.000000 0.000000
# 2 -0.012849 0.116327 -0.000568 0.000000 0.000000 0.000000
# 3 -0.003664 -0.000568 0.009109 0.000000 0.000000 0.000000
# 4 0.000000 0.000000 0.000000 0.029735 0.000000 0.000000
# 5 0.000000 0.000000 0.000000 0.000000 1.923081 0.000000
# 6 0.000000 0.000000 0.000000 0.000000 0.000000 0.058330
#
#
# Mechanical properties :
#
#
# Convention : Reuss Voigt Hill
#
# Bulk Modulus (GPa) = 10.03822 60.91659 35.47740
# Shear Modulus (GPa) = 2.26010 25.67730 13.96870
#
# Velocity S-wave (km/s) = 1.08074 3.64277 2.68680
# Velocity P-wave (km/s) = 2.59711 7.01243 5.28768
#
# Compressibility (1/GPa) = 0.09961930
#
# Stress axis : x y z
#
# Youngs Moduli (GPa) = 119.83727 8.59646 109.77973
#
# Poissons Ratio (x) = 0.11046 0.40221
# Poissons Ratio (y) = 1.53983 0.06231
# Poissons Ratio (z) = 0.43906 0.00488
#
# Static dielectric constant tensor:
#      x y z
#    x 1.692450 0.000000 0.000000 
#    y 0.000000 1.662360 0.000000 
#    z 0.000000 0.000000 1.629720 
# 
# From -- ./inp_files/32154.got.cif
#   From: 2010.05.17/outbox.cif.g08.bks.cpg/sg59_17_cif.got.tgz:32154.got - 2010.06.03 14:40:33.
