data_PCOD9452504
_publ_section_title
;
Structure prediction by ZEFSAII (Michael W. Deem and Ramdas Pophale) SiO2 
 PCOD9452504
Probable space group: P M M N
;
_chemical_formula_sum "Si O2"
_cell_formula_units_Z 56
_cell_length_a 22.739323
_cell_length_b 8.848582
_cell_length_c 14.978267
_cell_angle_alpha 90.000000
_cell_angle_beta 90.000000
_cell_angle_gamma 90.000000
_cell_volume 3013.788549
_symmetry_space_group_name_H-M "P M M N"
_symmetry_group_IT_number 59
_space_group.IT_coordinate_system_code '2'
_symmetry_cell_setting 'orthorhombic'
loop_
_space_group_symop_operation_xyz
x,y,z
1/2-x,1/2-y,z
1/2+x,-y,-z
-x,1/2+y,-z
-x,-y,-z
1/2+x,1/2+y,-z
1/2-x,y,z
x,1/2-y,z
loop_
_atom_site_type_symbol
_atom_site_label
_atom_site_fract_x
_atom_site_fract_y
_atom_site_fract_z
Si Si1 0.149625 0.069164 0.318316
Si Si2 0.523750 0.067467 0.717125
Si Si3 0.684282 0.070312 0.496909
Si Si4 0.900554 0.069210 0.336420
Si Si5 0.353937 0.074089 0.841108
Si Si6 0.250000 0.433981 0.178993
Si Si7 0.486598 0.423445 0.907887
Si Si8 0.250000 0.434370 0.972078
O O1 0.143752 0.250000 0.314108
O O2 0.192256 0.020731 0.236269
O O3 0.085565 0.993199 0.317009
O O4 0.178515 0.019636 0.411325
O O5 0.521898 0.250000 0.714774
O O6 0.517905 0.012857 0.819985
O O7 0.464979 0.006159 0.669299
O O8 0.750000 0.047997 0.459350
O O9 0.677589 0.250000 0.515443
O O10 0.634963 0.026376 0.425344
O O11 0.907082 0.250000 0.334097
O O12 0.862674 0.016501 0.250479
O O13 0.340700 0.250000 0.819149
O O14 0.417482 0.070323 0.887538
O O15 0.306112 0.019623 0.912572
O O16 0.250000 0.250000 0.177700
O O17 0.250000 0.485734 0.075524
O O18 0.504757 0.250000 0.914904
O O19 0.500000 0.500000 0.000000
O O20 0.250000 0.250000 0.976000
#
# Coordination Sequence:
#
# PCOD9452504 Si02
#       8
#     8   8   8   8   8   4   8   4
#     4  11  22  38  62  90 117 149 194 243 287 336
#     4  10  22  40  59  83 116 153 191 237 291 345
#     4  10  22  40  61  85 117 156 190 229 289 349
#     4  10  21  38  61  87 116 151 191 238 290 341
#     4   9  19  35  55  82 114 150 187 230 281 339
#     4   9  20  36  56  85 118 150 191 241 282 335
#     4   9  19  33  52  78 109 145 189 233 280 334
#     4   9  18  34  56  81 114 154 189 225 284 343
#
# _framework density 18.581264000000001
#
# number of rings (size 3 to 8) (size 9 to 14) (size 15 to 20)
#    0.000    2.286    0.714    2.143    3.000    4.571 
#    0.000    0.000    0.000    1.714    0.000    0.000 
#    0.000    0.000    0.000    0.000    0.000    0.000 
#
# Total GULP energy -312332.083352 kJ/mol
# GULP energy per Si atom -5577.358631 kJ/mol
# Density = 1.853897 g / cm^3
# Si number density = 18.581264 Si / 1000 Ang^3
#
#
#
# Elastic Constant Matrix: (Units=GPa)
#
#
# Indices 1 2 3 4 5 6 
#
# 1 96.3500 32.2931 59.4226 0.0000 0.0000 0.0000
# 2 32.2931 33.7334 22.1345 0.0000 0.0000 0.0000
# 3 59.4226 22.1345 76.4413 0.0000 0.0000 0.0000
# 4 0.0000 0.0000 0.0000 32.1633 0.0000 0.0000
# 5 0.0000 0.0000 0.0000 0.0000 10.1710 0.0000
# 6 0.0000 0.0000 0.0000 0.0000 0.0000 18.9839
#
#
#
# Elastic Compliance Matrix: (Units=1/GPa)
#
#
# Indices 1 2 3 4 5 6 
#
# 1 0.023908 -0.013200 -0.014763 0.000000 0.000000 0.000000
# 2 -0.013200 0.043886 -0.002446 0.000000 0.000000 0.000000
# 3 -0.014763 -0.002446 0.025266 0.000000 0.000000 0.000000
# 4 0.000000 0.000000 0.000000 0.031091 0.000000 0.000000
# 5 0.000000 0.000000 0.000000 0.000000 0.098319 0.000000
# 6 0.000000 0.000000 0.000000 0.000000 0.000000 0.052676
#
#
# Mechanical properties :
#
#
# Convention : Reuss Voigt Hill
#
# Bulk Modulus (GPa) = 31.01599 48.24725 39.63162
# Shear Modulus (GPa) = 14.42117 18.44194 16.43156
#
# Velocity S-wave (km/s) = 2.78890 3.15382 2.97696
# Velocity P-wave (km/s) = 5.20567 6.26769 5.76120
#
# Compressibility (1/GPa) = 0.03224143
#
# Stress axis : x y z
#
# Youngs Moduli (GPa) = 41.82731 22.78626 39.57843
#
# Poissons Ratio (x) = 0.30079 0.58429
# Poissons Ratio (y) = 0.55213 0.09682
# Poissons Ratio (z) = 0.61748 0.05574
#
# Static dielectric constant tensor:
#      x y z
#    x 1.692150 0.000000 0.000000 
#    y 0.000000 1.648750 0.000000 
#    z 0.000000 0.000000 1.634520 
# 
# From -- ./inp_files/24389.got.cif
#   From: 2010.05.17/outbox.cif.g08.bks.cpg/sg59_13_cif.got.tgz:24389.got - 2010.06.03 14:40:33.
