data_PCOD9452917
_publ_section_title
;
Structure prediction by ZEFSAII (Michael W. Deem and Ramdas Pophale) SiO2 
 PCOD9452917
Probable space group: P M M N
;
_chemical_formula_sum "Si O2"
_cell_formula_units_Z 64
_cell_length_a 24.057397
_cell_length_b 8.778263
_cell_length_c 15.746759
_cell_angle_alpha 90.000000
_cell_angle_beta 90.000000
_cell_angle_gamma 90.000000
_cell_volume 3325.434547
_symmetry_space_group_name_H-M "P M M N"
_symmetry_group_IT_number 59
_space_group.IT_coordinate_system_code '2'
_symmetry_cell_setting 'orthorhombic'
loop_
_space_group_symop_operation_xyz
x,y,z
1/2-x,1/2-y,z
1/2+x,-y,-z
-x,1/2+y,-z
-x,-y,-z
1/2+x,1/2+y,-z
1/2-x,y,z
x,1/2-y,z
loop_
_atom_site_type_symbol
_atom_site_label
_atom_site_fract_x
_atom_site_fract_y
_atom_site_fract_z
Si Si1 0.500022 0.431967 0.905355
Si Si2 0.615930 0.932406 0.336790
Si Si3 0.387053 0.931959 0.343952
Si Si4 0.498327 0.932163 0.595095
Si Si5 0.125326 0.568391 0.153481
Si Si6 0.684901 0.932479 0.505060
Si Si7 0.886876 0.431284 0.159444
Si Si8 0.684812 0.568917 0.007100
O O1 0.491946 0.250000 0.908963
O O2 0.560119 0.461944 0.864487
O O3 0.449204 0.506083 0.854962
O O4 0.500000 0.500000 0.000000
O O5 0.611124 0.750000 0.330829
O O6 0.656584 0.969712 0.414975
O O7 0.556127 0.003076 0.359198
O O8 0.635301 0.999060 0.247177
O O9 0.395805 0.750000 0.346128
O O10 0.363161 0.971440 0.251198
O O11 0.446005 0.013129 0.358292
O O12 0.346905 0.982853 0.419590
O O13 0.496217 0.750000 0.591017
O O14 0.500000 0.000000 0.500000
O O15 0.133957 0.750000 0.142033
O O16 0.161429 0.481196 0.084222
O O17 0.750000 0.968574 0.504449
O O18 0.678404 0.750000 0.517500
O O19 0.887989 0.250000 0.163609
O O20 0.850456 0.485283 0.079656
O O21 0.750000 0.532232 0.013923
O O22 0.677665 0.750000 0.017497
#
# Coordination Sequence:
#
# PCOD9452917 Si02
#       8
#     8   8   8   8   8   8   8   8
#     4  11  21  37  63  94 128 164 204 253 310 374
#     4  11  23  41  65  93 127 166 209 261 315 375
#     4  11  23  40  64  94 128 166 209 256 310 376
#     4  12  23  38  63  95 130 167 206 255 315 378
#     4  10  23  41  63  92 126 164 205 252 312 373
#     4  10  23  43  65  89 121 164 212 261 314 370
#     4  12  25  41  64  95 129 167 207 255 315 378
#     4  11  25  44  66  91 121 163 214 265 315 370
#
# _framework density 19.245605000000001
#
# number of rings (size 3 to 8) (size 9 to 14) (size 15 to 20)
#    0.000    1.000    2.500    4.500    0.000    5.250 
#    0.000    3.750    0.000    0.000    0.000    0.000 
#    0.000    0.000    0.000    0.000    0.000    0.000 
#
# Total GULP energy -358096.720092 kJ/mol
# GULP energy per Si atom -5595.261251 kJ/mol
# Density = 1.920180 g / cm^3
# Si number density = 19.245605 Si / 1000 Ang^3
#
#
#
# Elastic Constant Matrix: (Units=GPa)
#
#
# Indices 1 2 3 4 5 6 
#
# 1 64.6524 38.9123 6.0575 0.0000 0.0000 0.0000
# 2 38.9123 84.3561 38.4556 0.0000 0.0000 0.0000
# 3 6.0575 38.4556 102.9031 0.0000 0.0000 0.0000
# 4 0.0000 0.0000 0.0000 35.9705 0.0000 0.0000
# 5 0.0000 0.0000 0.0000 0.0000 -3.7774 0.0000
# 6 0.0000 0.0000 0.0000 0.0000 0.0000 23.5790
#
#
#
# Elastic Compliance Matrix: (Units=1/GPa)
#
#
# Indices 1 2 3 4 5 6 
#
# 1 0.022171 -0.011610 0.003034 0.000000 0.000000 0.000000
# 2 -0.011610 0.020369 -0.006928 0.000000 0.000000 0.000000
# 3 0.003034 -0.006928 0.012129 0.000000 0.000000 0.000000
# 4 0.000000 0.000000 0.000000 0.027801 0.000000 0.000000
# 5 0.000000 0.000000 0.000000 0.000000 -0.264730 0.000000
# 6 0.000000 0.000000 0.000000 0.000000 0.000000 0.042411
#
#
# Mechanical properties :
#
#
# Convention : Reuss Voigt Hill
#
# Bulk Modulus (GPa) = 42.26862 46.52916 44.39889
# Shear Modulus (GPa) = -49.52683 22.38683 -13.57000
#
# Velocity S-wave (km/s) = -5.07838 3.41430 -2.65825
# Velocity P-wave (km/s) = 3.51798 6.30652 3.70108
#
# Compressibility (1/GPa) = 0.02365821
#
# Stress axis : x y z
#
# Youngs Moduli (GPa) = 45.10427 49.09525 82.45034
#
# Poissons Ratio (x) = 0.57000 -0.25013
# Poissons Ratio (y) = 0.52366 0.57125
# Poissons Ratio (z) = -0.13683 0.34015
#
# Static dielectric constant tensor:
#      x y z
#    x 1.644460 0.000000 0.000000 
#    y 0.000000 1.644520 0.000000 
#    z 0.000000 0.000000 1.668330 
# 
# From -- ./inp_files/24674.got.cif
#   From: 2010.05.17/outbox.cif.g08.bks.cpg/sg59_13_cif.got.tgz:24674.got - 2010.06.03 14:40:33.
