data_PCOD9452791
_publ_section_title
;
Structure prediction by ZEFSAII (Michael W. Deem and Ramdas Pophale) SiO2 
 PCOD9452791
Probable space group: P M M N
;
_chemical_formula_sum "Si O2"
_cell_formula_units_Z 56
_cell_length_a 14.412533
_cell_length_b 16.876925
_cell_length_c 11.217616
_cell_angle_alpha 90.000000
_cell_angle_beta 90.000000
_cell_angle_gamma 90.000000
_cell_volume 2728.564374
_symmetry_space_group_name_H-M "P M M N"
_symmetry_group_IT_number 59
_space_group.IT_coordinate_system_code '2'
_symmetry_cell_setting 'orthorhombic'
loop_
_space_group_symop_operation_xyz
x,y,z
1/2-x,1/2-y,z
1/2+x,-y,-z
-x,1/2+y,-z
-x,-y,-z
1/2+x,1/2+y,-z
1/2-x,y,z
x,1/2-y,z
loop_
_atom_site_type_symbol
_atom_site_label
_atom_site_fract_x
_atom_site_fract_y
_atom_site_fract_z
Si Si1 0.361704 0.340988 0.530933
Si Si2 0.138143 0.160879 0.259239
Si Si3 0.862028 0.341199 0.424501
Si Si4 0.448450 0.497021 0.626674
Si Si5 0.851477 0.157601 0.693238
Si Si6 0.475450 0.571587 0.140690
Si Si7 0.139413 0.442327 0.023840
O O1 0.250000 0.338348 0.530760
O O2 0.393535 0.250000 0.560017
O O3 0.393870 0.359357 0.393942
O O4 0.390469 0.414589 0.613385
O O5 0.250000 0.162453 0.269258
O O6 0.105045 0.250000 0.234893
O O7 0.121249 0.107389 0.144425
O O8 0.750000 0.339244 0.421558
O O9 0.892828 0.250000 0.395697
O O10 0.895567 0.419157 0.355169
O O11 0.888560 0.361662 0.561713
O O12 0.500000 0.500000 0.500000
O O13 0.509398 0.484013 0.743838
O O14 0.750000 0.117626 0.710427
O O15 0.837894 0.250000 0.685231
O O16 0.919951 0.142341 0.800361
O O17 0.406082 0.528178 0.049157
O O18 0.573767 0.590518 0.080912
O O19 0.250000 0.443903 0.000693
#
# Coordination Sequence:
#
# PCOD9452791 Si02
#       7
#     8   8   8   8   8   8   8
#     4   9  19  35  55  82 117 154 192 236 292 367
#     4   8  15  31  55  79 104 144 196 237 277 341
#     4   9  19  36  57  82 115 157 201 244 294 360
#     4  12  22  33  54  87 123 155 189 242 310 375
#     4   9  18  35  59  85 115 152 194 241 292 355
#     4  11  23  37  57  87 115 151 201 249 308 371
#     4  10  22  40  59  79 111 153 200 255 303 350
#
# _framework density 20.523613999999998
#
# number of rings (size 3 to 8) (size 9 to 14) (size 15 to 20)
#    0.000    2.286    1.429    3.429    0.000    2.857 
#    0.000    0.714    0.000    2.571    0.000    8.000 
#    0.000    0.000    0.000    0.000    0.000    0.000 
#
# Total GULP energy -311898.942448 kJ/mol
# GULP energy per Si atom -5569.623972 kJ/mol
# Density = 2.047690 g / cm^3
# Si number density = 20.523614 Si / 1000 Ang^3
#
#
#
# Elastic Constant Matrix: (Units=GPa)
#
#
# Indices 1 2 3 4 5 6 
#
# 1 64.6850 30.8036 20.4341 0.0000 0.0000 0.0000
# 2 30.8036 79.9371 10.0621 0.0000 0.0000 0.0000
# 3 20.4341 10.0621 44.0181 0.0000 0.0000 0.0000
# 4 0.0000 0.0000 0.0000 19.8932 0.0000 0.0000
# 5 0.0000 0.0000 0.0000 0.0000 34.2501 0.0000
# 6 0.0000 0.0000 0.0000 0.0000 0.0000 27.1991
#
#
#
# Elastic Compliance Matrix: (Units=1/GPa)
#
#
# Indices 1 2 3 4 5 6 
#
# 1 0.021550 -0.007254 -0.008346 0.000000 0.000000 0.000000
# 2 -0.007254 0.015322 -0.000135 0.000000 0.000000 0.000000
# 3 -0.008346 -0.000135 0.026623 0.000000 0.000000 0.000000
# 4 0.000000 0.000000 0.000000 0.050268 0.000000 0.000000
# 5 0.000000 0.000000 0.000000 0.000000 0.029197 0.000000
# 6 0.000000 0.000000 0.000000 0.000000 0.000000 0.036766
#
#
# Mechanical properties :
#
#
# Convention : Reuss Voigt Hill
#
# Bulk Modulus (GPa) = 31.22480 34.58221 32.90351
# Shear Modulus (GPa) = 22.53551 24.75785 23.64668
#
# Velocity S-wave (km/s) = 3.31725 3.47697 3.39804
# Velocity P-wave (km/s) = 5.46985 5.74505 5.60914
#
# Compressibility (1/GPa) = 0.03202582
#
# Stress axis : x y z
#
# Youngs Moduli (GPa) = 46.40290 65.26528 37.56128
#
# Poissons Ratio (x) = 0.47342 0.31349
# Poissons Ratio (y) = 0.33660 0.00507
# Poissons Ratio (z) = 0.38728 0.00882
#
# Static dielectric constant tensor:
#      x y z
#    x 1.831490 0.000000 0.000000 
#    y 0.000000 1.800870 0.000000 
#    z 0.000000 0.000000 1.712070 
# 
# From -- ./inp_files/16975.got.cif
#   From: 2010.05.17/outbox.cif.g08.bks.cpg/sg59_9_cif.got.tgz:16975.got - 2010.06.03 14:40:33.
