data_PCOD9452124
_publ_section_title
;
Structure prediction by ZEFSAII (Michael W. Deem and Ramdas Pophale) SiO2 
 PCOD9452124
Probable space group: P M M N
;
_chemical_formula_sum "Si O2"
_cell_formula_units_Z 48
_cell_length_a 13.969878
_cell_length_b 9.095344
_cell_length_c 19.019320
_cell_angle_alpha 90.000000
_cell_angle_beta 90.000000
_cell_angle_gamma 90.000000
_cell_volume 2416.610890
_symmetry_space_group_name_H-M "P M M N"
_symmetry_group_IT_number 59
_space_group.IT_coordinate_system_code '2'
_symmetry_cell_setting 'orthorhombic'
loop_
_space_group_symop_operation_xyz
x,y,z
1/2-x,1/2-y,z
1/2+x,-y,-z
-x,1/2+y,-z
-x,-y,-z
1/2+x,1/2+y,-z
1/2-x,y,z
x,1/2-y,z
loop_
_atom_site_type_symbol
_atom_site_label
_atom_site_fract_x
_atom_site_fract_y
_atom_site_fract_z
Si Si1 0.133513 0.582077 0.965505
Si Si2 0.857582 0.574403 0.470916
Si Si3 0.136154 0.076179 0.107195
Si Si4 0.030008 0.074363 0.251402
Si Si5 0.863783 0.922950 0.180180
Si Si6 0.946034 0.074684 0.605295
O O1 0.250000 0.583880 0.968386
O O2 0.100631 0.750000 0.957571
O O3 0.110468 0.488441 0.896388
O O4 0.101283 0.511249 0.038759
O O5 0.750000 0.539933 0.446188
O O6 0.862473 0.750000 0.484204
O O7 0.881291 0.489680 0.542854
O O8 0.943835 0.540381 0.417437
O O9 0.250000 0.052714 0.113456
O O10 0.120933 0.250000 0.095436
O O11 0.087775 0.034958 0.180567
O O12 0.028604 0.250000 0.258110
O O13 0.073410 0.001564 0.320632
O O14 0.924594 0.009920 0.237536
O O15 0.750000 0.941435 0.189820
O O16 0.885768 0.750000 0.183083
O O17 0.935592 0.250000 0.610022
#
# Coordination Sequence:
#
# PCOD9452124 Si02
#       6
#     8   8   8   8   8   8
#     4   9  17  31  53  79 105 135 178 233 283 327
#     4   9  19  38  63  86 110 145 184 220 265 322
#     4   9  19  36  55  75 103 142 186 228 273 327
#     4  11  23  37  55  81 113 149 185 224 273 326
#     4  10  21  37  56  77 105 144 187 231 280 331
#     4  10  21  37  57  85 118 146 179 225 271 321
#
# _framework density 19.862525999999999
#
# number of rings (size 3 to 8) (size 9 to 14) (size 15 to 20)
#    0.000    2.333    0.000    2.000    0.000    7.333 
#    0.000    3.333    0.000    0.000    0.000    0.000 
#    0.000    0.000    0.000    0.000    0.000    0.000 
#
# Total GULP energy -268183.144189 kJ/mol
# GULP energy per Si atom -5587.148837 kJ/mol
# Density = 1.981732 g / cm^3
# Si number density = 19.862526 Si / 1000 Ang^3
#
#
#
# Elastic Constant Matrix: (Units=GPa)
#
#
# Indices 1 2 3 4 5 6 
#
# 1 51.4277 1.8083 -9.8671 0.0000 0.0000 0.0000
# 2 1.8083 33.5207 14.4434 0.0000 0.0000 0.0000
# 3 -9.8671 14.4434 55.6850 0.0000 0.0000 0.0000
# 4 0.0000 0.0000 0.0000 34.6180 0.0000 0.0000
# 5 0.0000 0.0000 0.0000 0.0000 13.1434 0.0000
# 6 0.0000 0.0000 0.0000 0.0000 0.0000 21.6424
#
#
#
# Elastic Compliance Matrix: (Units=1/GPa)
#
#
# Indices 1 2 3 4 5 6 
#
# 1 0.020392 -0.002991 0.004389 0.000000 0.000000 0.000000
# 2 -0.002991 0.034025 -0.009355 0.000000 0.000000 0.000000
# 3 0.004389 -0.009355 0.021162 0.000000 0.000000 0.000000
# 4 0.000000 0.000000 0.000000 0.028887 0.000000 0.000000
# 5 0.000000 0.000000 0.000000 0.000000 0.076084 0.000000
# 6 0.000000 0.000000 0.000000 0.000000 0.000000 0.046206
#
#
# Mechanical properties :
#
#
# Convention : Reuss Voigt Hill
#
# Bulk Modulus (GPa) = 16.76035 17.04472 16.90254
# Shear Modulus (GPa) = 19.04341 22.83068 20.93705
#
# Velocity S-wave (km/s) = 3.09975 3.39401 3.25021
# Velocity P-wave (km/s) = 4.61169 4.89480 4.75535
#
# Compressibility (1/GPa) = 0.05966461
#
# Stress axis : x y z
#
# Youngs Moduli (GPa) = 49.03856 29.39044 47.25351
#
# Poissons Ratio (x) = 0.08792 -0.20741
# Poissons Ratio (y) = 0.14669 0.44207
# Poissons Ratio (z) = -0.21524 0.27495
#
# Static dielectric constant tensor:
#      x y z
#    x 1.751540 0.000000 0.000000 
#    y 0.000000 1.664950 0.000000 
#    z 0.000000 0.000000 1.659010 
# 
# From -- ./inp_files/25408.got.cif
#   From: 2010.05.17/outbox.cif.g08.bks.cpg/sg59_13_cif.got.tgz:25408.got - 2010.06.03 14:40:33.
