data_PCOD9452091
_publ_section_title
;
Structure prediction by ZEFSAII (Michael W. Deem and Ramdas Pophale) SiO2 
 PCOD9452091
Probable space group: P M M N
;
_chemical_formula_sum "Si O2"
_cell_formula_units_Z 64
_cell_length_a 20.669202
_cell_length_b 7.959442
_cell_length_c 20.802064
_cell_angle_alpha 90.000000
_cell_angle_beta 90.000000
_cell_angle_gamma 90.000000
_cell_volume 3422.258101
_symmetry_space_group_name_H-M "P M M N"
_symmetry_group_IT_number 59
_space_group.IT_coordinate_system_code '2'
_symmetry_cell_setting 'orthorhombic'
loop_
_space_group_symop_operation_xyz
x,y,z
1/2-x,1/2-y,z
1/2+x,-y,-z
-x,1/2+y,-z
-x,-y,-z
1/2+x,1/2+y,-z
1/2-x,y,z
x,1/2-y,z
loop_
_atom_site_type_symbol
_atom_site_label
_atom_site_fract_x
_atom_site_fract_y
_atom_site_fract_z
Si Si1 0.545179 0.547268 0.328970
Si Si2 0.676666 0.047399 0.092059
Si Si3 0.321937 0.952008 0.428889
Si Si4 0.397304 0.547015 0.305266
Si Si5 0.823692 0.953021 0.945654
Si Si6 0.580324 0.951136 0.835745
Si Si7 0.569168 0.950483 0.470218
Si Si8 0.934364 0.048235 0.187510
O O1 0.545958 0.750000 0.329361
O O2 0.469925 0.493400 0.325059
O O3 0.573562 0.486170 0.396651
O O4 0.577047 0.490402 0.262493
O O5 0.750000 0.985736 0.104931
O O6 0.678123 0.250000 0.096890
O O7 0.622428 0.984019 0.141374
O O8 0.660270 0.002618 0.018595
O O9 0.250000 0.016284 0.442461
O O10 0.318985 0.750000 0.424359
O O11 0.348550 0.013569 0.360030
O O12 0.373510 0.991361 0.483855
O O13 0.396389 0.750000 0.304748
O O14 0.386643 0.487277 0.232844
O O15 0.750000 0.011444 0.932151
O O16 0.823052 0.750000 0.942337
O O17 0.875965 0.016190 0.894160
O O18 0.575808 0.750000 0.842973
O O19 0.506325 0.016831 0.831213
O O20 0.570901 0.750000 0.467815
O O21 0.500000 0.000000 0.500000
O O22 0.936420 0.250000 0.180909
#
# Coordination Sequence:
#
# PCOD9452091 Si02
#       8
#     8   8   8   8   8   8   8   8
#     4   9  18  33  52  75 101 129 165 209 252 301
#     4   9  18  33  51  70  94 125 163 206 249 296
#     4  10  21  37  54  76 109 143 176 218 266 315
#     4   9  17  32  50  71 100 133 168 205 250 303
#     4   9  18  32  48  67  95 130 164 199 242 296
#     4   9  18  31  47  71 100 129 162 202 247 295
#     4  11  21  35  57  81 106 138 179 221 263 314
#     4   9  18  32  50  73  99 126 160 205 250 297
#
# _framework density 18.701103
#
# number of rings (size 3 to 8) (size 9 to 14) (size 15 to 20)
#    0.000    2.625    1.250    0.375    0.000    3.750 
#    0.000    0.625    0.000    2.250    0.000    0.000 
#    0.000    0.000    0.000    0.000    0.000    0.000 
#
# Total GULP energy -356884.521682 kJ/mol
# GULP energy per Si atom -5576.320651 kJ/mol
# Density = 1.865854 g / cm^3
# Si number density = 18.701103 Si / 1000 Ang^3
#
#
#
# Elastic Constant Matrix: (Units=GPa)
#
#
# Indices 1 2 3 4 5 6 
#
# 1 132.0303 9.1961 120.0979 0.0000 0.0000 0.0000
# 2 9.1961 11.6941 5.1079 0.0000 0.0000 0.0000
# 3 120.0979 5.1079 181.5030 0.0000 0.0000 0.0000
# 4 0.0000 0.0000 0.0000 27.8462 0.0000 0.0000
# 5 0.0000 0.0000 0.0000 0.0000 27.2231 0.0000
# 6 0.0000 0.0000 0.0000 0.0000 0.0000 13.1667
#
#
#
# Elastic Compliance Matrix: (Units=1/GPa)
#
#
# Indices 1 2 3 4 5 6 
#
# 1 0.020147 -0.010145 -0.013046 0.000000 0.000000 0.000000
# 2 -0.010145 0.091686 0.004133 0.000000 0.000000 0.000000
# 3 -0.013046 0.004133 0.014025 0.000000 0.000000 0.000000
# 4 0.000000 0.000000 0.000000 0.035911 0.000000 0.000000
# 5 0.000000 0.000000 0.000000 0.000000 0.036734 0.000000
# 6 0.000000 0.000000 0.000000 0.000000 0.000000 0.075949
#
#
# Mechanical properties :
#
#
# Convention : Reuss Voigt Hill
#
# Bulk Modulus (GPa) = 11.39698 66.00345 38.70022
# Shear Modulus (GPa) = 14.62769 26.36890 20.49829
#
# Velocity S-wave (km/s) = 2.79979 3.75909 3.31433
# Velocity P-wave (km/s) = 4.06931 7.36285 5.94856
#
# Compressibility (1/GPa) = 0.08774255
#
# Stress axis : x y z
#
# Youngs Moduli (GPa) = 49.63440 10.90675 71.29930
#
# Poissons Ratio (x) = 0.11065 0.93015
# Poissons Ratio (y) = 0.50356 -0.29467
# Poissons Ratio (z) = 0.64751 -0.04508
#
# Static dielectric constant tensor:
#      x y z
#    x 1.644650 0.000000 0.000000 
#    y 0.000000 1.669190 0.000000 
#    z 0.000000 0.000000 1.630950 
# 
# From -- ./inp_files/31004.got.cif
#   From: 2010.05.17/outbox.cif.g08.bks.cpg/sg59_16_cif.got.tgz:31004.got - 2010.06.03 14:40:33.
