data_PCOD9452573
_publ_section_title
;
Structure prediction by ZEFSAII (Michael W. Deem and Ramdas Pophale) SiO2 
 PCOD9452573
Probable space group: P M M N
;
_chemical_formula_sum "Si O2"
_cell_formula_units_Z 56
_cell_length_a 8.805633
_cell_length_b 14.585004
_cell_length_c 24.869070
_cell_angle_alpha 90.000000
_cell_angle_beta 90.000000
_cell_angle_gamma 90.000000
_cell_volume 3193.939448
_symmetry_space_group_name_H-M "P M M N"
_symmetry_group_IT_number 59
_space_group.IT_coordinate_system_code '2'
_symmetry_cell_setting 'orthorhombic'
loop_
_space_group_symop_operation_xyz
x,y,z
1/2-x,1/2-y,z
1/2+x,-y,-z
-x,1/2+y,-z
-x,-y,-z
1/2+x,1/2+y,-z
1/2-x,y,z
x,1/2-y,z
loop_
_atom_site_type_symbol
_atom_site_label
_atom_site_fract_x
_atom_site_fract_y
_atom_site_fract_z
Si Si1 0.433708 0.643549 0.849513
Si Si2 0.567169 0.552766 0.344186
Si Si3 0.433060 0.356381 0.852118
Si Si4 0.067406 0.250000 0.485740
Si Si5 0.431980 0.502157 0.940968
Si Si6 0.565397 0.750000 0.388274
Si Si7 0.430717 0.502172 0.230621
Si Si8 0.568235 0.060060 0.451893
O O1 0.250000 0.638834 0.846086
O O2 0.478514 0.750000 0.850285
O O3 0.478997 0.588617 0.903754
O O4 0.501434 0.586538 0.799832
O O5 0.750000 0.554230 0.336643
O O6 0.517415 0.656575 0.358881
O O7 0.490690 0.514426 0.290828
O O8 0.533749 0.489516 0.395653
O O9 0.250000 0.362932 0.845389
O O10 0.474775 0.250000 0.854338
O O11 0.472537 0.411935 0.906279
O O12 0.510529 0.410662 0.803600
O O13 0.250000 0.250000 0.484580
O O14 0.019720 0.250000 0.548915
O O15 0.003030 0.339970 0.457442
O O16 0.250000 0.505138 0.945429
O O17 0.500000 0.500000 0.000000
O O18 0.750000 0.750000 0.388505
O O19 0.250000 0.497961 0.229451
O O20 0.750000 0.064327 0.457399
O O21 0.500000 0.000000 0.500000
#
# Coordination Sequence:
#
# PCOD9452573 Si02
#       8
#     8   8   8   4   8   4   8   8
#     4   9  19  39  63  81 104 148 197 232 270 329
#     4  10  21  39  60  82 112 151 191 224 271 343
#     4   9  19  37  58  77 105 150 192 222 263 327
#     4  11  21  39  61  85 117 151 189 234 283 342
#     4   9  18  32  52  82 115 145 182 225 272 324
#     4   9  18  35  59  85 109 145 187 220 265 334
#     4  11  23  37  55  84 116 140 177 234 289 330
#     4  11  22  38  61  87 115 150 191 235 286 343
#
# _framework density 17.533207000000001
#
# number of rings (size 3 to 8) (size 9 to 14) (size 15 to 20)
#    0.000    2.143    1.429    2.786    1.000    4.571 
#    1.286    0.000    0.000    0.000    0.000    0.000 
#    0.000    0.000    0.000    0.000    0.000    0.000 
#
# Total GULP energy -312591.109711 kJ/mol
# GULP energy per Si atom -5581.984102 kJ/mol
# Density = 1.749330 g / cm^3
# Si number density = 17.533207 Si / 1000 Ang^3
#
#
#
# Elastic Constant Matrix: (Units=GPa)
#
#
# Indices 1 2 3 4 5 6 
#
# 1 39.9564 56.1509 62.0841 0.0000 0.0000 0.0000
# 2 56.1509 193.1483 97.6498 0.0000 0.0000 0.0000
# 3 62.0841 97.6498 167.5299 0.0000 0.0000 0.0000
# 4 0.0000 0.0000 0.0000 8.8764 0.0000 0.0000
# 5 0.0000 0.0000 0.0000 0.0000 33.8920 0.0000
# 6 0.0000 0.0000 0.0000 0.0000 0.0000 21.0618
#
#
#
# Elastic Compliance Matrix: (Units=1/GPa)
#
#
# Indices 1 2 3 4 5 6 
#
# 1 0.071309 -0.010450 -0.020335 0.000000 0.000000 0.000000
# 2 -0.010450 0.008872 -0.001299 0.000000 0.000000 0.000000
# 3 -0.020335 -0.001299 0.014262 0.000000 0.000000 0.000000
# 4 0.000000 0.000000 0.000000 0.112659 0.000000 0.000000
# 5 0.000000 0.000000 0.000000 0.000000 0.029506 0.000000
# 6 0.000000 0.000000 0.000000 0.000000 0.000000 0.047479
#
#
# Mechanical properties :
#
#
# Convention : Reuss Voigt Hill
#
# Bulk Modulus (GPa) = 33.02980 92.48938 62.75959
# Shear Modulus (GPa) = 13.95301 25.08267 19.51784
#
# Velocity S-wave (km/s) = 2.82406 3.78641 3.34007
# Velocity P-wave (km/s) = 5.43260 8.48418 7.12371
#
# Compressibility (1/GPa) = 0.03027569
#
# Stress axis : x y z
#
# Youngs Moduli (GPa) = 14.02348 112.71634 70.11654
#
# Poissons Ratio (x) = 1.17785 1.42583
# Poissons Ratio (y) = 0.14654 0.09106
# Poissons Ratio (z) = 0.28517 0.14639
#
# Static dielectric constant tensor:
#      x y z
#    x 1.590640 0.000000 0.000000 
#    y 0.000000 1.591420 0.000000 
#    z 0.000000 0.000000 1.567810 
# 
# From -- ./inp_files/29185.got.cif
#   From: 2010.05.17/outbox.cif.g08.bks.cpg/sg59_15_cif.got.tgz:29185.got - 2010.06.03 14:40:33.
