data_PCOD9452345
_publ_section_title
;
Structure prediction by ZEFSAII (Michael W. Deem and Ramdas Pophale) SiO2 
 PCOD9452345
Probable space group: P M M N
;
_chemical_formula_sum "Si O2"
_cell_formula_units_Z 56
_cell_length_a 20.804095
_cell_length_b 8.724173
_cell_length_c 16.303099
_cell_angle_alpha 90.000000
_cell_angle_beta 90.000000
_cell_angle_gamma 90.000000
_cell_volume 2958.988403
_symmetry_space_group_name_H-M "P M M N"
_symmetry_group_IT_number 59
_space_group.IT_coordinate_system_code '2'
_symmetry_cell_setting 'orthorhombic'
loop_
_space_group_symop_operation_xyz
x,y,z
1/2-x,1/2-y,z
1/2+x,-y,-z
-x,1/2+y,-z
-x,-y,-z
1/2+x,1/2+y,-z
1/2-x,y,z
x,1/2-y,z
loop_
_atom_site_type_symbol
_atom_site_label
_atom_site_fract_x
_atom_site_fract_y
_atom_site_fract_z
Si Si1 0.002187 0.433020 0.408433
Si Si2 0.443947 0.067784 0.118065
Si Si3 0.417114 0.928879 0.950424
Si Si4 0.250000 0.564055 0.343614
Si Si5 0.250000 0.565341 0.535248
Si Si6 0.109130 0.565733 0.286996
Si Si7 0.674026 0.576125 0.172042
Si Si8 0.366846 0.432078 0.640687
O O1 0.006121 0.250000 0.410853
O O2 0.935171 0.486265 0.368445
O O3 0.000000 0.500000 0.500000
O O4 0.061784 0.498278 0.356289
O O5 0.442093 0.250000 0.130969
O O6 0.517506 0.021936 0.096561
O O7 0.416524 0.986798 0.198390
O O8 0.407974 0.021159 0.034467
O O9 0.424173 0.750000 0.970911
O O10 0.360202 0.959469 0.887956
O O11 0.250000 0.750000 0.340492
O O12 0.250000 0.521137 0.439553
O O13 0.182892 0.514275 0.302518
O O14 0.250000 0.750000 0.540932
O O15 0.313336 0.500219 0.579781
O O16 0.106949 0.750000 0.292345
O O17 0.750000 0.570640 0.162365
O O18 0.651596 0.750000 0.152564
O O19 0.657508 0.546894 0.266646
O O20 0.373797 0.250000 0.625237
#
# Coordination Sequence:
#
# PCOD9452345 Si02
#       8
#     8   8   8   4   4   8   8   8
#     4  12  25  41  61  91 124 159 205 257 312 370
#     4  10  21  39  62  89 120 154 198 247 299 361
#     4  10  21  37  60  89 118 153 197 246 298 357
#     4   9  22  41  61  84 115 154 199 247 296 357
#     4  11  21  37  61  88 121 164 209 255 306 363
#     4  11  22  41  65  90 121 160 204 253 308 364
#     4  10  21  38  57  83 121 161 198 241 296 359
#     4  11  22  39  61  88 123 164 206 252 305 367
#
# _framework density 18.925386
#
# number of rings (size 3 to 8) (size 9 to 14) (size 15 to 20)
#    0.000    1.429    0.714    4.929    0.000    6.571 
#    1.286    3.571    0.000    0.000    0.000    0.000 
#    0.000    0.000    0.000    0.000    0.000    0.000 
#
# Total GULP energy -312984.911560 kJ/mol
# GULP energy per Si atom -5589.016278 kJ/mol
# Density = 1.888231 g / cm^3
# Si number density = 18.925386 Si / 1000 Ang^3
#
#
#
# Elastic Constant Matrix: (Units=GPa)
#
#
# Indices 1 2 3 4 5 6 
#
# 1 115.4390 43.8515 61.2208 0.0000 0.0000 0.0000
# 2 43.8515 86.5600 51.5904 0.0000 0.0000 0.0000
# 3 61.2208 51.5904 119.4036 0.0000 0.0000 0.0000
# 4 0.0000 0.0000 0.0000 35.9951 0.0000 0.0000
# 5 0.0000 0.0000 0.0000 0.0000 30.7790 0.0000
# 6 0.0000 0.0000 0.0000 0.0000 0.0000 29.3191
#
#
#
# Elastic Compliance Matrix: (Units=1/GPa)
#
#
# Indices 1 2 3 4 5 6 
#
# 1 0.012604 -0.003412 -0.004988 0.000000 0.000000 0.000000
# 2 -0.003412 0.016483 -0.005372 0.000000 0.000000 0.000000
# 3 -0.004988 -0.005372 0.013254 0.000000 0.000000 0.000000
# 4 0.000000 0.000000 0.000000 0.027782 0.000000 0.000000
# 5 0.000000 0.000000 0.000000 0.000000 0.032490 0.000000
# 6 0.000000 0.000000 0.000000 0.000000 0.000000 0.034107
#
#
# Mechanical properties :
#
#
# Convention : Reuss Voigt Hill
#
# Bulk Modulus (GPa) = 67.58741 70.52534 69.05637
# Shear Modulus (GPa) = 29.55133 30.20131 29.87632
#
# Velocity S-wave (km/s) = 3.95582 3.99909 3.97752
# Velocity P-wave (km/s) = 7.52694 7.65960 7.59356
#
# Compressibility (1/GPa) = 0.01479565
#
# Stress axis : x y z
#
# Youngs Moduli (GPa) = 79.33901 60.66732 75.45096
#
# Poissons Ratio (x) = 0.20702 0.37635
# Poissons Ratio (y) = 0.27073 0.40535
# Poissons Ratio (z) = 0.39575 0.32592
#
# Static dielectric constant tensor:
#      x y z
#    x 1.648930 0.000000 0.000000 
#    y 0.000000 1.648730 0.000000 
#    z 0.000000 0.000000 1.613970 
# 
# From -- ./inp_files/24339.got.cif
#   From: 2010.05.17/outbox.cif.g08.bks.cpg/sg59_13_cif.got.tgz:24339.got - 2010.06.03 14:40:33.
