data_PCOD9452708
_publ_section_title
;
Structure prediction by ZEFSAII (Michael W. Deem and Ramdas Pophale) SiO2 
 PCOD9452708
Probable space group: P M M N
;
_chemical_formula_sum "Si O2"
_cell_formula_units_Z 56
_cell_length_a 25.040993
_cell_length_b 17.769256
_cell_length_c 5.172482
_cell_angle_alpha 90.000000
_cell_angle_beta 90.000000
_cell_angle_gamma 90.000000
_cell_volume 2301.546634
_symmetry_space_group_name_H-M "P M M N"
_symmetry_group_IT_number 59
_space_group.IT_coordinate_system_code '2'
_symmetry_cell_setting 'orthorhombic'
loop_
_space_group_symop_operation_xyz
x,y,z
1/2-x,1/2-y,z
1/2+x,-y,-z
-x,1/2+y,-z
-x,-y,-z
1/2+x,1/2+y,-z
1/2-x,y,z
x,1/2-y,z
loop_
_atom_site_type_symbol
_atom_site_label
_atom_site_fract_x
_atom_site_fract_y
_atom_site_fract_z
Si Si1 0.313314 0.927527 0.427460
Si Si2 0.189930 0.334269 0.775626
Si Si3 0.028315 0.838860 0.404387
Si Si4 0.630199 0.547606 0.900237
Si Si5 0.453794 0.560199 0.917566
Si Si6 0.185868 0.667115 0.916319
Si Si7 0.914029 0.668355 0.575189
O O1 0.250000 0.944990 0.446783
O O2 0.321168 0.867678 0.197098
O O3 0.331292 0.887339 0.687652
O O4 0.344488 0.000251 0.332526
O O5 0.250000 0.343442 0.671596
O O6 0.187827 0.250000 0.898271
O O7 0.142777 0.334720 0.566669
O O8 0.175377 0.401905 0.966352
O O9 0.043769 0.750000 0.431300
O O10 0.963527 0.839944 0.383248
O O11 0.039065 0.891512 0.655659
O O12 0.051197 0.879885 0.152394
O O13 0.586813 0.604220 0.785213
O O14 0.598632 0.492212 0.087687
O O15 0.500000 0.500000 0.000000
O O16 0.250000 0.673004 0.881527
O O17 0.162149 0.750000 0.893911
O O18 0.920411 0.750000 0.701761
#
# Coordination Sequence:
#
# PCOD9452708 Si02
#       7
#     8   8   8   8   8   8   8
#     4  10  22  37  58  92 125 165 212 265 329 394
#     4  10  23  43  67  99 140 186 236 291 352 425
#     4  11  25  48  74 106 145 192 239 297 364 440
#     4  12  25  39  66  96 138 177 228 285 356 415
#     4  12  25  44  73 106 144 184 239 301 366 428
#     4   9  18  37  61  83 113 158 213 263 314 382
#     4  10  23  42  70  99 132 183 235 282 347 430
#
# _framework density 24.331464
#
# number of rings (size 3 to 8) (size 9 to 14) (size 15 to 20)
#    0.000    1.429    1.429    3.000    4.000    2.857 
#    0.000    5.714    0.000    0.000    0.000    0.000 
#    0.000    0.000    0.000    0.000    0.000    0.000 
#
# Total GULP energy -313516.056523 kJ/mol
# GULP energy per Si atom -5598.501009 kJ/mol
# Density = 2.427608 g / cm^3
# Si number density = 24.331464 Si / 1000 Ang^3
#
#
#
# Elastic Constant Matrix: (Units=GPa)
#
#
# Indices 1 2 3 4 5 6 
#
# 1 87.5657 41.1073 6.3228 0.0000 0.0000 0.0000
# 2 41.1073 158.0711 32.2790 0.0000 0.0000 0.0000
# 3 6.3228 32.2790 73.4031 0.0000 0.0000 0.0000
# 4 0.0000 0.0000 0.0000 73.8541 0.0000 0.0000
# 5 0.0000 0.0000 0.0000 0.0000 21.8930 0.0000
# 6 0.0000 0.0000 0.0000 0.0000 0.0000 10.2299
#
#
#
# Elastic Compliance Matrix: (Units=1/GPa)
#
#
# Indices 1 2 3 4 5 6 
#
# 1 0.013019 -0.003468 0.000404 0.000000 0.000000 0.000000
# 2 -0.003468 0.007874 -0.003164 0.000000 0.000000 0.000000
# 3 0.000404 -0.003164 0.014980 0.000000 0.000000 0.000000
# 4 0.000000 0.000000 0.000000 0.013540 0.000000 0.000000
# 5 0.000000 0.000000 0.000000 0.000000 0.045677 0.000000
# 6 0.000000 0.000000 0.000000 0.000000 0.000000 0.097753
#
#
# Mechanical properties :
#
#
# Convention : Reuss Voigt Hill
#
# Bulk Modulus (GPa) = 42.70512 53.16200 47.93356
# Shear Modulus (GPa) = 23.46261 37.15079 30.30670
#
# Velocity S-wave (km/s) = 3.10867 3.91175 3.53310
# Velocity P-wave (km/s) = 5.52038 6.50376 6.03214
#
# Compressibility (1/GPa) = 0.02341640
#
# Stress axis : x y z
#
# Youngs Moduli (GPa) = 76.81129 126.99605 66.75575
#
# Poissons Ratio (x) = 0.44043 -0.02695
# Poissons Ratio (y) = 0.26639 0.21121
# Poissons Ratio (z) = -0.03101 0.40181
#
# Static dielectric constant tensor:
#      x y z
#    x 1.975280 0.000000 0.000000 
#    y 0.000000 1.967930 0.000000 
#    z 0.000000 0.000000 1.925890 
# 
# From -- ./inp_files/4571.got.cif
#   From: 2010.05.17/outbox.cif.g08.bks.cpg/sg59_3_cif.got.tgz:4571.got - 2010.06.03 14:40:33.
