data_PCOD9452715
_publ_section_title
;
Structure prediction by ZEFSAII (Michael W. Deem and Ramdas Pophale) SiO2 
 PCOD9452715
Probable space group: P M M N
;
_chemical_formula_sum "Si O2"
_cell_formula_units_Z 56
_cell_length_a 8.789239
_cell_length_b 14.725494
_cell_length_c 24.435204
_cell_angle_alpha 90.000000
_cell_angle_beta 90.000000
_cell_angle_gamma 90.000000
_cell_volume 3162.547931
_symmetry_space_group_name_H-M "P M M N"
_symmetry_group_IT_number 59
_space_group.IT_coordinate_system_code '2'
_symmetry_cell_setting 'orthorhombic'
loop_
_space_group_symop_operation_xyz
x,y,z
1/2-x,1/2-y,z
1/2+x,-y,-z
-x,1/2+y,-z
-x,-y,-z
1/2+x,1/2+y,-z
1/2-x,y,z
x,1/2-y,z
loop_
_atom_site_type_symbol
_atom_site_label
_atom_site_fract_x
_atom_site_fract_y
_atom_site_fract_z
Si Si1 0.435299 0.851894 0.094354
Si Si2 0.572009 0.750000 0.594649
Si Si3 0.573290 0.250000 0.519715
Si Si4 0.068580 0.042046 0.133642
Si Si5 0.567943 0.428990 0.352739
Si Si6 0.066434 0.855622 0.762836
Si Si7 0.570957 0.046973 0.554426
Si Si8 0.070578 0.857626 0.968112
O O1 0.250000 0.850235 0.094476
O O2 0.486670 0.750000 0.109432
O O3 0.483317 0.936681 0.131209
O O4 0.478746 0.870457 0.031075
O O5 0.750000 0.750000 0.607713
O O6 0.542861 0.750000 0.530217
O O7 0.489948 0.837702 0.618479
O O8 0.750000 0.250000 0.499027
O O9 0.552706 0.155537 0.551061
O O10 0.250000 0.044105 0.139892
O O11 0.994386 0.099880 0.181927
O O12 0.023020 0.086180 0.075754
O O13 0.750000 0.433393 0.354552
O O14 0.519849 0.416097 0.289597
O O15 0.500885 0.508469 0.390042
O O16 0.250000 0.854297 0.764298
O O17 0.016619 0.750000 0.756680
O O18 0.750000 0.025414 0.553951
O O19 0.500000 0.000000 0.500000
O O20 0.250000 0.881025 0.963915
O O21 0.056955 0.750000 0.956373
#
# Coordination Sequence:
#
# PCOD9452715 Si02
#       8
#     8   4   4   8   8   8   8   8
#     4   8  16  32  52  73 100 137 178 213 255 315
#     4  12  22  32  56  88 116 146 182 225 270 325
#     4  10  22  38  56  80 120 156 180 215 266 327
#     4  11  21  31  50  80 107 132 169 224 271 303
#     4  11  22  39  59  80 109 146 187 229 271 323
#     4  10  22  40  58  75 102 144 180 209 260 328
#     4  11  22  36  57  86 116 150 185 223 271 323
#     4   9  17  31  51  73 102 142 176 203 251 325
#
# _framework density 17.707239999999999
#
# number of rings (size 3 to 8) (size 9 to 14) (size 15 to 20)
#    0.000    1.857    2.143    3.643    0.000    4.000 
#    0.000    0.714    1.571    3.429    0.000    0.000 
#    0.000    0.000    0.000    0.000    0.000    0.000 
#
# Total GULP energy -312485.925998 kJ/mol
# GULP energy per Si atom -5580.105821 kJ/mol
# Density = 1.766694 g / cm^3
# Si number density = 17.707240 Si / 1000 Ang^3
#
#
#
# Elastic Constant Matrix: (Units=GPa)
#
#
# Indices 1 2 3 4 5 6 
#
# 1 30.0837 29.2686 19.7870 0.0000 0.0000 0.0000
# 2 29.2686 91.7783 49.7481 0.0000 0.0000 0.0000
# 3 19.7870 49.7481 61.7337 0.0000 0.0000 0.0000
# 4 0.0000 0.0000 0.0000 43.8903 0.0000 0.0000
# 5 0.0000 0.0000 0.0000 0.0000 19.5157 0.0000
# 6 0.0000 0.0000 0.0000 0.0000 0.0000 6.3089
#
#
#
# Elastic Compliance Matrix: (Units=1/GPa)
#
#
# Indices 1 2 3 4 5 6 
#
# 1 0.049243 -0.012693 -0.005555 0.000000 0.000000 0.000000
# 2 -0.012693 0.022618 -0.014159 0.000000 0.000000 0.000000
# 3 -0.005555 -0.014159 0.029389 0.000000 0.000000 0.000000
# 4 0.000000 0.000000 0.000000 0.022784 0.000000 0.000000
# 5 0.000000 0.000000 0.000000 0.000000 0.051241 0.000000
# 6 0.000000 0.000000 0.000000 0.000000 0.000000 0.158507
#
#
# Mechanical properties :
#
#
# Convention : Reuss Voigt Hill
#
# Bulk Modulus (GPa) = 27.44432 42.35589 34.90010
# Shear Modulus (GPa) = 12.17312 19.59577 15.88445
#
# Velocity S-wave (km/s) = 2.62480 3.33025 2.99834
# Velocity P-wave (km/s) = 4.97179 6.22571 5.63374
#
# Compressibility (1/GPa) = 0.03643742
#
# Stress axis : x y z
#
# Youngs Moduli (GPa) = 20.30733 44.21220 34.02660
#
# Poissons Ratio (x) = 0.56118 0.18902
# Poissons Ratio (y) = 0.25776 0.48177
# Poissons Ratio (z) = 0.11281 0.62598
#
# Static dielectric constant tensor:
#      x y z
#    x 1.595210 0.000000 0.000000 
#    y 0.000000 1.619910 0.000000 
#    z 0.000000 0.000000 1.595020 
# 
# From -- ./inp_files/29188.got.cif
#   From: 2010.05.17/outbox.cif.g08.bks.cpg/sg59_15_cif.got.tgz:29188.got - 2010.06.03 14:40:33.
