data_PCOD9452732
_publ_section_title
;
Structure prediction by ZEFSAII (Michael W. Deem and Ramdas Pophale) SiO2 
 PCOD9452732
Probable space group: P M M N
;
_chemical_formula_sum "Si O2"
_cell_formula_units_Z 56
_cell_length_a 8.444320
_cell_length_b 21.871140
_cell_length_c 14.948586
_cell_angle_alpha 90.000000
_cell_angle_beta 90.000000
_cell_angle_gamma 90.000000
_cell_volume 2760.808081
_symmetry_space_group_name_H-M "P M M N"
_symmetry_group_IT_number 59
_space_group.IT_coordinate_system_code '2'
_symmetry_cell_setting 'orthorhombic'
loop_
_space_group_symop_operation_xyz
x,y,z
1/2-x,1/2-y,z
1/2+x,-y,-z
-x,1/2+y,-z
-x,-y,-z
1/2+x,1/2+y,-z
1/2-x,y,z
x,1/2-y,z
loop_
_atom_site_type_symbol
_atom_site_label
_atom_site_fract_x
_atom_site_fract_y
_atom_site_fract_z
Si Si1 0.438084 0.750000 0.223253
Si Si2 0.432351 0.566358 0.638443
Si Si3 0.935315 0.884509 0.465285
Si Si4 0.059121 0.250000 0.575926
Si Si5 0.059017 0.178892 0.253790
Si Si6 0.557443 0.680143 0.951440
Si Si7 0.932709 0.056254 0.707986
Si Si8 0.939112 0.873828 0.132402
O O1 0.250000 0.750000 0.207901
O O2 0.474092 0.750000 0.328636
O O3 0.515179 0.689833 0.180396
O O4 0.250000 0.550224 0.652414
O O5 0.468011 0.573894 0.533519
O O6 0.475098 0.631056 0.682486
O O7 0.537378 0.513916 0.683285
O O8 0.750000 0.891161 0.486331
O O9 0.979148 0.813068 0.473796
O O10 0.966948 0.904836 0.363779
O O11 0.250000 0.250000 0.591088
O O12 0.250000 0.172435 0.262055
O O13 0.021846 0.250000 0.272135
O O14 0.013443 0.165725 0.150399
O O15 0.750000 0.681189 0.953355
O O16 0.505298 0.750000 0.971311
O O17 0.505778 0.634729 0.029851
O O18 0.750000 0.072768 0.695779
O O19 0.984127 0.073478 0.807920
O O20 0.750000 0.881117 0.133683
#
# Coordination Sequence:
#
# PCOD9452732 Si02
#       8
#     4   8   8   4   8   8   8   8
#     4  12  22  32  52  85 126 163 198 243 294 346
#     4  12  26  43  62  86 118 158 203 247 298 352
#     4  11  23  41  64  90 120 158 201 243 295 352
#     4  10  22  38  60  87 120 157 196 241 294 354
#     4   9  19  39  66  92 119 152 197 249 301 353
#     4   8  15  31  59  91 119 154 196 240 295 357
#     4  12  25  42  61  87 121 159 202 246 296 355
#     4  11  20  35  60  89 123 160 200 242 297 357
#
# _framework density 20.283915
#
# number of rings (size 3 to 8) (size 9 to 14) (size 15 to 20)
#    0.000    1.429    2.143    5.357    1.000    0.857 
#    0.000    2.143    0.000    0.000    0.000    0.000 
#    0.000    0.000    0.000    0.000    0.000    0.000 
#
# Total GULP energy -313038.147321 kJ/mol
# GULP energy per Si atom -5589.966916 kJ/mol
# Density = 2.023775 g / cm^3
# Si number density = 20.283915 Si / 1000 Ang^3
#
#
#
# Elastic Constant Matrix: (Units=GPa)
#
#
# Indices 1 2 3 4 5 6 
#
# 1 23.2673 1.8730 -5.6896 0.0000 0.0000 0.0000
# 2 1.8730 53.5735 8.3219 0.0000 0.0000 0.0000
# 3 -5.6896 8.3219 57.8298 0.0000 0.0000 0.0000
# 4 0.0000 0.0000 0.0000 21.7486 0.0000 0.0000
# 5 0.0000 0.0000 0.0000 0.0000 18.9452 0.0000
# 6 0.0000 0.0000 0.0000 0.0000 0.0000 18.1903
#
#
#
# Elastic Compliance Matrix: (Units=1/GPa)
#
#
# Indices 1 2 3 4 5 6 
#
# 1 0.044308 -0.002277 0.004687 0.000000 0.000000 0.000000
# 2 -0.002277 0.019210 -0.002988 0.000000 0.000000 0.000000
# 3 0.004687 -0.002988 0.018183 0.000000 0.000000 0.000000
# 4 0.000000 0.000000 0.000000 0.045980 0.000000 0.000000
# 5 0.000000 0.000000 0.000000 0.000000 0.052784 0.000000
# 6 0.000000 0.000000 0.000000 0.000000 0.000000 0.054974
#
#
# Mechanical properties :
#
#
# Convention : Reuss Voigt Hill
#
# Bulk Modulus (GPa) = 12.41558 15.96459 14.19008
# Shear Modulus (GPa) = 18.97933 20.45450 19.71691
#
# Velocity S-wave (km/s) = 3.06221 3.17899 3.12115
# Velocity P-wave (km/s) = 4.31707 4.62194 4.47210
#
# Compressibility (1/GPa) = 0.08054397
#
# Stress axis : x y z
#
# Youngs Moduli (GPa) = 22.56925 52.05685 54.99555
#
# Poissons Ratio (x) = 0.11854 -0.25776
# Poissons Ratio (y) = 0.05139 0.16435
# Poissons Ratio (z) = -0.10578 0.15557
#
# Static dielectric constant tensor:
#      x y z
#    x 1.695550 0.000000 0.000000 
#    y 0.000000 1.709310 0.000000 
#    z 0.000000 0.000000 1.718640 
# 
# From -- ./inp_files/21206.got.cif
#   From: 2010.05.17/outbox.cif.g08.bks.cpg/sg59_11_cif.got.tgz:21206.got - 2010.06.03 14:40:33.
