data_PCOD9452354
_publ_section_title
;
Structure prediction by ZEFSAII (Michael W. Deem and Ramdas Pophale) SiO2 
 PCOD9452354
Probable space group: P M M N
;
_chemical_formula_sum "Si O2"
_cell_formula_units_Z 34
_cell_length_a 21.203624
_cell_length_b 7.977825
_cell_length_c 10.257757
_cell_angle_alpha 90.000000
_cell_angle_beta 90.000000
_cell_angle_gamma 90.000000
_cell_volume 1735.189882
_symmetry_space_group_name_H-M "P M M N"
_symmetry_group_IT_number 59
_space_group.IT_coordinate_system_code '2'
_symmetry_cell_setting 'orthorhombic'
loop_
_space_group_symop_operation_xyz
x,y,z
1/2-x,1/2-y,z
1/2+x,-y,-z
-x,1/2+y,-z
-x,-y,-z
1/2+x,1/2+y,-z
1/2-x,y,z
x,1/2-y,z
loop_
_atom_site_type_symbol
_atom_site_label
_atom_site_fract_x
_atom_site_fract_y
_atom_site_fract_z
Si Si1 0.180550 0.949531 0.509350
Si Si2 0.525070 0.557148 0.860830
Si Si3 0.453262 0.444979 0.616465
Si Si4 0.661669 0.443388 0.799943
Si Si5 0.750000 0.750000 0.880419
O O1 0.250000 0.012744 0.551031
O O2 0.178563 0.750000 0.532745
O O3 0.175511 0.973225 0.353524
O O4 0.119038 0.026118 0.575566
O O5 0.543574 0.750000 0.867627
O O6 0.472981 0.537200 0.748293
O O7 0.587022 0.455516 0.820947
O O8 0.500000 0.500000 0.000000
O O9 0.500000 0.500000 0.500000
O O10 0.463831 0.250000 0.638953
O O11 0.680548 0.250000 0.830948
O O12 0.695925 0.597212 0.872652
#
# Coordination Sequence:
#
# PCOD9452354 Si02
#       5
#     8   8   8   8   2
#     4  10  21  37  60  91 131 168 210 270 334 389
#     4  12  25  44  67  94 130 175 223 276 336 395
#     4  12  24  38  63  96 129 166 216 272 326 391
#     4  11  22  38  62  97 132 168 218 274 325 392
#     4  12  22  36  64  98 130 176 216 264 338 390
#
# _framework density 19.594397000000001
#
# number of rings (size 3 to 8) (size 9 to 14) (size 15 to 20)
#    0.000    0.706    4.706    4.588    1.647    0.471 
#    0.000    0.000    2.588    0.000    0.000    0.000 
#    0.000    0.000    0.000    0.000    0.000    0.000 
#
# Total GULP energy -189407.867391 kJ/mol
# GULP energy per Si atom -5570.819629 kJ/mol
# Density = 1.954980 g / cm^3
# Si number density = 19.594397 Si / 1000 Ang^3
#
#
#
# Elastic Constant Matrix: (Units=GPa)
#
#
# Indices 1 2 3 4 5 6 
#
# 1 156.9985 24.1332 38.2551 0.0000 0.0000 0.0000
# 2 24.1332 111.5739 9.7359 0.0000 0.0000 0.0000
# 3 38.2551 9.7359 75.9988 0.0000 0.0000 0.0000
# 4 0.0000 0.0000 0.0000 21.4714 0.0000 0.0000
# 5 0.0000 0.0000 0.0000 0.0000 14.7965 0.0000
# 6 0.0000 0.0000 0.0000 0.0000 0.0000 -108.4993
#
#
#
# Elastic Compliance Matrix: (Units=1/GPa)
#
#
# Indices 1 2 3 4 5 6 
#
# 1 0.007441 -0.001297 -0.003579 0.000000 0.000000 0.000000
# 2 -0.001297 0.009290 -0.000537 0.000000 0.000000 0.000000
# 3 -0.003579 -0.000537 0.015029 0.000000 0.000000 0.000000
# 4 0.000000 0.000000 0.000000 0.046574 0.000000 0.000000
# 5 0.000000 0.000000 0.000000 0.000000 0.067583 0.000000
# 6 0.000000 0.000000 0.000000 0.000000 0.000000 -0.009217
#
#
# Mechanical properties :
#
#
# Convention : Reuss Voigt Hill
#
# Bulk Modulus (GPa) = 47.77288 54.31331 51.04310
# Shear Modulus (GPa) = 32.36142 3.71686 18.03914
#
# Velocity S-wave (km/s) = 4.06835 1.37877 3.03748
# Velocity P-wave (km/s) = 6.81927 5.50578 6.19742
#
# Compressibility (1/GPa) = 0.02093238
#
# Stress axis : x y z
#
# Youngs Moduli (GPa) = 134.38959 107.64131 66.53958
#
# Poissons Ratio (x) = 0.13963 0.23817
# Poissons Ratio (y) = 0.17432 0.03574
# Poissons Ratio (z) = 0.48103 0.05782
#
# Static dielectric constant tensor:
#      x y z
#    x 1.799060 0.000000 0.000000 
#    y 0.000000 1.694330 0.000000 
#    z 0.000000 0.000000 1.632860 
# 
# From -- ./inp_files/5431.got.cif
#   From: 2010.05.17/outbox.cif.g08.bks.cpg/sg59_3_cif.got.tgz:5431.got - 2010.06.03 14:40:33.
