data_PCOD9452897
_publ_section_title
;
Structure prediction by ZEFSAII (Michael W. Deem and Ramdas Pophale) SiO2 
 PCOD9452897
Probable space group: P M M N
;
_chemical_formula_sum "Si O2"
_cell_formula_units_Z 56
_cell_length_a 14.875526
_cell_length_b 21.761068
_cell_length_c 9.220487
_cell_angle_alpha 90.000000
_cell_angle_beta 90.000000
_cell_angle_gamma 90.000000
_cell_volume 2984.739254
_symmetry_space_group_name_H-M "P M M N"
_symmetry_group_IT_number 59
_space_group.IT_coordinate_system_code '2'
_symmetry_cell_setting 'orthorhombic'
loop_
_space_group_symop_operation_xyz
x,y,z
1/2-x,1/2-y,z
1/2+x,-y,-z
-x,1/2+y,-z
-x,-y,-z
1/2+x,1/2+y,-z
1/2-x,y,z
x,1/2-y,z
loop_
_atom_site_type_symbol
_atom_site_label
_atom_site_fract_x
_atom_site_fract_y
_atom_site_fract_z
Si Si1 0.000739 0.931174 0.939005
Si Si2 0.585832 0.538277 0.445406
Si Si3 0.643576 0.615093 0.724310
Si Si4 0.355069 0.821441 0.439935
Si Si5 0.642090 0.750000 0.136870
Si Si6 0.014677 0.140622 0.771472
Si Si7 0.357734 0.250000 0.211174
Si Si8 0.849994 0.418735 0.307123
O O1 0.907946 0.917060 0.856209
O O2 0.077920 0.921960 0.820014
O O3 0.012644 0.884873 0.071876
O O4 0.000000 0.000000 0.000000
O O5 0.500000 0.500000 0.500000
O O6 0.623529 0.578175 0.577851
O O7 0.555619 0.584412 0.319894
O O8 0.649528 0.485155 0.384558
O O9 0.750000 0.615709 0.750754
O O10 0.609717 0.685977 0.720236
O O11 0.250000 0.832184 0.396444
O O12 0.362466 0.750000 0.483154
O O13 0.427883 0.834615 0.315098
O O14 0.374237 0.867458 0.573039
O O15 0.750000 0.750000 0.160300
O O16 0.591696 0.808499 0.205115
O O17 0.626123 0.750000 0.962269
O O18 0.250000 0.250000 0.230794
O O19 0.750000 0.404819 0.252673
#
# Coordination Sequence:
#
# PCOD9452897 Si02
#       8
#     8   8   8   8   4   8   4   8
#     4  12  24  42  62  92 132 165 210 259 313 385
#     4  12  22  42  64  94 128 164 212 263 315 383
#     4  11  23  41  66  92 123 168 211 258 315 377
#     4  10  22  43  68  95 126 166 216 268 321 374
#     4  11  24  41  62  96 135 171 211 258 322 390
#     4  12  23  41  68  94 131 171 207 262 326 375
#     4   9  20  41  63  90 125 163 210 254 307 378
#     4  11  24  44  67  92 126 168 213 268 321 376
#
# _framework density 18.762108000000001
#
# number of rings (size 3 to 8) (size 9 to 14) (size 15 to 20)
#    0.000    0.857    6.429    0.429    0.000    2.857 
#    5.143    0.714    0.000    0.000    0.000    0.000 
#    0.000    0.000    0.000    0.000    0.000    0.000 
#
# Total GULP energy -312873.627423 kJ/mol
# GULP energy per Si atom -5587.029061 kJ/mol
# Density = 1.871941 g / cm^3
# Si number density = 18.762108 Si / 1000 Ang^3
#
#
#
# Elastic Constant Matrix: (Units=GPa)
#
#
# Indices 1 2 3 4 5 6 
#
# 1 122.5571 64.5516 69.9031 0.0000 0.0000 0.0000
# 2 64.5516 152.4525 80.4381 0.0000 0.0000 0.0000
# 3 69.9031 80.4381 120.6689 0.0000 0.0000 0.0000
# 4 0.0000 0.0000 0.0000 29.2164 0.0000 0.0000
# 5 0.0000 0.0000 0.0000 0.0000 25.5535 0.0000
# 6 0.0000 0.0000 0.0000 0.0000 0.0000 26.9343
#
#
#
# Elastic Compliance Matrix: (Units=1/GPa)
#
#
# Indices 1 2 3 4 5 6 
#
# 1 0.012690 -0.002305 -0.005815 0.000000 0.000000 0.000000
# 2 -0.002305 0.010537 -0.005688 0.000000 0.000000 0.000000
# 3 -0.005815 -0.005688 0.015448 0.000000 0.000000 0.000000
# 4 0.000000 0.000000 0.000000 0.034227 0.000000 0.000000
# 5 0.000000 0.000000 0.000000 0.000000 0.039134 0.000000
# 6 0.000000 0.000000 0.000000 0.000000 0.000000 0.037127
#
#
# Mechanical properties :
#
#
# Convention : Reuss Voigt Hill
#
# Bulk Modulus (GPa) = 90.43452 91.71823 91.07638
# Shear Modulus (GPa) = 27.70609 28.39322 28.04966
#
# Velocity S-wave (km/s) = 3.84696 3.89437 3.87074
# Velocity P-wave (km/s) = 8.24848 8.31940 8.28402
#
# Compressibility (1/GPa) = 0.01105772
#
# Stress axis : x y z
#
# Youngs Moduli (GPa) = 78.80087 94.90421 64.73539
#
# Poissons Ratio (x) = 0.21879 0.37641
# Poissons Ratio (y) = 0.18166 0.36825
# Poissons Ratio (z) = 0.45820 0.53986
#
# Static dielectric constant tensor:
#      x y z
#    x 1.659510 0.000000 0.000000 
#    y 0.000000 1.662670 0.000000 
#    z 0.000000 0.000000 1.623190 
# 
# From -- ./inp_files/9405.got.cif
#   From: 2010.05.17/outbox.cif.g08.bks.cpg/sg59_5_cif.got.tgz:9405.got - 2010.06.03 14:40:33.
