data_PCOD9452410
_publ_section_title
;
Structure prediction by ZEFSAII (Michael W. Deem and Ramdas Pophale) SiO2 
 PCOD9452410
Probable space group: P M M N
;
_chemical_formula_sum "Si O2"
_cell_formula_units_Z 56
_cell_length_a 8.967867
_cell_length_b 13.430616
_cell_length_c 21.275003
_cell_angle_alpha 90.000000
_cell_angle_beta 90.000000
_cell_angle_gamma 90.000000
_cell_volume 2562.445994
_symmetry_space_group_name_H-M "P M M N"
_symmetry_group_IT_number 59
_space_group.IT_coordinate_system_code '2'
_symmetry_cell_setting 'orthorhombic'
loop_
_space_group_symop_operation_xyz
x,y,z
1/2-x,1/2-y,z
1/2+x,-y,-z
-x,1/2+y,-z
-x,-y,-z
1/2+x,1/2+y,-z
1/2-x,y,z
x,1/2-y,z
loop_
_atom_site_type_symbol
_atom_site_label
_atom_site_fract_x
_atom_site_fract_y
_atom_site_fract_z
Si Si1 0.425882 0.867060 0.232305
Si Si2 0.573381 0.054279 0.280235
Si Si3 0.927895 0.141084 0.534961
Si Si4 0.427640 0.070974 0.408216
Si Si5 0.420901 0.871639 0.974295
Si Si6 0.081335 0.370802 0.897921
Si Si7 0.079668 0.369629 0.154039
O O1 0.250000 0.884183 0.241710
O O2 0.455539 0.750000 0.242143
O O3 0.473879 0.892729 0.160693
O O4 0.520757 0.939321 0.276018
O O5 0.750000 0.062907 0.278713
O O6 0.500938 0.102174 0.218382
O O7 0.506855 0.100024 0.343767
O O8 0.750000 0.135854 0.523099
O O9 0.960629 0.250000 0.562758
O O10 0.964205 0.045303 0.576957
O O11 0.012328 0.128747 0.468949
O O12 0.250000 0.081561 0.402442
O O13 0.250000 0.903639 0.981953
O O14 0.419916 0.750000 0.974035
O O15 0.489295 0.902725 0.907571
O O16 0.519654 0.901184 0.034175
O O17 0.250000 0.406445 0.885802
O O18 0.087547 0.250000 0.899931
O O19 0.250000 0.406653 0.152872
O O20 0.085526 0.250000 0.150832
#
# Coordination Sequence:
#
# PCOD9452410 Si02
#       7
#     8   8   8   8   8   8   8
#     4  10  21  38  59  82 111 149 193 241 293 348
#     4  12  25  40  59  84 118 157 195 237 285 339
#     4   9  19  38  64  92 121 153 189 230 277 328
#     4  10  21  38  60  88 121 155 192 233 278 329
#     4   9  16  28  49  77 108 143 185 234 291 351
#     4   9  16  28  49  77 108 143 186 236 290 347
#     4  10  21  38  59  82 110 147 193 243 294 349
#
# _framework density 21.854120000000002
#
# number of rings (size 3 to 8) (size 9 to 14) (size 15 to 20)
#    0.000    2.143    0.000    3.429    0.000    7.143 
#    0.000    2.143    0.000    0.000    0.000    0.000 
#    0.000    0.000    0.000    0.000    0.000    0.000 
#
# Total GULP energy -313303.182085 kJ/mol
# GULP energy per Si atom -5594.699680 kJ/mol
# Density = 2.180438 g / cm^3
# Si number density = 21.854120 Si / 1000 Ang^3
#
#
#
# Elastic Constant Matrix: (Units=GPa)
#
#
# Indices 1 2 3 4 5 6 
#
# 1 108.1219 -0.4160 37.8961 0.0000 0.0000 0.0000
# 2 -0.4160 52.3869 -13.9904 0.0000 0.0000 0.0000
# 3 37.8961 -13.9904 93.8757 0.0000 0.0000 0.0000
# 4 0.0000 0.0000 0.0000 9.6715 0.0000 0.0000
# 5 0.0000 0.0000 0.0000 0.0000 35.1899 0.0000
# 6 0.0000 0.0000 0.0000 0.0000 0.0000 27.4542
#
#
#
# Elastic Compliance Matrix: (Units=1/GPa)
#
#
# Indices 1 2 3 4 5 6 
#
# 1 0.010837 -0.001127 -0.004543 0.000000 0.000000 0.000000
# 2 -0.001127 0.019997 0.003435 0.000000 0.000000 0.000000
# 3 -0.004543 0.003435 0.012998 0.000000 0.000000 0.000000
# 4 0.000000 0.000000 0.000000 0.103396 0.000000 0.000000
# 5 0.000000 0.000000 0.000000 0.000000 0.028417 0.000000
# 6 0.000000 0.000000 0.000000 0.000000 0.000000 0.036424
#
#
# Mechanical properties :
#
#
# Convention : Reuss Voigt Hill
#
# Bulk Modulus (GPa) = 25.40456 33.48489 29.44472
# Shear Modulus (GPa) = 21.77135 29.85611 25.81373
#
# Velocity S-wave (km/s) = 3.15971 3.70016 3.44056
# Velocity P-wave (km/s) = 4.99615 5.79743 5.41164
#
# Compressibility (1/GPa) = 0.03936302
#
# Stress axis : x y z
#
# Youngs Moduli (GPa) = 92.27980 50.00706 76.93447
#
# Poissons Ratio (x) = 0.05636 0.34948
# Poissons Ratio (y) = 0.10401 -0.26428
# Poissons Ratio (z) = 0.41918 -0.17178
#
# Static dielectric constant tensor:
#      x y z
#    x 1.667920 0.000000 0.000000 
#    y 0.000000 1.894500 0.000000 
#    z 0.000000 0.000000 1.744800 
# 
# From -- ./inp_files/29137.got.cif
#   From: 2010.05.17/outbox.cif.g08.bks.cpg/sg59_15_cif.got.tgz:29137.got - 2010.06.03 14:40:33.
