data_PCOD9452782
_publ_section_title
;
Structure prediction by ZEFSAII (Michael W. Deem and Ramdas Pophale) SiO2 
 PCOD9452782
Probable space group: P M M N
;
_chemical_formula_sum "Si O2"
_cell_formula_units_Z 32
_cell_length_a 28.899428
_cell_length_b 9.333215
_cell_length_c 5.284879
_cell_angle_alpha 90.000000
_cell_angle_beta 90.000000
_cell_angle_gamma 90.000000
_cell_volume 1425.461742
_symmetry_space_group_name_H-M "P M M N"
_symmetry_group_IT_number 59
_space_group.IT_coordinate_system_code '2'
_symmetry_cell_setting 'orthorhombic'
loop_
_space_group_symop_operation_xyz
x,y,z
1/2-x,1/2-y,z
1/2+x,-y,-z
-x,1/2+y,-z
-x,-y,-z
1/2+x,1/2+y,-z
1/2-x,y,z
x,1/2-y,z
loop_
_atom_site_type_symbol
_atom_site_label
_atom_site_fract_x
_atom_site_fract_y
_atom_site_fract_z
Si Si1 0.978625 0.076202 0.751787
Si Si2 0.842653 0.403139 0.261477
Si Si3 0.605149 0.593461 0.590641
Si Si4 0.198652 0.495869 0.241733
O O1 0.983381 0.250000 0.755248
O O2 0.925340 0.025630 0.729026
O O3 0.000000 0.000000 0.500000
O O4 0.000000 0.000000 0.000000
O O5 0.866970 0.250000 0.251028
O O6 0.879793 0.528247 0.318765
O O7 0.811438 0.423572 0.017488
O O8 0.809592 0.410072 0.507542
O O9 0.583002 0.750000 0.574887
O O10 0.654278 0.605316 0.730842
O O11 0.250000 0.434061 0.242939
#
# Coordination Sequence:
#
# PCOD9452782 Si02
#       4
#     8   8   8   8
#     4  12  27  49  78 109 144 184 234 292 358 428
#     4  10  22  39  63  93 129 172 225 281 339 397
#     4  10  25  46  69  99 141 182 229 284 344 410
#     4  10  23  40  64  95 134 178 229 280 341 405
#
# _framework density 22.448868000000001
#
# number of rings (size 3 to 8) (size 9 to 14) (size 15 to 20)
#    1.500    0.000    0.000    4.500    3.500    4.500 
#    0.000    0.000    0.000    0.000    0.000    0.000 
#    0.000    0.000    0.000    0.000    0.000    0.000 
#
# Total GULP energy -178182.076551 kJ/mol
# GULP energy per Si atom -5568.189892 kJ/mol
# Density = 2.239777 g / cm^3
# Si number density = 22.448868 Si / 1000 Ang^3
#
#
#
# Elastic Constant Matrix: (Units=GPa)
#
#
# Indices 1 2 3 4 5 6 
#
# 1 89.2442 46.1422 9.1283 0.0000 0.0000 0.0000
# 2 46.1422 186.8230 53.7345 0.0000 0.0000 0.0000
# 3 9.1283 53.7345 159.3910 0.0000 0.0000 0.0000
# 4 0.0000 0.0000 0.0000 9.0026 0.0000 0.0000
# 5 0.0000 0.0000 0.0000 0.0000 14.6223 0.0000
# 6 0.0000 0.0000 0.0000 0.0000 0.0000 11.4213
#
#
#
# Elastic Compliance Matrix: (Units=1/GPa)
#
#
# Indices 1 2 3 4 5 6 
#
# 1 0.012865 -0.003284 0.000370 0.000000 0.000000 0.000000
# 2 -0.003284 0.006766 -0.002093 0.000000 0.000000 0.000000
# 3 0.000370 -0.002093 0.006958 0.000000 0.000000 0.000000
# 4 0.000000 0.000000 0.000000 0.111079 0.000000 0.000000
# 5 0.000000 0.000000 0.000000 0.000000 0.068389 0.000000
# 6 0.000000 0.000000 0.000000 0.000000 0.000000 0.087556
#
#
# Mechanical properties :
#
#
# Convention : Reuss Voigt Hill
#
# Bulk Modulus (GPa) = 60.32751 72.60757 66.46754
# Shear Modulus (GPa) = 16.17333 28.77280 22.47306
#
# Velocity S-wave (km/s) = 2.68704 3.58397 3.16741
# Velocity P-wave (km/s) = 6.04636 7.03848 6.56120
#
# Compressibility (1/GPa) = 0.01657619
#
# Stress axis : x y z
#
# Youngs Moduli (GPa) = 77.72858 147.80435 143.71528
#
# Poissons Ratio (x) = 0.48539 -0.05322
# Poissons Ratio (y) = 0.25526 0.30077
# Poissons Ratio (z) = -0.02879 0.30933
#
# Static dielectric constant tensor:
#      x y z
#    x 1.901130 0.000000 0.000000 
#    y 0.000000 1.850660 0.000000 
#    z 0.000000 0.000000 1.862130 
# 
# From -- ./inp_files/559.got.cif
#   From: 2010.05.17/outbox.cif.g08.bks.cpg/sg59_1_cif.got.tgz:559.got - 2010.06.03 14:40:33.
