data_PCOD9452010
_publ_section_title
;
Structure prediction by ZEFSAII (Michael W. Deem and Ramdas Pophale) SiO2 
 PCOD9452010
Probable space group: P M M N
;
_chemical_formula_sum "Si O2"
_cell_formula_units_Z 48
_cell_length_a 7.704253
_cell_length_b 17.570783
_cell_length_c 17.318069
_cell_angle_alpha 90.000000
_cell_angle_beta 90.000000
_cell_angle_gamma 90.000000
_cell_volume 2344.342803
_symmetry_space_group_name_H-M "P M M N"
_symmetry_group_IT_number 59
_space_group.IT_coordinate_system_code '2'
_symmetry_cell_setting 'orthorhombic'
loop_
_space_group_symop_operation_xyz
x,y,z
1/2-x,1/2-y,z
1/2+x,-y,-z
-x,1/2+y,-z
-x,-y,-z
1/2+x,1/2+y,-z
1/2-x,y,z
x,1/2-y,z
loop_
_atom_site_type_symbol
_atom_site_label
_atom_site_fract_x
_atom_site_fract_y
_atom_site_fract_z
Si Si1 0.036990 0.250000 0.838549
Si Si2 0.037241 0.250000 0.660375
Si Si3 0.043142 0.431733 0.101595
Si Si4 0.958237 0.066320 0.394947
Si Si5 0.041888 0.100935 0.929412
Si Si6 0.543170 0.164069 0.251671
Si Si7 0.959224 0.602110 0.432721
O O1 0.250000 0.250000 0.838882
O O2 0.983163 0.250000 0.749458
O O3 0.978145 0.174146 0.883056
O O4 0.250000 0.250000 0.659515
O O5 0.978951 0.174289 0.615709
O O6 0.250000 0.426840 0.098774
O O7 0.995583 0.520369 0.110978
O O8 0.982766 0.379728 0.171538
O O9 0.974323 0.405622 0.017424
O O10 0.750000 0.061032 0.386694
O O11 0.027398 0.114085 0.322779
O O12 0.995100 0.105699 0.476946
O O13 0.024617 0.979482 0.401391
O O14 0.250000 0.108171 0.934054
O O15 0.750000 0.169818 0.263672
O O16 0.472682 0.250000 0.249421
O O17 0.750000 0.601046 0.427474
#
# Coordination Sequence:
#
# PCOD9452010 Si02
#       7
#     4   4   8   8   8   8   8
#     4   9  18  32  57  84 105 140 184 223 261 315
#     4   9  18  30  51  82 105 128 170 217 263 313
#     4  10  21  36  56  82 112 144 180 225 277 323
#     4   9  19  35  55  76 102 139 179 217 261 319
#     4   9  19  36  59  82 108 144 185 223 266 324
#     4  10  22  37  55  80 108 143 186 226 269 322
#     4   9  18  33  53  78 105 133 169 217 268 317
#
# _framework density 20.474819
#
# number of rings (size 3 to 8) (size 9 to 14) (size 15 to 20)
#    0.000    2.667    0.000    0.500    4.667    1.667 
#    0.000    0.417    0.000    1.000    0.000    0.000 
#    0.000    0.000    0.000    0.000    0.000    0.000 
#
# Total GULP energy -267948.184657 kJ/mol
# GULP energy per Si atom -5582.253847 kJ/mol
# Density = 2.042822 g / cm^3
# Si number density = 20.474819 Si / 1000 Ang^3
#
#
#
# Elastic Constant Matrix: (Units=GPa)
#
#
# Indices 1 2 3 4 5 6 
#
# 1 29.8116 5.5800 0.5818 0.0000 0.0000 0.0000
# 2 5.5800 165.8207 125.6742 0.0000 0.0000 0.0000
# 3 0.5818 125.6742 145.1555 0.0000 0.0000 0.0000
# 4 0.0000 0.0000 0.0000 31.9677 0.0000 0.0000
# 5 0.0000 0.0000 0.0000 0.0000 16.6429 0.0000
# 6 0.0000 0.0000 0.0000 0.0000 0.0000 12.3259
#
#
#
# Elastic Compliance Matrix: (Units=1/GPa)
#
#
# Indices 1 2 3 4 5 6 
#
# 1 0.034063 -0.003033 0.002489 0.000000 0.000000 0.000000
# 2 -0.003033 0.017810 -0.015407 0.000000 0.000000 0.000000
# 3 0.002489 -0.015407 0.020219 0.000000 0.000000 0.000000
# 4 0.000000 0.000000 0.000000 0.031282 0.000000 0.000000
# 5 0.000000 0.000000 0.000000 0.000000 0.060086 0.000000
# 6 0.000000 0.000000 0.000000 0.000000 0.000000 0.081130
#
#
# Mechanical properties :
#
#
# Convention : Reuss Voigt Hill
#
# Bulk Modulus (GPa) = 24.88202 67.16222 46.02212
# Shear Modulus (GPa) = 17.24806 26.11741 21.68273
#
# Velocity S-wave (km/s) = 2.90557 3.57541 3.25775
# Velocity P-wave (km/s) = 4.84100 7.06529 6.05614
#
# Compressibility (1/GPa) = 0.04018967
#
# Stress axis : x y z
#
# Youngs Moduli (GPa) = 29.35732 56.14881 49.45902
#
# Poissons Ratio (x) = 0.17029 -0.12312
# Poissons Ratio (y) = 0.08904 0.76204
# Poissons Ratio (z) = -0.07308 0.86511
#
# Static dielectric constant tensor:
#      x y z
#    x 1.748720 0.000000 0.000000 
#    y 0.000000 1.718480 0.000000 
#    z 0.000000 0.000000 1.699870 
# 
# From -- ./inp_files/20511.got.cif
#   From: 2010.05.17/outbox.cif.g08.bks.cpg/sg59_11_cif.got.tgz:20511.got - 2010.06.03 14:40:33.
