data_PCOD9452546
_publ_section_title
;
Structure prediction by ZEFSAII (Michael W. Deem and Ramdas Pophale) SiO2 
 PCOD9452546
Probable space group: P M M N
;
_chemical_formula_sum "Si O2"
_cell_formula_units_Z 56
_cell_length_a 9.136727
_cell_length_b 14.901345
_cell_length_c 22.133886
_cell_angle_alpha 90.000000
_cell_angle_beta 90.000000
_cell_angle_gamma 90.000000
_cell_volume 3013.517981
_symmetry_space_group_name_H-M "P M M N"
_symmetry_group_IT_number 59
_space_group.IT_coordinate_system_code '2'
_symmetry_cell_setting 'orthorhombic'
loop_
_space_group_symop_operation_xyz
x,y,z
1/2-x,1/2-y,z
1/2+x,-y,-z
-x,1/2+y,-z
-x,-y,-z
1/2+x,1/2+y,-z
1/2-x,y,z
x,1/2-y,z
loop_
_atom_site_type_symbol
_atom_site_label
_atom_site_fract_x
_atom_site_fract_y
_atom_site_fract_z
Si Si1 0.077900 0.647076 0.806050
Si Si2 0.418472 0.107936 0.939018
Si Si3 0.418485 0.890866 0.940753
Si Si4 0.424920 0.855726 0.493590
Si Si5 0.424532 0.495711 0.594416
Si Si6 0.075455 0.498859 0.275720
Si Si7 0.077905 0.353413 0.804041
O O1 0.250000 0.618502 0.805595
O O2 0.071814 0.750000 0.786609
O O3 0.025629 0.640457 0.875619
O O4 0.984186 0.584556 0.763145
O O5 0.250000 0.136404 0.942796
O O6 0.474421 0.137975 0.873576
O O7 0.423712 0.999404 0.939067
O O8 0.499991 0.139312 0.999003
O O9 0.250000 0.862670 0.944997
O O10 0.250000 0.860688 0.481288
O O11 0.463618 0.750000 0.498388
O O12 0.451082 0.914607 0.554155
O O13 0.511913 0.910308 0.442203
O O14 0.250000 0.486335 0.602241
O O15 0.504220 0.503097 0.658224
O O16 0.250000 0.498949 0.279317
O O17 0.015750 0.585110 0.239649
O O18 0.250000 0.381879 0.803229
O O19 0.071437 0.250000 0.785901
#
# Coordination Sequence:
#
# PCOD9452546 Si02
#       7
#     8   8   8   8   8   8   8
#     4  10  21  39  61  82 109 150 197 242 291 350
#     4   9  17  31  52  78 108 140 181 234 293 353
#     4   9  17  31  52  78 108 141 182 232 291 354
#     4   9  19  38  64  94 125 154 189 234 279 325
#     4  10  21  38  62  90 121 159 198 231 277 335
#     4  12  25  40  59  84 120 157 194 243 292 338
#     4  10  21  39  61  82 108 148 197 244 293 352
#
# _framework density 18.582930999999999
#
# number of rings (size 3 to 8) (size 9 to 14) (size 15 to 20)
#    0.000    2.143    1.429    1.714    0.000    4.286 
#    0.000    1.429    0.000    0.000    0.000    0.000 
#    0.000    0.000    0.000    0.000    0.000    0.000 
#
# Total GULP energy -312619.302738 kJ/mol
# GULP energy per Si atom -5582.487549 kJ/mol
# Density = 1.854064 g / cm^3
# Si number density = 18.582931 Si / 1000 Ang^3
#
#
#
# Elastic Constant Matrix: (Units=GPa)
#
#
# Indices 1 2 3 4 5 6 
#
# 1 93.6010 55.5616 92.5792 0.0000 0.0000 0.0000
# 2 55.5616 123.5087 65.5247 0.0000 0.0000 0.0000
# 3 92.5792 65.5247 169.4992 0.0000 0.0000 0.0000
# 4 0.0000 0.0000 0.0000 134.2349 0.0000 0.0000
# 5 0.0000 0.0000 0.0000 0.0000 34.2734 0.0000
# 6 0.0000 0.0000 0.0000 0.0000 0.0000 14.0823
#
#
#
# Elastic Compliance Matrix: (Units=1/GPa)
#
#
# Indices 1 2 3 4 5 6 
#
# 1 0.025606 -0.005157 -0.011992 0.000000 0.000000 0.000000
# 2 -0.005157 0.011224 -0.001522 0.000000 0.000000 0.000000
# 3 -0.011992 -0.001522 0.013038 0.000000 0.000000 0.000000
# 4 0.000000 0.000000 0.000000 0.007450 0.000000 0.000000
# 5 0.000000 0.000000 0.000000 0.000000 0.029177 0.000000
# 6 0.000000 0.000000 0.000000 0.000000 0.000000 0.071011
#
#
# Mechanical properties :
#
#
# Convention : Reuss Voigt Hill
#
# Bulk Modulus (GPa) = 79.83728 90.43775 85.13752
# Shear Modulus (GPa) = 25.12244 48.04769 36.58506
#
# Velocity S-wave (km/s) = 3.68082 5.09038 4.44187
# Velocity P-wave (km/s) = 7.81796 9.12809 8.49831
#
# Compressibility (1/GPa) = 0.01252548
#
# Stress axis : x y z
#
# Youngs Moduli (GPa) = 39.05291 89.09375 76.69664
#
# Poissons Ratio (x) = 0.45945 0.91978
# Poissons Ratio (y) = 0.20139 0.11676
# Poissons Ratio (z) = 0.46834 0.13563
#
# Static dielectric constant tensor:
#      x y z
#    x 1.626420 0.000000 0.000000 
#    y 0.000000 1.656430 0.000000 
#    z 0.000000 0.000000 1.623530 
# 
# From -- ./inp_files/29077.got.cif
#   From: 2010.05.17/outbox.cif.g08.bks.cpg/sg59_15_cif.got.tgz:29077.got - 2010.06.03 14:40:33.
