data_PCOD9452466
_publ_section_title
;
Structure prediction by ZEFSAII (Michael W. Deem and Ramdas Pophale) SiO2 
 PCOD9452466
Probable space group: P M M N
;
_chemical_formula_sum "Si O2"
_cell_formula_units_Z 56
_cell_length_a 13.550007
_cell_length_b 9.244095
_cell_length_c 21.412839
_cell_angle_alpha 90.000000
_cell_angle_beta 90.000000
_cell_angle_gamma 90.000000
_cell_volume 2682.119794
_symmetry_space_group_name_H-M "P M M N"
_symmetry_group_IT_number 59
_space_group.IT_coordinate_system_code '2'
_symmetry_cell_setting 'orthorhombic'
loop_
_space_group_symop_operation_xyz
x,y,z
1/2-x,1/2-y,z
1/2+x,-y,-z
-x,1/2+y,-z
-x,-y,-z
1/2+x,1/2+y,-z
1/2-x,y,z
x,1/2-y,z
loop_
_atom_site_type_symbol
_atom_site_label
_atom_site_fract_x
_atom_site_fract_y
_atom_site_fract_z
Si Si1 0.368623 0.082427 0.167664
Si Si2 0.369920 0.916395 0.905092
Si Si3 0.637331 0.579665 0.455843
Si Si4 0.554794 0.919271 0.592769
Si Si5 0.869723 0.919360 0.971483
Si Si6 0.134220 0.576267 0.763234
Si Si7 0.953405 0.421818 0.713691
O O1 0.250000 0.084104 0.166510
O O2 0.400653 0.250000 0.177381
O O3 0.401824 0.034308 0.098168
O O4 0.402158 0.983119 0.224201
O O5 0.250000 0.920026 0.905698
O O6 0.399588 0.750000 0.910846
O O7 0.394464 0.964941 0.834806
O O8 0.404135 0.999602 0.966487
O O9 0.750000 0.541686 0.439565
O O10 0.620899 0.750000 0.440438
O O11 0.552967 0.482340 0.425056
O O12 0.620546 0.565910 0.530545
O O13 0.548298 0.750000 0.608739
O O14 0.593096 0.009176 0.651659
O O15 0.750000 0.933555 0.971251
O O16 0.891512 0.750000 0.977559
O O17 0.250000 0.546800 0.754276
O O18 0.120557 0.750000 0.756747
O O19 0.064199 0.486267 0.718418
O O20 0.952772 0.250000 0.711724
#
# Coordination Sequence:
#
# PCOD9452466 Si02
#       7
#     8   8   8   8   8   8   8
#     4   9  19  37  58  78 105 145 190 233 280 337
#     4   8  14  26  47  74 101 131 171 224 284 339
#     4   9  19  38  64  92 119 146 180 223 267 312
#     4  10  21  38  60  86 117 153 188 221 265 321
#     4   8  14  26  47  74 101 132 173 223 280 338
#     4   9  19  37  58  78 104 143 190 235 282 340
#     4  12  25  38  55  82 116 151 188 233 280 324
#
# _framework density 20.879007999999999
#
# number of rings (size 3 to 8) (size 9 to 14) (size 15 to 20)
#    0.000    2.714    0.000    3.429    0.000    3.714 
#    0.000    5.000    0.000    0.000    0.000    0.000 
#    0.000    0.000    0.000    0.000    0.000    0.000 
#
# Total GULP energy -312816.209153 kJ/mol
# GULP energy per Si atom -5586.003735 kJ/mol
# Density = 2.083149 g / cm^3
# Si number density = 20.879008 Si / 1000 Ang^3
#
#
#
# Elastic Constant Matrix: (Units=GPa)
#
#
# Indices 1 2 3 4 5 6 
#
# 1 52.7395 1.9205 -7.4312 0.0000 0.0000 0.0000
# 2 1.9205 72.2424 46.8375 0.0000 0.0000 0.0000
# 3 -7.4312 46.8375 95.2077 0.0000 0.0000 0.0000
# 4 0.0000 0.0000 0.0000 36.0449 0.0000 0.0000
# 5 0.0000 0.0000 0.0000 0.0000 15.4050 0.0000
# 6 0.0000 0.0000 0.0000 0.0000 0.0000 21.8117
#
#
#
# Elastic Compliance Matrix: (Units=1/GPa)
#
#
# Indices 1 2 3 4 5 6 
#
# 1 0.019407 -0.002200 0.002597 0.000000 0.000000 0.000000
# 2 -0.002200 0.020574 -0.010293 0.000000 0.000000 0.000000
# 3 0.002597 -0.010293 0.015770 0.000000 0.000000 0.000000
# 4 0.000000 0.000000 0.000000 0.027743 0.000000 0.000000
# 5 0.000000 0.000000 0.000000 0.000000 0.064914 0.000000
# 6 0.000000 0.000000 0.000000 0.000000 0.000000 0.045847
#
#
# Mechanical properties :
#
#
# Convention : Reuss Voigt Hill
#
# Bulk Modulus (GPa) = 27.80918 33.64924 30.72921
# Shear Modulus (GPa) = 22.12062 26.57651 24.34856
#
# Velocity S-wave (km/s) = 3.25848 3.57162 3.41863
# Velocity P-wave (km/s) = 5.24452 5.75846 5.50749
#
# Compressibility (1/GPa) = 0.03595935
#
# Stress axis : x y z
#
# Youngs Moduli (GPa) = 51.52748 48.60456 63.41244
#
# Poissons Ratio (x) = 0.10691 -0.16467
# Poissons Ratio (y) = 0.11334 0.65272
# Poissons Ratio (z) = -0.13381 0.50030
#
# Static dielectric constant tensor:
#      x y z
#    x 1.809550 0.000000 0.000000 
#    y 0.000000 1.687710 0.000000 
#    z 0.000000 0.000000 1.762090 
# 
# From -- ./inp_files/30398.got.cif
#   From: 2010.05.17/outbox.cif.g08.bks.cpg/sg59_16_cif.got.tgz:30398.got - 2010.06.03 14:40:33.
