data_PCOD9452635
_publ_section_title
;
Structure prediction by ZEFSAII (Michael W. Deem and Ramdas Pophale) SiO2 
 PCOD9452635
Probable space group: P M M N
;
_chemical_formula_sum "Si O2"
_cell_formula_units_Z 40
_cell_length_a 8.765594
_cell_length_b 29.570697
_cell_length_c 7.913796
_cell_angle_alpha 90.000000
_cell_angle_beta 90.000000
_cell_angle_gamma 90.000000
_cell_volume 2051.293310
_symmetry_space_group_name_H-M "P M M N"
_symmetry_group_IT_number 59
_space_group.IT_coordinate_system_code '2'
_symmetry_cell_setting 'orthorhombic'
loop_
_space_group_symop_operation_xyz
x,y,z
1/2-x,1/2-y,z
1/2+x,-y,-z
-x,1/2+y,-z
-x,-y,-z
1/2+x,1/2+y,-z
1/2-x,y,z
x,1/2-y,z
loop_
_atom_site_type_symbol
_atom_site_label
_atom_site_fract_x
_atom_site_fract_y
_atom_site_fract_z
Si Si1 0.567153 0.049984 0.511952
Si Si2 0.065633 0.700447 0.287343
Si Si3 0.434382 0.895501 0.150357
Si Si4 0.432479 0.698858 0.689653
Si Si5 0.569547 0.893486 0.797292
O O1 0.750000 0.048598 0.503002
O O2 0.525591 0.073581 0.689556
O O3 0.505674 0.080155 0.358438
O O4 0.500000 0.000000 0.500000
O O5 0.250000 0.701123 0.270238
O O6 0.008777 0.750000 0.231740
O O7 0.012299 0.655767 0.192242
O O8 0.036462 0.695772 0.488163
O O9 0.250000 0.895047 0.134636
O O10 0.506835 0.911081 0.975699
O O11 0.250000 0.692662 0.712986
O O12 0.470282 0.750000 0.744193
O O13 0.519720 0.658863 0.780782
O O14 0.750000 0.897995 0.788584
#
# Coordination Sequence:
#
# PCOD9452635 Si02
#       5
#     8   8   8   8   8
#     4  11  24  45  70  93 119 155 202 257 314 369
#     4   8  14  29  57  89 117 151 200 251 295 345
#     4  10  21  39  64  91 121 159 206 253 298 356
#     4   9  17  34  61  89 120 163 212 255 297 353
#     4  12  25  39  60  92 131 166 200 247 306 369
#
# _framework density 19.499894000000001
#
# number of rings (size 3 to 8) (size 9 to 14) (size 15 to 20)
#    0.000    2.000    2.000    3.600    0.000    3.600 
#    0.000    2.000    0.000    0.000    0.000    0.000 
#    0.000    0.000    0.000    0.000    0.000    0.000 
#
# Total GULP energy -223445.928747 kJ/mol
# GULP energy per Si atom -5586.148219 kJ/mol
# Density = 1.945551 g / cm^3
# Si number density = 19.499894 Si / 1000 Ang^3
#
#
#
# Elastic Constant Matrix: (Units=GPa)
#
#
# Indices 1 2 3 4 5 6 
#
# 1 46.0758 37.3831 48.3789 0.0000 0.0000 0.0000
# 2 37.3831 102.1239 55.2758 0.0000 0.0000 0.0000
# 3 48.3789 55.2758 128.4101 0.0000 0.0000 0.0000
# 4 0.0000 0.0000 0.0000 -4.4264 0.0000 0.0000
# 5 0.0000 0.0000 0.0000 0.0000 7.4939 0.0000
# 6 0.0000 0.0000 0.0000 0.0000 0.0000 27.7825
#
#
#
# Elastic Compliance Matrix: (Units=1/GPa)
#
#
# Indices 1 2 3 4 5 6 
#
# 1 0.041070 -0.008682 -0.011736 0.000000 0.000000 0.000000
# 2 -0.008682 0.014602 -0.003015 0.000000 0.000000 0.000000
# 3 -0.011736 -0.003015 0.013507 0.000000 0.000000 0.000000
# 4 0.000000 0.000000 0.000000 -0.225915 0.000000 0.000000
# 5 0.000000 0.000000 0.000000 0.000000 0.133441 0.000000
# 6 0.000000 0.000000 0.000000 0.000000 0.000000 0.035994
#
#
# Mechanical properties :
#
#
# Convention : Reuss Voigt Hill
#
# Bulk Modulus (GPa) = 44.81557 62.07615 53.44586
# Shear Modulus (GPa) = 74.62634 15.20814 44.91724
#
# Velocity S-wave (km/s) = 6.19300 2.79571 4.80465
# Velocity P-wave (km/s) = 8.61220 6.50573 7.63199
#
# Compressibility (1/GPa) = 0.02231367
#
# Stress axis : x y z
#
# Youngs Moduli (GPa) = 24.34888 68.48518 74.03651
#
# Poissons Ratio (x) = 0.59456 0.86890
# Poissons Ratio (y) = 0.21139 0.22320
# Poissons Ratio (z) = 0.28576 0.20646
#
# Static dielectric constant tensor:
#      x y z
#    x 1.653520 0.000000 0.000000 
#    y 0.000000 1.704870 0.000000 
#    z 0.000000 0.000000 1.684770 
# 
# From -- ./inp_files/6031.got.cif
#   From: 2010.05.17/outbox.cif.g08.bks.cpg/sg59_4_cif.got.tgz:6031.got - 2010.06.03 14:40:33.
