data_PCOD9452691
_publ_section_title
;
Structure prediction by ZEFSAII (Michael W. Deem and Ramdas Pophale) SiO2 
 PCOD9452691
Probable space group: P M M N
;
_chemical_formula_sum "Si O2"
_cell_formula_units_Z 48
_cell_length_a 17.591416
_cell_length_b 7.497097
_cell_length_c 17.288486
_cell_angle_alpha 90.000000
_cell_angle_beta 90.000000
_cell_angle_gamma 90.000000
_cell_volume 2280.084233
_symmetry_space_group_name_H-M "P M M N"
_symmetry_group_IT_number 59
_space_group.IT_coordinate_system_code '2'
_symmetry_cell_setting 'orthorhombic'
loop_
_space_group_symop_operation_xyz
x,y,z
1/2-x,1/2-y,z
1/2+x,-y,-z
-x,1/2+y,-z
-x,-y,-z
1/2+x,1/2+y,-z
1/2-x,y,z
x,1/2-y,z
loop_
_atom_site_type_symbol
_atom_site_label
_atom_site_fract_x
_atom_site_fract_y
_atom_site_fract_z
Si Si1 0.662377 0.468420 0.751322
Si Si2 0.750000 0.961655 0.158677
Si Si3 0.071247 0.533965 0.097417
Si Si4 0.750000 0.034167 0.340029
Si Si5 0.430246 0.962639 0.397333
Si Si6 0.099488 0.039978 0.922642
Si Si7 0.600710 0.035520 0.429883
O O1 0.750000 0.523478 0.750277
O O2 0.661316 0.250000 0.751108
O O3 0.619450 0.525655 0.829084
O O4 0.617510 0.530286 0.675143
O O5 0.750000 0.750000 0.141167
O O6 0.672589 0.035812 0.121135
O O7 0.750000 0.983944 0.250466
O O8 0.069663 0.750000 0.097951
O O9 0.983894 0.467720 0.099578
O O10 0.106066 0.480038 0.015021
O O11 0.750000 0.250000 0.343503
O O12 0.674001 0.970441 0.383580
O O13 0.418648 0.750000 0.399481
O O14 0.404967 0.032490 0.481671
O O15 0.520327 0.993740 0.389961
O O16 0.096284 0.250000 0.904088
O O17 0.606205 0.250000 0.433788
#
# Coordination Sequence:
#
# PCOD9452691 Si02
#       7
#     8   4   8   4   8   8   8
#     4   9  18  30  50  80 105 129 168 213 251 294
#     4  10  22  36  54  77 104 134 170 215 258 308
#     4   9  18  33  53  75 100 130 167 208 249 299
#     4  10  22  36  52  77 108 138 172 215 260 306
#     4   9  18  33  56  78 101 137 175 210 254 306
#     4   9  19  35  52  73 101 132 165 206 256 303
#     4   9  19  35  53  76 106 137 171 213 259 305
#
# _framework density 21.051853000000001
#
# number of rings (size 3 to 8) (size 9 to 14) (size 15 to 20)
#    0.000    2.833    0.000    0.000    4.667    1.333 
#    0.000    0.833    0.000    1.500    0.000    0.000 
#    0.000    0.000    0.000    0.000    0.000    0.000 
#
# Total GULP energy -267979.423583 kJ/mol
# GULP energy per Si atom -5582.904658 kJ/mol
# Density = 2.100394 g / cm^3
# Si number density = 21.051853 Si / 1000 Ang^3
#
#
#
# Elastic Constant Matrix: (Units=GPa)
#
#
# Indices 1 2 3 4 5 6 
#
# 1 193.4587 -8.1199 142.2023 0.0000 0.0000 0.0000
# 2 -8.1199 51.0188 -15.9193 0.0000 0.0000 0.0000
# 3 142.2023 -15.9193 144.1645 0.0000 0.0000 0.0000
# 4 0.0000 0.0000 0.0000 11.1030 0.0000 0.0000
# 5 0.0000 0.0000 0.0000 0.0000 33.9700 0.0000
# 6 0.0000 0.0000 0.0000 0.0000 0.0000 6.6299
#
#
#
# Elastic Compliance Matrix: (Units=1/GPa)
#
#
# Indices 1 2 3 4 5 6 
#
# 1 0.019222 -0.002959 -0.019287 0.000000 0.000000 0.000000
# 2 -0.002959 0.020756 0.005210 0.000000 0.000000 0.000000
# 3 -0.019287 0.005210 0.026536 0.000000 0.000000 0.000000
# 4 0.000000 0.000000 0.000000 0.090066 0.000000 0.000000
# 5 0.000000 0.000000 0.000000 0.000000 0.029438 0.000000
# 6 0.000000 0.000000 0.000000 0.000000 0.000000 0.150832
#
#
# Mechanical properties :
#
#
# Convention : Reuss Voigt Hill
#
# Bulk Modulus (GPa) = 30.82322 69.44090 50.13206
# Shear Modulus (GPa) = 13.09814 28.37251 20.73532
#
# Velocity S-wave (km/s) = 2.49707 3.67515 3.14182
# Velocity P-wave (km/s) = 4.79449 7.14606 6.08495
#
# Compressibility (1/GPa) = 0.03244307
#
# Stress axis : x y z
#
# Youngs Moduli (GPa) = 52.02466 48.17998 37.68448
#
# Poissons Ratio (x) = 0.14255 0.72681
# Poissons Ratio (y) = 0.15393 -0.19635
# Poissons Ratio (z) = 1.00339 -0.25104
#
# Static dielectric constant tensor:
#      x y z
#    x 1.737150 0.000000 0.000000 
#    y 0.000000 1.805320 0.000000 
#    z 0.000000 0.000000 1.711310 
# 
# From -- ./inp_files/20506.got.cif
#   From: 2010.05.17/outbox.cif.g08.bks.cpg/sg59_11_cif.got.tgz:20506.got - 2010.06.03 14:40:33.
