data_PCOD9452379
_publ_section_title
;
Structure prediction by ZEFSAII (Michael W. Deem and Ramdas Pophale) SiO2 
 PCOD9452379
Probable space group: P M M N
;
_chemical_formula_sum "Si O2"
_cell_formula_units_Z 64
_cell_length_a 8.421330
_cell_length_b 15.951538
_cell_length_c 24.487533
_cell_angle_alpha 90.000000
_cell_angle_beta 90.000000
_cell_angle_gamma 90.000000
_cell_volume 3289.487823
_symmetry_space_group_name_H-M "P M M N"
_symmetry_group_IT_number 59
_space_group.IT_coordinate_system_code '2'
_symmetry_cell_setting 'orthorhombic'
loop_
_space_group_symop_operation_xyz
x,y,z
1/2-x,1/2-y,z
1/2+x,-y,-z
-x,1/2+y,-z
-x,-y,-z
1/2+x,1/2+y,-z
1/2-x,y,z
x,1/2-y,z
loop_
_atom_site_type_symbol
_atom_site_label
_atom_site_fract_x
_atom_site_fract_y
_atom_site_fract_z
Si Si1 0.441945 0.999379 0.561771
Si Si2 0.061210 0.398993 0.754478
Si Si3 0.439198 0.501036 0.938446
Si Si4 0.438914 0.843321 0.129491
Si Si5 0.943656 0.843193 0.365969
Si Si6 0.561896 0.587699 0.751298
Si Si7 0.442150 0.656169 0.864682
Si Si8 0.442017 0.844502 0.636862
O O1 0.250000 0.000176 0.561891
O O2 0.497352 0.081627 0.594994
O O3 0.500000 0.000000 0.500000
O O4 0.493310 0.916027 0.594351
O O5 0.250000 0.385966 0.759777
O O6 0.008419 0.361009 0.696554
O O7 0.978948 0.359723 0.807154
O O8 0.024933 0.497889 0.753098
O O9 0.250000 0.505940 0.939566
O O10 0.487764 0.417589 0.906047
O O11 0.497951 0.582608 0.905026
O O12 0.500000 0.500000 0.000000
O O13 0.250000 0.846190 0.122306
O O14 0.495882 0.750000 0.114252
O O15 0.750000 0.844803 0.366271
O O16 0.994444 0.750000 0.382855
O O17 0.750000 0.573792 0.752032
O O18 0.510359 0.638562 0.804747
O O19 0.512024 0.634316 0.696049
O O20 0.250000 0.651769 0.861191
O O21 0.484967 0.750000 0.883002
O O22 0.250000 0.848656 0.641114
O O23 0.485618 0.750000 0.620313
#
# Coordination Sequence:
#
# PCOD9452379 Si02
#       8
#     8   8   8   8   8   8   8   8
#     4  10  21  38  57  81 112 149 195 240 289 344
#     4  11  20  36  62  89 119 157 199 241 294 361
#     4  11  24  42  65  90 121 163 208 254 303 355
#     4  11  24  41  62  92 129 163 198 248 306 358
#     4   9  18  34  58  85 112 145 187 235 286 345
#     4  12  23  35  58  91 125 155 190 241 301 356
#     4  10  22  41  64  89 119 159 202 242 295 362
#     4  10  21  39  61  83 113 155 198 238 287 352
#
# _framework density 19.455915999999998
#
# number of rings (size 3 to 8) (size 9 to 14) (size 15 to 20)
#    0.000    1.500    2.500    3.000    0.000    5.500 
#    0.000    1.250    0.000    1.500    0.000    0.000 
#    0.000    0.000    0.000    0.000    0.000    0.000 
#
# Total GULP energy -357707.203351 kJ/mol
# GULP energy per Si atom -5589.175052 kJ/mol
# Density = 1.941163 g / cm^3
# Si number density = 19.455916 Si / 1000 Ang^3
#
#
#
# Elastic Constant Matrix: (Units=GPa)
#
#
# Indices 1 2 3 4 5 6 
#
# 1 15.1217 15.5804 17.7584 0.0000 0.0000 0.0000
# 2 15.5804 173.6833 89.6402 0.0000 0.0000 0.0000
# 3 17.7584 89.6402 161.8596 0.0000 0.0000 0.0000
# 4 0.0000 0.0000 0.0000 0.2147 0.0000 0.0000
# 5 0.0000 0.0000 0.0000 0.0000 34.5305 0.0000
# 6 0.0000 0.0000 0.0000 0.0000 0.0000 15.8759
#
#
#
# Elastic Compliance Matrix: (Units=1/GPa)
#
#
# Indices 1 2 3 4 5 6 
#
# 1 0.077476 -0.003589 -0.006513 0.000000 0.000000 0.000000
# 2 -0.003589 0.008228 -0.004163 0.000000 0.000000 0.000000
# 3 -0.006513 -0.004163 0.009198 0.000000 0.000000 0.000000
# 4 0.000000 0.000000 0.000000 4.658109 0.000000 0.000000
# 5 0.000000 0.000000 0.000000 0.000000 0.028960 0.000000
# 6 0.000000 0.000000 0.000000 0.000000 0.000000 0.062989
#
#
# Mechanical properties :
#
#
# Convention : Reuss Voigt Hill
#
# Bulk Modulus (GPa) = 15.06626 66.29141 40.67884
# Shear Modulus (GPa) = 1.02132 25.30324 13.16228
#
# Velocity S-wave (km/s) = 0.72531 3.61022 2.60382
# Velocity P-wave (km/s) = 2.90896 7.17808 5.47663
#
# Compressibility (1/GPa) = 0.06637347
#
# Stress axis : x y z
#
# Youngs Moduli (GPa) = 12.90716 121.53333 108.71501
#
# Poissons Ratio (x) = 0.43615 0.70804
# Poissons Ratio (y) = 0.04632 0.45260
# Poissons Ratio (z) = 0.08406 0.50596
#
# Static dielectric constant tensor:
#      x y z
#    x 1.667170 0.000000 0.000000 
#    y 0.000000 1.694870 0.000000 
#    z 0.000000 0.000000 1.637570 
# 
# From -- ./inp_files/31570.got.cif
#   From: 2010.05.17/outbox.cif.g08.bks.cpg/sg59_16_cif.got.tgz:31570.got - 2010.06.03 14:40:33.
