data_PCOD9452707
_publ_section_title
;
Structure prediction by ZEFSAII (Michael W. Deem and Ramdas Pophale) SiO2 
 PCOD9452707
Probable space group: P M M N
;
_chemical_formula_sum "Si O2"
_cell_formula_units_Z 48
_cell_length_a 20.411042
_cell_length_b 22.919763
_cell_length_c 5.071653
_cell_angle_alpha 90.000000
_cell_angle_beta 90.000000
_cell_angle_gamma 90.000000
_cell_volume 2372.601664
_symmetry_space_group_name_H-M "P M M N"
_symmetry_group_IT_number 59
_space_group.IT_coordinate_system_code '2'
_symmetry_cell_setting 'orthorhombic'
loop_
_space_group_symop_operation_xyz
x,y,z
1/2-x,1/2-y,z
1/2+x,-y,-z
-x,1/2+y,-z
-x,-y,-z
1/2+x,1/2+y,-z
1/2-x,y,z
x,1/2-y,z
loop_
_atom_site_type_symbol
_atom_site_label
_atom_site_fract_x
_atom_site_fract_y
_atom_site_fract_z
Si Si1 0.375648 0.185007 0.571323
Si Si2 0.883677 0.014176 0.002694
Si Si3 0.750000 0.627754 0.663751
Si Si4 0.985214 0.315892 0.266496
Si Si5 0.932697 0.079517 0.519198
Si Si6 0.250000 0.047530 0.841167
Si Si7 0.048122 0.096755 0.877826
O O1 0.365186 0.250000 0.684219
O O2 0.314416 0.165835 0.396476
O O3 0.444049 0.186780 0.411586
O O4 0.390039 0.134119 0.780063
O O5 0.916471 0.045924 0.251840
O O6 0.813428 0.991274 0.094464
O O7 0.926287 0.955952 0.945181
O O8 0.885813 0.055845 0.749597
O O9 0.750000 0.574080 0.453093
O O10 0.750000 0.601274 0.953561
O O11 0.965912 0.250000 0.201589
O O12 0.934252 0.351781 0.445341
O O13 0.000722 0.357187 0.019253
O O14 0.005857 0.070549 0.637625
#
# Coordination Sequence:
#
# PCOD9452707 Si02
#       7
#     8   8   4   8   8   4   8
#     4  10  22  37  58  87 125 173 220 259 296 351
#     4  12  24  40  62  92 124 160 209 253 315 368
#     4  12  23  44  58  86 120 174 223 253 298 340
#     4  10  22  40  62  93 127 162 204 256 314 373
#     4  11  24  39  63  93 123 160 200 256 312 377
#     4  12  26  42  65  86 123 166 206 263 304 366
#     4  11  21  37  63  90 129 162 205 256 313 364
#
# _framework density 20.230958000000001
#
# number of rings (size 3 to 8) (size 9 to 14) (size 15 to 20)
#    0.000    1.000    3.333    3.750    4.667    0.667 
#    0.000    0.833    0.000    0.000    0.000    3.500 
#    0.000    0.000    0.000    0.000    0.000    0.000 
#
# Total GULP energy -268222.932442 kJ/mol
# GULP energy per Si atom -5587.977759 kJ/mol
# Density = 2.018491 g / cm^3
# Si number density = 20.230958 Si / 1000 Ang^3
#
#
#
# Elastic Constant Matrix: (Units=GPa)
#
#
# Indices 1 2 3 4 5 6 
#
# 1 47.1570 41.6182 -3.3182 0.0000 0.0000 0.0000
# 2 41.6182 121.5699 30.0505 0.0000 0.0000 0.0000
# 3 -3.3182 30.0505 74.7605 0.0000 0.0000 0.0000
# 4 0.0000 0.0000 0.0000 25.8180 0.0000 0.0000
# 5 0.0000 0.0000 0.0000 0.0000 16.6036 0.0000
# 6 0.0000 0.0000 0.0000 0.0000 0.0000 23.3541
#
#
#
# Elastic Compliance Matrix: (Units=1/GPa)
#
#
# Indices 1 2 3 4 5 6 
#
# 1 0.033156 -0.013007 0.006700 0.000000 0.000000 0.000000
# 2 -0.013007 0.014236 -0.006299 0.000000 0.000000 0.000000
# 3 0.006700 -0.006299 0.016206 0.000000 0.000000 0.000000
# 4 0.000000 0.000000 0.000000 0.038733 0.000000 0.000000
# 5 0.000000 0.000000 0.000000 0.000000 0.060228 0.000000
# 6 0.000000 0.000000 0.000000 0.000000 0.000000 0.042819
#
#
# Mechanical properties :
#
#
# Convention : Reuss Voigt Hill
#
# Bulk Modulus (GPa) = 26.05211 42.24314 34.14762
# Shear Modulus (GPa) = 20.54360 24.83093 22.68726
#
# Velocity S-wave (km/s) = 3.19008 3.50719 3.35238
# Velocity P-wave (km/s) = 5.14530 6.10952 5.64802
#
# Compressibility (1/GPa) = 0.03838461
#
# Stress axis : x y z
#
# Youngs Moduli (GPa) = 30.16013 70.24641 61.70744
#
# Poissons Ratio (x) = 0.91368 -0.41343
# Poissons Ratio (y) = 0.39229 0.38872
# Poissons Ratio (z) = -0.20207 0.44251
#
# Static dielectric constant tensor:
#      x y z
#    x 1.714380 0.000000 0.000000 
#    y 0.000000 1.747750 0.000000 
#    z 0.000000 0.000000 1.769550 
# 
# From -- ./inp_files/3352.got.cif
#   From: 2010.05.17/outbox.cif.g08.bks.cpg/sg59_2_cif.got.tgz:3352.got - 2010.06.03 14:40:33.
