data_PCOD9452797
_publ_section_title
;
Structure prediction by ZEFSAII (Michael W. Deem and Ramdas Pophale) SiO2 
 PCOD9452797
Probable space group: P M M N
;
_chemical_formula_sum "Si O2"
_cell_formula_units_Z 32
_cell_length_a 13.663305
_cell_length_b 8.861007
_cell_length_c 13.314435
_cell_angle_alpha 90.000000
_cell_angle_beta 90.000000
_cell_angle_gamma 90.000000
_cell_volume 1611.987183
_symmetry_space_group_name_H-M "P M M N"
_symmetry_group_IT_number 59
_space_group.IT_coordinate_system_code '2'
_symmetry_cell_setting 'orthorhombic'
loop_
_space_group_symop_operation_xyz
x,y,z
1/2-x,1/2-y,z
1/2+x,-y,-z
-x,1/2+y,-z
-x,-y,-z
1/2+x,1/2+y,-z
1/2-x,y,z
x,1/2-y,z
loop_
_atom_site_type_symbol
_atom_site_label
_atom_site_fract_x
_atom_site_fract_y
_atom_site_fract_z
Si Si1 0.460679 0.432743 0.604063
Si Si2 0.750000 0.583170 0.134797
Si Si3 0.750000 0.072619 0.338197
Si Si4 0.141818 0.931491 0.252075
Si Si5 0.404685 0.076804 0.041182
O O1 0.500000 0.500000 0.500000
O O2 0.456194 0.250000 0.601519
O O3 0.351873 0.497584 0.624613
O O4 0.544314 0.477360 0.686409
O O5 0.750000 0.750000 0.184833
O O6 0.750000 0.457167 0.218689
O O7 0.662069 0.574647 0.057193
O O8 0.750000 0.250000 0.362957
O O9 0.250000 0.978235 0.293350
O O10 0.140716 0.750000 0.250973
O O11 0.134880 0.991330 0.138580
O O12 0.419490 0.250000 0.071285
O O13 0.500000 0.000000 0.000000
#
# Coordination Sequence:
#
# PCOD9452797 Si02
#       5
#     8   4   4   8   8
#     4  11  25  45  70  99 131 171 216 272 334 393
#     4  10  22  40  59  86 127 168 207 256 316 374
#     4  12  26  44  67  96 131 172 223 274 322 390
#     4  10  22  41  65  95 132 170 211 265 326 390
#     4  11  22  37  59  90 127 169 213 259 311 375
#
# _framework density 19.851275000000001
#
# number of rings (size 3 to 8) (size 9 to 14) (size 15 to 20)
#    0.000    1.250    1.250    4.125    1.750   10.000 
#    0.000    0.000    0.000    0.000    0.000    0.000 
#    0.000    0.000    0.000    0.000    0.000    0.000 
#
# Total GULP energy -178594.573664 kJ/mol
# GULP energy per Si atom -5581.080427 kJ/mol
# Density = 1.980609 g / cm^3
# Si number density = 19.851275 Si / 1000 Ang^3
#
#
#
# Elastic Constant Matrix: (Units=GPa)
#
#
# Indices 1 2 3 4 5 6 
#
# 1 194.3247 64.3185 53.1922 0.0000 0.0000 0.0000
# 2 64.3185 57.8739 29.0620 0.0000 0.0000 0.0000
# 3 53.1922 29.0620 89.5146 0.0000 0.0000 0.0000
# 4 0.0000 0.0000 0.0000 35.6038 0.0000 0.0000
# 5 0.0000 0.0000 0.0000 0.0000 12.0079 0.0000
# 6 0.0000 0.0000 0.0000 0.0000 0.0000 24.1103
#
#
#
# Elastic Compliance Matrix: (Units=1/GPa)
#
#
# Indices 1 2 3 4 5 6 
#
# 1 0.008546 -0.008301 -0.002383 0.000000 0.000000 0.000000
# 2 -0.008301 0.028707 -0.004388 0.000000 0.000000 0.000000
# 3 -0.002383 -0.004388 0.014012 0.000000 0.000000 0.000000
# 4 0.000000 0.000000 0.000000 0.028087 0.000000 0.000000
# 5 0.000000 0.000000 0.000000 0.000000 0.083279 0.000000
# 6 0.000000 0.000000 0.000000 0.000000 0.000000 0.041476
#
#
# Mechanical properties :
#
#
# Convention : Reuss Voigt Hill
#
# Bulk Modulus (GPa) = 47.34409 70.53983 58.94196
# Shear Modulus (GPa) = 20.72191 27.35376 24.03784
#
# Velocity S-wave (km/s) = 3.23438 3.71608 3.48357
# Velocity P-wave (km/s) = 6.15219 7.35008 6.77765
#
# Compressibility (1/GPa) = 0.02112196
#
# Stress axis : x y z
#
# Youngs Moduli (GPa) = 117.01706 34.83446 71.36705
#
# Poissons Ratio (x) = 0.28915 0.17009
# Poissons Ratio (y) = 0.97131 0.31314
# Poissons Ratio (z) = 0.27888 0.15284
#
# Static dielectric constant tensor:
#      x y z
#    x 1.712590 0.000000 0.000000 
#    y 0.000000 1.683230 0.000000 
#    z 0.000000 0.000000 1.662240 
# 
# From -- ./inp_files/16475.got.cif
#   From: 2010.05.17/outbox.cif.g08.bks.cpg/sg59_9_cif.got.tgz:16475.got - 2010.06.03 14:40:33.
