data_PCOD9452311
_publ_section_title
;
Structure prediction by ZEFSAII (Michael W. Deem and Ramdas Pophale) SiO2 
 PCOD9452311
Probable space group: P M M N
;
_chemical_formula_sum "Si O2"
_cell_formula_units_Z 40
_cell_length_a 8.787762
_cell_length_b 14.569733
_cell_length_c 17.492177
_cell_angle_alpha 90.000000
_cell_angle_beta 90.000000
_cell_angle_gamma 90.000000
_cell_volume 2239.616935
_symmetry_space_group_name_H-M "P M M N"
_symmetry_group_IT_number 59
_space_group.IT_coordinate_system_code '2'
_symmetry_cell_setting 'orthorhombic'
loop_
_space_group_symop_operation_xyz
x,y,z
1/2-x,1/2-y,z
1/2+x,-y,-z
-x,1/2+y,-z
-x,-y,-z
1/2+x,1/2+y,-z
1/2-x,y,z
x,1/2-y,z
loop_
_atom_site_type_symbol
_atom_site_label
_atom_site_fract_x
_atom_site_fract_y
_atom_site_fract_z
Si Si1 0.068345 0.940084 0.068900
Si Si2 0.068215 0.517768 0.622356
Si Si3 0.931294 0.250000 0.148108
Si Si4 0.568315 0.750000 0.022922
Si Si5 0.931127 0.934622 0.784724
Si Si6 0.566875 0.856356 0.491989
O O1 0.250000 0.932529 0.058909
O O2 0.037854 0.992295 0.148073
O O3 0.993270 0.840657 0.063987
O O4 0.000000 0.000000 0.000000
O O5 0.250000 0.522421 0.631020
O O6 0.029319 0.421909 0.579854
O O7 0.989234 0.529466 0.703644
O O8 0.012348 0.597827 0.565212
O O9 0.750000 0.250000 0.140340
O O10 0.005568 0.250000 0.063869
O O11 0.986591 0.340341 0.192357
O O12 0.750000 0.750000 0.020330
O O13 0.750000 0.918561 0.782314
O O14 0.750000 0.861118 0.502627
O O15 0.524809 0.750000 0.481683
#
# Coordination Sequence:
#
# PCOD9452311 Si02
#       6
#     8   8   4   4   8   8
#     4  11  23  40  63  87 119 159 204 250 298 355
#     4  10  21  37  59  88 120 151 195 244 292 350
#     4  12  24  38  62  90 119 152 199 252 298 352
#     4  12  24  40  62  88 119 158 203 248 304 362
#     4  11  24  41  61  87 122 158 195 244 303 356
#     4   9  19  38  62  85 115 155 195 239 292 351
#
# _framework density 17.860196999999999
#
# number of rings (size 3 to 8) (size 9 to 14) (size 15 to 20)
#    0.000    1.400    2.000    3.600    1.400    3.600 
#    1.800    0.000    0.000    0.000    0.000    0.000 
#    0.000    0.000    0.000    0.000    0.000    0.000 
#
# Total GULP energy -223590.153524 kJ/mol
# GULP energy per Si atom -5589.753838 kJ/mol
# Density = 1.781955 g / cm^3
# Si number density = 17.860197 Si / 1000 Ang^3
#
#
#
# Elastic Constant Matrix: (Units=GPa)
#
#
# Indices 1 2 3 4 5 6 
#
# 1 98.8265 80.2909 83.3136 0.0000 0.0000 0.0000
# 2 80.2909 176.8631 80.0713 0.0000 0.0000 0.0000
# 3 83.3136 80.0713 146.6319 0.0000 0.0000 0.0000
# 4 0.0000 0.0000 0.0000 8.2156 0.0000 0.0000
# 5 0.0000 0.0000 0.0000 0.0000 35.1841 0.0000
# 6 0.0000 0.0000 0.0000 0.0000 0.0000 29.1612
#
#
#
# Elastic Compliance Matrix: (Units=1/GPa)
#
#
# Indices 1 2 3 4 5 6 
#
# 1 0.023587 -0.006165 -0.010036 0.000000 0.000000 0.000000
# 2 -0.006165 0.009122 -0.001479 0.000000 0.000000 0.000000
# 3 -0.010036 -0.001479 0.013329 0.000000 0.000000 0.000000
# 4 0.000000 0.000000 0.000000 0.121719 0.000000 0.000000
# 5 0.000000 0.000000 0.000000 0.000000 0.028422 0.000000
# 6 0.000000 0.000000 0.000000 0.000000 0.000000 0.034292
#
#
# Mechanical properties :
#
#
# Convention : Reuss Voigt Hill
#
# Bulk Modulus (GPa) = 93.62418 101.07480 97.34949
# Shear Modulus (GPa) = 18.56040 26.42190 22.49115
#
# Velocity S-wave (km/s) = 3.22717 3.85043 3.55250
# Velocity P-wave (km/s) = 8.14988 8.74545 8.45291
#
# Compressibility (1/GPa) = 0.01068100
#
# Stress axis : x y z
#
# Youngs Moduli (GPa) = 42.39538 109.62389 75.02245
#
# Poissons Ratio (x) = 0.67579 0.75290
# Poissons Ratio (y) = 0.26135 0.11093
# Poissons Ratio (z) = 0.42547 0.16210
#
# Static dielectric constant tensor:
#      x y z
#    x 1.598760 0.000000 0.000000 
#    y 0.000000 1.618740 0.000000 
#    z 0.000000 0.000000 1.576450 
# 
# From -- ./inp_files/19971.got.cif
#   From: 2010.05.17/outbox.cif.g08.bks.cpg/sg59_10_cif.got.tgz:19971.got - 2010.06.03 14:40:33.
