data_PCOD9452890
_publ_section_title
;
Structure prediction by ZEFSAII (Michael W. Deem and Ramdas Pophale) SiO2 
 PCOD9452890
Probable space group: P M M N
;
_chemical_formula_sum "Si O2"
_cell_formula_units_Z 48
_cell_length_a 14.371291
_cell_length_b 15.316264
_cell_length_c 9.606553
_cell_angle_alpha 90.000000
_cell_angle_beta 90.000000
_cell_angle_gamma 90.000000
_cell_volume 2114.541485
_symmetry_space_group_name_H-M "P M M N"
_symmetry_group_IT_number 59
_space_group.IT_coordinate_system_code '2'
_symmetry_cell_setting 'orthorhombic'
loop_
_space_group_symop_operation_xyz
x,y,z
1/2-x,1/2-y,z
1/2+x,-y,-z
-x,1/2+y,-z
-x,-y,-z
1/2+x,1/2+y,-z
1/2-x,y,z
x,1/2-y,z
loop_
_atom_site_type_symbol
_atom_site_label
_atom_site_fract_x
_atom_site_fract_y
_atom_site_fract_z
Si Si1 0.853589 0.145475 0.549513
Si Si2 0.855616 0.356193 0.864148
Si Si3 0.142461 0.348296 0.505188
Si Si4 0.463436 0.147141 0.029319
Si Si5 0.356488 0.063705 0.790438
Si Si6 0.502919 0.078868 0.325631
O O1 0.750000 0.111108 0.519267
O O2 0.848026 0.250000 0.559370
O O3 0.879942 0.116471 0.706036
O O4 0.923250 0.124907 0.427093
O O5 0.750000 0.385541 0.895982
O O6 0.853539 0.250000 0.868114
O O7 0.936441 0.384092 0.968120
O O8 0.250000 0.353479 0.463416
O O9 0.107443 0.250000 0.471952
O O10 0.138464 0.361833 0.671188
O O11 0.085051 0.425075 0.429853
O O12 0.455935 0.250000 0.001811
O O13 0.384289 0.099262 0.941248
O O14 0.464357 0.130630 0.192787
O O15 0.250000 0.029586 0.788322
O O16 0.436681 0.998103 0.740589
#
# Coordination Sequence:
#
# PCOD9452890 Si02
#       6
#     8   8   8   8   8   8
#     4   9  17  31  54  83 116 158 205 253 306 366
#     4   8  16  32  54  82 116 156 204 252 299 358
#     4  10  22  42  68  95 123 162 214 265 311 369
#     4  11  23  39  62  90 122 167 217 262 312 372
#     4  11  25  44  64  89 127 174 216 255 309 379
#     4  12  23  39  61  94 130 158 198 262 330 378
#
# _framework density 22.699957000000001
#
# number of rings (size 3 to 8) (size 9 to 14) (size 15 to 20)
#    0.000    1.833    0.000    5.500    0.000    4.333 
#    0.000    4.167    0.000    0.000    0.000    0.000 
#    0.000    0.000    0.000    0.000    0.000    0.000 
#
# Total GULP energy -268202.702750 kJ/mol
# GULP energy per Si atom -5587.556307 kJ/mol
# Density = 2.264829 g / cm^3
# Si number density = 22.699957 Si / 1000 Ang^3
#
#
#
# Elastic Constant Matrix: (Units=GPa)
#
#
# Indices 1 2 3 4 5 6 
#
# 1 94.0021 15.5087 24.0361 0.0000 0.0000 0.0000
# 2 15.5087 42.6146 -8.9907 0.0000 0.0000 0.0000
# 3 24.0361 -8.9907 105.3387 0.0000 0.0000 0.0000
# 4 0.0000 0.0000 0.0000 29.0463 0.0000 0.0000
# 5 0.0000 0.0000 0.0000 0.0000 -74.6613 0.0000
# 6 0.0000 0.0000 0.0000 0.0000 0.0000 25.9600
#
#
#
# Elastic Compliance Matrix: (Units=1/GPa)
#
#
# Indices 1 2 3 4 5 6 
#
# 1 0.012323 -0.005171 -0.003253 0.000000 0.000000 0.000000
# 2 -0.005171 0.026066 0.003405 0.000000 0.000000 0.000000
# 3 -0.003253 0.003405 0.010526 0.000000 0.000000 0.000000
# 4 0.000000 0.000000 0.000000 0.034428 0.000000 0.000000
# 5 0.000000 0.000000 0.000000 0.000000 -0.013394 0.000000
# 6 0.000000 0.000000 0.000000 0.000000 0.000000 0.038521
#
#
# Mechanical properties :
#
#
# Convention : Reuss Voigt Hill
#
# Bulk Modulus (GPa) = 25.72260 33.67375 29.69817
# Shear Modulus (GPa) = 38.03202 10.16242 24.09722
#
# Velocity S-wave (km/s) = 4.09763 2.11815 3.26168
# Velocity P-wave (km/s) = 5.80893 4.56602 5.22457
#
# Compressibility (1/GPa) = 0.03887632
#
# Stress axis : x y z
#
# Youngs Moduli (GPa) = 81.14881 38.36361 95.00201
#
# Poissons Ratio (x) = 0.19838 0.30906
# Poissons Ratio (y) = 0.41963 -0.32345
# Poissons Ratio (z) = 0.26399 -0.13062
#
# Static dielectric constant tensor:
#      x y z
#    x 1.849590 0.000000 0.000000 
#    y 0.000000 1.894120 0.000000 
#    z 0.000000 0.000000 1.795900 
# 
# From -- ./inp_files/9018.got.cif
#   From: 2010.05.17/outbox.cif.g08.bks.cpg/sg59_5_cif.got.tgz:9018.got - 2010.06.03 14:40:33.
