data_PCOD9452826
_publ_section_title
;
Structure prediction by ZEFSAII (Michael W. Deem and Ramdas Pophale) SiO2 
 PCOD9452826
Probable space group: P M M N
;
_chemical_formula_sum "Si O2"
_cell_formula_units_Z 56
_cell_length_a 15.153093
_cell_length_b 8.752057
_cell_length_c 22.032364
_cell_angle_alpha 90.000000
_cell_angle_beta 90.000000
_cell_angle_gamma 90.000000
_cell_volume 2921.948278
_symmetry_space_group_name_H-M "P M M N"
_symmetry_group_IT_number 59
_space_group.IT_coordinate_system_code '2'
_symmetry_cell_setting 'orthorhombic'
loop_
_space_group_symop_operation_xyz
x,y,z
1/2-x,1/2-y,z
1/2+x,-y,-z
-x,1/2+y,-z
-x,-y,-z
1/2+x,1/2+y,-z
1/2-x,y,z
x,1/2-y,z
loop_
_atom_site_type_symbol
_atom_site_label
_atom_site_fract_x
_atom_site_fract_y
_atom_site_fract_z
Si Si1 0.934266 0.568330 0.663288
Si Si2 0.148174 0.929090 0.859559
Si Si3 0.053453 0.066325 0.557541
Si Si4 0.511088 0.428809 0.790254
Si Si5 0.750000 0.933863 0.482062
Si Si6 0.348794 0.069969 0.122166
Si Si7 0.403895 0.431541 0.987185
Si Si8 0.250000 0.932487 0.382663
O O1 0.929781 0.750000 0.656089
O O2 0.961681 0.522759 0.731014
O O3 0.838713 0.498162 0.647509
O O4 0.006270 0.500832 0.616730
O O5 0.250000 0.946470 0.842162
O O6 0.124325 0.750000 0.857779
O O7 0.135721 0.988606 0.928199
O O8 0.083439 0.020800 0.815822
O O9 0.045534 0.250000 0.557516
O O10 0.157679 0.028029 0.551222
O O11 0.000000 0.000000 0.500000
O O12 0.512926 0.250000 0.776357
O O13 0.580295 0.469186 0.843338
O O14 0.750000 0.750000 0.491861
O O15 0.750000 0.015085 0.547214
O O16 0.250000 0.040769 0.144869
O O17 0.369554 0.250000 0.131758
O O18 0.352144 0.044224 0.049955
O O19 0.408981 0.250000 0.975998
O O20 0.500000 0.500000 0.000000
O O21 0.250000 0.750000 0.378649
#
# Coordination Sequence:
#
# PCOD9452826 Si02
#       8
#     8   8   8   8   4   8   8   4
#     4  12  26  45  67  93 132 176 216 263 322 383
#     4  11  24  43  67  93 124 165 215 267 324 388
#     4  11  22  40  66  98 133 171 215 265 317 373
#     4  12  26  44  66  92 125 166 214 266 318 380
#     4  10  22  40  66  98 136 174 211 260 325 378
#     4  10  22  40  62  89 125 165 205 254 316 380
#     4  11  21  36  62  93 126 164 208 259 321 380
#     4  12  24  40  68 102 134 168 217 264 311 380
#
# _framework density 19.165292999999998
#
# number of rings (size 3 to 8) (size 9 to 14) (size 15 to 20)
#    0.000    0.857    2.857    4.929    1.000    3.143 
#    1.286    0.000    0.000    0.000    0.000    0.000 
#    0.000    0.000    0.000    0.000    0.000    0.000 
#
# Total GULP energy -313260.185115 kJ/mol
# GULP energy per Si atom -5593.931877 kJ/mol
# Density = 1.912167 g / cm^3
# Si number density = 19.165293 Si / 1000 Ang^3
#
#
#
# Elastic Constant Matrix: (Units=GPa)
#
#
# Indices 1 2 3 4 5 6 
#
# 1 125.7775 51.4567 40.3553 0.0000 0.0000 0.0000
# 2 51.4567 88.1271 29.0991 0.0000 0.0000 0.0000
# 3 40.3553 29.0991 80.8995 0.0000 0.0000 0.0000
# 4 0.0000 0.0000 0.0000 37.5494 0.0000 0.0000
# 5 0.0000 0.0000 0.0000 0.0000 -13.0526 0.0000
# 6 0.0000 0.0000 0.0000 0.0000 0.0000 17.9649
#
#
#
# Elastic Compliance Matrix: (Units=1/GPa)
#
#
# Indices 1 2 3 4 5 6 
#
# 1 0.011354 -0.005401 -0.003721 0.000000 0.000000 0.000000
# 2 -0.005401 0.015446 -0.002862 0.000000 0.000000 0.000000
# 3 -0.003721 -0.002862 0.015247 0.000000 0.000000 0.000000
# 4 0.000000 0.000000 0.000000 0.026632 0.000000 0.000000
# 5 0.000000 0.000000 0.000000 0.000000 -0.076613 0.000000
# 6 0.000000 0.000000 0.000000 0.000000 0.000000 0.055664
#
#
# Mechanical properties :
#
#
# Convention : Reuss Voigt Hill
#
# Bulk Modulus (GPa) = 55.31245 59.62514 57.46879
# Shear Modulus (GPa) = 64.33151 20.08518 42.20835
#
# Velocity S-wave (km/s) = 5.79996 3.24079 4.69799
# Velocity P-wave (km/s) = 8.58930 6.72177 7.71227
#
# Compressibility (1/GPa) = 0.01807911
#
# Stress axis : x y z
#
# Youngs Moduli (GPa) = 88.07490 64.74324 65.58873
#
# Poissons Ratio (x) = 0.34967 0.24406
# Poissons Ratio (y) = 0.47568 0.18769
# Poissons Ratio (z) = 0.32774 0.18527
#
# Static dielectric constant tensor:
#      x y z
#    x 1.680910 0.000000 0.000000 
#    y 0.000000 1.647760 0.000000 
#    z 0.000000 0.000000 1.622330 
# 
# From -- ./inp_files/30422.got.cif
#   From: 2010.05.17/outbox.cif.g08.bks.cpg/sg59_16_cif.got.tgz:30422.got - 2010.06.03 14:40:33.
