data_PCOD9452329
_publ_section_title
;
Structure prediction by ZEFSAII (Michael W. Deem and Ramdas Pophale) SiO2 
 PCOD9452329
Probable space group: P M M N
;
_chemical_formula_sum "Si O2"
_cell_formula_units_Z 56
_cell_length_a 22.363940
_cell_length_b 8.600350
_cell_length_c 14.615422
_cell_angle_alpha 90.000000
_cell_angle_beta 90.000000
_cell_angle_gamma 90.000000
_cell_volume 2811.096818
_symmetry_space_group_name_H-M "P M M N"
_symmetry_group_IT_number 59
_space_group.IT_coordinate_system_code '2'
_symmetry_cell_setting 'orthorhombic'
loop_
_space_group_symop_operation_xyz
x,y,z
1/2-x,1/2-y,z
1/2+x,-y,-z
-x,1/2+y,-z
-x,-y,-z
1/2+x,1/2+y,-z
1/2-x,y,z
x,1/2-y,z
loop_
_atom_site_type_symbol
_atom_site_label
_atom_site_fract_x
_atom_site_fract_y
_atom_site_fract_z
Si Si1 0.991621 0.067927 0.601126
Si Si2 0.819332 0.424610 0.748060
Si Si3 0.920559 0.434726 0.248826
Si Si4 0.320297 0.437175 0.059982
Si Si5 0.680354 0.437474 0.386779
Si Si6 0.439361 0.064166 0.951824
Si Si7 0.132404 0.431555 0.421675
O O1 0.005671 0.250000 0.603758
O O2 0.922623 0.032282 0.615748
O O3 0.000000 0.000000 0.500000
O O4 0.030987 0.977538 0.674217
O O5 0.750000 0.405445 0.768295
O O6 0.844353 0.250000 0.735212
O O7 0.841901 0.507949 0.839454
O O8 0.821270 0.529667 0.657695
O O9 0.919607 0.250000 0.233500
O O10 0.857936 0.481393 0.297378
O O11 0.936590 0.517564 0.154632
O O12 0.250000 0.486934 0.040948
O O13 0.318556 0.250000 0.058192
O O14 0.374886 0.489266 0.993981
O O15 0.750000 0.478326 0.378705
O O16 0.675520 0.250000 0.397334
O O17 0.653173 0.513028 0.478465
O O18 0.441557 0.250000 0.961047
O O19 0.500000 0.000000 0.000000
O O20 0.117409 0.250000 0.425417
#
# Coordination Sequence:
#
# PCOD9452329 Si02
#       7
#     8   8   8   8   8   8   8
#     4  12  24  41  64  91 124 162 205 254 307 368
#     4  10  21  37  59  89 125 164 206 255 312 372
#     4  11  24  43  66  93 127 166 210 257 314 383
#     4   9  20  41  66  91 122 163 214 269 324 385
#     4  10  22  41  64  91 127 169 212 261 313 369
#     4  11  25  44  67  95 129 166 211 269 331 389
#     4  12  24  37  59  90 126 168 211 256 309 368
#
# _framework density 19.921050999999999
#
# number of rings (size 3 to 8) (size 9 to 14) (size 15 to 20)
#    0.000    1.286    1.429    4.286    2.000    5.143 
#    0.000    0.000    0.000    0.000    0.000    0.000 
#    0.000    0.000    0.000    0.000    0.000    0.000 
#
# Total GULP energy -312387.573554 kJ/mol
# GULP energy per Si atom -5578.349528 kJ/mol
# Density = 1.987571 g / cm^3
# Si number density = 19.921051 Si / 1000 Ang^3
#
#
#
# Elastic Constant Matrix: (Units=GPa)
#
#
# Indices 1 2 3 4 5 6 
#
# 1 101.7173 18.0589 39.6213 0.0000 0.0000 0.0000
# 2 18.0589 28.6887 15.9853 0.0000 0.0000 0.0000
# 3 39.6213 15.9853 114.5453 0.0000 0.0000 0.0000
# 4 0.0000 0.0000 0.0000 34.3669 0.0000 0.0000
# 5 0.0000 0.0000 0.0000 0.0000 30.3422 0.0000
# 6 0.0000 0.0000 0.0000 0.0000 0.0000 23.2389
#
#
#
# Elastic Compliance Matrix: (Units=1/GPa)
#
#
# Indices 1 2 3 4 5 6 
#
# 1 0.012183 -0.005770 -0.003409 0.000000 0.000000 0.000000
# 2 -0.005770 0.040528 -0.003660 0.000000 0.000000 0.000000
# 3 -0.003409 -0.003660 0.010420 0.000000 0.000000 0.000000
# 4 0.000000 0.000000 0.000000 0.029098 0.000000 0.000000
# 5 0.000000 0.000000 0.000000 0.000000 0.032957 0.000000
# 6 0.000000 0.000000 0.000000 0.000000 0.000000 0.043031
#
#
# Mechanical properties :
#
#
# Convention : Reuss Voigt Hill
#
# Bulk Modulus (GPa) = 26.69942 43.58693 35.14318
# Shear Modulus (GPa) = 24.22707 29.00865 26.61786
#
# Velocity S-wave (km/s) = 3.49112 3.82013 3.65933
# Velocity P-wave (km/s) = 5.44815 6.43313 5.96102
#
# Compressibility (1/GPa) = 0.03745399
#
# Stress axis : x y z
#
# Youngs Moduli (GPa) = 82.07865 24.67420 95.96777
#
# Poissons Ratio (x) = 0.14236 0.32716
# Poissons Ratio (y) = 0.47357 0.35126
# Poissons Ratio (z) = 0.27981 0.09031
#
# Static dielectric constant tensor:
#      x y z
#    x 1.839240 0.000000 0.000000 
#    y 0.000000 1.706940 0.000000 
#    z 0.000000 0.000000 -4.543410 
# 
# From -- ./inp_files/24288.got.cif
#   From: 2010.05.17/outbox.cif.g08.bks.cpg/sg59_13_cif.got.tgz:24288.got - 2010.06.03 14:40:33.
