data_PCOD9452900
_publ_section_title
;
Structure prediction by ZEFSAII (Michael W. Deem and Ramdas Pophale) SiO2 
 PCOD9452900
Probable space group: P M M N
;
_chemical_formula_sum "Si O2"
_cell_formula_units_Z 56
_cell_length_a 14.226993
_cell_length_b 34.073460
_cell_length_c 5.269135
_cell_angle_alpha 90.000000
_cell_angle_beta 90.000000
_cell_angle_gamma 90.000000
_cell_volume 2554.281041
_symmetry_space_group_name_H-M "P M M N"
_symmetry_group_IT_number 59
_space_group.IT_coordinate_system_code '2'
_symmetry_cell_setting 'orthorhombic'
loop_
_space_group_symop_operation_xyz
x,y,z
1/2-x,1/2-y,z
1/2+x,-y,-z
-x,1/2+y,-z
-x,-y,-z
1/2+x,1/2+y,-z
1/2-x,y,z
x,1/2-y,z
loop_
_atom_site_type_symbol
_atom_site_label
_atom_site_fract_x
_atom_site_fract_y
_atom_site_fract_z
Si Si1 0.528322 0.032676 0.199458
Si Si2 0.606518 0.706100 0.594088
Si Si3 0.863416 0.536046 0.428647
Si Si4 0.505506 0.902660 0.128920
Si Si5 0.391313 0.795307 0.774972
Si Si6 0.646068 0.154409 0.712981
Si Si7 0.648531 0.660257 0.075899
O O1 0.428113 0.042976 0.325744
O O2 0.605687 0.009215 0.362733
O O3 0.558778 0.071816 0.058380
O O4 0.500000 0.000000 0.000000
O O5 0.635696 0.750000 0.523848
O O6 0.498942 0.706764 0.683362
O O7 0.622941 0.679226 0.347509
O O8 0.654534 0.691145 0.849643
O O9 0.750000 0.540212 0.441680
O O10 0.916789 0.567794 0.248709
O O11 0.434469 0.878865 0.309737
O O12 0.568178 0.869855 0.995956
O O13 0.358565 0.750000 0.798200
O O14 0.349219 0.819774 0.541574
O O15 0.378634 0.817864 0.042995
O O16 0.750000 0.137520 0.759108
O O17 0.750000 0.640492 0.104158
#
# Coordination Sequence:
#
# PCOD9452900 Si02
#       7
#     8   8   8   8   8   8   8
#     4   9  22  43  68  97 134 171 216 273 325 395
#     4  11  23  43  66  92 134 184 234 292 345 400
#     4  10  22  43  73 103 132 175 222 267 326 398
#     4  11  24  43  64  98 140 174 215 276 335 410
#     4  11  23  45  70  95 131 183 240 296 349 406
#     4  12  26  43  68 100 136 181 230 290 354 409
#     4  12  25  40  65  98 135 183 233 282 341 407
#
# _framework density 21.92398
#
# number of rings (size 3 to 8) (size 9 to 14) (size 15 to 20)
#    0.000    1.143    2.857    2.143    4.000    9.143 
#    0.000    5.714    0.000    0.000    0.000    0.000 
#    0.000    0.000    0.000    0.000    0.000    0.000 
#
# Total GULP energy -312146.664517 kJ/mol
# GULP energy per Si atom -5574.047581 kJ/mol
# Density = 2.187408 g / cm^3
# Si number density = 21.923980 Si / 1000 Ang^3
#
#
#
# Elastic Constant Matrix: (Units=GPa)
#
#
# Indices 1 2 3 4 5 6 
#
# 1 127.1147 45.9698 -6.4883 0.0000 0.0000 0.0000
# 2 45.9698 68.0114 21.2540 0.0000 0.0000 0.0000
# 3 -6.4883 21.2540 95.2617 0.0000 0.0000 0.0000
# 4 0.0000 0.0000 0.0000 14.6544 0.0000 0.0000
# 5 0.0000 0.0000 0.0000 0.0000 90.5623 0.0000
# 6 0.0000 0.0000 0.0000 0.0000 0.0000 24.5451
#
#
#
# Elastic Compliance Matrix: (Units=1/GPa)
#
#
# Indices 1 2 3 4 5 6 
#
# 1 0.010973 -0.008223 0.002582 0.000000 0.000000 0.000000
# 2 -0.008223 0.021969 -0.005462 0.000000 0.000000 0.000000
# 3 0.002582 -0.005462 0.011892 0.000000 0.000000 0.000000
# 4 0.000000 0.000000 0.000000 0.068239 0.000000 0.000000
# 5 0.000000 0.000000 0.000000 0.000000 0.011042 0.000000
# 6 0.000000 0.000000 0.000000 0.000000 0.000000 0.040741
#
#
# Mechanical properties :
#
#
# Convention : Reuss Voigt Hill
#
# Bulk Modulus (GPa) = 44.19470 45.76211 44.97841
# Shear Modulus (GPa) = 25.69327 41.26251 33.47789
#
# Velocity S-wave (km/s) = 3.42705 4.34299 3.91192
# Velocity P-wave (km/s) = 5.98845 6.78728 6.40034
#
# Compressibility (1/GPa) = 0.02262715
#
# Stress axis : x y z
#
# Youngs Moduli (GPa) = 91.13563 45.51963 84.09150
#
# Poissons Ratio (x) = 0.37433 -0.21713
# Poissons Ratio (y) = 0.74945 0.45927
# Poissons Ratio (z) = -0.23532 0.24861
#
# Static dielectric constant tensor:
#      x y z
#    x 1.870940 0.000000 0.000000 
#    y 0.000000 1.910770 0.000000 
#    z 0.000000 0.000000 1.866020 
# 
# From -- ./inp_files/2330.got.cif
#   From: 2010.05.17/outbox.cif.g08.bks.cpg/sg59_2_cif.got.tgz:2330.got - 2010.06.03 14:40:33.
