data_PCOD9452771
_publ_section_title
;
Structure prediction by ZEFSAII (Michael W. Deem and Ramdas Pophale) SiO2 
 PCOD9452771
Probable space group: P M M N
;
_chemical_formula_sum "Si O2"
_cell_formula_units_Z 40
_cell_length_a 8.728568
_cell_length_b 14.653940
_cell_length_c 17.625441
_cell_angle_alpha 90.000000
_cell_angle_beta 90.000000
_cell_angle_gamma 90.000000
_cell_volume 2254.433352
_symmetry_space_group_name_H-M "P M M N"
_symmetry_group_IT_number 59
_space_group.IT_coordinate_system_code '2'
_symmetry_cell_setting 'orthorhombic'
loop_
_space_group_symop_operation_xyz
x,y,z
1/2-x,1/2-y,z
1/2+x,-y,-z
-x,1/2+y,-z
-x,-y,-z
1/2+x,1/2+y,-z
1/2-x,y,z
x,1/2-y,z
loop_
_atom_site_type_symbol
_atom_site_label
_atom_site_fract_x
_atom_site_fract_y
_atom_site_fract_z
Si Si1 0.432063 0.250000 0.145861
Si Si2 0.934880 0.145058 0.515570
Si Si3 0.065467 0.934213 0.787130
Si Si4 0.934702 0.491261 0.381563
Si Si5 0.566635 0.940759 0.069199
Si Si6 0.432752 0.750000 0.024150
O O1 0.250000 0.250000 0.136649
O O2 0.486650 0.160119 0.189935
O O3 0.508480 0.250000 0.062684
O O4 0.750000 0.145113 0.518390
O O5 0.987152 0.250000 0.515966
O O6 0.980257 0.090364 0.439120
O O7 0.997410 0.084306 0.584588
O O8 0.250000 0.920156 0.786727
O O9 0.018675 0.968600 0.704045
O O10 0.030899 0.007909 0.852375
O O11 0.750000 0.497759 0.383317
O O12 0.750000 0.935434 0.061277
O O13 0.495826 0.840678 0.063732
O O14 0.500000 0.000000 0.000000
O O15 0.250000 0.750000 0.023731
#
# Coordination Sequence:
#
# PCOD9452771 Si02
#       6
#     4   8   8   8   8   4
#     4  12  24  36  58  88 117 146 185 238 291 340
#     4   9  18  34  57  83 113 148 183 226 279 333
#     4  10  22  39  60  84 114 150 189 234 285 341
#     4   9  19  36  58  83 110 147 188 229 275 334
#     4  11  22  38  60  85 115 151 192 238 287 341
#     4  12  24  40  60  82 111 154 199 238 287 342
#
# _framework density 17.742816999999999
#
# number of rings (size 3 to 8) (size 9 to 14) (size 15 to 20)
#    0.000    1.800    2.000    2.400    1.400    2.000 
#    1.800    0.000    0.000    0.000    0.000    0.000 
#    0.000    0.000    0.000    0.000    0.000    0.000 
#
# Total GULP energy -223415.832501 kJ/mol
# GULP energy per Si atom -5585.395813 kJ/mol
# Density = 1.770243 g / cm^3
# Si number density = 17.742817 Si / 1000 Ang^3
#
#
#
# Elastic Constant Matrix: (Units=GPa)
#
#
# Indices 1 2 3 4 5 6 
#
# 1 48.8140 62.3202 59.7766 0.0000 0.0000 0.0000
# 2 62.3202 200.0548 98.6520 0.0000 0.0000 0.0000
# 3 59.7766 98.6520 159.8863 0.0000 0.0000 0.0000
# 4 0.0000 0.0000 0.0000 8.8918 0.0000 0.0000
# 5 0.0000 0.0000 0.0000 0.0000 25.7282 0.0000
# 6 0.0000 0.0000 0.0000 0.0000 0.0000 34.2276
#
#
#
# Elastic Compliance Matrix: (Units=1/GPa)
#
#
# Indices 1 2 3 4 5 6 
#
# 1 0.045837 -0.008377 -0.011968 0.000000 0.000000 0.000000
# 2 -0.008377 0.008716 -0.002246 0.000000 0.000000 0.000000
# 3 -0.011968 -0.002246 0.012115 0.000000 0.000000 0.000000
# 4 0.000000 0.000000 0.000000 0.112463 0.000000 0.000000
# 5 0.000000 0.000000 0.000000 0.000000 0.038868 0.000000
# 6 0.000000 0.000000 0.000000 0.000000 0.000000 0.029216
#
#
# Mechanical properties :
#
#
# Convention : Reuss Voigt Hill
#
# Bulk Modulus (GPa) = 46.54395 94.47253 70.50824
# Shear Modulus (GPa) = 16.69127 26.30328 21.49728
#
# Velocity S-wave (km/s) = 3.07047 3.85447 3.48459
# Velocity P-wave (km/s) = 6.23377 8.55397 7.48432
#
# Compressibility (1/GPa) = 0.02148507
#
# Stress axis : x y z
#
# Youngs Moduli (GPa) = 21.81650 114.73610 82.54468
#
# Poissons Ratio (x) = 0.96115 0.98791
# Poissons Ratio (y) = 0.18276 0.18537
# Poissons Ratio (z) = 0.26111 0.25767
#
# Static dielectric constant tensor:
#      x y z
#    x 1.599850 0.000000 0.000000 
#    y 0.000000 1.584040 0.000000 
#    z 0.000000 0.000000 1.585960 
# 
# From -- ./inp_files/19931.got.cif
#   From: 2010.05.17/outbox.cif.g08.bks.cpg/sg59_10_cif.got.tgz:19931.got - 2010.06.03 14:40:33.
