data_PCOD9452491
_publ_section_title
;
Structure prediction by ZEFSAII (Michael W. Deem and Ramdas Pophale) SiO2 
 PCOD9452491
Probable space group: P M M N
;
_chemical_formula_sum "Si O2"
_cell_formula_units_Z 48
_cell_length_a 18.524149
_cell_length_b 8.676411
_cell_length_c 16.220615
_cell_angle_alpha 90.000000
_cell_angle_beta 90.000000
_cell_angle_gamma 90.000000
_cell_volume 2607.028016
_symmetry_space_group_name_H-M "P M M N"
_symmetry_group_IT_number 59
_space_group.IT_coordinate_system_code '2'
_symmetry_cell_setting 'orthorhombic'
loop_
_space_group_symop_operation_xyz
x,y,z
1/2-x,1/2-y,z
1/2+x,-y,-z
-x,1/2+y,-z
-x,-y,-z
1/2+x,1/2+y,-z
1/2-x,y,z
x,1/2-y,z
loop_
_atom_site_type_symbol
_atom_site_label
_atom_site_fract_x
_atom_site_fract_y
_atom_site_fract_z
Si Si1 0.384184 0.435356 0.108311
Si Si2 0.107435 0.434108 0.484334
Si Si3 0.250000 0.934430 0.403691
Si Si4 0.250000 0.934867 0.210609
Si Si5 0.526873 0.433932 0.366844
Si Si6 0.332756 0.062554 0.924745
Si Si7 0.031402 0.064894 0.816684
O O1 0.385695 0.250000 0.112564
O O2 0.321430 0.497558 0.167930
O O3 0.462006 0.499068 0.135008
O O4 0.361275 0.481034 0.015583
O O5 0.107453 0.250000 0.492994
O O6 0.180822 0.495740 0.447538
O O7 0.089660 0.508958 0.572340
O O8 0.045192 0.476021 0.418186
O O9 0.250000 0.750000 0.410354
O O10 0.250000 0.974528 0.307032
O O11 0.250000 0.750000 0.201983
O O12 0.528976 0.250000 0.357485
O O13 0.528175 0.510660 0.277711
O O14 0.250000 0.009024 0.911818
O O15 0.330578 0.250000 0.922833
O O16 0.393294 0.013659 0.858987
O O17 0.028139 0.250000 0.820286
#
# Coordination Sequence:
#
# PCOD9452491 Si02
#       7
#     8   8   4   4   8   8   8
#     4  11  21  37  61  85 117 156 196 242 297 352
#     4  10  21  38  61  85 113 152 193 236 289 349
#     4  11  23  37  55  84 119 152 185 235 290 345
#     4  11  23  37  57  88 123 154 193 243 296 349
#     4  10  21  39  61  85 116 152 194 240 291 348
#     4   9  19  38  60  83 114 156 199 243 294 346
#     4  11  22  36  59  88 118 153 200 248 290 348
#
# _framework density 18.411769
#
# number of rings (size 3 to 8) (size 9 to 14) (size 15 to 20)
#    0.000    1.667    0.833    4.000    0.000    6.000 
#    1.500    2.500    0.000    0.000    0.000    0.000 
#    0.000    0.000    0.000    0.000    0.000    0.000 
#
# Total GULP energy -268172.566865 kJ/mol
# GULP energy per Si atom -5586.928476 kJ/mol
# Density = 1.836986 g / cm^3
# Si number density = 18.411769 Si / 1000 Ang^3
#
#
#
# Elastic Constant Matrix: (Units=GPa)
#
#
# Indices 1 2 3 4 5 6 
#
# 1 154.1072 37.4791 86.7195 0.0000 0.0000 0.0000
# 2 37.4791 35.7036 26.4490 0.0000 0.0000 0.0000
# 3 86.7195 26.4490 84.6809 0.0000 0.0000 0.0000
# 4 0.0000 0.0000 0.0000 24.1173 0.0000 0.0000
# 5 0.0000 0.0000 0.0000 0.0000 27.3737 0.0000
# 6 0.0000 0.0000 0.0000 0.0000 0.0000 26.4610
#
#
#
# Elastic Compliance Matrix: (Units=1/GPa)
#
#
# Indices 1 2 3 4 5 6 
#
# 1 0.016296 -0.006172 -0.014761 0.000000 0.000000 0.000000
# 2 -0.006172 0.038777 -0.005791 0.000000 0.000000 0.000000
# 3 -0.014761 -0.005791 0.028734 0.000000 0.000000 0.000000
# 4 0.000000 0.000000 0.000000 0.041464 0.000000 0.000000
# 5 0.000000 0.000000 0.000000 0.000000 0.036531 0.000000
# 6 0.000000 0.000000 0.000000 0.000000 0.000000 0.037791
#
#
# Mechanical properties :
#
#
# Convention : Reuss Voigt Hill
#
# Bulk Modulus (GPa) = 32.93830 63.97634 48.45732
# Shear Modulus (GPa) = 18.99968 23.84665 21.42317
#
# Velocity S-wave (km/s) = 3.21585 3.60277 3.41480
# Velocity P-wave (km/s) = 5.63184 7.22008 6.47484
#
# Compressibility (1/GPa) = 0.03035980
#
# Stress axis : x y z
#
# Youngs Moduli (GPa) = 61.36374 25.78831 34.80193
#
# Poissons Ratio (x) = 0.15916 0.51371
# Poissons Ratio (y) = 0.37873 0.20154
# Poissons Ratio (z) = 0.90578 0.14934
#
# Static dielectric constant tensor:
#      x y z
#    x 1.612590 0.000000 0.000000 
#    y 0.000000 1.620400 0.000000 
#    z 0.000000 0.000000 1.605430 
# 
# From -- ./inp_files/20536.got.cif
#   From: 2010.05.17/outbox.cif.g08.bks.cpg/sg59_11_cif.got.tgz:20536.got - 2010.06.03 14:40:33.
