data_PCOD9452872
_publ_section_title
;
Structure prediction by ZEFSAII (Michael W. Deem and Ramdas Pophale) SiO2 
 PCOD9452872
Probable space group: P M M N
;
_chemical_formula_sum "Si O2"
_cell_formula_units_Z 64
_cell_length_a 8.484881
_cell_length_b 31.388792
_cell_length_c 12.064409
_cell_angle_alpha 90.000000
_cell_angle_beta 90.000000
_cell_angle_gamma 90.000000
_cell_volume 3213.116038
_symmetry_space_group_name_H-M "P M M N"
_symmetry_group_IT_number 59
_space_group.IT_coordinate_system_code '2'
_symmetry_cell_setting 'orthorhombic'
loop_
_space_group_symop_operation_xyz
x,y,z
1/2-x,1/2-y,z
1/2+x,-y,-z
-x,1/2+y,-z
-x,-y,-z
1/2+x,1/2+y,-z
1/2-x,y,z
x,1/2-y,z
loop_
_atom_site_type_symbol
_atom_site_label
_atom_site_fract_x
_atom_site_fract_y
_atom_site_fract_z
Si Si1 0.065575 0.088837 0.246914
Si Si2 0.940526 0.202572 0.005394
Si Si3 0.436692 0.546918 0.974070
Si Si4 0.934904 0.182232 0.255766
Si Si5 0.563505 0.376551 0.629657
Si Si6 0.434954 0.379535 0.875235
Si Si7 0.436757 0.202719 0.492783
Si Si8 0.939146 0.453926 0.465128
O O1 0.250000 0.100215 0.249482
O O2 0.023534 0.064769 0.134364
O O3 0.963096 0.131644 0.253319
O O4 0.021085 0.060211 0.351638
O O5 0.750000 0.198473 0.000592
O O6 0.983269 0.250000 0.964845
O O7 0.985327 0.198894 0.135195
O O8 0.013745 0.163801 0.937394
O O9 0.250000 0.545567 0.954323
O O10 0.500000 0.500000 0.000000
O O11 0.473663 0.580534 0.071491
O O12 0.750000 0.191956 0.269829
O O13 0.025935 0.199428 0.362158
O O14 0.750000 0.377491 0.652174
O O15 0.473544 0.375749 0.745711
O O16 0.523333 0.335090 0.556756
O O17 0.522591 0.418264 0.557529
O O18 0.250000 0.386387 0.892798
O O19 0.250000 0.197764 0.509360
O O20 0.484393 0.250000 0.531437
O O21 0.750000 0.454263 0.450759
O O22 0.000000 0.500000 0.500000
#
# Coordination Sequence:
#
# PCOD9452872 Si02
#       8
#     8   8   8   8   8   8   8   8
#     4  12  24  41  68 100 135 173 213 264 324 381
#     4  10  22  41  66  95 129 171 218 267 321 383
#     4  12  26  46  70  98 133 172 218 267 320 383
#     4  11  21  38  65  97 132 172 215 264 321 384
#     4  11  25  45  68  92 126 171 219 268 322 386
#     4  12  26  44  67  95 130 172 216 268 327 385
#     4  11  24  41  64  96 132 170 215 268 326 386
#     4  11  25  44  68  98 131 171 216 266 323 383
#
# _framework density 19.918361000000001
#
# number of rings (size 3 to 8) (size 9 to 14) (size 15 to 20)
#    0.000    0.750    2.500    5.250    1.750    4.250 
#    0.000    0.000    0.000    0.000    0.000    0.000 
#    0.000    0.000    0.000    0.000    0.000    0.000 
#
# Total GULP energy -358189.292788 kJ/mol
# GULP energy per Si atom -5596.707700 kJ/mol
# Density = 1.987303 g / cm^3
# Si number density = 19.918361 Si / 1000 Ang^3
#
#
#
# Elastic Constant Matrix: (Units=GPa)
#
#
# Indices 1 2 3 4 5 6 
#
# 1 45.0806 5.1499 7.8613 0.0000 0.0000 0.0000
# 2 5.1499 129.8276 22.9957 0.0000 0.0000 0.0000
# 3 7.8613 22.9957 82.5370 0.0000 0.0000 0.0000
# 4 0.0000 0.0000 0.0000 31.7552 0.0000 0.0000
# 5 0.0000 0.0000 0.0000 0.0000 23.8076 0.0000
# 6 0.0000 0.0000 0.0000 0.0000 0.0000 23.3317
#
#
#
# Elastic Compliance Matrix: (Units=1/GPa)
#
#
# Indices 1 2 3 4 5 6 
#
# 1 0.022593 -0.000542 -0.002001 0.000000 0.000000 0.000000
# 2 -0.000542 0.008115 -0.002209 0.000000 0.000000 0.000000
# 3 -0.002001 -0.002209 0.012922 0.000000 0.000000 0.000000
# 4 0.000000 0.000000 0.000000 0.031491 0.000000 0.000000
# 5 0.000000 0.000000 0.000000 0.000000 0.042003 0.000000
# 6 0.000000 0.000000 0.000000 0.000000 0.000000 0.042860
#
#
# Mechanical properties :
#
#
# Convention : Reuss Voigt Hill
#
# Bulk Modulus (GPa) = 29.30296 36.60655 32.95475
# Shear Modulus (GPa) = 27.64496 30.54146 29.09321
#
# Velocity S-wave (km/s) = 3.72951 3.92003 3.82596
# Velocity P-wave (km/s) = 5.76968 6.23755 6.00817
#
# Compressibility (1/GPa) = 0.03412625
#
# Stress axis : x y z
#
# Youngs Moduli (GPa) = 44.26089 123.22318 77.38784
#
# Poissons Ratio (x) = 0.06676 0.15485
# Poissons Ratio (y) = 0.02398 0.17098
# Poissons Ratio (z) = 0.08856 0.27225
#
# Static dielectric constant tensor:
#      x y z
#    x 1.645880 0.000000 0.000000 
#    y 0.000000 1.679530 0.000000 
#    z 0.000000 0.000000 1.674180 
# 
# From -- ./inp_files/15012.got.cif
#   From: 2010.05.17/outbox.cif.g08.bks.cpg/sg59_8_cif.got.tgz:15012.got - 2010.06.03 14:40:33.
