data_PCOD9452858
_publ_section_title
;
Structure prediction by ZEFSAII (Michael W. Deem and Ramdas Pophale) SiO2 
 PCOD9452858
Probable space group: P M M N
;
_chemical_formula_sum "Si O2"
_cell_formula_units_Z 48
_cell_length_a 14.293304
_cell_length_b 27.107915
_cell_length_c 5.348698
_cell_angle_alpha 90.000000
_cell_angle_beta 90.000000
_cell_angle_gamma 90.000000
_cell_volume 2072.415459
_symmetry_space_group_name_H-M "P M M N"
_symmetry_group_IT_number 59
_space_group.IT_coordinate_system_code '2'
_symmetry_cell_setting 'orthorhombic'
loop_
_space_group_symop_operation_xyz
x,y,z
1/2-x,1/2-y,z
1/2+x,-y,-z
-x,1/2+y,-z
-x,-y,-z
1/2+x,1/2+y,-z
1/2-x,y,z
x,1/2-y,z
loop_
_atom_site_type_symbol
_atom_site_label
_atom_site_fract_x
_atom_site_fract_y
_atom_site_fract_z
Si Si1 0.948735 0.695376 0.776915
Si Si2 0.931108 0.040783 0.117677
Si Si3 0.983851 0.131927 0.849277
Si Si4 0.357423 0.806298 0.474761
Si Si5 0.852195 0.492805 0.631604
Si Si6 0.357889 0.396591 0.485596
O O1 0.912160 0.750000 0.736042
O O2 0.883158 0.652965 0.664210
O O3 0.055331 0.693549 0.667913
O O4 0.963016 0.681353 0.065498
O O5 0.914341 0.028330 0.405716
O O6 0.961537 0.097067 0.082840
O O7 0.854451 0.033953 0.898080
O O8 0.000000 0.000000 0.000000
O O9 0.890770 0.150794 0.713157
O O10 0.060013 0.101881 0.690673
O O11 0.250000 0.814620 0.564315
O O12 0.357586 0.750000 0.367450
O O13 0.750000 0.486784 0.518645
O O14 0.865710 0.551758 0.663005
O O15 0.250000 0.394211 0.578296
#
# Coordination Sequence:
#
# PCOD9452858 Si02
#       6
#     8   8   8   8   8   8
#     4  10  22  41  63  93 126 166 214 271 333 393
#     4  12  24  41  67  96 135 176 224 271 340 396
#     4  11  23  38  65  92 128 169 215 272 330 396
#     4   9  20  39  61  87 122 163 209 264 328 395
#     4  11  25  44  66  97 135 178 224 277 333 403
#     4  10  23  42  65  91 125 171 219 268 331 397
#
# _framework density 23.161382
#
# number of rings (size 3 to 8) (size 9 to 14) (size 15 to 20)
#    0.000    1.500    1.667    2.500    4.667    3.667 
#    0.000    1.667    0.000    0.000    0.000    0.000 
#    0.000    0.000    0.000    0.000    0.000    0.000 
#
# Total GULP energy -267635.820632 kJ/mol
# GULP energy per Si atom -5575.746263 kJ/mol
# Density = 2.310867 g / cm^3
# Si number density = 23.161382 Si / 1000 Ang^3
#
#
#
# Elastic Constant Matrix: (Units=GPa)
#
#
# Indices 1 2 3 4 5 6 
#
# 1 101.0646 30.8464 15.6540 0.0000 0.0000 0.0000
# 2 30.8464 127.8859 25.2886 0.0000 0.0000 0.0000
# 3 15.6540 25.2886 52.4438 0.0000 0.0000 0.0000
# 4 0.0000 0.0000 0.0000 42.7436 0.0000 0.0000
# 5 0.0000 0.0000 0.0000 0.0000 17.6469 0.0000
# 6 0.0000 0.0000 0.0000 0.0000 0.0000 30.4362
#
#
#
# Elastic Compliance Matrix: (Units=1/GPa)
#
#
# Indices 1 2 3 4 5 6 
#
# 1 0.010905 -0.002196 -0.002196 0.000000 0.000000 0.000000
# 2 -0.002196 0.009086 -0.003726 0.000000 0.000000 0.000000
# 3 -0.002196 -0.003726 0.021520 0.000000 0.000000 0.000000
# 4 0.000000 0.000000 0.000000 0.023395 0.000000 0.000000
# 5 0.000000 0.000000 0.000000 0.000000 0.056667 0.000000
# 6 0.000000 0.000000 0.000000 0.000000 0.000000 0.032856
#
#
# Mechanical properties :
#
#
# Convention : Reuss Voigt Hill
#
# Bulk Modulus (GPa) = 39.56441 47.21916 43.39178
# Shear Modulus (GPa) = 27.91890 32.13903 30.02896
#
# Velocity S-wave (km/s) = 3.47566 3.72911 3.60461
# Velocity P-wave (km/s) = 5.76421 6.24283 6.00829
#
# Compressibility (1/GPa) = 0.02527524
#
# Stress axis : x y z
#
# Youngs Moduli (GPa) = 91.70025 110.06054 46.46809
#
# Poissons Ratio (x) = 0.24170 0.10205
# Poissons Ratio (y) = 0.20138 0.17313
# Poissons Ratio (z) = 0.20139 0.41006
#
# Static dielectric constant tensor:
#      x y z
#    x 1.999410 0.000000 0.000000 
#    y 0.000000 1.852850 0.000000 
#    z 0.000000 0.000000 1.948170 
# 
# From -- ./inp_files/2154.got.cif
#   From: 2010.05.17/outbox.cif.g08.bks.cpg/sg59_2_cif.got.tgz:2154.got - 2010.06.03 14:40:33.
