data_PCOD9452650
_publ_section_title
;
Structure prediction by ZEFSAII (Michael W. Deem and Ramdas Pophale) SiO2 
 PCOD9452650
Probable space group: P M M N
;
_chemical_formula_sum "Si O2"
_cell_formula_units_Z 48
_cell_length_a 22.789665
_cell_length_b 17.523219
_cell_length_c 5.608497
_cell_angle_alpha 90.000000
_cell_angle_beta 90.000000
_cell_angle_gamma 90.000000
_cell_volume 2239.743691
_symmetry_space_group_name_H-M "P M M N"
_symmetry_group_IT_number 59
_space_group.IT_coordinate_system_code '2'
_symmetry_cell_setting 'orthorhombic'
loop_
_space_group_symop_operation_xyz
x,y,z
1/2-x,1/2-y,z
1/2+x,-y,-z
-x,1/2+y,-z
-x,-y,-z
1/2+x,1/2+y,-z
1/2-x,y,z
x,1/2-y,z
loop_
_atom_site_type_symbol
_atom_site_label
_atom_site_fract_x
_atom_site_fract_y
_atom_site_fract_z
Si Si1 0.089611 0.340382 0.379396
Si Si2 0.683686 0.959523 0.579575
Si Si3 0.428610 0.837988 0.360984
Si Si4 0.534910 0.900707 0.114875
Si Si5 0.182773 0.609716 0.123961
Si Si6 0.596701 0.052741 0.242227
O O1 0.092322 0.250000 0.376704
O O2 0.153175 0.380430 0.359129
O O3 0.062564 0.365290 0.637725
O O4 0.057145 0.368057 0.137296
O O5 0.750000 0.951463 0.492868
O O6 0.684012 0.020875 0.794251
O O7 0.641217 0.999653 0.392074
O O8 0.444541 0.750000 0.396873
O O9 0.467160 0.875429 0.149823
O O10 0.359044 0.845152 0.306561
O O11 0.439862 0.893565 0.582073
O O12 0.554726 0.989410 0.122543
O O13 0.250000 0.635790 0.103334
O O14 0.142533 0.607553 0.892297
#
# Coordination Sequence:
#
# PCOD9452650 Si02
#       6
#     8   8   8   8   8   8
#     4  11  22  39  63  96 135 175 215 271 335 393
#     4   9  19  37  60  89 125 167 216 267 321 389
#     4  11  25  41  61  93 131 170 214 277 340 396
#     4  11  24  43  67  95 132 175 221 270 327 403
#     4  10  21  40  64  89 121 165 221 273 324 388
#     4  10  21  40  66  94 122 171 224 271 329 395
#
# _framework density 21.431025000000002
#
# number of rings (size 3 to 8) (size 9 to 14) (size 15 to 20)
#    0.000    1.667    1.667    2.500    2.333    2.667 
#    0.000    0.000    0.000    2.000    0.000    0.000 
#    0.000    0.000    0.000    0.000    0.000    0.000 
#
# Total GULP energy -267759.962387 kJ/mol
# GULP energy per Si atom -5578.332550 kJ/mol
# Density = 2.138225 g / cm^3
# Si number density = 21.431025 Si / 1000 Ang^3
#
#
#
# Elastic Constant Matrix: (Units=GPa)
#
#
# Indices 1 2 3 4 5 6 
#
# 1 106.9590 49.0217 14.7264 0.0000 0.0000 0.0000
# 2 49.0217 124.5805 32.1564 0.0000 0.0000 0.0000
# 3 14.7264 32.1564 79.0097 0.0000 0.0000 0.0000
# 4 0.0000 0.0000 0.0000 24.7728 0.0000 0.0000
# 5 0.0000 0.0000 0.0000 0.0000 19.1328 0.0000
# 6 0.0000 0.0000 0.0000 0.0000 0.0000 10.6154
#
#
#
# Elastic Compliance Matrix: (Units=1/GPa)
#
#
# Indices 1 2 3 4 5 6 
#
# 1 0.011414 -0.004405 -0.000335 0.000000 0.000000 0.000000
# 2 -0.004405 0.010669 -0.003521 0.000000 0.000000 0.000000
# 3 -0.000335 -0.003521 0.014152 0.000000 0.000000 0.000000
# 4 0.000000 0.000000 0.000000 0.040367 0.000000 0.000000
# 5 0.000000 0.000000 0.000000 0.000000 0.052266 0.000000
# 6 0.000000 0.000000 0.000000 0.000000 0.000000 0.094203
#
#
# Mechanical properties :
#
#
# Convention : Reuss Voigt Hill
#
# Bulk Modulus (GPa) = 50.72597 55.81760 53.27178
# Shear Modulus (GPa) = 20.31158 25.21385 22.76272
#
# Velocity S-wave (km/s) = 3.08192 3.43375 3.26258
# Velocity P-wave (km/s) = 6.03201 6.46704 6.25331
#
# Compressibility (1/GPa) = 0.01971377
#
# Stress axis : x y z
#
# Youngs Moduli (GPa) = 87.60853 93.72755 70.66059
#
# Poissons Ratio (x) = 0.41288 0.02365
# Poissons Ratio (y) = 0.38593 0.24881
# Poissons Ratio (z) = 0.02932 0.33004
#
# Static dielectric constant tensor:
#      x y z
#    x 1.805960 0.000000 0.000000 
#    y 0.000000 1.722910 0.000000 
#    z 0.000000 0.000000 1.892410 
# 
# From -- ./inp_files/2873.got.cif
#   From: 2010.05.17/outbox.cif.g08.bks.cpg/sg59_2_cif.got.tgz:2873.got - 2010.06.03 14:40:33.
