data_PCOD9452005
_publ_section_title
;
Structure prediction by ZEFSAII (Michael W. Deem and Ramdas Pophale) SiO2 
 PCOD9452005
Probable space group: P M M N
;
_chemical_formula_sum "Si O2"
_cell_formula_units_Z 56
_cell_length_a 22.906681
_cell_length_b 9.236634
_cell_length_c 14.562194
_cell_angle_alpha 90.000000
_cell_angle_beta 90.000000
_cell_angle_gamma 90.000000
_cell_volume 3081.078160
_symmetry_space_group_name_H-M "P M M N"
_symmetry_group_IT_number 59
_space_group.IT_coordinate_system_code '2'
_symmetry_cell_setting 'orthorhombic'
loop_
_space_group_symop_operation_xyz
x,y,z
1/2-x,1/2-y,z
1/2+x,-y,-z
-x,1/2+y,-z
-x,-y,-z
1/2+x,1/2+y,-z
1/2-x,y,z
x,1/2-y,z
loop_
_atom_site_type_symbol
_atom_site_label
_atom_site_fract_x
_atom_site_fract_y
_atom_site_fract_z
Si Si1 0.750000 0.423958 0.162742
Si Si2 0.750000 0.578731 0.965834
Si Si3 0.025916 0.422174 0.711182
Si Si4 0.523469 0.081662 0.912781
Si Si5 0.864959 0.580421 0.849261
Si Si6 0.815251 0.577603 0.494016
Si Si7 0.409166 0.421704 0.352449
Si Si8 0.349564 0.575778 0.690450
O O1 0.750000 0.250000 0.153198
O O2 0.750000 0.494799 0.062191
O O3 0.807501 0.462949 0.223277
O O4 0.750000 0.750000 0.987721
O O5 0.805151 0.549527 0.900705
O O6 0.030113 0.250000 0.691616
O O7 0.086539 0.503172 0.692846
O O8 0.012790 0.441983 0.819506
O O9 0.969552 0.490448 0.659352
O O10 0.524262 0.250000 0.932102
O O11 0.587043 0.021897 0.892269
O O12 0.500000 0.000000 0.000000
O O13 0.879503 0.750000 0.865294
O O14 0.870294 0.558728 0.739828
O O15 0.750000 0.556920 0.534377
O O16 0.820926 0.750000 0.474016
O O17 0.867915 0.537935 0.562445
O O18 0.820249 0.485986 0.401550
O O19 0.423076 0.250000 0.359019
O O20 0.354175 0.750000 0.687693
#
# Coordination Sequence:
#
# PCOD9452005 Si02
#       8
#     4   4   8   8   8   8   8   8
#     4  10  24  42  57  80 114 152 195 240 287 344
#     4  10  22  36  57  86 116 152 191 232 281 332
#     4  10  22  39  59  85 115 149 192 240 287 337
#     4  10  21  36  56  81 111 147 190 236 283 335
#     4   9  19  36  56  84 118 150 187 229 276 335
#     4  10  21  37  61  91 118 151 192 235 284 339
#     4   9  19  37  61  88 120 153 188 231 285 343
#     4  11  23  41  62  84 114 152 193 239 292 344
#
# _framework density 18.175457000000002
#
# number of rings (size 3 to 8) (size 9 to 14) (size 15 to 20)
#    0.000    2.143    0.714    1.286    3.000    4.571 
#    0.000    0.000    0.000    0.000    0.000    0.000 
#    0.000    0.000    0.000    0.000    0.000    0.000 
#
# Total GULP energy -312400.111729 kJ/mol
# GULP energy per Si atom -5578.573424 kJ/mol
# Density = 1.813409 g / cm^3
# Si number density = 18.175457 Si / 1000 Ang^3
#
#
#
# Elastic Constant Matrix: (Units=GPa)
#
#
# Indices 1 2 3 4 5 6 
#
# 1 120.3221 54.5077 52.7380 0.0000 0.0000 0.0000
# 2 54.5077 38.8851 33.9939 0.0000 0.0000 0.0000
# 3 52.7380 33.9939 39.4509 0.0000 0.0000 0.0000
# 4 0.0000 0.0000 0.0000 28.6121 0.0000 0.0000
# 5 0.0000 0.0000 0.0000 0.0000 14.7890 0.0000
# 6 0.0000 0.0000 0.0000 0.0000 0.0000 24.3529
#
#
#
# Elastic Compliance Matrix: (Units=1/GPa)
#
#
# Indices 1 2 3 4 5 6 
#
# 1 0.024238 -0.022903 -0.012667 0.000000 0.000000 0.000000
# 2 -0.022903 0.125879 -0.077850 0.000000 0.000000 0.000000
# 3 -0.012667 -0.077850 0.109363 0.000000 0.000000 0.000000
# 4 0.000000 0.000000 0.000000 0.034950 0.000000 0.000000
# 5 0.000000 0.000000 0.000000 0.000000 0.067618 0.000000
# 6 0.000000 0.000000 0.000000 0.000000 0.000000 0.041063
#
#
# Mechanical properties :
#
#
# Convention : Reuss Voigt Hill
#
# Bulk Modulus (GPa) = 30.63728 53.45969 42.04849
# Shear Modulus (GPa) = 7.80237 17.37869 12.59053
#
# Velocity S-wave (km/s) = 2.07416 3.09554 2.63482
# Velocity P-wave (km/s) = 4.75701 6.50027 5.69573
#
# Compressibility (1/GPa) = 0.03263997
#
# Stress axis : x y z
#
# Youngs Moduli (GPa) = 41.25672 7.94416 9.14387
#
# Poissons Ratio (x) = 0.18194 0.11583
# Poissons Ratio (y) = 0.94489 0.71185
# Poissons Ratio (z) = 0.52261 0.61845
#
# Static dielectric constant tensor:
#      x y z
#    x 1.642080 0.000000 0.000000 
#    y 0.000000 1.603160 0.000000 
#    z 0.000000 0.000000 6.664380 
# 
# From -- ./inp_files/21136.got.cif
#   From: 2010.05.17/outbox.cif.g08.bks.cpg/sg59_11_cif.got.tgz:21136.got - 2010.06.03 14:40:33.
