data_PCOD9452158
_publ_section_title
;
Structure prediction by ZEFSAII (Michael W. Deem and Ramdas Pophale) SiO2 
 PCOD9452158
Probable space group: P M M N
;
_chemical_formula_sum "Si O2"
_cell_formula_units_Z 48
_cell_length_a 24.325978
_cell_length_b 8.350990
_cell_length_c 13.061912
_cell_angle_alpha 90.000000
_cell_angle_beta 90.000000
_cell_angle_gamma 90.000000
_cell_volume 2653.475162
_symmetry_space_group_name_H-M "P M M N"
_symmetry_group_IT_number 59
_space_group.IT_coordinate_system_code '2'
_symmetry_cell_setting 'orthorhombic'
loop_
_space_group_symop_operation_xyz
x,y,z
1/2-x,1/2-y,z
1/2+x,-y,-z
-x,1/2+y,-z
-x,-y,-z
1/2+x,1/2+y,-z
1/2-x,y,z
x,1/2-y,z
loop_
_atom_site_type_symbol
_atom_site_label
_atom_site_fract_x
_atom_site_fract_y
_atom_site_fract_z
Si Si1 0.813300 0.943499 0.104228
Si Si2 0.812825 0.058723 0.875315
Si Si3 0.187224 0.445497 0.499956
Si Si4 0.380466 0.445658 0.699762
Si Si5 0.113440 0.441201 0.308630
Si Si6 0.002319 0.058815 0.617314
O O1 0.750000 0.987516 0.129896
O O2 0.815431 0.750000 0.099587
O O3 0.854609 0.998713 0.192823
O O4 0.825689 0.009703 0.991751
O O5 0.750000 0.001978 0.853288
O O6 0.813270 0.250000 0.867350
O O7 0.855799 0.989053 0.794947
O O8 0.250000 0.499871 0.492129
O O9 0.187698 0.250000 0.498653
O O10 0.158856 0.493948 0.605931
O O11 0.150672 0.498952 0.404141
O O12 0.380717 0.250000 0.701627
O O13 0.442045 0.499470 0.672821
O O14 0.110277 0.250000 0.314770
O O15 0.052448 0.507775 0.323583
O O16 0.005056 0.250000 0.613758
O O17 0.000000 0.000000 0.500000
#
# Coordination Sequence:
#
# PCOD9452158 Si02
#       6
#     8   8   8   8   8   8
#     4   9  17  32  57  84 107 136 177 223 270 324
#     4  10  21  37  56  80 113 147 177 218 275 331
#     4   9  16  27  48  79 109 134 167 218 273 321
#     4   9  17  31  52  80 109 137 177 225 272 322
#     4  11  21  35  55  81 109 143 189 230 269 321
#     4  11  21  36  55  78 110 149 187 226 276 329
#
# _framework density 18.089486000000001
#
# number of rings (size 3 to 8) (size 9 to 14) (size 15 to 20)
#    0.000    2.167    1.667    2.500    0.000    3.667 
#    0.000    2.500    0.000    0.000    0.000    0.000 
#    0.000    0.000    0.000    0.000    0.000    0.000 
#
# Total GULP energy -267930.786871 kJ/mol
# GULP energy per Si atom -5581.891393 kJ/mol
# Density = 1.804831 g / cm^3
# Si number density = 18.089486 Si / 1000 Ang^3
#
#
#
# Elastic Constant Matrix: (Units=GPa)
#
#
# Indices 1 2 3 4 5 6 
#
# 1 124.0951 12.5731 57.9017 0.0000 0.0000 0.0000
# 2 12.5731 19.1310 10.5068 0.0000 0.0000 0.0000
# 3 57.9017 10.5068 94.0315 0.0000 0.0000 0.0000
# 4 0.0000 0.0000 0.0000 11.8760 0.0000 0.0000
# 5 0.0000 0.0000 0.0000 0.0000 21.3414 0.0000
# 6 0.0000 0.0000 0.0000 0.0000 0.0000 20.6727
#
#
#
# Elastic Compliance Matrix: (Units=1/GPa)
#
#
# Indices 1 2 3 4 5 6 
#
# 1 0.011579 -0.003935 -0.006690 0.000000 0.000000 0.000000
# 2 -0.003935 0.057026 -0.003949 0.000000 0.000000 0.000000
# 3 -0.006690 -0.003949 0.015195 0.000000 0.000000 0.000000
# 4 0.000000 0.000000 0.000000 0.084204 0.000000 0.000000
# 5 0.000000 0.000000 0.000000 0.000000 0.046857 0.000000
# 6 0.000000 0.000000 0.000000 0.000000 0.000000 0.048373
#
#
# Mechanical properties :
#
#
# Convention : Reuss Voigt Hill
#
# Bulk Modulus (GPa) = 18.29753 44.35788 31.32771
# Shear Modulus (GPa) = 16.09789 21.19641 18.64715
#
# Velocity S-wave (km/s) = 2.98636 3.42680 3.21413
# Velocity P-wave (km/s) = 4.69341 6.34286 5.57943
#
# Compressibility (1/GPa) = 0.05465217
#
# Stress axis : x y z
#
# Youngs Moduli (GPa) = 86.36660 17.53577 65.80929
#
# Poissons Ratio (x) = 0.06901 0.44026
# Poissons Ratio (y) = 0.33989 0.25986
# Poissons Ratio (z) = 0.57779 0.06924
#
# Static dielectric constant tensor:
#      x y z
#    x 1.616770 0.000000 0.000000 
#    y 0.000000 1.633120 0.000000 
#    z 0.000000 0.000000 1.590190 
# 
# From -- ./inp_files/14339.got.cif
#   From: 2010.05.17/outbox.cif.g08.bks.cpg/sg59_8_cif.got.tgz:14339.got - 2010.06.03 14:40:33.
