data_PCOD9452333
_publ_section_title
;
Structure prediction by ZEFSAII (Michael W. Deem and Ramdas Pophale) SiO2 
 PCOD9452333
Probable space group: P M M N
;
_chemical_formula_sum "Si O2"
_cell_formula_units_Z 64
_cell_length_a 14.966396
_cell_length_b 22.892087
_cell_length_c 9.829914
_cell_angle_alpha 90.000000
_cell_angle_beta 90.000000
_cell_angle_gamma 90.000000
_cell_volume 3367.846882
_symmetry_space_group_name_H-M "P M M N"
_symmetry_group_IT_number 59
_space_group.IT_coordinate_system_code '2'
_symmetry_cell_setting 'orthorhombic'
loop_
_space_group_symop_operation_xyz
x,y,z
1/2-x,1/2-y,z
1/2+x,-y,-z
-x,1/2+y,-z
-x,-y,-z
1/2+x,1/2+y,-z
1/2-x,y,z
x,1/2-y,z
loop_
_atom_site_type_symbol
_atom_site_label
_atom_site_fract_x
_atom_site_fract_y
_atom_site_fract_z
Si Si1 0.354362 0.083820 0.709766
Si Si2 0.396032 0.490996 0.968516
Si Si3 0.353961 0.529450 0.519627
Si Si4 0.149310 0.455647 0.267534
Si Si5 0.351498 0.819842 0.192268
Si Si6 0.513409 0.682875 0.389901
Si Si7 0.352463 0.877672 0.902974
Si Si8 0.981605 0.123758 0.339551
O O1 0.250000 0.098613 0.712184
O O2 0.382206 0.058441 0.855963
O O3 0.413017 0.138069 0.663698
O O4 0.366686 0.030599 0.603584
O O5 0.358705 0.551973 0.910928
O O6 0.500000 0.500000 0.000000
O O7 0.352288 0.474248 0.111148
O O8 0.250000 0.547570 0.535701
O O9 0.370874 0.511431 0.363611
O O10 0.421364 0.576254 0.579765
O O11 0.250000 0.436028 0.305622
O O12 0.072853 0.407934 0.293467
O O13 0.250000 0.836444 0.230610
O O14 0.352804 0.750000 0.166938
O O15 0.421543 0.831871 0.310934
O O16 0.374054 0.852624 0.052185
O O17 0.535620 0.750000 0.359797
O O18 0.501490 0.673221 0.550519
O O19 0.250000 0.861053 0.870363
O O20 0.423060 0.857664 0.790149
#
# Coordination Sequence:
#
# PCOD9452333 Si02
#       8
#     8   8   8   8   8   8   8   8
#     4  11  22  40  64  90 126 161 200 254 309 368
#     4  12  22  36  60  93 130 160 192 247 307 370
#     4  10  21  37  59  91 126 160 192 235 302 368
#     4  11  23  37  55  86 124 163 198 236 299 369
#     4   9  21  42  63  84 116 159 206 256 308 367
#     4  11  26  43  63  89 118 162 216 260 306 362
#     4  11  22  37  60  92 125 160 200 245 307 376
#     4  12  23  37  61  87 126 158 200 255 302 357
#
# _framework density 19.003240999999999
#
# number of rings (size 3 to 8) (size 9 to 14) (size 15 to 20)
#    0.000    1.125    3.750    2.625    3.500    1.750 
#    0.000    0.000    0.000    0.000    0.000    0.000 
#    0.000    0.000    0.000    0.000    0.000    0.000 
#
# Total GULP energy -357908.241390 kJ/mol
# GULP energy per Si atom -5592.316272 kJ/mol
# Density = 1.895999 g / cm^3
# Si number density = 19.003241 Si / 1000 Ang^3
#
#
#
# Elastic Constant Matrix: (Units=GPa)
#
#
# Indices 1 2 3 4 5 6 
#
# 1 76.1956 22.2018 14.7982 0.0000 0.0000 0.0000
# 2 22.2018 47.1112 17.4200 0.0000 0.0000 0.0000
# 3 14.7982 17.4200 91.0931 0.0000 0.0000 0.0000
# 4 0.0000 0.0000 0.0000 22.1273 0.0000 0.0000
# 5 0.0000 0.0000 0.0000 0.0000 24.4066 0.0000
# 6 0.0000 0.0000 0.0000 0.0000 0.0000 20.5685
#
#
#
# Elastic Compliance Matrix: (Units=1/GPa)
#
#
# Indices 1 2 3 4 5 6 
#
# 1 0.015333 -0.006784 -0.001193 0.000000 0.000000 0.000000
# 2 -0.006784 0.025844 -0.003840 0.000000 0.000000 0.000000
# 3 -0.001193 -0.003840 0.011906 0.000000 0.000000 0.000000
# 4 0.000000 0.000000 0.000000 0.045193 0.000000 0.000000
# 5 0.000000 0.000000 0.000000 0.000000 0.040973 0.000000
# 6 0.000000 0.000000 0.000000 0.000000 0.000000 0.048618
#
#
# Mechanical properties :
#
#
# Convention : Reuss Voigt Hill
#
# Bulk Modulus (GPa) = 33.95992 35.91558 34.93775
# Shear Modulus (GPa) = 22.59201 24.08580 23.33891
#
# Velocity S-wave (km/s) = 3.45171 3.56400 3.50831
# Velocity P-wave (km/s) = 5.81336 5.98973 5.90220
#
# Compressibility (1/GPa) = 0.02944648
#
# Stress axis : x y z
#
# Youngs Moduli (GPa) = 65.21989 38.69440 83.99140
#
# Poissons Ratio (x) = 0.26252 0.10024
# Poissons Ratio (y) = 0.44248 0.32253
# Poissons Ratio (z) = 0.07783 0.14859
#
# Static dielectric constant tensor:
#      x y z
#    x 1.670840 0.000000 0.000000 
#    y 0.000000 1.634720 0.000000 
#    z 0.000000 0.000000 1.668730 
# 
# From -- ./inp_files/9623.got.cif
#   From: 2010.05.17/outbox.cif.g08.bks.cpg/sg59_5_cif.got.tgz:9623.got - 2010.06.03 14:40:33.
