data_PCOD9452739
_publ_section_title
;
Structure prediction by ZEFSAII (Michael W. Deem and Ramdas Pophale) SiO2 
 PCOD9452739
Probable space group: P M M N
;
_chemical_formula_sum "Si O2"
_cell_formula_units_Z 64
_cell_length_a 15.107802
_cell_length_b 23.693135
_cell_length_c 9.418146
_cell_angle_alpha 90.000000
_cell_angle_beta 90.000000
_cell_angle_gamma 90.000000
_cell_volume 3371.236590
_symmetry_space_group_name_H-M "P M M N"
_symmetry_group_IT_number 59
_space_group.IT_coordinate_system_code '2'
_symmetry_cell_setting 'orthorhombic'
loop_
_space_group_symop_operation_xyz
x,y,z
1/2-x,1/2-y,z
1/2+x,-y,-z
-x,1/2+y,-z
-x,-y,-z
1/2+x,1/2+y,-z
1/2-x,y,z
x,1/2-y,z
loop_
_atom_site_type_symbol
_atom_site_label
_atom_site_fract_x
_atom_site_fract_y
_atom_site_fract_z
Si Si1 0.345927 0.313621 0.609095
Si Si2 0.651042 0.402257 0.580499
Si Si3 0.011858 0.378134 0.786553
Si Si4 0.351740 0.138983 0.318193
Si Si5 0.644274 0.387908 0.251067
Si Si6 0.462164 0.996284 0.843782
Si Si7 0.415757 0.020986 0.406559
Si Si8 0.997702 0.818474 0.905290
O O1 0.250000 0.340564 0.640552
O O2 0.343757 0.250000 0.661676
O O3 0.426241 0.342913 0.684625
O O4 0.355629 0.313809 0.439476
O O5 0.750000 0.380890 0.609278
O O6 0.581133 0.386261 0.702658
O O7 0.623580 0.384712 0.420378
O O8 0.652149 0.470453 0.574340
O O9 0.058043 0.439505 0.801525
O O10 0.003611 0.347451 0.938650
O O11 0.250000 0.132062 0.268675
O O12 0.378489 0.083697 0.412893
O O13 0.418233 0.155470 0.191699
O O14 0.750000 0.382922 0.234296
O O15 0.610556 0.448643 0.189995
O O16 0.587619 0.340422 0.170575
O O17 0.546333 0.979114 0.751102
O O18 0.500000 0.000000 0.000000
O O19 0.500000 0.000000 0.500000
O O20 0.992364 0.750000 0.912279
#
# Coordination Sequence:
#
# PCOD9452739 Si02
#       8
#     8   8   8   8   8   8   8   8
#     4  10  22  39  59  88 123 160 206 256 305 363
#     4  10  22  38  62  95 129 163 203 258 320 382
#     4  11  23  39  66  91 123 163 207 259 322 384
#     4  11  22  38  63  94 127 168 216 262 314 377
#     4  11  23  42  66  95 129 168 215 265 321 389
#     4  11  20  38  60  90 126 159 196 250 317 377
#     4  11  18  34  60  91 129 164 203 249 311 379
#     4  12  25  44  65  88 125 172 219 270 322 380
#
# _framework density 18.984131000000001
#
# number of rings (size 3 to 8) (size 9 to 14) (size 15 to 20)
#    0.000    1.125    3.750    3.375    0.000    2.500 
#    0.000    2.500    0.000    2.625    0.000    0.000 
#    0.000    0.000    0.000    0.000    0.000    0.000 
#
# Total GULP energy -356743.333562 kJ/mol
# GULP energy per Si atom -5574.114587 kJ/mol
# Density = 1.894092 g / cm^3
# Si number density = 18.984131 Si / 1000 Ang^3
#
#
#
# Elastic Constant Matrix: (Units=GPa)
#
#
# Indices 1 2 3 4 5 6 
#
# 1 111.3652 37.9041 59.3867 0.0000 0.0000 0.0000
# 2 37.9041 114.0000 31.1374 0.0000 0.0000 0.0000
# 3 59.3867 31.1374 106.2361 0.0000 0.0000 0.0000
# 4 0.0000 0.0000 0.0000 25.7314 0.0000 0.0000
# 5 0.0000 0.0000 0.0000 0.0000 13.7407 0.0000
# 6 0.0000 0.0000 0.0000 0.0000 0.0000 15.2513
#
#
#
# Elastic Compliance Matrix: (Units=1/GPa)
#
#
# Indices 1 2 3 4 5 6 
#
# 1 0.013484 -0.002636 -0.006765 0.000000 0.000000 0.000000
# 2 -0.002636 0.010050 -0.001472 0.000000 0.000000 0.000000
# 3 -0.006765 -0.001472 0.013626 0.000000 0.000000 0.000000
# 4 0.000000 0.000000 0.000000 0.038863 0.000000 0.000000
# 5 0.000000 0.000000 0.000000 0.000000 0.072776 0.000000
# 6 0.000000 0.000000 0.000000 0.000000 0.000000 0.065568
#
#
# Mechanical properties :
#
#
# Convention : Reuss Voigt Hill
#
# Bulk Modulus (GPa) = 64.87426 65.38419 65.12923
# Shear Modulus (GPa) = 20.72510 24.48955 22.60733
#
# Velocity S-wave (km/s) = 3.30768 3.59555 3.45462
# Velocity P-wave (km/s) = 6.98819 7.19400 7.09184
#
# Compressibility (1/GPa) = 0.01541443
#
# Stress axis : x y z
#
# Youngs Moduli (GPa) = 74.16114 99.49842 73.38697
#
# Poissons Ratio (x) = 0.26223 0.49648
# Poissons Ratio (y) = 0.19545 0.10806
# Poissons Ratio (z) = 0.50172 0.14651
#
# Static dielectric constant tensor:
#      x y z
#    x 1.682540 0.000000 0.000000 
#    y 0.000000 1.707110 0.000000 
#    z 0.000000 0.000000 1.654040 
# 
# From -- ./inp_files/9600.got.cif
#   From: 2010.05.17/outbox.cif.g08.bks.cpg/sg59_5_cif.got.tgz:9600.got - 2010.06.03 14:40:33.
