data_PCOD9452830
_publ_section_title
;
Structure prediction by ZEFSAII (Michael W. Deem and Ramdas Pophale) SiO2 
 PCOD9452830
Probable space group: P M M N
;
_chemical_formula_sum "Si O2"
_cell_formula_units_Z 56
_cell_length_a 8.714711
_cell_length_b 21.254139
_cell_length_c 15.374845
_cell_angle_alpha 90.000000
_cell_angle_beta 90.000000
_cell_angle_gamma 90.000000
_cell_volume 2847.785354
_symmetry_space_group_name_H-M "P M M N"
_symmetry_group_IT_number 59
_space_group.IT_coordinate_system_code '2'
_symmetry_cell_setting 'orthorhombic'
loop_
_space_group_symop_operation_xyz
x,y,z
1/2-x,1/2-y,z
1/2+x,-y,-z
-x,1/2+y,-z
-x,-y,-z
1/2+x,1/2+y,-z
1/2-x,y,z
x,1/2-y,z
loop_
_atom_site_type_symbol
_atom_site_label
_atom_site_fract_x
_atom_site_fract_y
_atom_site_fract_z
Si Si1 0.578391 0.822805 0.351845
Si Si2 0.071746 0.508179 0.769239
Si Si3 0.568214 0.320037 0.976760
Si Si4 0.568318 0.556052 0.939848
Si Si5 0.077068 0.883921 0.200287
Si Si6 0.066820 0.319870 0.441505
Si Si7 0.564639 0.537885 0.584215
O O1 0.750000 0.850005 0.336699
O O2 0.582518 0.750000 0.325755
O O3 0.451811 0.856436 0.295173
O O4 0.549311 0.824032 0.454236
O O5 0.250000 0.522053 0.758719
O O6 0.995403 0.552285 0.841563
O O7 0.043908 0.439372 0.810040
O O8 0.990554 0.508662 0.675329
O O9 0.750000 0.325039 0.997272
O O10 0.515250 0.250000 0.999680
O O11 0.554749 0.331732 0.873238
O O12 0.480711 0.377029 0.021326
O O13 0.750000 0.548608 0.939197
O O14 0.500000 0.500000 0.000000
O O15 0.250000 0.909195 0.190723
O O16 0.250000 0.318355 0.423546
O O17 0.006282 0.250000 0.414113
O O18 0.011126 0.388469 0.410721
O O19 0.500000 0.500000 0.500000
O O20 0.750000 0.537102 0.577996
#
# Coordination Sequence:
#
# PCOD9452830 Si02
#       7
#     8   8   8   8   8   8   8
#     4   9  17  30  50  78 114 155 198 243 299 372
#     4  12  25  41  62  88 120 163 210 260 316 378
#     4  10  22  40  62  90 127 167 205 255 317 375
#     4  12  24  42  67  94 123 162 210 258 311 375
#     4  11  21  34  55  84 119 157 200 251 309 375
#     4   8  16  33  56  80 109 152 202 251 305 361
#     4  11  22  38  62  93 128 164 207 263 318 377
#
# _framework density 19.664404000000001
#
# number of rings (size 3 to 8) (size 9 to 14) (size 15 to 20)
#    0.000    1.571    1.429    5.571    0.000    2.857 
#    0.000    1.429    0.000    6.000    0.000    0.000 
#    0.000    0.000    0.000    0.000    0.000    0.000 
#
# Total GULP energy -312442.167427 kJ/mol
# GULP energy per Si atom -5579.324418 kJ/mol
# Density = 1.961965 g / cm^3
# Si number density = 19.664404 Si / 1000 Ang^3
#
#
#
# Elastic Constant Matrix: (Units=GPa)
#
#
# Indices 1 2 3 4 5 6 
#
# 1 83.5063 34.6500 34.7689 0.0000 0.0000 0.0000
# 2 34.6500 111.7151 29.3787 0.0000 0.0000 0.0000
# 3 34.7689 29.3787 76.0366 0.0000 0.0000 0.0000
# 4 0.0000 0.0000 0.0000 23.3001 0.0000 0.0000
# 5 0.0000 0.0000 0.0000 0.0000 18.8357 0.0000
# 6 0.0000 0.0000 0.0000 0.0000 0.0000 26.3253
#
#
#
# Elastic Compliance Matrix: (Units=1/GPa)
#
#
# Indices 1 2 3 4 5 6 
#
# 1 0.015842 -0.003349 -0.005950 0.000000 0.000000 0.000000
# 2 -0.003349 0.010672 -0.002592 0.000000 0.000000 0.000000
# 3 -0.005950 -0.002592 0.016874 0.000000 0.000000 0.000000
# 4 0.000000 0.000000 0.000000 0.042918 0.000000 0.000000
# 5 0.000000 0.000000 0.000000 0.000000 0.053091 0.000000
# 6 0.000000 0.000000 0.000000 0.000000 0.000000 0.037986
#
#
# Mechanical properties :
#
#
# Convention : Reuss Voigt Hill
#
# Bulk Modulus (GPa) = 51.00562 52.09482 51.55022
# Shear Modulus (GPa) = 24.07318 25.18958 24.63138
#
# Velocity S-wave (km/s) = 3.50265 3.58295 3.54303
# Velocity P-wave (km/s) = 6.50788 6.60804 6.55815
#
# Compressibility (1/GPa) = 0.01960568
#
# Stress axis : x y z
#
# Youngs Moduli (GPa) = 63.12270 93.70600 59.26341
#
# Poissons Ratio (x) = 0.31381 0.35263
# Poissons Ratio (y) = 0.21139 0.15361
# Poissons Ratio (z) = 0.37559 0.24288
#
# Static dielectric constant tensor:
#      x y z
#    x 1.659620 0.000000 0.000000 
#    y 0.000000 1.744800 0.000000 
#    z 0.000000 0.000000 1.676910 
# 
# From -- ./inp_files/20967.got.cif
#   From: 2010.05.17/outbox.cif.g08.bks.cpg/sg59_11_cif.got.tgz:20967.got - 2010.06.03 14:40:33.
