data_PCOD9452175
_publ_section_title
;
Structure prediction by ZEFSAII (Michael W. Deem and Ramdas Pophale) SiO2 
 PCOD9452175
Probable space group: P M M N
;
_chemical_formula_sum "Si O2"
_cell_formula_units_Z 48
_cell_length_a 13.590724
_cell_length_b 9.071247
_cell_length_c 18.660588
_cell_angle_alpha 90.000000
_cell_angle_beta 90.000000
_cell_angle_gamma 90.000000
_cell_volume 2300.567127
_symmetry_space_group_name_H-M "P M M N"
_symmetry_group_IT_number 59
_space_group.IT_coordinate_system_code '2'
_symmetry_cell_setting 'orthorhombic'
loop_
_space_group_symop_operation_xyz
x,y,z
1/2-x,1/2-y,z
1/2+x,-y,-z
-x,1/2+y,-z
-x,-y,-z
1/2+x,1/2+y,-z
1/2-x,y,z
x,1/2-y,z
loop_
_atom_site_type_symbol
_atom_site_label
_atom_site_fract_x
_atom_site_fract_y
_atom_site_fract_z
Si Si1 0.869668 0.080195 0.954535
Si Si2 0.865390 0.924310 0.807408
Si Si3 0.056770 0.576345 0.606444
Si Si4 0.545319 0.575878 0.252151
Si Si5 0.631732 0.420982 0.114413
Si Si6 0.861241 0.074509 0.549750
O O1 0.750000 0.084901 0.955904
O O2 0.902713 0.250000 0.942365
O O3 0.894043 0.976350 0.887879
O O4 0.899723 0.030935 0.034334
O O5 0.750000 0.956644 0.797365
O O6 0.880174 0.750000 0.799503
O O7 0.934262 0.013932 0.754063
O O8 0.051939 0.750000 0.620509
O O9 0.092906 0.493816 0.677164
O O10 0.122290 0.552555 0.535618
O O11 0.948418 0.514471 0.587236
O O12 0.546001 0.750000 0.255899
O O13 0.595519 0.518523 0.179689
O O14 0.750000 0.422589 0.114907
O O15 0.600903 0.250000 0.124081
O O16 0.750000 0.032463 0.569911
O O17 0.874046 0.250000 0.563545
#
# Coordination Sequence:
#
# PCOD9452175 Si02
#       6
#     8   8   8   8   8   8
#     4   8  15  31  55  80 106 139 182 233 286 337
#     4  10  21  37  57  80 107 143 189 239 288 338
#     4  10  21  38  59  85 117 148 182 225 269 320
#     4  12  25  38  55  81 115 153 189 230 279 330
#     4   9  19  37  59  81 109 147 189 234 284 336
#     4   9  19  38  64  90 114 144 180 217 265 324
#
# _framework density 20.864421
#
# number of rings (size 3 to 8) (size 9 to 14) (size 15 to 20)
#    0.000    2.333    0.000    3.500    0.000    5.000 
#    0.000    3.333    0.000    0.000    0.000    0.000 
#    0.000    0.000    0.000    0.000    0.000    0.000 
#
# Total GULP energy -268245.977032 kJ/mol
# GULP energy per Si atom -5588.457855 kJ/mol
# Density = 2.081693 g / cm^3
# Si number density = 20.864421 Si / 1000 Ang^3
#
#
#
# Elastic Constant Matrix: (Units=GPa)
#
#
# Indices 1 2 3 4 5 6 
#
# 1 41.7858 -4.8013 -14.1631 0.0000 0.0000 0.0000
# 2 -4.8013 78.0851 39.7008 0.0000 0.0000 0.0000
# 3 -14.1631 39.7008 74.6708 0.0000 0.0000 0.0000
# 4 0.0000 0.0000 0.0000 36.1017 0.0000 0.0000
# 5 0.0000 0.0000 0.0000 0.0000 11.6980 0.0000
# 6 0.0000 0.0000 0.0000 0.0000 0.0000 25.6604
#
#
#
# Elastic Compliance Matrix: (Units=1/GPa)
#
#
# Indices 1 2 3 4 5 6 
#
# 1 0.025662 -0.001229 0.005521 0.000000 0.000000 0.000000
# 2 -0.001229 0.017610 -0.009596 0.000000 0.000000 0.000000
# 3 0.005521 -0.009596 0.019541 0.000000 0.000000 0.000000
# 4 0.000000 0.000000 0.000000 0.027700 0.000000 0.000000
# 5 0.000000 0.000000 0.000000 0.000000 0.085485 0.000000
# 6 0.000000 0.000000 0.000000 0.000000 0.000000 0.038971
#
#
# Mechanical properties :
#
#
# Convention : Reuss Voigt Hill
#
# Bulk Modulus (GPa) = 19.15550 26.22384 22.68967
# Shear Modulus (GPa) = 20.57805 26.27902 23.42853
#
# Velocity S-wave (km/s) = 3.14391 3.55281 3.35460
# Velocity P-wave (km/s) = 4.73072 5.42457 5.08948
#
# Compressibility (1/GPa) = 0.05220432
#
# Stress axis : x y z
#
# Youngs Moduli (GPa) = 38.96874 56.78662 51.17401
#
# Poissons Ratio (x) = 0.06979 -0.28252
# Poissons Ratio (y) = 0.04789 0.49106
# Poissons Ratio (z) = -0.21514 0.54492
#
# Static dielectric constant tensor:
#      x y z
#    x 1.782820 0.000000 0.000000 
#    y 0.000000 1.697190 0.000000 
#    z 0.000000 0.000000 1.754060 
# 
# From -- ./inp_files/25442.got.cif
#   From: 2010.05.17/outbox.cif.g08.bks.cpg/sg59_13_cif.got.tgz:25442.got - 2010.06.03 14:40:33.
