data_PCOD9452393
_publ_section_title
;
Structure prediction by ZEFSAII (Michael W. Deem and Ramdas Pophale) SiO2 
 PCOD9452393
Probable space group: P M M N
;
_chemical_formula_sum "Si O2"
_cell_formula_units_Z 48
_cell_length_a 8.475928
_cell_length_b 14.893420
_cell_length_c 21.003631
_cell_angle_alpha 90.000000
_cell_angle_beta 90.000000
_cell_angle_gamma 90.000000
_cell_volume 2651.405029
_symmetry_space_group_name_H-M "P M M N"
_symmetry_group_IT_number 59
_space_group.IT_coordinate_system_code '2'
_symmetry_cell_setting 'orthorhombic'
loop_
_space_group_symop_operation_xyz
x,y,z
1/2-x,1/2-y,z
1/2+x,-y,-z
-x,1/2+y,-z
-x,-y,-z
1/2+x,1/2+y,-z
1/2-x,y,z
x,1/2-y,z
loop_
_atom_site_type_symbol
_atom_site_label
_atom_site_fract_x
_atom_site_fract_y
_atom_site_fract_z
Si Si1 0.059306 0.057921 0.819067
Si Si2 0.942137 0.250000 0.480606
Si Si3 0.938937 0.057373 0.679715
Si Si4 0.439288 0.941853 0.940403
Si Si5 0.942110 0.750000 0.127865
Si Si6 0.560532 0.054935 0.438896
Si Si7 0.060741 0.250000 0.020376
Si Si8 0.942201 0.250000 0.628527
O O1 0.250000 0.058408 0.817493
O O2 0.005717 0.158662 0.838014
O O3 0.996749 0.033127 0.749879
O O4 0.009663 0.990505 0.875212
O O5 0.750000 0.250000 0.481099
O O6 0.992807 0.341929 0.447214
O O7 0.992013 0.250000 0.554629
O O8 0.750000 0.057446 0.678003
O O9 0.994816 0.158623 0.662423
O O10 0.000166 0.991358 0.625085
O O11 0.250000 0.942269 0.942032
O O12 0.499947 0.840729 0.947363
O O13 0.500000 0.000000 0.000000
O O14 0.750000 0.750000 0.128142
O O15 0.990976 0.750000 0.053905
O O16 0.750000 0.053172 0.439507
O O17 0.500000 0.000000 0.500000
O O18 0.250000 0.250000 0.020883
O O19 0.750000 0.250000 0.628900
#
# Coordination Sequence:
#
# PCOD9452393 Si02
#       8
#     8   4   8   8   4   8   4   4
#     4  10  21  38  58  83 119 156 192 235 289 350
#     4   9  18  35  58  82 112 146 184 227 279 336
#     4  11  22  37  57  84 118 152 190 235 285 343
#     4  11  22  38  61  88 119 157 200 245 295 355
#     4   9  17  34  58  85 118 152 185 235 295 346
#     4  11  21  37  60  84 112 150 191 233 282 338
#     4  11  21  38  61  89 121 153 195 250 299 348
#     4   9  17  33  55  82 117 149 178 224 283 340
#
# _framework density 18.103608000000001
#
# number of rings (size 3 to 8) (size 9 to 14) (size 15 to 20)
#    0.000    1.667    3.333    2.250    0.000    1.333 
#    0.000    4.583    0.000    2.000    0.000    0.000 
#    0.000    0.000    0.000    0.000    0.000    0.000 
#
# Total GULP energy -268130.142024 kJ/mol
# GULP energy per Si atom -5586.044625 kJ/mol
# Density = 1.806240 g / cm^3
# Si number density = 18.103608 Si / 1000 Ang^3
#
#
#
# Elastic Constant Matrix: (Units=GPa)
#
#
# Indices 1 2 3 4 5 6 
#
# 1 34.0862 31.5490 34.9192 0.0000 0.0000 0.0000
# 2 31.5490 165.3715 98.8673 0.0000 0.0000 0.0000
# 3 34.9192 98.8673 185.4502 0.0000 0.0000 0.0000
# 4 0.0000 0.0000 0.0000 24.7073 0.0000 0.0000
# 5 0.0000 0.0000 0.0000 0.0000 29.5102 0.0000
# 6 0.0000 0.0000 0.0000 0.0000 0.0000 26.8634
#
#
#
# Elastic Compliance Matrix: (Units=1/GPa)
#
#
# Indices 1 2 3 4 5 6 
#
# 1 0.038422 -0.004411 -0.004883 0.000000 0.000000 0.000000
# 2 -0.004411 0.009382 -0.004171 0.000000 0.000000 0.000000
# 3 -0.004883 -0.004171 0.008536 0.000000 0.000000 0.000000
# 4 0.000000 0.000000 0.000000 0.040474 0.000000 0.000000
# 5 0.000000 0.000000 0.000000 0.000000 0.033887 0.000000
# 6 0.000000 0.000000 0.000000 0.000000 0.000000 0.037225
#
#
# Mechanical properties :
#
#
# Convention : Reuss Voigt Hill
#
# Bulk Modulus (GPa) = 34.00246 79.50878 56.75562
# Shear Modulus (GPa) = 24.43078 30.85435 27.64257
#
# Velocity S-wave (km/s) = 3.67754 4.13282 3.91181
# Velocity P-wave (km/s) = 6.07086 8.17237 7.19871
#
# Compressibility (1/GPa) = 0.02940963
#
# Stress axis : x y z
#
# Youngs Moduli (GPa) = 26.02653 106.58367 117.15564
#
# Poissons Ratio (x) = 0.47009 0.57211
# Poissons Ratio (y) = 0.11479 0.48870
# Poissons Ratio (z) = 0.12710 0.44460
#
# Static dielectric constant tensor:
#      x y z
#    x 1.622600 0.000000 0.000000 
#    y 0.000000 1.615030 0.000000 
#    z 0.000000 0.000000 1.590310 
# 
# From -- ./inp_files/25705.got.cif
#   From: 2010.05.17/outbox.cif.g08.bks.cpg/sg59_13_cif.got.tgz:25705.got - 2010.06.03 14:40:33.
