data_PCOD9452831
_publ_section_title
;
Structure prediction by ZEFSAII (Michael W. Deem and Ramdas Pophale) SiO2 
 PCOD9452831
Probable space group: P M M N
;
_chemical_formula_sum "Si O2"
_cell_formula_units_Z 34
_cell_length_a 19.151356
_cell_length_b 7.506933
_cell_length_c 9.814971
_cell_angle_alpha 90.000000
_cell_angle_beta 90.000000
_cell_angle_gamma 90.000000
_cell_volume 1411.078224
_symmetry_space_group_name_H-M "P M M N"
_symmetry_group_IT_number 59
_space_group.IT_coordinate_system_code '2'
_symmetry_cell_setting 'orthorhombic'
loop_
_space_group_symop_operation_xyz
x,y,z
1/2-x,1/2-y,z
1/2+x,-y,-z
-x,1/2+y,-z
-x,-y,-z
1/2+x,1/2+y,-z
1/2-x,y,z
x,1/2-y,z
loop_
_atom_site_type_symbol
_atom_site_label
_atom_site_fract_x
_atom_site_fract_y
_atom_site_fract_z
Si Si1 0.889331 0.466223 0.786909
Si Si2 0.956543 0.958769 0.267820
Si Si3 0.672610 0.034508 0.069987
Si Si4 0.144135 0.953220 0.518045
Si Si5 0.250000 0.250000 0.613283
O O1 0.889141 0.250000 0.793578
O O2 0.859178 0.511425 0.639048
O O3 0.969851 0.527355 0.789791
O O4 0.844782 0.525502 0.916216
O O5 0.966253 0.750000 0.293239
O O6 0.893655 0.983692 0.160812
O O7 0.930846 0.044804 0.408203
O O8 0.750000 0.966781 0.111335
O O9 0.675729 0.250000 0.074076
O O10 0.169911 0.750000 0.525134
O O11 0.190121 0.093861 0.598005
#
# Coordination Sequence:
#
# PCOD9452831 Si02
#       5
#     8   8   8   8   2
#     4   9  21  42  68  93 128 177 227 278 333 395
#     4  11  22  41  64  97 133 173 229 281 325 397
#     4  10  22  40  62  91 129 177 227 276 338 398
#     4  11  24  44  70  98 136 178 216 273 335 391
#     4  12  26  44  64 108 140 164 224 270 332 402
#
# _framework density 24.095051000000002
#
# number of rings (size 3 to 8) (size 9 to 14) (size 15 to 20)
#    0.000    1.647    1.176    2.471    3.294    0.471 
#    6.353    0.000    0.000    0.000    0.000    0.000 
#    0.000    0.000    0.000    0.000    0.000    0.000 
#
# Total GULP energy -189743.877289 kJ/mol
# GULP energy per Si atom -5580.702273 kJ/mol
# Density = 2.404021 g / cm^3
# Si number density = 24.095051 Si / 1000 Ang^3
#
#
#
# Elastic Constant Matrix: (Units=GPa)
#
#
# Indices 1 2 3 4 5 6 
#
# 1 100.7734 13.1283 6.9263 0.0000 0.0000 0.0000
# 2 13.1283 102.2480 -4.9092 0.0000 0.0000 0.0000
# 3 6.9263 -4.9092 97.1339 0.0000 0.0000 0.0000
# 4 0.0000 0.0000 0.0000 15.3269 0.0000 0.0000
# 5 0.0000 0.0000 0.0000 0.0000 33.1549 0.0000
# 6 0.0000 0.0000 0.0000 0.0000 0.0000 132.4033
#
#
#
# Elastic Compliance Matrix: (Units=1/GPa)
#
#
# Indices 1 2 3 4 5 6 
#
# 1 0.010152 -0.001342 -0.000792 0.000000 0.000000 0.000000
# 2 -0.001342 0.009981 0.000600 0.000000 0.000000 0.000000
# 3 -0.000792 0.000600 0.010382 0.000000 0.000000 0.000000
# 4 0.000000 0.000000 0.000000 0.065245 0.000000 0.000000
# 5 0.000000 0.000000 0.000000 0.000000 0.030161 0.000000
# 6 0.000000 0.000000 0.000000 0.000000 0.000000 0.007553
#
#
# Mechanical properties :
#
#
# Convention : Reuss Voigt Hill
#
# Bulk Modulus (GPa) = 36.43101 36.71624 36.57363
# Shear Modulus (GPa) = 34.31934 55.17769 44.74851
#
# Velocity S-wave (km/s) = 3.77813 4.79059 4.31416
# Velocity P-wave (km/s) = 5.84678 6.77280 6.32675
#
# Compressibility (1/GPa) = 0.02744914
#
# Stress axis : x y z
#
# Youngs Moduli (GPa) = 98.49841 100.18827 96.32194
#
# Poissons Ratio (x) = 0.13441 0.07626
# Poissons Ratio (y) = 0.13214 -0.05780
# Poissons Ratio (z) = 0.07799 -0.06013
#
# Static dielectric constant tensor:
#      x y z
#    x 1.950130 0.000000 0.000000 
#    y 0.000000 1.897170 0.000000 
#    z 0.000000 0.000000 1.934030 
# 
# From -- ./inp_files/5439.got.cif
#   From: 2010.05.17/outbox.cif.g08.bks.cpg/sg59_3_cif.got.tgz:5439.got - 2010.06.03 14:40:33.
