data_PCOD9452278
_publ_section_title
;
Structure prediction by ZEFSAII (Michael W. Deem and Ramdas Pophale) SiO2 
 PCOD9452278
Probable space group: P M M N
;
_chemical_formula_sum "Si O2"
_cell_formula_units_Z 40
_cell_length_a 21.707983
_cell_length_b 15.719493
_cell_length_c 5.209402
_cell_angle_alpha 90.000000
_cell_angle_beta 90.000000
_cell_angle_gamma 90.000000
_cell_volume 1777.648456
_symmetry_space_group_name_H-M "P M M N"
_symmetry_group_IT_number 59
_space_group.IT_coordinate_system_code '2'
_symmetry_cell_setting 'orthorhombic'
loop_
_space_group_symop_operation_xyz
x,y,z
1/2-x,1/2-y,z
1/2+x,-y,-z
-x,1/2+y,-z
-x,-y,-z
1/2+x,1/2+y,-z
1/2-x,y,z
x,1/2-y,z
loop_
_atom_site_type_symbol
_atom_site_label
_atom_site_fract_x
_atom_site_fract_y
_atom_site_fract_z
Si Si1 0.080813 0.845954 0.716527
Si Si2 0.515211 0.407825 0.762698
Si Si3 0.318893 0.156203 0.446291
Si Si4 0.908056 0.564383 0.881790
Si Si5 0.180389 0.983810 0.775416
O O1 0.104028 0.750000 0.719451
O O2 0.030721 0.856843 0.491553
O O3 0.134856 0.913345 0.661376
O O4 0.050486 0.867639 0.991214
O O5 0.445083 0.412785 0.858562
O O6 0.543492 0.503278 0.736602
O O7 0.250000 0.153714 0.320156
O O8 0.323252 0.250000 0.569940
O O9 0.320150 0.074232 0.629601
O O10 0.377189 0.142639 0.260817
O O11 0.849440 0.505820 0.950243
O O12 0.250000 0.953373 0.790524
#
# Coordination Sequence:
#
# PCOD9452278 Si02
#       5
#     8   8   8   8   8
#     4  11  23  42  64  95 131 169 214 262 313 378
#     4  10  23  39  66  93 127 166 209 263 319 373
#     4  10  21  37  58  87 121 159 208 262 316 377
#     4  10  21  38  63  87 123 163 214 256 324 376
#     4  10  22  40  63  90 126 168 210 264 317 373
#
# _framework density 22.501636000000001
#
# number of rings (size 3 to 8) (size 9 to 14) (size 15 to 20)
#    0.000    1.800    2.000    1.200    2.800    5.200 
#    0.000    2.000    0.000    2.400    0.000    0.000 
#    0.000    0.000    0.000    0.000    0.000    0.000 
#
# Total GULP energy -223438.413888 kJ/mol
# GULP energy per Si atom -5585.960347 kJ/mol
# Density = 2.245042 g / cm^3
# Si number density = 22.501636 Si / 1000 Ang^3
#
#
#
# Elastic Constant Matrix: (Units=GPa)
#
#
# Indices 1 2 3 4 5 6 
#
# 1 127.9079 34.9367 26.0625 0.0000 0.0000 0.0000
# 2 34.9367 139.7111 23.9884 0.0000 0.0000 0.0000
# 3 26.0625 23.9884 69.3569 0.0000 0.0000 0.0000
# 4 0.0000 0.0000 0.0000 17.1000 0.0000 0.0000
# 5 0.0000 0.0000 0.0000 0.0000 31.5314 0.0000
# 6 0.0000 0.0000 0.0000 0.0000 0.0000 24.6329
#
#
#
# Elastic Compliance Matrix: (Units=1/GPa)
#
#
# Indices 1 2 3 4 5 6 
#
# 1 0.008849 -0.001746 -0.002722 0.000000 0.000000 0.000000
# 2 -0.001746 0.007954 -0.002095 0.000000 0.000000 0.000000
# 3 -0.002722 -0.002095 0.016165 0.000000 0.000000 0.000000
# 4 0.000000 0.000000 0.000000 0.058480 0.000000 0.000000
# 5 0.000000 0.000000 0.000000 0.000000 0.031714 0.000000
# 6 0.000000 0.000000 0.000000 0.000000 0.000000 0.040596
#
#
# Mechanical properties :
#
#
# Convention : Reuss Voigt Hill
#
# Bulk Modulus (GPa) = 50.39245 56.32790 53.36018
# Shear Modulus (GPa) = 27.24821 31.45208 29.35015
#
# Velocity S-wave (km/s) = 3.48364 3.74273 3.61551
# Velocity P-wave (km/s) = 6.21487 6.61548 6.41830
#
# Compressibility (1/GPa) = 0.01984424
#
# Stress axis : x y z
#
# Youngs Moduli (GPa) = 113.00090 125.72505 61.86016
#
# Poissons Ratio (x) = 0.21947 0.16836
# Poissons Ratio (y) = 0.19726 0.12960
# Poissons Ratio (z) = 0.30755 0.26340
#
# Static dielectric constant tensor:
#      x y z
#    x 1.858680 0.000000 0.000000 
#    y 0.000000 1.829610 0.000000 
#    z 0.000000 0.000000 1.899780 
# 
# From -- ./inp_files/2634.got.cif
#   From: 2010.05.17/outbox.cif.g08.bks.cpg/sg59_2_cif.got.tgz:2634.got - 2010.06.03 14:40:33.
