data_PCOD9452580
_publ_section_title
;
Structure prediction by ZEFSAII (Michael W. Deem and Ramdas Pophale) SiO2 
 PCOD9452580
Probable space group: P M M N
;
_chemical_formula_sum "Si O2"
_cell_formula_units_Z 48
_cell_length_a 15.819290
_cell_length_b 16.530298
_cell_length_c 10.279936
_cell_angle_alpha 90.000000
_cell_angle_beta 90.000000
_cell_angle_gamma 90.000000
_cell_volume 2688.178364
_symmetry_space_group_name_H-M "P M M N"
_symmetry_group_IT_number 59
_space_group.IT_coordinate_system_code '2'
_symmetry_cell_setting 'orthorhombic'
loop_
_space_group_symop_operation_xyz
x,y,z
1/2-x,1/2-y,z
1/2+x,-y,-z
-x,1/2+y,-z
-x,-y,-z
1/2+x,1/2+y,-z
1/2-x,y,z
x,1/2-y,z
loop_
_atom_site_type_symbol
_atom_site_label
_atom_site_fract_x
_atom_site_fract_y
_atom_site_fract_z
Si Si1 0.750000 0.152531 0.705095
Si Si2 0.250000 0.653399 0.988061
Si Si3 0.456423 0.398000 0.881675
Si Si4 0.930582 0.415115 0.635060
Si Si5 0.849735 0.750000 0.022632
Si Si6 0.148828 0.250000 0.289410
Si Si7 0.419493 0.919619 0.874132
Si Si8 0.469399 0.394995 0.370623
O O1 0.750000 0.250000 0.695912
O O2 0.664741 0.117159 0.642003
O O3 0.750000 0.129761 0.859024
O O4 0.250000 0.750000 0.983677
O O5 0.167527 0.619859 0.916759
O O6 0.518189 0.383101 0.760309
O O7 0.391182 0.327697 0.910864
O O8 0.411166 0.483773 0.857880
O O9 0.514546 0.406057 0.009088
O O10 0.933229 0.513354 0.640594
O O11 0.981682 0.388943 0.506942
O O12 0.750000 0.750000 0.039732
O O13 0.866524 0.750000 0.866934
O O14 0.250000 0.250000 0.310286
O O15 0.103272 0.171191 0.349489
O O16 0.461856 0.885276 0.744159
#
# Coordination Sequence:
#
# PCOD9452580 Si02
#       8
#     4   4   8   8   4   4   8   8
#     4  11  24  37  61  96 120 157 210 251 302 358
#     4  11  24  35  61  94 124 157 204 257 302 354
#     4  10  21  39  62  86 120 160 199 250 305 355
#     4  10  23  43  65  88 125 166 202 250 304 369
#     4  11  24  37  63  96 123 157 206 262 305 353
#     4  11  24  39  65  96 121 155 206 258 305 365
#     4  10  21  39  60  88 120 160 201 246 303 358
#     4  10  23  43  64  91 122 166 202 247 316 360
#
# _framework density 17.855958000000001
#
# number of rings (size 3 to 8) (size 9 to 14) (size 15 to 20)
#    0.000    1.667    3.333    0.000    7.000    0.667 
#    0.000    2.500    0.000    0.000    0.000    0.000 
#    0.000    0.000    0.000    0.000    0.000    0.000 
#
# Total GULP energy -268085.314168 kJ/mol
# GULP energy per Si atom -5585.110712 kJ/mol
# Density = 1.781532 g / cm^3
# Si number density = 17.855958 Si / 1000 Ang^3
#
#
#
# Elastic Constant Matrix: (Units=GPa)
#
#
# Indices 1 2 3 4 5 6 
#
# 1 117.3245 77.7123 34.4074 0.0000 0.0000 0.0000
# 2 77.7123 82.4119 37.5539 0.0000 0.0000 0.0000
# 3 34.4074 37.5539 94.7825 0.0000 0.0000 0.0000
# 4 0.0000 0.0000 0.0000 14.3341 0.0000 0.0000
# 5 0.0000 0.0000 0.0000 0.0000 24.0412 0.0000
# 6 0.0000 0.0000 0.0000 0.0000 0.0000 25.0035
#
#
#
# Elastic Compliance Matrix: (Units=1/GPa)
#
#
# Indices 1 2 3 4 5 6 
#
# 1 0.022711 -0.021550 0.000294 0.000000 0.000000 0.000000
# 2 -0.021550 0.035256 -0.006146 0.000000 0.000000 0.000000
# 3 0.000294 -0.006146 0.012879 0.000000 0.000000 0.000000
# 4 0.000000 0.000000 0.000000 0.069764 0.000000 0.000000
# 5 0.000000 0.000000 0.000000 0.000000 0.041595 0.000000
# 6 0.000000 0.000000 0.000000 0.000000 0.000000 0.039994
#
#
# Mechanical properties :
#
#
# Convention : Reuss Voigt Hill
#
# Bulk Modulus (GPa) = 62.33643 65.98514 64.16078
# Shear Modulus (GPa) = 17.70843 22.33210 20.02026
#
# Velocity S-wave (km/s) = 3.15260 3.54033 3.35208
# Velocity P-wave (km/s) = 6.94539 7.33119 7.14089
#
# Compressibility (1/GPa) = 0.01604198
#
# Stress axis : x y z
#
# Youngs Moduli (GPa) = 44.03074 28.36396 77.64678
#
# Poissons Ratio (x) = 0.61125 -0.02282
# Poissons Ratio (y) = 0.94887 0.47720
# Poissons Ratio (z) = -0.01294 0.17432
#
# Static dielectric constant tensor:
#      x y z
#    x 1.564980 0.000000 0.000000 
#    y 0.000000 1.616340 0.000000 
#    z 0.000000 0.000000 1.599070 
# 
# From -- ./inp_files/9086.got.cif
#   From: 2010.05.17/outbox.cif.g08.bks.cpg/sg59_5_cif.got.tgz:9086.got - 2010.06.03 14:40:33.
