data_PCOD9452407
_publ_section_title
;
Structure prediction by ZEFSAII (Michael W. Deem and Ramdas Pophale) SiO2 
 PCOD9452407
Probable space group: P M M N
;
_chemical_formula_sum "Si O2"
_cell_formula_units_Z 64
_cell_length_a 14.952848
_cell_length_b 8.992269
_cell_length_c 25.339262
_cell_angle_alpha 90.000000
_cell_angle_beta 90.000000
_cell_angle_gamma 90.000000
_cell_volume 3407.117968
_symmetry_space_group_name_H-M "P M M N"
_symmetry_group_IT_number 59
_space_group.IT_coordinate_system_code '2'
_symmetry_cell_setting 'orthorhombic'
loop_
_space_group_symop_operation_xyz
x,y,z
1/2-x,1/2-y,z
1/2+x,-y,-z
-x,1/2+y,-z
-x,-y,-z
1/2+x,1/2+y,-z
1/2-x,y,z
x,1/2-y,z
loop_
_atom_site_type_symbol
_atom_site_label
_atom_site_fract_x
_atom_site_fract_y
_atom_site_fract_z
Si Si1 0.852624 0.928559 0.360834
Si Si2 0.355191 0.928014 0.355241
Si Si3 0.352364 0.568970 0.862130
Si Si4 0.993207 0.571138 0.942527
Si Si5 0.502166 0.070685 0.557393
Si Si6 0.141056 0.921056 0.746636
Si Si7 0.642918 0.425758 0.863429
Si Si8 0.641167 0.579409 0.753979
O O1 0.750000 0.978093 0.368221
O O2 0.853527 0.750000 0.358812
O O3 0.915799 0.975541 0.408479
O O4 0.886156 0.988448 0.304649
O O5 0.250000 0.960718 0.363034
O O6 0.364389 0.750000 0.347976
O O7 0.413029 0.971103 0.406149
O O8 0.386463 0.007005 0.301440
O O9 0.250000 0.519723 0.870768
O O10 0.350578 0.750000 0.859393
O O11 0.419626 0.527516 0.908149
O O12 0.385513 0.519457 0.804175
O O13 0.989707 0.750000 0.945986
O O14 0.909181 0.510380 0.909494
O O15 0.000000 0.500000 0.000000
O O16 0.502054 0.250000 0.552468
O O17 0.500000 0.000000 0.500000
O O18 0.250000 0.921860 0.748117
O O19 0.112479 0.750000 0.741034
O O20 0.750000 0.447383 0.868361
O O21 0.624892 0.250000 0.866016
O O22 0.614823 0.489996 0.806297
O O23 0.750000 0.577824 0.753244
O O24 0.611498 0.750000 0.758002
#
# Coordination Sequence:
#
# PCOD9452407 Si02
#       8
#     8   8   8   8   8   8   8   8
#     4   9  18  33  51  72 101 132 158 194 249 303
#     4   9  18  34  54  75 103 137 169 207 259 316
#     4   8  16  33  56  80 107 139 173 212 262 319
#     4  11  23  38  56  80 110 145 188 233 273 320
#     4  10  22  37  51  71  98 131 174 216 252 298
#     4   8  14  28  52  79 102 126 162 204 245 298
#     4  10  21  38  59  81 109 147 185 224 276 331
#     4   9  17  31  54  84 112 136 169 215 266 322
#
# _framework density 18.784203000000002
#
# number of rings (size 3 to 8) (size 9 to 14) (size 15 to 20)
#    0.000    2.750    0.000    1.875    0.000    5.250 
#    0.000    5.000    0.000    2.625    0.000    0.000 
#    0.000    0.000    0.000    0.000    0.000    0.000 
#
# Total GULP energy -357119.180757 kJ/mol
# GULP energy per Si atom -5579.987199 kJ/mol
# Density = 1.874145 g / cm^3
# Si number density = 18.784203 Si / 1000 Ang^3
#
#
#
# Elastic Constant Matrix: (Units=GPa)
#
#
# Indices 1 2 3 4 5 6 
#
# 1 84.9040 40.3451 76.4051 0.0000 0.0000 0.0000
# 2 40.3451 50.5764 66.1245 0.0000 0.0000 0.0000
# 3 76.4051 66.1245 214.2967 0.0000 0.0000 0.0000
# 4 0.0000 0.0000 0.0000 38.9276 0.0000 0.0000
# 5 0.0000 0.0000 0.0000 0.0000 33.6552 0.0000
# 6 0.0000 0.0000 0.0000 0.0000 0.0000 12.9855
#
#
#
# Elastic Compliance Matrix: (Units=1/GPa)
#
#
# Indices 1 2 3 4 5 6 
#
# 1 0.020686 -0.011497 -0.003828 0.000000 0.000000 0.000000
# 2 -0.011497 0.039532 -0.008099 0.000000 0.000000 0.000000
# 3 -0.003828 -0.008099 0.008530 0.000000 0.000000 0.000000
# 4 0.000000 0.000000 0.000000 0.025689 0.000000 0.000000
# 5 0.000000 0.000000 0.000000 0.000000 0.029713 0.000000
# 6 0.000000 0.000000 0.000000 0.000000 0.000000 0.077009
#
#
# Mechanical properties :
#
#
# Convention : Reuss Voigt Hill
#
# Bulk Modulus (GPa) = 45.66035 79.50297 62.58166
# Shear Modulus (GPa) = 19.58430 28.24047 23.91239
#
# Velocity S-wave (km/s) = 3.23243 3.88160 3.57179
# Velocity P-wave (km/s) = 6.18806 7.90603 7.09920
#
# Compressibility (1/GPa) = 0.02190084
#
# Stress axis : x y z
#
# Youngs Moduli (GPa) = 48.34270 25.29592 117.22856
#
# Poissons Ratio (x) = 0.29082 0.44873
# Poissons Ratio (y) = 0.55577 0.94947
# Poissons Ratio (z) = 0.18505 0.20488
#
# Static dielectric constant tensor:
#      x y z
#    x 1.687200 0.000000 0.000000 
#    y 0.000000 1.631300 0.000000 
#    z 0.000000 0.000000 1.615600 
# 
# From -- ./inp_files/32124.got.cif
#   From: 2010.05.17/outbox.cif.g08.bks.cpg/sg59_17_cif.got.tgz:32124.got - 2010.06.03 14:40:33.
