data_PCOD9452167
_publ_section_title
;
Structure prediction by ZEFSAII (Michael W. Deem and Ramdas Pophale) SiO2 
 PCOD9452167
Probable space group: P M M N
;
_chemical_formula_sum "Si O2"
_cell_formula_units_Z 64
_cell_length_a 8.454980
_cell_length_b 19.332307
_cell_length_c 21.531902
_cell_angle_alpha 90.000000
_cell_angle_beta 90.000000
_cell_angle_gamma 90.000000
_cell_volume 3519.481302
_symmetry_space_group_name_H-M "P M M N"
_symmetry_group_IT_number 59
_space_group.IT_coordinate_system_code '2'
_symmetry_cell_setting 'orthorhombic'
loop_
_space_group_symop_operation_xyz
x,y,z
1/2-x,1/2-y,z
1/2+x,-y,-z
-x,1/2+y,-z
-x,-y,-z
1/2+x,1/2+y,-z
1/2-x,y,z
x,1/2-y,z
loop_
_atom_site_type_symbol
_atom_site_label
_atom_site_fract_x
_atom_site_fract_y
_atom_site_fract_z
Si Si1 0.939390 0.078229 0.999251
Si Si2 0.059173 0.829853 0.884810
Si Si3 0.439143 0.169995 0.886228
Si Si4 0.057177 0.419940 0.366397
Si Si5 0.939375 0.920858 0.497972
Si Si6 0.941094 0.670010 0.749815
Si Si7 0.059036 0.830233 0.249680
Si Si8 0.059277 0.919614 0.366990
O O1 0.750000 0.077047 0.000837
O O2 0.996302 0.120947 0.059739
O O3 0.992994 0.119887 0.938430
O O4 0.000000 0.000000 0.000000
O O5 0.250000 0.829608 0.884939
O O6 0.006165 0.750000 0.894239
O O7 0.001539 0.853242 0.817104
O O8 0.250000 0.169258 0.889634
O O9 0.493457 0.250000 0.895716
O O10 0.491787 0.148513 0.817109
O O11 0.250000 0.419680 0.365140
O O12 0.011148 0.391550 0.434638
O O13 0.002094 0.375789 0.307838
O O14 0.007393 0.500205 0.361578
O O15 0.750000 0.920807 0.495435
O O16 0.003719 0.890834 0.433622
O O17 0.000000 0.000000 0.500000
O O18 0.750000 0.667883 0.750628
O O19 0.989757 0.750000 0.741762
O O20 0.250000 0.834234 0.246555
O O21 0.015209 0.750000 0.259638
O O22 0.004948 0.876187 0.307631
O O23 0.250000 0.919412 0.367444
#
# Coordination Sequence:
#
# PCOD9452167 Si02
#       8
#     8   8   8   8   8   8   8   8
#     4  11  23  38  56  79 108 139 171 212 261 309
#     4   9  19  36  55  74  99 132 167 202 245 300
#     4  10  21  37  57  80 106 137 175 217 257 305
#     4   8  15  28  45  66  92 122 158 198 242 292
#     4   9  16  28  46  67  93 126 163 203 246 295
#     4   9  17  30  49  71  95 125 161 200 241 289
#     4   9  18  33  52  73  99 133 170 207 253 308
#     4   9  17  30  48  69  94 126 165 208 250 297
#
# _framework density 18.184498000000001
#
# number of rings (size 3 to 8) (size 9 to 14) (size 15 to 20)
#    0.000    2.750    0.000    2.250    0.000    3.750 
#    0.000    6.250    0.000    0.750    0.000    0.000 
#    0.000    0.000    0.000    0.000    0.000    0.000 
#
# Total GULP energy -356765.028546 kJ/mol
# GULP energy per Si atom -5574.453571 kJ/mol
# Density = 1.814311 g / cm^3
# Si number density = 18.184498 Si / 1000 Ang^3
#
#
#
# Elastic Constant Matrix: (Units=GPa)
#
#
# Indices 1 2 3 4 5 6 
#
# 1 14.5590 18.5467 29.6359 0.0000 0.0000 0.0000
# 2 18.5467 76.7249 103.6137 0.0000 0.0000 0.0000
# 3 29.6359 103.6137 222.0491 0.0000 0.0000 0.0000
# 4 0.0000 0.0000 0.0000 39.9242 0.0000 0.0000
# 5 0.0000 0.0000 0.0000 0.0000 32.1005 0.0000
# 6 0.0000 0.0000 0.0000 0.0000 0.0000 16.7028
#
#
#
# Elastic Compliance Matrix: (Units=1/GPa)
#
#
# Indices 1 2 3 4 5 6 
#
# 1 0.101840 -0.016932 -0.005691 0.000000 0.000000 0.000000
# 2 -0.016932 0.038056 -0.015498 0.000000 0.000000 0.000000
# 3 -0.005691 -0.015498 0.012495 0.000000 0.000000 0.000000
# 4 0.000000 0.000000 0.000000 0.025047 0.000000 0.000000
# 5 0.000000 0.000000 0.000000 0.000000 0.031152 0.000000
# 6 0.000000 0.000000 0.000000 0.000000 0.000000 0.059870
#
#
# Mechanical properties :
#
#
# Convention : Reuss Voigt Hill
#
# Bulk Modulus (GPa) = 13.13220 68.54729 40.83974
# Shear Modulus (GPa) = 13.51036 28.51461 21.01249
#
# Velocity S-wave (km/s) = 2.72869 3.96419 3.40298
# Velocity P-wave (km/s) = 4.14306 7.66357 6.16017
#
# Compressibility (1/GPa) = 0.07614872
#
# Stress axis : x y z
#
# Youngs Moduli (GPa) = 9.81928 26.27717 80.03291
#
# Poissons Ratio (x) = 0.44492 0.45550
# Poissons Ratio (y) = 0.16626 1.24035
# Poissons Ratio (z) = 0.05589 0.40724
#
# Static dielectric constant tensor:
#      x y z
#    x 1.625580 0.000000 0.000000 
#    y 0.000000 1.610060 0.000000 
#    z 0.000000 0.000000 1.632200 
# 
# From -- ./inp_files/29408.got.cif
#   From: 2010.05.17/outbox.cif.g08.bks.cpg/sg59_15_cif.got.tgz:29408.got - 2010.06.03 14:40:33.
