data_PCOD9452118
_publ_section_title
;
Structure prediction by ZEFSAII (Michael W. Deem and Ramdas Pophale) SiO2 
 PCOD9452118
Probable space group: P M M N
;
_chemical_formula_sum "Si O2"
_cell_formula_units_Z 48
_cell_length_a 20.511066
_cell_length_b 8.963518
_cell_length_c 14.546582
_cell_angle_alpha 90.000000
_cell_angle_beta 90.000000
_cell_angle_gamma 90.000000
_cell_volume 2674.408146
_symmetry_space_group_name_H-M "P M M N"
_symmetry_group_IT_number 59
_space_group.IT_coordinate_system_code '2'
_symmetry_cell_setting 'orthorhombic'
loop_
_space_group_symop_operation_xyz
x,y,z
1/2-x,1/2-y,z
1/2+x,-y,-z
-x,1/2+y,-z
-x,-y,-z
1/2+x,1/2+y,-z
1/2-x,y,z
x,1/2-y,z
loop_
_atom_site_type_symbol
_atom_site_label
_atom_site_fract_x
_atom_site_fract_y
_atom_site_fract_z
Si Si1 0.432881 0.928445 0.537364
Si Si2 0.826775 0.581404 0.818196
Si Si3 0.953749 0.572326 0.078530
Si Si4 0.025353 0.576820 0.728253
Si Si5 0.616647 0.576640 0.631671
Si Si6 0.172677 0.573065 0.995702
O O1 0.438488 0.750000 0.534136
O O2 0.426251 0.970089 0.644879
O O3 0.500000 0.000000 0.500000
O O4 0.381458 0.986017 0.462641
O O5 0.750000 0.596776 0.829310
O O6 0.856083 0.750000 0.826602
O O7 0.839323 0.523868 0.715970
O O8 0.847320 0.474733 0.900536
O O9 0.956753 0.750000 0.069648
O O10 0.974661 0.519714 0.180203
O O11 0.879472 0.514575 0.065382
O O12 0.000000 0.500000 0.000000
O O13 0.038275 0.750000 0.752731
O O14 0.955040 0.570679 0.678524
O O15 0.631125 0.750000 0.611916
O O16 0.250000 0.537135 0.981276
O O17 0.165386 0.750000 0.983754
#
# Coordination Sequence:
#
# PCOD9452118 Si02
#       6
#     8   8   8   8   8   8
#     4   9  17  29  47  69  94 125 158 195 241 295
#     4   9  17  30  49  73 101 133 167 203 245 293
#     4  12  24  36  54  79 107 138 173 217 264 308
#     4   9  18  32  48  70 100 130 164 208 256 301
#     4   9  17  29  47  71 100 131 162 200 245 293
#     4  10  21  37  56  77 103 137 175 214 258 311
#
# _framework density 17.947897000000001
#
# number of rings (size 3 to 8) (size 9 to 14) (size 15 to 20)
#    0.000    2.333    0.000    4.500    0.000    6.333 
#    0.000    0.000    0.000    1.000    0.000    4.667 
#    0.000    0.000    0.000    0.000    0.000    0.000 
#
# Total GULP energy -267352.907223 kJ/mol
# GULP energy per Si atom -5569.852234 kJ/mol
# Density = 1.790705 g / cm^3
# Si number density = 17.947897 Si / 1000 Ang^3
#
#
#
# Elastic Constant Matrix: (Units=GPa)
#
#
# Indices 1 2 3 4 5 6 
#
# 1 26.6309 21.9142 13.5607 0.0000 0.0000 0.0000
# 2 21.9142 77.0663 46.4643 0.0000 0.0000 0.0000
# 3 13.5607 46.4643 104.5296 0.0000 0.0000 0.0000
# 4 0.0000 0.0000 0.0000 34.1238 0.0000 0.0000
# 5 0.0000 0.0000 0.0000 0.0000 25.9856 0.0000
# 6 0.0000 0.0000 0.0000 0.0000 0.0000 20.0933
#
#
#
# Elastic Compliance Matrix: (Units=1/GPa)
#
#
# Indices 1 2 3 4 5 6 
#
# 1 0.049025 -0.013806 -0.000223 0.000000 0.000000 0.000000
# 2 -0.013806 0.021614 -0.007817 0.000000 0.000000 0.000000
# 3 -0.000223 -0.007817 0.013070 0.000000 0.000000 0.000000
# 4 0.000000 0.000000 0.000000 0.029305 0.000000 0.000000
# 5 0.000000 0.000000 0.000000 0.000000 0.038483 0.000000
# 6 0.000000 0.000000 0.000000 0.000000 0.000000 0.049768
#
#
# Mechanical properties :
#
#
# Convention : Reuss Voigt Hill
#
# Bulk Modulus (GPa) = 24.98889 41.34503 33.16696
# Shear Modulus (GPa) = 19.35761 24.45968 21.90865
#
# Velocity S-wave (km/s) = 3.28768 3.69564 3.49761
# Velocity P-wave (km/s) = 5.32589 6.42623 5.90176
#
# Compressibility (1/GPa) = 0.04001778
#
# Stress axis : x y z
#
# Youngs Moduli (GPa) = 20.39785 46.26532 76.50963
#
# Poissons Ratio (x) = 0.63873 0.01708
# Poissons Ratio (y) = 0.28161 0.59806
# Poissons Ratio (z) = 0.00455 0.36165
#
# Static dielectric constant tensor:
#      x y z
#    x 1.702590 0.000000 0.000000 
#    y 0.000000 1.622670 0.000000 
#    z 0.000000 0.000000 1.664780 
# 
# From -- ./inp_files/18581.got.cif
#   From: 2010.05.17/outbox.cif.g08.bks.cpg/sg59_10_cif.got.tgz:18581.got - 2010.06.03 14:40:33.
