data_PCOD9452327
_publ_section_title
;
Structure prediction by ZEFSAII (Michael W. Deem and Ramdas Pophale) SiO2 
 PCOD9452327
Probable space group: P M M N
;
_chemical_formula_sum "Si O2"
_cell_formula_units_Z 56
_cell_length_a 20.002061
_cell_length_b 9.346334
_cell_length_c 14.858805
_cell_angle_alpha 90.000000
_cell_angle_beta 90.000000
_cell_angle_gamma 90.000000
_cell_volume 2777.793310
_symmetry_space_group_name_H-M "P M M N"
_symmetry_group_IT_number 59
_space_group.IT_coordinate_system_code '2'
_symmetry_cell_setting 'orthorhombic'
loop_
_space_group_symop_operation_xyz
x,y,z
1/2-x,1/2-y,z
1/2+x,-y,-z
-x,1/2+y,-z
-x,-y,-z
1/2+x,1/2+y,-z
1/2-x,y,z
x,1/2-y,z
loop_
_atom_site_type_symbol
_atom_site_label
_atom_site_fract_x
_atom_site_fract_y
_atom_site_fract_z
Si Si1 0.172122 0.591762 0.293436
Si Si2 0.673524 0.090468 0.107888
Si Si3 0.930204 0.084854 0.395380
Si Si4 0.973119 0.587537 0.913711
Si Si5 0.934624 0.920474 0.212393
Si Si6 0.589739 0.913774 0.570343
Si Si7 0.675566 0.506552 0.908581
O O1 0.250000 0.579356 0.320057
O O2 0.147089 0.750000 0.318187
O O3 0.129181 0.473928 0.344215
O O4 0.170871 0.575947 0.185709
O O5 0.750000 0.064649 0.136231
O O6 0.653755 0.250000 0.138344
O O7 0.624535 0.970960 0.146013
O O8 0.672906 0.085771 0.999555
O O9 0.909724 0.250000 0.381976
O O10 0.010484 0.083585 0.409827
O O11 0.917559 0.985943 0.309264
O O12 0.898588 0.015283 0.484464
O O13 0.999269 0.750000 0.915173
O O14 0.893012 0.593855 0.913202
O O15 0.000390 0.500931 0.827654
O O16 0.000000 0.500000 0.000000
O O17 0.943170 0.750000 0.213802
O O18 0.608482 0.750000 0.550905
O O19 0.750000 0.576202 0.909065
#
# Coordination Sequence:
#
# PCOD9452327 Si02
#       7
#     8   8   8   8   8   8   8
#     4  10  21  37  59  89 123 161 203 246 299 364
#     4  10  21  39  63  88 119 162 210 258 308 366
#     4  10  21  39  64  90 118 155 197 246 304 366
#     4  12  25  40  60  88 124 165 209 259 313 367
#     4  12  25  40  61  91 127 165 206 257 308 366
#     4  10  21  38  61  90 120 152 194 246 304 362
#     4  10  22  39  63  92 124 163 212 260 310 368
#
# _framework density 20.159887999999999
#
# number of rings (size 3 to 8) (size 9 to 14) (size 15 to 20)
#    0.000    1.429    1.429    3.857    0.000    8.857 
#    0.000    3.571    0.000    4.286    0.000    0.000 
#    0.000    0.000    0.000    0.000    0.000    0.000 
#
# Total GULP energy -312721.919401 kJ/mol
# GULP energy per Si atom -5584.319989 kJ/mol
# Density = 2.011400 g / cm^3
# Si number density = 20.159888 Si / 1000 Ang^3
#
#
#
# Elastic Constant Matrix: (Units=GPa)
#
#
# Indices 1 2 3 4 5 6 
#
# 1 89.1957 35.3872 13.8271 0.0000 0.0000 0.0000
# 2 35.3872 165.0002 45.5766 0.0000 0.0000 0.0000
# 3 13.8271 45.5766 101.8583 0.0000 0.0000 0.0000
# 4 0.0000 0.0000 0.0000 7.2569 0.0000 0.0000
# 5 0.0000 0.0000 0.0000 0.0000 22.3596 0.0000
# 6 0.0000 0.0000 0.0000 0.0000 0.0000 20.8779
#
#
#
# Elastic Compliance Matrix: (Units=1/GPa)
#
#
# Indices 1 2 3 4 5 6 
#
# 1 0.012282 -0.002480 -0.000558 0.000000 0.000000 0.000000
# 2 -0.002480 0.007416 -0.002982 0.000000 0.000000 0.000000
# 3 -0.000558 -0.002982 0.011227 0.000000 0.000000 0.000000
# 4 0.000000 0.000000 0.000000 0.137800 0.000000 0.000000
# 5 0.000000 0.000000 0.000000 0.000000 0.044723 0.000000
# 6 0.000000 0.000000 0.000000 0.000000 0.000000 0.047898
#
#
# Mechanical properties :
#
#
# Convention : Reuss Voigt Hill
#
# Bulk Modulus (GPa) = 52.94736 60.62622 56.78679
# Shear Modulus (GPa) = 17.87757 27.51643 22.69700
#
# Velocity S-wave (km/s) = 2.98113 3.69848 3.35901
# Velocity P-wave (km/s) = 6.17821 6.95531 6.57824
#
# Compressibility (1/GPa) = 0.01888668
#
# Stress axis : x y z
#
# Youngs Moduli (GPa) = 81.42235 134.84205 89.06781
#
# Poissons Ratio (x) = 0.33441 0.04966
# Poissons Ratio (y) = 0.20193 0.26557
# Poissons Ratio (z) = 0.04540 0.40206
#
# Static dielectric constant tensor:
#      x y z
#    x 1.724980 0.000000 0.000000 
#    y 0.000000 1.700260 0.000000 
#    z 0.000000 0.000000 1.709110 
# 
# From -- ./inp_files/24220.got.cif
#   From: 2010.05.17/outbox.cif.g08.bks.cpg/sg59_13_cif.got.tgz:24220.got - 2010.06.03 14:40:33.
