data_PCOD9452320
_publ_section_title
;
Structure prediction by ZEFSAII (Michael W. Deem and Ramdas Pophale) SiO2 
 PCOD9452320
Probable space group: P M M N
;
_chemical_formula_sum "Si O2"
_cell_formula_units_Z 56
_cell_length_a 15.861863
_cell_length_b 8.873274
_cell_length_c 19.228537
_cell_angle_alpha 90.000000
_cell_angle_beta 90.000000
_cell_angle_gamma 90.000000
_cell_volume 2706.352293
_symmetry_space_group_name_H-M "P M M N"
_symmetry_group_IT_number 59
_space_group.IT_coordinate_system_code '2'
_symmetry_cell_setting 'orthorhombic'
loop_
_space_group_symop_operation_xyz
x,y,z
1/2-x,1/2-y,z
1/2+x,-y,-z
-x,1/2+y,-z
-x,-y,-z
1/2+x,1/2+y,-z
1/2-x,y,z
x,1/2-y,z
loop_
_atom_site_type_symbol
_atom_site_label
_atom_site_fract_x
_atom_site_fract_y
_atom_site_fract_z
Si Si1 0.158161 0.574767 0.960432
Si Si2 0.649566 0.423892 0.652168
Si Si3 0.504202 0.428815 0.423884
Si Si4 0.150360 0.932342 0.685593
Si Si5 0.151777 0.412808 0.215725
Si Si6 0.562372 0.573897 0.918543
Si Si7 0.090605 0.071157 0.832097
O O1 0.250000 0.561112 0.994031
O O2 0.146158 0.750000 0.941433
O O3 0.157061 0.473557 0.891684
O O4 0.087159 0.520260 0.013825
O O5 0.750000 0.454054 0.640785
O O6 0.635427 0.250000 0.634473
O O7 0.584623 0.527021 0.611127
O O8 0.625101 0.455430 0.732754
O O9 0.500000 0.500000 0.500000
O O10 0.511162 0.250000 0.430101
O O11 0.584364 0.477803 0.375660
O O12 0.250000 0.971837 0.673859
O O13 0.146684 0.750000 0.691619
O O14 0.117605 0.003561 0.758040
O O15 0.250000 0.399375 0.229550
O O16 0.110372 0.250000 0.233500
O O17 0.140048 0.435857 0.134703
O O18 0.548648 0.750000 0.935965
O O19 0.490267 0.508644 0.867898
O O20 0.078977 0.250000 0.827158
#
# Coordination Sequence:
#
# PCOD9452320 Si02
#       7
#     8   8   8   8   8   8   8
#     4  11  24  41  60  83 115 156 203 258 320 382
#     4  10  21  37  59  88 123 163 205 250 302 363
#     4  11  24  42  66  96 129 165 204 251 309 372
#     4  10  23  45  70  95 127 169 215 262 316 379
#     4   9  18  33  54  81 113 150 192 239 294 358
#     4  11  22  37  58  84 118 159 204 255 313 375
#     4  12  25  40  61  89 121 157 204 261 316 373
#
# _framework density 20.692057999999999
#
# number of rings (size 3 to 8) (size 9 to 14) (size 15 to 20)
#    0.000    1.429    0.000    5.143    0.000   10.857 
#    0.000    2.857    0.000    0.000    0.000    0.000 
#    0.000    0.000    0.000    0.000    0.000    0.000 
#
# Total GULP energy -312390.629496 kJ/mol
# GULP energy per Si atom -5578.404098 kJ/mol
# Density = 2.064496 g / cm^3
# Si number density = 20.692058 Si / 1000 Ang^3
#
#
#
# Elastic Constant Matrix: (Units=GPa)
#
#
# Indices 1 2 3 4 5 6 
#
# 1 83.0371 33.9908 41.7685 0.0000 0.0000 0.0000
# 2 33.9908 76.2135 40.9570 0.0000 0.0000 0.0000
# 3 41.7685 40.9570 122.3317 0.0000 0.0000 0.0000
# 4 0.0000 0.0000 0.0000 40.1365 0.0000 0.0000
# 5 0.0000 0.0000 0.0000 0.0000 26.9248 0.0000
# 6 0.0000 0.0000 0.0000 0.0000 0.0000 25.6673
#
#
#
# Elastic Compliance Matrix: (Units=1/GPa)
#
#
# Indices 1 2 3 4 5 6 
#
# 1 0.016033 -0.005132 -0.003756 0.000000 0.000000 0.000000
# 2 -0.005132 0.017643 -0.004154 0.000000 0.000000 0.000000
# 3 -0.003756 -0.004154 0.010848 0.000000 0.000000 0.000000
# 4 0.000000 0.000000 0.000000 0.024915 0.000000 0.000000
# 5 0.000000 0.000000 0.000000 0.000000 0.037140 0.000000
# 6 0.000000 0.000000 0.000000 0.000000 0.000000 0.038960
#
#
# Mechanical properties :
#
#
# Convention : Reuss Voigt Hill
#
# Bulk Modulus (GPa) = 54.23539 57.22388 55.72963
# Shear Modulus (GPa) = 28.12622 29.53679 28.83151
#
# Velocity S-wave (km/s) = 3.69084 3.78225 3.73682
# Velocity P-wave (km/s) = 6.66563 6.84025 6.75350
#
# Compressibility (1/GPa) = 0.01843815
#
# Stress axis : x y z
#
# Youngs Moduli (GPa) = 62.37174 56.68110 92.18426
#
# Poissons Ratio (x) = 0.29090 0.34624
# Poissons Ratio (y) = 0.32010 0.38298
# Poissons Ratio (z) = 0.23427 0.23548
#
# Static dielectric constant tensor:
#      x y z
#    x 1.865000 0.000000 0.000000 
#    y 0.000000 1.720620 0.000000 
#    z 0.000000 0.000000 1.737480 
# 
# From -- ./inp_files/30346.got.cif
#   From: 2010.05.17/outbox.cif.g08.bks.cpg/sg59_16_cif.got.tgz:30346.got - 2010.06.03 14:40:33.
