data_PCOD9452821
_publ_section_title
;
Structure prediction by ZEFSAII (Michael W. Deem and Ramdas Pophale) SiO2 
 PCOD9452821
Probable space group: P M M N
;
_chemical_formula_sum "Si O2"
_cell_formula_units_Z 48
_cell_length_a 15.747925
_cell_length_b 8.943521
_cell_length_c 17.876524
_cell_angle_alpha 90.000000
_cell_angle_beta 90.000000
_cell_angle_gamma 90.000000
_cell_volume 2517.763569
_symmetry_space_group_name_H-M "P M M N"
_symmetry_group_IT_number 59
_space_group.IT_coordinate_system_code '2'
_symmetry_cell_setting 'orthorhombic'
loop_
_space_group_symop_operation_xyz
x,y,z
1/2-x,1/2-y,z
1/2+x,-y,-z
-x,1/2+y,-z
-x,-y,-z
1/2+x,1/2+y,-z
1/2-x,y,z
x,1/2-y,z
loop_
_atom_site_type_symbol
_atom_site_label
_atom_site_fract_x
_atom_site_fract_y
_atom_site_fract_z
Si Si1 0.091810 0.928710 0.002576
Si Si2 0.149310 0.072121 0.319215
Si Si3 0.850608 0.917618 0.146219
Si Si4 0.348426 0.067824 0.690303
Si Si5 0.148768 0.919017 0.166410
Si Si6 0.502661 0.069954 0.582099
O O1 0.091151 0.750000 0.001408
O O2 0.129272 0.974535 0.083034
O O3 0.135994 0.987085 0.927700
O O4 0.000000 0.000000 0.000000
O O5 0.250000 0.034819 0.329921
O O6 0.141008 0.250000 0.327719
O O7 0.123015 0.022187 0.235355
O O8 0.086447 0.988389 0.375374
O O9 0.750000 0.903440 0.156780
O O10 0.886753 0.750000 0.134528
O O11 0.879689 0.980054 0.226575
O O12 0.250000 0.019783 0.676584
O O13 0.346691 0.250000 0.693007
O O14 0.417898 0.024782 0.628769
O O15 0.250000 0.908305 0.170837
O O16 0.113311 0.750000 0.175617
O O17 0.504102 0.250000 0.578408
O O18 0.500000 0.000000 0.500000
#
# Coordination Sequence:
#
# PCOD9452821 Si02
#       6
#     8   8   8   8   8   8
#     4  11  23  35  50  78 115 153 193 237 286 337
#     4  10  22  40  62  88 119 155 197 246 299 352
#     4   9  18  35  58  81 107 143 188 236 287 344
#     4   8  17  36  61  86 113 150 193 235 286 350
#     4   9  19  37  58  78 106 148 194 238 287 344
#     4  11  23  39  62  91 122 156 194 239 294 356
#
# _framework density 19.064539
#
# number of rings (size 3 to 8) (size 9 to 14) (size 15 to 20)
#    0.000    2.333    0.000    3.000    2.333    4.000 
#    0.000    4.167    0.000    3.500    0.000    0.000 
#    0.000    0.000    0.000    0.000    0.000    0.000 
#
# Total GULP energy -267648.806893 kJ/mol
# GULP energy per Si atom -5576.016810 kJ/mol
# Density = 1.902115 g / cm^3
# Si number density = 19.064539 Si / 1000 Ang^3
#
#
#
# Elastic Constant Matrix: (Units=GPa)
#
#
# Indices 1 2 3 4 5 6 
#
# 1 76.5709 36.8409 70.5025 0.0000 0.0000 0.0000
# 2 36.8409 53.6511 62.9294 0.0000 0.0000 0.0000
# 3 70.5025 62.9294 193.3274 0.0000 0.0000 0.0000
# 4 0.0000 0.0000 0.0000 33.9163 0.0000 0.0000
# 5 0.0000 0.0000 0.0000 0.0000 37.6741 0.0000
# 6 0.0000 0.0000 0.0000 0.0000 0.0000 22.8245
#
#
#
# Elastic Compliance Matrix: (Units=1/GPa)
#
#
# Indices 1 2 3 4 5 6 
#
# 1 0.022202 -0.009299 -0.005070 0.000000 0.000000 0.000000
# 2 -0.009299 0.034045 -0.007691 0.000000 0.000000 0.000000
# 3 -0.005070 -0.007691 0.009525 0.000000 0.000000 0.000000
# 4 0.000000 0.000000 0.000000 0.029484 0.000000 0.000000
# 5 0.000000 0.000000 0.000000 0.000000 0.026543 0.000000
# 6 0.000000 0.000000 0.000000 0.000000 0.000000 0.043813
#
#
# Mechanical properties :
#
#
# Convention : Reuss Voigt Hill
#
# Bulk Modulus (GPa) = 46.18345 73.78834 59.98589
# Shear Modulus (GPa) = 23.04697 29.10143 26.07420
#
# Velocity S-wave (km/s) = 3.48068 3.91124 3.70223
# Velocity P-wave (km/s) = 6.35853 7.69322 7.05750
#
# Compressibility (1/GPa) = 0.02165278
#
# Stress axis : x y z
#
# Youngs Moduli (GPa) = 45.04163 29.37276 104.98969
#
# Poissons Ratio (x) = 0.27314 0.53225
# Poissons Ratio (y) = 0.41884 0.80745
# Poissons Ratio (z) = 0.22834 0.22590
#
# Static dielectric constant tensor:
#      x y z
#    x 1.660050 0.000000 0.000000 
#    y 0.000000 1.657480 0.000000 
#    z 0.000000 0.000000 1.740460 
# 
# From -- ./inp_files/27386.got.cif
#   From: 2010.05.17/outbox.cif.g08.bks.cpg/sg59_14_cif.got.tgz:27386.got - 2010.06.03 14:40:33.
