data_PCOD9452236
_publ_section_title
;
Structure prediction by ZEFSAII (Michael W. Deem and Ramdas Pophale) SiO2 
 PCOD9452236
Probable space group: P M M N
;
_chemical_formula_sum "Si O2"
_cell_formula_units_Z 40
_cell_length_a 8.661566
_cell_length_b 30.716952
_cell_length_c 7.731156
_cell_angle_alpha 90.000000
_cell_angle_beta 90.000000
_cell_angle_gamma 90.000000
_cell_volume 2056.927453
_symmetry_space_group_name_H-M "P M M N"
_symmetry_group_IT_number 59
_space_group.IT_coordinate_system_code '2'
_symmetry_cell_setting 'orthorhombic'
loop_
_space_group_symop_operation_xyz
x,y,z
1/2-x,1/2-y,z
1/2+x,-y,-z
-x,1/2+y,-z
-x,-y,-z
1/2+x,1/2+y,-z
1/2-x,y,z
x,1/2-y,z
loop_
_atom_site_type_symbol
_atom_site_label
_atom_site_fract_x
_atom_site_fract_y
_atom_site_fract_z
Si Si1 0.934491 0.046045 0.061573
Si Si2 0.063441 0.358501 0.447771
Si Si3 0.566251 0.546123 0.556915
Si Si4 0.065312 0.800921 0.248700
Si Si5 0.434928 0.136095 0.040266
O O1 0.750000 0.044367 0.064711
O O2 0.009472 0.050745 0.248679
O O3 0.990586 0.090678 0.973525
O O4 0.000000 0.000000 0.000000
O O5 0.250000 0.355447 0.455666
O O6 0.019413 0.406898 0.519525
O O7 0.020855 0.355154 0.242918
O O8 0.989841 0.323044 0.572693
O O9 0.500000 0.500000 0.500000
O O10 0.750000 0.543424 0.544639
O O11 0.250000 0.805012 0.234856
O O12 0.024368 0.750000 0.246593
O O13 0.988356 0.826072 0.087934
O O14 0.250000 0.131305 0.036591
#
# Coordination Sequence:
#
# PCOD9452236 Si02
#       5
#     8   8   8   8   8
#     4  11  22  37  58  86 121 161 203 249 303 367
#     4   9  21  41  63  88 121 160 205 255 307 367
#     4  10  21  37  57  86 121 160 204 250 304 366
#     4  11  25  42  63  93 125 162 208 256 313 375
#     4  10  22  42  65  90 123 161 207 259 312 371
#
# _framework density 19.446480000000001
#
# number of rings (size 3 to 8) (size 9 to 14) (size 15 to 20)
#    0.000    1.800    0.000    4.800    2.800    7.200 
#    0.000    4.000    0.000    0.000    0.000    0.000 
#    0.000    0.000    0.000    0.000    0.000    0.000 
#
# Total GULP energy -223130.801205 kJ/mol
# GULP energy per Si atom -5578.270030 kJ/mol
# Density = 1.940222 g / cm^3
# Si number density = 19.446480 Si / 1000 Ang^3
#
#
#
# Elastic Constant Matrix: (Units=GPa)
#
#
# Indices 1 2 3 4 5 6 
#
# 1 186.5199 114.1460 73.7711 0.0000 0.0000 0.0000
# 2 114.1460 211.6456 88.5758 0.0000 0.0000 0.0000
# 3 73.7711 88.5758 105.1973 0.0000 0.0000 0.0000
# 4 0.0000 0.0000 0.0000 40.6815 0.0000 0.0000
# 5 0.0000 0.0000 0.0000 0.0000 29.4626 0.0000
# 6 0.0000 0.0000 0.0000 0.0000 0.0000 36.5997
#
#
#
# Elastic Compliance Matrix: (Units=1/GPa)
#
#
# Indices 1 2 3 4 5 6 
#
# 1 0.008693 -0.003300 -0.003318 0.000000 0.000000 0.000000
# 2 -0.003300 0.008548 -0.004884 0.000000 0.000000 0.000000
# 3 -0.003318 -0.004884 0.015944 0.000000 0.000000 0.000000
# 4 0.000000 0.000000 0.000000 0.024581 0.000000 0.000000
# 5 0.000000 0.000000 0.000000 0.000000 0.033941 0.000000
# 6 0.000000 0.000000 0.000000 0.000000 0.000000 0.027323
#
#
# Mechanical properties :
#
#
# Convention : Reuss Voigt Hill
#
# Bulk Modulus (GPa) = 98.19682 117.37208 107.78445
# Shear Modulus (GPa) = 34.38128 36.47341 35.42735
#
# Velocity S-wave (km/s) = 4.20932 4.33549 4.27287
# Velocity P-wave (km/s) = 8.61568 9.24930 8.93811
#
# Compressibility (1/GPa) = 0.01018363
#
# Stress axis : x y z
#
# Youngs Moduli (GPa) = 115.03547 116.97980 62.71762
#
# Poissons Ratio (x) = 0.38602 0.20807
# Poissons Ratio (y) = 0.37961 0.30629
# Poissons Ratio (z) = 0.38164 0.57129
#
# Static dielectric constant tensor:
#      x y z
#    x 1.653400 0.000000 0.000000 
#    y 0.000000 1.763230 0.000000 
#    z 0.000000 0.000000 1.669810 
# 
# From -- ./inp_files/5686.got.cif
#   From: 2010.05.17/outbox.cif.g08.bks.cpg/sg59_3_cif.got.tgz:5686.got - 2010.06.03 14:40:33.
