data_PCOD9452956
_publ_section_title
;
Structure prediction by ZEFSAII (Michael W. Deem and Ramdas Pophale) SiO2 
 PCOD9452956
Probable space group: P M M N
;
_chemical_formula_sum "Si O2"
_cell_formula_units_Z 40
_cell_length_a 8.890149
_cell_length_b 25.667914
_cell_length_c 8.323803
_cell_angle_alpha 90.000000
_cell_angle_beta 90.000000
_cell_angle_gamma 90.000000
_cell_volume 1899.421758
_symmetry_space_group_name_H-M "P M M N"
_symmetry_group_IT_number 59
_space_group.IT_coordinate_system_code '2'
_symmetry_cell_setting 'orthorhombic'
loop_
_space_group_symop_operation_xyz
x,y,z
1/2-x,1/2-y,z
1/2+x,-y,-z
-x,1/2+y,-z
-x,-y,-z
1/2+x,1/2+y,-z
1/2-x,y,z
x,1/2-y,z
loop_
_atom_site_type_symbol
_atom_site_label
_atom_site_fract_x
_atom_site_fract_y
_atom_site_fract_z
Si Si1 0.081865 0.525364 0.146596
Si Si2 0.081100 0.450238 0.427804
Si Si3 0.427927 0.841908 0.526903
Si Si4 0.068909 0.364678 0.804442
Si Si5 0.924486 0.810621 0.861363
O O1 0.250000 0.545433 0.114832
O O2 0.097894 0.473444 0.252445
O O3 0.989029 0.575446 0.209654
O O4 0.000000 0.500000 0.000000
O O5 0.250000 0.438786 0.490271
O O6 0.000000 0.500000 0.500000
O O7 0.972417 0.401744 0.439403
O O8 0.250000 0.833745 0.514408
O O9 0.503524 0.833184 0.350546
O O10 0.491296 0.815451 0.689794
O O11 0.250000 0.362249 0.799546
O O12 0.021864 0.343045 0.981589
O O13 0.750000 0.826176 0.830922
O O14 0.927721 0.750000 0.908781
#
# Coordination Sequence:
#
# PCOD9452956 Si02
#       5
#     8   8   8   8   8
#     4  11  23  37  57  88 126 167 211 259 314 379
#     4  11  22  37  59  88 125 168 212 256 307 370
#     4  12  25  41  65  98 135 174 216 264 326 393
#     4  11  23  41  67  95 126 168 217 269 324 383
#     4  10  24  47  71  95 124 163 216 274 330 389
#
# _framework density 21.05904
#
# number of rings (size 3 to 8) (size 9 to 14) (size 15 to 20)
#    0.000    1.000    2.000    4.800    0.000   10.000 
#    0.000    2.000    0.000    0.000    0.000    0.000 
#    0.000    0.000    0.000    0.000    0.000    0.000 
#
# Total GULP energy -222906.276675 kJ/mol
# GULP energy per Si atom -5572.656917 kJ/mol
# Density = 2.101111 g / cm^3
# Si number density = 21.059040 Si / 1000 Ang^3
#
#
#
# Elastic Constant Matrix: (Units=GPa)
#
#
# Indices 1 2 3 4 5 6 
#
# 1 107.3139 -10.2211 51.6664 0.0000 0.0000 0.0000
# 2 -10.2211 42.3427 10.6288 0.0000 0.0000 0.0000
# 3 51.6664 10.6288 138.5105 0.0000 0.0000 0.0000
# 4 0.0000 0.0000 0.0000 33.2840 0.0000 0.0000
# 5 0.0000 0.0000 0.0000 0.0000 33.3759 0.0000
# 6 0.0000 0.0000 0.0000 0.0000 0.0000 20.0483
#
#
#
# Elastic Compliance Matrix: (Units=1/GPa)
#
#
# Indices 1 2 3 4 5 6 
#
# 1 0.012020 0.004106 -0.004799 0.000000 0.000000 0.000000
# 2 0.004106 0.025483 -0.003487 0.000000 0.000000 0.000000
# 3 -0.004799 -0.003487 0.009277 0.000000 0.000000 0.000000
# 4 0.000000 0.000000 0.000000 0.030044 0.000000 0.000000
# 5 0.000000 0.000000 0.000000 0.000000 0.029962 0.000000
# 6 0.000000 0.000000 0.000000 0.000000 0.000000 0.049879
#
#
# Mechanical properties :
#
#
# Convention : Reuss Voigt Hill
#
# Bulk Modulus (GPa) = 26.02752 43.59060 34.80906
# Shear Modulus (GPa) = 28.11635 33.08118 30.59877
#
# Velocity S-wave (km/s) = 3.65789 3.96773 3.81596
# Velocity P-wave (km/s) = 5.49785 6.46024 5.99838
#
# Compressibility (1/GPa) = 0.03842087
#
# Stress axis : x y z
#
# Youngs Moduli (GPa) = 83.19573 39.24142 107.79089
#
# Poissons Ratio (x) = -0.16113 0.51725
# Poissons Ratio (y) = -0.34160 0.37588
# Poissons Ratio (z) = 0.39923 0.13684
#
# Static dielectric constant tensor:
#      x y z
#    x 2.005180 0.000000 0.000000 
#    y 0.000000 1.727250 0.000000 
#    z 0.000000 0.000000 2.053390 
# 
# From -- ./inp_files/5862.got.cif
#   From: 2010.05.17/outbox.cif.g08.bks.cpg/sg59_3_cif.got.tgz:5862.got - 2010.06.03 14:40:33.
