data_PCOD9452868
_publ_section_title
;
Structure prediction by ZEFSAII (Michael W. Deem and Ramdas Pophale) SiO2 
 PCOD9452868
Probable space group: P M M N
;
_chemical_formula_sum "Si O2"
_cell_formula_units_Z 32
_cell_length_a 15.044853
_cell_length_b 7.675043
_cell_length_c 13.879178
_cell_angle_alpha 90.000000
_cell_angle_beta 90.000000
_cell_angle_gamma 90.000000
_cell_volume 1602.627208
_symmetry_space_group_name_H-M "P M M N"
_symmetry_group_IT_number 59
_space_group.IT_coordinate_system_code '2'
_symmetry_cell_setting 'orthorhombic'
loop_
_space_group_symop_operation_xyz
x,y,z
1/2-x,1/2-y,z
1/2+x,-y,-z
-x,1/2+y,-z
-x,-y,-z
1/2+x,1/2+y,-z
1/2-x,y,z
x,1/2-y,z
loop_
_atom_site_type_symbol
_atom_site_label
_atom_site_fract_x
_atom_site_fract_y
_atom_site_fract_z
Si Si1 0.851794 0.460512 0.250803
Si Si2 0.344231 0.750000 0.397153
Si Si3 0.857205 0.250000 0.810347
Si Si4 0.983982 0.958091 0.888284
Si Si5 0.599672 0.550725 0.469645
O O1 0.750000 0.518703 0.230128
O O2 0.850216 0.250000 0.254450
O O3 0.880011 0.523013 0.357419
O O4 0.927669 0.507919 0.173646
O O5 0.250000 0.750000 0.347938
O O6 0.400004 0.750000 0.299956
O O7 0.348680 0.584300 0.464727
O O8 0.750000 0.250000 0.830819
O O9 0.901494 0.423506 0.854870
O O10 0.969270 0.750000 0.875005
O O11 0.000000 0.000000 0.000000
O O12 0.500000 0.500000 0.500000
O O13 0.617162 0.750000 0.494603
#
# Coordination Sequence:
#
# PCOD9452868 Si02
#       5
#     8   4   4   8   8
#     4  10  22  41  66 100 140 177 225 286 343 405
#     4  11  24  42  61  92 136 173 217 270 321 392
#     4  11  26  46  70  98 136 181 228 282 340 410
#     4  11  24  45  72 100 135 176 225 285 352 417
#     4  12  23  38  63  94 131 181 226 272 330 395
#
# _framework density 19.967213999999998
#
# number of rings (size 3 to 8) (size 9 to 14) (size 15 to 20)
#    0.000    1.000    3.750    2.250    1.750    6.500 
#    0.000    2.500    0.000    0.000    0.000    0.000 
#    0.000    0.000    0.000    0.000    0.000    0.000 
#
# Total GULP energy -178449.749403 kJ/mol
# GULP energy per Si atom -5576.554669 kJ/mol
# Density = 1.992177 g / cm^3
# Si number density = 19.967214 Si / 1000 Ang^3
#
#
#
# Elastic Constant Matrix: (Units=GPa)
#
#
# Indices 1 2 3 4 5 6 
#
# 1 156.0706 55.4924 52.0920 0.0000 0.0000 0.0000
# 2 55.4924 142.6131 59.8629 0.0000 0.0000 0.0000
# 3 52.0920 59.8629 147.7625 0.0000 0.0000 0.0000
# 4 0.0000 0.0000 0.0000 21.8682 0.0000 0.0000
# 5 0.0000 0.0000 0.0000 0.0000 0.4261 0.0000
# 6 0.0000 0.0000 0.0000 0.0000 0.0000 -0.3516
#
#
#
# Elastic Compliance Matrix: (Units=1/GPa)
#
#
# Indices 1 2 3 4 5 6 
#
# 1 0.007830 -0.002275 -0.001839 0.000000 0.000000 0.000000
# 2 -0.002275 0.009110 -0.002889 0.000000 0.000000 0.000000
# 3 -0.001839 -0.002889 0.008586 0.000000 0.000000 0.000000
# 4 0.000000 0.000000 0.000000 0.045729 0.000000 0.000000
# 5 0.000000 0.000000 0.000000 0.000000 2.346795 0.000000
# 6 0.000000 0.000000 0.000000 0.000000 0.000000 -2.844178
#
#
# Mechanical properties :
#
#
# Convention : Reuss Voigt Hill
#
# Bulk Modulus (GPa) = 86.79614 86.81563 86.80589
# Shear Modulus (GPa) = -12.24639 22.98847 5.37104
#
# Velocity S-wave (km/s) = -2.47923 3.39678 1.64188
# Velocity P-wave (km/s) = 5.94712 7.67839 6.86753
#
# Compressibility (1/GPa) = 0.01152125
#
# Stress axis : x y z
#
# Youngs Moduli (GPa) = 127.71500 109.77329 116.46732
#
# Poissons Ratio (x) = 0.24972 0.21415
# Poissons Ratio (y) = 0.29054 0.33643
# Poissons Ratio (z) = 0.23483 0.31709
#
# Static dielectric constant tensor:
#      x y z
#    x 1.862400 0.000000 0.000000 
#    y 0.000000 1.705670 0.000000 
#    z 0.000000 0.000000 1.684310 
# 
# From -- ./inp_files/13680.got.cif
#   From: 2010.05.17/outbox.cif.g08.bks.cpg/sg59_7_cif.got.tgz:13680.got - 2010.06.03 14:40:33.
