data_PCOD9452841
_publ_section_title
;
Structure prediction by ZEFSAII (Michael W. Deem and Ramdas Pophale) SiO2 
 PCOD9452841
Probable space group: P M M N
;
_chemical_formula_sum "Si O2"
_cell_formula_units_Z 64
_cell_length_a 16.724141
_cell_length_b 15.584948
_cell_length_c 11.671131
_cell_angle_alpha 90.000000
_cell_angle_beta 90.000000
_cell_angle_gamma 90.000000
_cell_volume 3042.020397
_symmetry_space_group_name_H-M "P M M N"
_symmetry_group_IT_number 59
_space_group.IT_coordinate_system_code '2'
_symmetry_cell_setting 'orthorhombic'
loop_
_space_group_symop_operation_xyz
x,y,z
1/2-x,1/2-y,z
1/2+x,-y,-z
-x,1/2+y,-z
-x,-y,-z
1/2+x,1/2+y,-z
1/2-x,y,z
x,1/2-y,z
loop_
_atom_site_type_symbol
_atom_site_label
_atom_site_fract_x
_atom_site_fract_y
_atom_site_fract_z
Si Si1 0.159785 0.495561 0.400030
Si Si2 0.106101 0.068325 0.800420
Si Si3 0.843499 0.850798 0.964934
Si Si4 0.569840 0.499179 0.835688
Si Si5 0.907989 0.345941 0.467992
Si Si6 0.846055 0.155328 0.968876
Si Si7 0.159828 0.616717 0.769485
Si Si8 0.089756 0.150715 0.553497
O O1 0.250000 0.494077 0.355135
O O2 0.098301 0.497539 0.295309
O O3 0.144890 0.580401 0.475102
O O4 0.143277 0.413711 0.479660
O O5 0.141622 0.124539 0.902673
O O6 0.092446 0.122583 0.685831
O O7 0.160213 0.986356 0.772554
O O8 0.023032 0.024469 0.840331
O O9 0.750000 0.868965 0.936900
O O10 0.858270 0.750000 0.946044
O O11 0.902047 0.912387 0.893576
O O12 0.614680 0.421740 0.900383
O O13 0.883609 0.250000 0.503272
O O14 0.898132 0.354198 0.331520
O O15 0.999127 0.359177 0.507308
O O16 0.750000 0.149056 0.958374
O O17 0.871555 0.250000 0.928009
O O18 0.863984 0.147182 0.104006
O O19 0.250000 0.647633 0.745563
O O20 0.113061 0.250000 0.541009
#
# Coordination Sequence:
#
# PCOD9452841 Si02
#       8
#     8   8   8   8   8   8   8   8
#     4  12  25  42  68  98 133 178 224 271 330 402
#     4  12  23  43  70  98 129 173 224 276 332 398
#     4  11  25  45  69  98 133 176 225 279 338 398
#     4  12  25  44  68  95 137 178 220 273 329 404
#     4  11  23  42  67  95 132 175 218 274 334 396
#     4  10  22  40  63  93 129 168 213 269 330 389
#     4  11  22  39  67  97 128 167 216 276 334 387
#     4  11  25  46  69  96 136 177 221 277 334 395
#
# _framework density 21.038648999999999
#
# number of rings (size 3 to 8) (size 9 to 14) (size 15 to 20)
#    0.000    0.750    3.750    4.125    0.000    4.250 
#    0.000    0.625    0.000    0.000    0.000    0.000 
#    0.000    0.000    0.000    0.000    0.000    0.000 
#
# Total GULP energy -358229.181566 kJ/mol
# GULP energy per Si atom -5597.330962 kJ/mol
# Density = 2.099076 g / cm^3
# Si number density = 21.038649 Si / 1000 Ang^3
#
#
#
# Elastic Constant Matrix: (Units=GPa)
#
#
# Indices 1 2 3 4 5 6 
#
# 1 55.5654 33.1313 4.3909 0.0000 0.0000 0.0000
# 2 33.1313 139.9854 26.2508 0.0000 0.0000 0.0000
# 3 4.3909 26.2508 74.9655 0.0000 0.0000 0.0000
# 4 0.0000 0.0000 0.0000 9.2518 0.0000 0.0000
# 5 0.0000 0.0000 0.0000 0.0000 94.1602 0.0000
# 6 0.0000 0.0000 0.0000 0.0000 0.0000 96.2431
#
#
#
# Elastic Compliance Matrix: (Units=1/GPa)
#
#
# Indices 1 2 3 4 5 6 
#
# 1 0.020975 -0.005067 0.000546 0.000000 0.000000 0.000000
# 2 -0.005067 0.008870 -0.002809 0.000000 0.000000 0.000000
# 3 0.000546 -0.002809 0.014291 0.000000 0.000000 0.000000
# 4 0.000000 0.000000 0.000000 0.108087 0.000000 0.000000
# 5 0.000000 0.000000 0.000000 0.000000 0.010620 0.000000
# 6 0.000000 0.000000 0.000000 0.000000 0.000000 0.010390
#
#
# Mechanical properties :
#
#
# Convention : Reuss Voigt Hill
#
# Bulk Modulus (GPa) = 33.92665 44.22913 39.07789
# Shear Modulus (GPa) = 25.28850 53.71390 39.50120
#
# Velocity S-wave (km/s) = 3.47075 5.05831 4.33778
# Velocity P-wave (km/s) = 5.67647 7.42858 6.61083
#
# Compressibility (1/GPa) = 0.02947536
#
# Stress axis : x y z
#
# Youngs Moduli (GPa) = 47.67658 112.74590 69.97321
#
# Poissons Ratio (x) = 0.57123 -0.03818
# Poissons Ratio (y) = 0.24155 0.19656
# Poissons Ratio (z) = -0.02601 0.31671
#
# Static dielectric constant tensor:
#      x y z
#    x 1.767910 0.000000 0.000000 
#    y 0.000000 1.741120 0.000000 
#    z 0.000000 0.000000 1.731110 
# 
# From -- ./inp_files/17812.got.cif
#   From: 2010.05.17/outbox.cif.g08.bks.cpg/sg59_9_cif.got.tgz:17812.got - 2010.06.03 14:40:33.
