data_PCOD9452025
_publ_section_title
;
Structure prediction by ZEFSAII (Michael W. Deem and Ramdas Pophale) SiO2 
 PCOD9452025
Probable space group: P M M N
;
_chemical_formula_sum "Si O2"
_cell_formula_units_Z 40
_cell_length_a 8.789759
_cell_length_b 20.089255
_cell_length_c 12.416899
_cell_angle_alpha 90.000000
_cell_angle_beta 90.000000
_cell_angle_gamma 90.000000
_cell_volume 2192.572424
_symmetry_space_group_name_H-M "P M M N"
_symmetry_group_IT_number 59
_space_group.IT_coordinate_system_code '2'
_symmetry_cell_setting 'orthorhombic'
loop_
_space_group_symop_operation_xyz
x,y,z
1/2-x,1/2-y,z
1/2+x,-y,-z
-x,1/2+y,-z
-x,-y,-z
1/2+x,1/2+y,-z
1/2-x,y,z
x,1/2-y,z
loop_
_atom_site_type_symbol
_atom_site_label
_atom_site_fract_x
_atom_site_fract_y
_atom_site_fract_z
Si Si1 0.430646 0.322251 0.000077
Si Si2 0.068324 0.390709 0.487649
Si Si3 0.566015 0.958491 0.098098
Si Si4 0.431198 0.750000 0.812737
Si Si5 0.433413 0.998577 0.665423
Si Si6 0.067192 0.750000 0.563045
O O1 0.250000 0.329019 0.018414
O O2 0.457420 0.250000 0.946986
O O3 0.481672 0.382740 0.926954
O O4 0.508805 0.312754 0.116779
O O5 0.250000 0.384283 0.482605
O O6 0.029963 0.437784 0.589858
O O7 0.008132 0.433333 0.386092
O O8 0.994883 0.317891 0.488880
O O9 0.750000 0.961088 0.097148
O O10 0.516446 0.986139 0.213368
O O11 0.500000 0.000000 0.000000
O O12 0.250000 0.750000 0.814705
O O13 0.482013 0.750000 0.689480
O O14 0.250000 0.990210 0.663115
O O15 0.250000 0.750000 0.559974
#
# Coordination Sequence:
#
# PCOD9452025 Si02
#       6
#     8   8   8   4   8   4
#     4   8  17  34  52  74 106 141 178 221 270 323
#     4  10  21  38  60  85 111 148 193 234 280 338
#     4  10  21  36  56  84 114 149 187 227 276 333
#     4   9  19  33  52  75 104 142 179 226 278 323
#     4   9  20  39  59  82 116 151 185 232 287 336
#     4  11  23  37  56  83 114 146 187 238 290 333
#
# _framework density 18.243411999999999
#
# number of rings (size 3 to 8) (size 9 to 14) (size 15 to 20)
#    0.600    2.000    0.000    0.900    2.800    4.000 
#    1.800    0.000    0.000    1.200    0.000    0.000 
#    0.000    0.000    0.000    0.000    0.000    0.000 
#
# Total GULP energy -222884.432423 kJ/mol
# GULP energy per Si atom -5572.110811 kJ/mol
# Density = 1.820189 g / cm^3
# Si number density = 18.243412 Si / 1000 Ang^3
#
#
#
# Elastic Constant Matrix: (Units=GPa)
#
#
# Indices 1 2 3 4 5 6 
#
# 1 22.5078 37.2813 21.2431 0.0000 0.0000 0.0000
# 2 37.2813 134.9672 44.3408 0.0000 0.0000 0.0000
# 3 21.2431 44.3408 95.2668 0.0000 0.0000 0.0000
# 4 0.0000 0.0000 0.0000 18.9058 0.0000 0.0000
# 5 0.0000 0.0000 0.0000 0.0000 24.9825 0.0000
# 6 0.0000 0.0000 0.0000 0.0000 0.0000 26.3648
#
#
#
# Elastic Compliance Matrix: (Units=1/GPa)
#
#
# Indices 1 2 3 4 5 6 
#
# 1 0.089229 -0.021380 -0.009946 0.000000 0.000000 0.000000
# 2 -0.021380 0.013869 -0.001688 0.000000 0.000000 0.000000
# 3 -0.009946 -0.001688 0.013500 0.000000 0.000000 0.000000
# 4 0.000000 0.000000 0.000000 0.052894 0.000000 0.000000
# 5 0.000000 0.000000 0.000000 0.000000 0.040028 0.000000
# 6 0.000000 0.000000 0.000000 0.000000 0.000000 0.037929
#
#
# Mechanical properties :
#
#
# Convention : Reuss Voigt Hill
#
# Bulk Modulus (GPa) = 19.77397 50.94135 35.35766
# Shear Modulus (GPa) = 15.13618 24.04238 19.58928
#
# Velocity S-wave (km/s) = 2.88354 3.63418 3.28040
# Velocity P-wave (km/s) = 4.68497 6.75229 5.81130
#
# Compressibility (1/GPa) = 0.05057155
#
# Stress axis : x y z
#
# Youngs Moduli (GPa) = 11.20712 72.10125 74.07275
#
# Poissons Ratio (x) = 1.54151 0.73671
# Poissons Ratio (y) = 0.23961 0.12503
# Poissons Ratio (z) = 0.11146 0.12170
#
# Static dielectric constant tensor:
#      x y z
#    x 1.617690 0.000000 0.000000 
#    y 0.000000 1.623100 0.000000 
#    z 0.000000 0.000000 1.619230 
# 
# From -- ./inp_files/14131.got.cif
#   From: 2010.05.17/outbox.cif.g08.bks.cpg/sg59_8_cif.got.tgz:14131.got - 2010.06.03 14:40:33.
