data_PCOD9452832
_publ_section_title
;
Structure prediction by ZEFSAII (Michael W. Deem and Ramdas Pophale) SiO2 
 PCOD9452832
Probable space group: P M M N
;
_chemical_formula_sum "Si O2"
_cell_formula_units_Z 56
_cell_length_a 19.873383
_cell_length_b 14.305310
_cell_length_c 10.192481
_cell_angle_alpha 90.000000
_cell_angle_beta 90.000000
_cell_angle_gamma 90.000000
_cell_volume 2897.670413
_symmetry_space_group_name_H-M "P M M N"
_symmetry_group_IT_number 59
_space_group.IT_coordinate_system_code '2'
_symmetry_cell_setting 'orthorhombic'
loop_
_space_group_symop_operation_xyz
x,y,z
1/2-x,1/2-y,z
1/2+x,-y,-z
-x,1/2+y,-z
-x,-y,-z
1/2+x,1/2+y,-z
1/2-x,y,z
x,1/2-y,z
loop_
_atom_site_type_symbol
_atom_site_label
_atom_site_fract_x
_atom_site_fract_y
_atom_site_fract_z
Si Si1 0.670327 0.639179 0.757269
Si Si2 0.393464 0.471483 0.003327
Si Si3 0.971050 0.089035 0.580602
Si Si4 0.825498 0.138785 0.475816
Si Si5 0.673676 0.516996 0.274515
Si Si6 0.978883 0.364278 0.887415
Si Si7 0.606042 0.851769 0.484480
O O1 0.750000 0.628070 0.737779
O O2 0.657106 0.750000 0.781694
O O3 0.631481 0.611859 0.624364
O O4 0.644790 0.576762 0.876590
O O5 0.348530 0.480314 0.874424
O O6 0.454584 0.402142 0.961478
O O7 0.420453 0.574134 0.044029
O O8 0.892661 0.107745 0.552533
O O9 0.980447 0.097884 0.737240
O O10 0.026054 0.158593 0.520605
O O11 0.000000 0.000000 0.500000
O O12 0.750000 0.113770 0.529786
O O13 0.827592 0.250000 0.463878
O O14 0.830411 0.086068 0.336992
O O15 0.750000 0.550228 0.287972
O O16 0.628405 0.581757 0.367068
O O17 0.973331 0.250000 0.889449
O O18 0.638171 0.750000 0.466245
#
# Coordination Sequence:
#
# PCOD9452832 Si02
#       7
#     8   8   8   8   8   8   8
#     4  10  22  40  62  92 129 170 216 265 323 393
#     4  11  23  41  63  90 124 173 215 263 327 393
#     4  12  21  40  66  98 129 167 214 272 332 385
#     4  10  22  40  63  91 127 170 215 267 323 382
#     4  11  23  40  62  93 128 165 213 265 323 391
#     4  11  24  41  62  91 128 167 218 278 327 388
#     4  11  22  38  63  94 127 163 207 268 329 385
#
# _framework density 19.325869000000001
#
# number of rings (size 3 to 8) (size 9 to 14) (size 15 to 20)
#    0.000    1.143    2.857    3.429    0.000    3.143 
#    0.000    0.714    0.000    2.143    0.000    0.000 
#    0.000    0.000    0.000    0.000    0.000    0.000 
#
# Total GULP energy -312207.573079 kJ/mol
# GULP energy per Si atom -5575.135234 kJ/mol
# Density = 1.928188 g / cm^3
# Si number density = 19.325869 Si / 1000 Ang^3
#
#
#
# Elastic Constant Matrix: (Units=GPa)
#
#
# Indices 1 2 3 4 5 6 
#
# 1 126.5518 31.5926 51.5311 0.0000 0.0000 0.0000
# 2 31.5926 119.6395 40.3628 0.0000 0.0000 0.0000
# 3 51.5311 40.3628 121.4065 0.0000 0.0000 0.0000
# 4 0.0000 0.0000 0.0000 -3.4583 0.0000 0.0000
# 5 0.0000 0.0000 0.0000 0.0000 31.5678 0.0000
# 6 0.0000 0.0000 0.0000 0.0000 0.0000 21.1239
#
#
#
# Elastic Compliance Matrix: (Units=1/GPa)
#
#
# Indices 1 2 3 4 5 6 
#
# 1 0.009736 -0.001325 -0.003692 0.000000 0.000000 0.000000
# 2 -0.001325 0.009595 -0.002627 0.000000 0.000000 0.000000
# 3 -0.003692 -0.002627 0.010677 0.000000 0.000000 0.000000
# 4 0.000000 0.000000 0.000000 -0.289159 0.000000 0.000000
# 5 0.000000 0.000000 0.000000 0.000000 0.031678 0.000000
# 6 0.000000 0.000000 0.000000 0.000000 0.000000 0.047340
#
#
# Mechanical properties :
#
#
# Convention : Reuss Voigt Hill
#
# Bulk Modulus (GPa) = 67.93940 68.28566 68.11253
# Shear Modulus (GPa) = -31.26219 26.12077 -2.57071
#
# Velocity S-wave (km/s) = -4.02635 3.68039 -1.15459
# Velocity P-wave (km/s) = 3.68994 7.31238 5.79166
#
# Compressibility (1/GPa) = 0.01471900
#
# Stress axis : x y z
#
# Youngs Moduli (GPa) = 102.71069 104.22280 93.65692
#
# Poissons Ratio (x) = 0.13814 0.34577
# Poissons Ratio (y) = 0.13614 0.24607
# Poissons Ratio (z) = 0.37919 0.27383
#
# Static dielectric constant tensor:
#      x y z
#    x 1.715080 0.000000 0.000000 
#    y 0.000000 1.692170 0.000000 
#    z 0.000000 0.000000 1.640760 
# 
# From -- ./inp_files/11455.got.cif
#   From: 2010.05.17/outbox.cif.g08.bks.cpg/sg59_6_cif.got.tgz:11455.got - 2010.06.03 14:40:33.
