data_PCOD9452811
_publ_section_title
;
Structure prediction by ZEFSAII (Michael W. Deem and Ramdas Pophale) SiO2 
 PCOD9452811
Probable space group: P M M N
;
_chemical_formula_sum "Si O2"
_cell_formula_units_Z 48
_cell_length_a 8.819570
_cell_length_b 20.804684
_cell_length_c 14.696648
_cell_angle_alpha 90.000000
_cell_angle_beta 90.000000
_cell_angle_gamma 90.000000
_cell_volume 2696.663940
_symmetry_space_group_name_H-M "P M M N"
_symmetry_group_IT_number 59
_space_group.IT_coordinate_system_code '2'
_symmetry_cell_setting 'orthorhombic'
loop_
_space_group_symop_operation_xyz
x,y,z
1/2-x,1/2-y,z
1/2+x,-y,-z
-x,1/2+y,-z
-x,-y,-z
1/2+x,1/2+y,-z
1/2-x,y,z
x,1/2-y,z
loop_
_atom_site_type_symbol
_atom_site_label
_atom_site_fract_x
_atom_site_fract_y
_atom_site_fract_z
Si Si1 0.068679 0.823774 0.939584
Si Si2 0.569277 0.440420 0.556636
Si Si3 0.431044 0.061146 0.947367
Si Si4 0.068617 0.480996 0.744068
Si Si5 0.931594 0.676173 0.553788
Si Si6 0.068654 0.123890 0.245782
O O1 0.250000 0.831501 0.936598
O O2 0.033038 0.750000 0.962962
O O3 0.001717 0.840378 0.840551
O O4 0.999804 0.874620 0.009880
O O5 0.500000 0.500000 0.500000
O O6 0.750000 0.446198 0.556991
O O7 0.505077 0.445623 0.658455
O O8 0.517238 0.375085 0.508156
O O9 0.250000 0.060802 0.959979
O O10 0.463429 0.052764 0.840432
O O11 0.500000 0.000000 0.000000
O O12 0.250000 0.484712 0.732184
O O13 0.001298 0.552791 0.748395
O O14 0.750000 0.668351 0.540730
O O15 0.971512 0.750000 0.534418
O O16 0.962862 0.659970 0.659488
O O17 0.250000 0.119327 0.234745
#
# Coordination Sequence:
#
# PCOD9452811 Si02
#       6
#     8   8   8   8   8   8
#     4  11  24  40  59  87 125 164 202 249 303 358
#     4  12  24  39  62  89 120 160 203 248 297 356
#     4  11  23  39  63  89 119 157 200 249 300 360
#     4  11  23  39  61  91 122 155 199 251 302 355
#     4  10  22  40  61  88 123 160 199 246 301 358
#     4  11  21  35  61  92 123 160 198 245 302 361
#
# _framework density 17.799772000000001
#
# number of rings (size 3 to 8) (size 9 to 14) (size 15 to 20)
#    0.000    1.000    3.333    4.000    0.000    5.000 
#    0.000    0.833    0.000    1.000    0.000    0.000 
#    0.000    0.000    0.000    0.000    0.000    0.000 
#
# Total GULP energy -268452.053176 kJ/mol
# GULP energy per Si atom -5592.751108 kJ/mol
# Density = 1.775926 g / cm^3
# Si number density = 17.799772 Si / 1000 Ang^3
#
#
#
# Elastic Constant Matrix: (Units=GPa)
#
#
# Indices 1 2 3 4 5 6 
#
# 1 99.9378 82.5143 88.1529 0.0000 0.0000 0.0000
# 2 82.5143 160.0348 93.5683 0.0000 0.0000 0.0000
# 3 88.1529 93.5683 148.0721 0.0000 0.0000 0.0000
# 4 0.0000 0.0000 0.0000 5.4920 0.0000 0.0000
# 5 0.0000 0.0000 0.0000 0.0000 31.1405 0.0000
# 6 0.0000 0.0000 0.0000 0.0000 0.0000 30.9436
#
#
#
# Elastic Compliance Matrix: (Units=1/GPa)
#
#
# Indices 1 2 3 4 5 6 
#
# 1 0.024793 -0.006587 -0.010598 0.000000 0.000000 0.000000
# 2 -0.006587 0.011660 -0.003447 0.000000 0.000000 0.000000
# 3 -0.010598 -0.003447 0.015241 0.000000 0.000000 0.000000
# 4 0.000000 0.000000 0.000000 0.182082 0.000000 0.000000
# 5 0.000000 0.000000 0.000000 0.000000 0.032112 0.000000
# 6 0.000000 0.000000 0.000000 0.000000 0.000000 0.032317
#
#
# Mechanical properties :
#
#
# Convention : Reuss Voigt Hill
#
# Bulk Modulus (GPa) = 95.86943 104.05730 99.96337
# Shear Modulus (GPa) = 14.57960 23.10250 18.84105
#
# Velocity S-wave (km/s) = 2.86508 3.60656 3.25699
# Velocity P-wave (km/s) = 8.05740 8.71377 8.39201
#
# Compressibility (1/GPa) = 0.01043085
#
# Stress axis : x y z
#
# Youngs Moduli (GPa) = 40.33420 85.76264 65.61411
#
# Poissons Ratio (x) = 0.56492 0.69536
# Poissons Ratio (y) = 0.26568 0.22615
# Poissons Ratio (z) = 0.42745 0.29559
#
# Static dielectric constant tensor:
#      x y z
#    x 1.596530 0.000000 0.000000 
#    y 0.000000 1.579300 0.000000 
#    z 0.000000 0.000000 1.590070 
# 
# From -- ./inp_files/20367.got.cif
#   From: 2010.05.17/outbox.cif.g08.bks.cpg/sg59_11_cif.got.tgz:20367.got - 2010.06.03 14:40:33.
