data_PCOD9452414
_publ_section_title
;
Structure prediction by ZEFSAII (Michael W. Deem and Ramdas Pophale) SiO2 
 PCOD9452414
Probable space group: P M M N
;
_chemical_formula_sum "Si O2"
_cell_formula_units_Z 48
_cell_length_a 8.632867
_cell_length_b 15.864906
_cell_length_c 18.057474
_cell_angle_alpha 90.000000
_cell_angle_beta 90.000000
_cell_angle_gamma 90.000000
_cell_volume 2473.144840
_symmetry_space_group_name_H-M "P M M N"
_symmetry_group_IT_number 59
_space_group.IT_coordinate_system_code '2'
_symmetry_cell_setting 'orthorhombic'
loop_
_space_group_symop_operation_xyz
x,y,z
1/2-x,1/2-y,z
1/2+x,-y,-z
-x,1/2+y,-z
-x,-y,-z
1/2+x,1/2+y,-z
1/2-x,y,z
x,1/2-y,z
loop_
_atom_site_type_symbol
_atom_site_label
_atom_site_fract_x
_atom_site_fract_y
_atom_site_fract_z
Si Si1 0.935007 0.651309 0.316685
Si Si2 0.423726 0.850685 0.160060
Si Si3 0.560333 0.652218 0.686704
Si Si4 0.435928 0.997680 0.417195
Si Si5 0.936270 0.593391 0.005121
Si Si6 0.074941 0.149788 0.153016
O O1 0.750000 0.649097 0.322389
O O2 0.983495 0.750000 0.327857
O O3 0.985231 0.623642 0.233845
O O4 0.006894 0.585629 0.374254
O O5 0.250000 0.886787 0.161647
O O6 0.414020 0.750000 0.164451
O O7 0.501799 0.870264 0.081940
O O8 0.750000 0.652960 0.690059
O O9 0.513889 0.750000 0.671965
O O10 0.514248 0.582511 0.626936
O O11 0.503101 0.623308 0.768620
O O12 0.250000 0.997113 0.418531
O O13 0.500000 0.000000 0.500000
O O14 0.750000 0.598932 0.007078
O O15 0.993974 0.633955 0.927819
O O16 0.000000 0.500000 0.000000
O O17 0.250000 0.113607 0.150556
O O18 0.087060 0.250000 0.160803
#
# Coordination Sequence:
#
# PCOD9452414 Si02
#       6
#     8   8   8   8   8   8
#     4  10  22  41  64  89 119 157 202 251 304 362
#     4  10  21  38  59  82 112 152 197 244 295 353
#     4   8  16  33  57  84 112 147 192 239 289 346
#     4  11  23  38  61  91 123 158 195 242 298 361
#     4  11  22  33  50  80 116 153 193 238 289 345
#     4   8  15  30  52  76 103 139 186 236 282 334
#
# _framework density 19.408487000000001
#
# number of rings (size 3 to 8) (size 9 to 14) (size 15 to 20)
#    0.000    2.333    0.000    3.500    2.333    3.333 
#    0.000    1.667    0.000    1.500    0.000    7.000 
#    0.000    0.000    0.000    0.000    0.000    0.000 
#
# Total GULP energy -267553.430374 kJ/mol
# GULP energy per Si atom -5574.029799 kJ/mol
# Density = 1.936431 g / cm^3
# Si number density = 19.408487 Si / 1000 Ang^3
#
#
#
# Elastic Constant Matrix: (Units=GPa)
#
#
# Indices 1 2 3 4 5 6 
#
# 1 48.3402 28.4468 43.5436 0.0000 0.0000 0.0000
# 2 28.4468 87.8315 86.2554 0.0000 0.0000 0.0000
# 3 43.5436 86.2554 215.1536 0.0000 0.0000 0.0000
# 4 0.0000 0.0000 0.0000 39.6978 0.0000 0.0000
# 5 0.0000 0.0000 0.0000 0.0000 30.4284 0.0000
# 6 0.0000 0.0000 0.0000 0.0000 0.0000 23.1104
#
#
#
# Elastic Compliance Matrix: (Units=1/GPa)
#
#
# Indices 1 2 3 4 5 6 
#
# 1 0.026839 -0.005539 -0.003211 0.000000 0.000000 0.000000
# 2 -0.005539 0.019922 -0.006866 0.000000 0.000000 0.000000
# 3 -0.003211 -0.006866 0.008050 0.000000 0.000000 0.000000
# 4 0.000000 0.000000 0.000000 0.025190 0.000000 0.000000
# 5 0.000000 0.000000 0.000000 0.000000 0.032864 0.000000
# 6 0.000000 0.000000 0.000000 0.000000 0.000000 0.043271
#
#
# Mechanical properties :
#
#
# Convention : Reuss Voigt Hill
#
# Bulk Modulus (GPa) = 42.41036 74.20189 58.30613
# Shear Modulus (GPa) = 25.61118 31.51929 28.56524
#
# Velocity S-wave (km/s) = 3.63655 4.03425 3.84055
# Velocity P-wave (km/s) = 6.28741 7.74693 7.05502
#
# Compressibility (1/GPa) = 0.02357914
#
# Stress axis : x y z
#
# Youngs Moduli (GPa) = 37.25956 50.19598 124.22058
#
# Poissons Ratio (x) = 0.27804 0.39889
# Poissons Ratio (y) = 0.20638 0.85286
# Poissons Ratio (z) = 0.11965 0.34463
#
# Static dielectric constant tensor:
#      x y z
#    x 1.695540 0.000000 0.000000 
#    y 0.000000 1.672160 0.000000 
#    z 0.000000 0.000000 1.735120 
# 
# From -- ./inp_files/20376.got.cif
#   From: 2010.05.17/outbox.cif.g08.bks.cpg/sg59_11_cif.got.tgz:20376.got - 2010.06.03 14:40:33.
