data_PCOD9452859
_publ_section_title
;
Structure prediction by ZEFSAII (Michael W. Deem and Ramdas Pophale) SiO2 
 PCOD9452859
Probable space group: P M M N
;
_chemical_formula_sum "Si O2"
_cell_formula_units_Z 56
_cell_length_a 8.737424
_cell_length_b 15.702098
_cell_length_c 21.709483
_cell_angle_alpha 90.000000
_cell_angle_beta 90.000000
_cell_angle_gamma 90.000000
_cell_volume 2978.451796
_symmetry_space_group_name_H-M "P M M N"
_symmetry_group_IT_number 59
_space_group.IT_coordinate_system_code '2'
_symmetry_cell_setting 'orthorhombic'
loop_
_space_group_symop_operation_xyz
x,y,z
1/2-x,1/2-y,z
1/2+x,-y,-z
-x,1/2+y,-z
-x,-y,-z
1/2+x,1/2+y,-z
1/2-x,y,z
x,1/2-y,z
loop_
_atom_site_type_symbol
_atom_site_label
_atom_site_fract_x
_atom_site_fract_y
_atom_site_fract_z
Si Si1 0.566452 0.404806 0.497516
Si Si2 0.066277 0.493993 0.846107
Si Si3 0.932045 0.007387 0.710298
Si Si4 0.565516 0.848589 0.918569
Si Si5 0.432445 0.345753 0.624126
Si Si6 0.563887 0.846511 0.060559
Si Si7 0.065778 0.653512 0.640443
O O1 0.500000 0.500000 0.500000
O O2 0.750000 0.407206 0.503425
O O3 0.496023 0.355463 0.555111
O O4 0.529098 0.364341 0.431320
O O5 0.250000 0.491920 0.843153
O O6 0.013015 0.418390 0.891911
O O7 0.999290 0.482250 0.778372
O O8 0.012078 0.583379 0.874529
O O9 0.750000 0.009276 0.712014
O O10 0.988035 0.918140 0.681643
O O11 0.992823 0.082490 0.666414
O O12 0.750000 0.856951 0.914724
O O13 0.527834 0.750000 0.904388
O O14 0.519389 0.864887 0.989837
O O15 0.250000 0.358837 0.623143
O O16 0.464170 0.250000 0.646707
O O17 0.750000 0.846132 0.061165
O O18 0.514344 0.750000 0.076133
O O19 0.250000 0.645762 0.646600
O O20 0.021826 0.750000 0.656668
#
# Coordination Sequence:
#
# PCOD9452859 Si02
#       7
#     8   8   8   8   8   8   8
#     4  11  21  36  63  94 124 155 190 238 296 352
#     4  11  22  36  58  85 116 153 194 239 289 346
#     4  12  26  42  60  83 116 158 201 248 295 349
#     4   9  18  35  59  86 117 151 189 234 284 341
#     4  11  24  42  64  89 119 156 198 244 296 354
#     4   8  16  33  58  87 116 148 187 232 285 344
#     4  10  22  41  64  88 117 153 194 242 295 350
#
# _framework density 18.801715000000002
#
# number of rings (size 3 to 8) (size 9 to 14) (size 15 to 20)
#    0.000    1.714    1.429    4.286    0.000    4.000 
#    0.000    2.143    0.000    3.000    0.000    0.000 
#    0.000    0.000    0.000    0.000    0.000    0.000 
#
# Total GULP energy -312938.961489 kJ/mol
# GULP energy per Si atom -5588.195741 kJ/mol
# Density = 1.875892 g / cm^3
# Si number density = 18.801715 Si / 1000 Ang^3
#
#
#
# Elastic Constant Matrix: (Units=GPa)
#
#
# Indices 1 2 3 4 5 6 
#
# 1 40.1010 20.2607 6.7985 0.0000 0.0000 0.0000
# 2 20.2607 60.6580 -1.9863 0.0000 0.0000 0.0000
# 3 6.7985 -1.9863 40.0098 0.0000 0.0000 0.0000
# 4 0.0000 0.0000 0.0000 -7.2805 0.0000 0.0000
# 5 0.0000 0.0000 0.0000 0.0000 17.5914 0.0000
# 6 0.0000 0.0000 0.0000 0.0000 0.0000 16.4791
#
#
#
# Elastic Compliance Matrix: (Units=1/GPa)
#
#
# Indices 1 2 3 4 5 6 
#
# 1 0.031309 -0.010649 -0.005849 0.000000 0.000000 0.000000
# 2 -0.010649 0.020135 0.002809 0.000000 0.000000 0.000000
# 3 -0.005849 0.002809 0.026127 0.000000 0.000000 0.000000
# 4 0.000000 0.000000 0.000000 -0.137353 0.000000 0.000000
# 5 0.000000 0.000000 0.000000 0.000000 0.056846 0.000000
# 6 0.000000 0.000000 0.000000 0.000000 0.000000 0.060683
#
#
# Mechanical properties :
#
#
# Convention : Reuss Voigt Hill
#
# Bulk Modulus (GPa) = 19.92295 21.21274 20.56784
# Shear Modulus (GPa) = 49.08912 13.07105 31.08008
#
# Velocity S-wave (km/s) = 5.11523 2.63953 4.07018
# Velocity P-wave (km/s) = 6.74587 4.53832 5.74905
#
# Compressibility (1/GPa) = 0.05019338
#
# Stress axis : x y z
#
# Youngs Moduli (GPa) = 31.93962 49.66508 38.27435
#
# Poissons Ratio (x) = 0.52890 0.22386
# Poissons Ratio (y) = 0.34013 -0.10752
# Poissons Ratio (z) = 0.18681 -0.13952
#
# Static dielectric constant tensor:
#      x y z
#    x 1.629500 0.000000 0.000000 
#    y 0.000000 1.643230 0.000000 
#    z 0.000000 0.000000 1.624210 
# 
# From -- ./inp_files/28999.got.cif
#   From: 2010.05.17/outbox.cif.g08.bks.cpg/sg59_15_cif.got.tgz:28999.got - 2010.06.03 14:40:33.
