data_PCOD9452931
_publ_section_title
;
Structure prediction by ZEFSAII (Michael W. Deem and Ramdas Pophale) SiO2 
 PCOD9452931
Probable space group: P M M N
;
_chemical_formula_sum "Si O2"
_cell_formula_units_Z 40
_cell_length_a 17.678693
_cell_length_b 7.840320
_cell_length_c 13.021058
_cell_angle_alpha 90.000000
_cell_angle_beta 90.000000
_cell_angle_gamma 90.000000
_cell_volume 1804.804712
_symmetry_space_group_name_H-M "P M M N"
_symmetry_group_IT_number 59
_space_group.IT_coordinate_system_code '2'
_symmetry_cell_setting 'orthorhombic'
loop_
_space_group_symop_operation_xyz
x,y,z
1/2-x,1/2-y,z
1/2+x,-y,-z
-x,1/2+y,-z
-x,-y,-z
1/2+x,1/2+y,-z
1/2-x,y,z
x,1/2-y,z
loop_
_atom_site_type_symbol
_atom_site_label
_atom_site_fract_x
_atom_site_fract_y
_atom_site_fract_z
Si Si1 0.839999 0.052502 0.591495
Si Si2 0.435210 0.438080 0.579922
Si Si3 0.913056 0.454137 0.018396
Si Si4 0.662144 0.546414 0.234558
Si Si5 0.163329 0.541591 0.189331
O O1 0.750000 0.052202 0.602257
O O2 0.862045 0.250000 0.571746
O O3 0.872641 0.992453 0.701290
O O4 0.864382 0.940135 0.497093
O O5 0.500000 0.500000 0.500000
O O6 0.460021 0.250000 0.612386
O O7 0.398871 0.524314 0.681641
O O8 0.905579 0.250000 0.021792
O O9 0.873237 0.520287 0.121576
O O10 0.873514 0.518819 0.914737
O O11 0.000000 0.500000 0.000000
O O12 0.750000 0.482018 0.241448
O O13 0.666443 0.750000 0.253381
O O14 0.250000 0.486369 0.187681
O O15 0.162266 0.750000 0.190724
#
# Coordination Sequence:
#
# PCOD9452931 Si02
#       5
#     8   8   8   8   8
#     4   9  18  35  60  87 115 150 193 239 294 362
#     4  11  24  40  60  87 122 160 204 255 308 365
#     4  11  23  38  60  90 125 161 204 253 303 362
#     4  10  23  44  66  88 121 166 211 257 312 373
#     4   8  16  33  57  83 112 149 190 235 291 353
#
# _framework density 22.163060999999999
#
# number of rings (size 3 to 8) (size 9 to 14) (size 15 to 20)
#    0.000    2.200    0.000    3.600    2.800    4.000 
#    0.000    1.000    0.000    2.400    0.000    0.000 
#    0.000    0.000    0.000    0.000    0.000    0.000 
#
# Total GULP energy -222905.773938 kJ/mol
# GULP energy per Si atom -5572.644348 kJ/mol
# Density = 2.211262 g / cm^3
# Si number density = 22.163061 Si / 1000 Ang^3
#
#
#
# Elastic Constant Matrix: (Units=GPa)
#
#
# Indices 1 2 3 4 5 6 
#
# 1 59.0886 -2.3935 1.2832 0.0000 0.0000 0.0000
# 2 -2.3935 29.1117 -7.5506 0.0000 0.0000 0.0000
# 3 1.2832 -7.5506 113.8306 0.0000 0.0000 0.0000
# 4 0.0000 0.0000 0.0000 14.0038 0.0000 0.0000
# 5 0.0000 0.0000 0.0000 0.0000 38.3105 0.0000
# 6 0.0000 0.0000 0.0000 0.0000 0.0000 17.2627
#
#
#
# Elastic Compliance Matrix: (Units=1/GPa)
#
#
# Indices 1 2 3 4 5 6 
#
# 1 0.016981 0.001370 -0.000101 0.000000 0.000000 0.000000
# 2 0.001370 0.035062 0.002310 0.000000 0.000000 0.000000
# 3 -0.000101 0.002310 0.008939 0.000000 0.000000 0.000000
# 4 0.000000 0.000000 0.000000 0.071409 0.000000 0.000000
# 5 0.000000 0.000000 0.000000 0.000000 0.026103 0.000000
# 6 0.000000 0.000000 0.000000 0.000000 0.000000 0.057928
#
#
# Mechanical properties :
#
#
# Convention : Reuss Voigt Hill
#
# Bulk Modulus (GPa) = 14.67508 20.52325 17.59916
# Shear Modulus (GPa) = 21.55379 27.96151 24.75765
#
# Velocity S-wave (km/s) = 3.12189 3.55579 3.34588
# Velocity P-wave (km/s) = 4.43066 5.11258 4.78378
#
# Compressibility (1/GPa) = 0.06814275
#
# Stress axis : x y z
#
# Youngs Moduli (GPa) = 58.88793 28.52062 111.86474
#
# Poissons Ratio (x) = -0.03908 0.01125
# Poissons Ratio (y) = -0.08068 -0.25844
# Poissons Ratio (z) = 0.00592 -0.06589
#
# Static dielectric constant tensor:
#      x y z
#    x 1.840060 0.000000 0.000000 
#    y 0.000000 1.896630 0.000000 
#    z 0.000000 0.000000 1.833670 
# 
# From -- ./inp_files/13863.got.cif
#   From: 2010.05.17/outbox.cif.g08.bks.cpg/sg59_7_cif.got.tgz:13863.got - 2010.06.03 14:40:33.
