data_PCOD9452528
_publ_section_title
;
Structure prediction by ZEFSAII (Michael W. Deem and Ramdas Pophale) SiO2 
 PCOD9452528
Probable space group: P M M N
;
_chemical_formula_sum "Si O2"
_cell_formula_units_Z 40
_cell_length_a 16.477752
_cell_length_b 14.694314
_cell_length_c 7.879380
_cell_angle_alpha 90.000000
_cell_angle_beta 90.000000
_cell_angle_gamma 90.000000
_cell_volume 1907.828464
_symmetry_space_group_name_H-M "P M M N"
_symmetry_group_IT_number 59
_space_group.IT_coordinate_system_code '2'
_symmetry_cell_setting 'orthorhombic'
loop_
_space_group_symop_operation_xyz
x,y,z
1/2-x,1/2-y,z
1/2+x,-y,-z
-x,1/2+y,-z
-x,-y,-z
1/2+x,1/2+y,-z
1/2-x,y,z
x,1/2-y,z
loop_
_atom_site_type_symbol
_atom_site_label
_atom_site_fract_x
_atom_site_fract_y
_atom_site_fract_z
Si Si1 0.347523 0.349010 0.193206
Si Si2 0.073533 0.854740 0.383650
Si Si3 0.157807 0.548060 0.692160
Si Si4 0.119301 0.350978 0.596410
Si Si5 0.348545 0.956666 0.069038
O O1 0.250000 0.347530 0.175294
O O2 0.379378 0.250000 0.136053
O O3 0.365603 0.358052 0.393884
O O4 0.376954 0.439179 0.099250
O O5 0.098442 0.750000 0.407702
O O6 0.101966 0.913426 0.544461
O O7 0.113850 0.896040 0.216203
O O8 0.976570 0.857291 0.371505
O O9 0.250000 0.580329 0.664247
O O10 0.158527 0.438281 0.682653
O O11 0.129834 0.574570 0.880036
O O12 0.147895 0.250000 0.649730
O O13 0.250000 0.955142 0.081614
#
# Coordination Sequence:
#
# PCOD9452528 Si02
#       5
#     8   8   8   8   8
#     4   9  17  33  58  86 118 153 187 231 291 355
#     4  11  24  42  60  83 119 158 198 245 293 340
#     4  11  23  39  63  91 117 152 198 244 292 347
#     4  10  21  38  61  90 120 154 193 236 295 360
#     4  10  22  38  60  89 116 151 197 240 289 348
#
# _framework density 20.966244
#
# number of rings (size 3 to 8) (size 9 to 14) (size 15 to 20)
#    0.000    1.800    2.000    1.800    0.000    5.200 
#    0.000    4.000    0.000    0.000    0.000    0.000 
#    0.000    0.000    0.000    0.000    0.000    0.000 
#
# Total GULP energy -223564.717599 kJ/mol
# GULP energy per Si atom -5589.117940 kJ/mol
# Density = 2.091852 g / cm^3
# Si number density = 20.966244 Si / 1000 Ang^3
#
#
#
# Elastic Constant Matrix: (Units=GPa)
#
#
# Indices 1 2 3 4 5 6 
#
# 1 27.8546 17.2814 10.7937 0.0000 0.0000 0.0000
# 2 17.2814 90.8271 23.6177 0.0000 0.0000 0.0000
# 3 10.7937 23.6177 66.3860 0.0000 0.0000 0.0000
# 4 0.0000 0.0000 0.0000 -26.4673 0.0000 0.0000
# 5 0.0000 0.0000 0.0000 0.0000 39.1158 0.0000
# 6 0.0000 0.0000 0.0000 0.0000 0.0000 28.0710
#
#
#
# Elastic Compliance Matrix: (Units=1/GPa)
#
#
# Indices 1 2 3 4 5 6 
#
# 1 0.041827 -0.006821 -0.004374 0.000000 0.000000 0.000000
# 2 -0.006821 0.013245 -0.003603 0.000000 0.000000 0.000000
# 3 -0.004374 -0.003603 0.017056 0.000000 0.000000 0.000000
# 4 0.000000 0.000000 0.000000 -0.037782 0.000000 0.000000
# 5 0.000000 0.000000 0.000000 0.000000 0.025565 0.000000
# 6 0.000000 0.000000 0.000000 0.000000 0.000000 0.035624
#
#
# Mechanical properties :
#
#
# Convention : Reuss Voigt Hill
#
# Bulk Modulus (GPa) = 23.51142 32.05036 27.78089
# Shear Modulus (GPa) = 35.89152 17.03554 26.46353
#
# Velocity S-wave (km/s) = 4.14197 2.85357 3.55660
# Velocity P-wave (km/s) = 5.84062 5.11634 5.49044
#
# Compressibility (1/GPa) = 0.04253252
#
# Stress axis : x y z
#
# Youngs Moduli (GPa) = 23.90772 75.50241 58.62903
#
# Poissons Ratio (x) = 0.51500 0.25645
# Poissons Ratio (y) = 0.16307 0.21124
# Poissons Ratio (z) = 0.10457 0.27203
#
# Static dielectric constant tensor:
#      x y z
#    x 1.718850 0.000000 0.000000 
#    y 0.000000 1.771700 0.000000 
#    z 0.000000 0.000000 1.725840 
# 
# From -- ./inp_files/8624.got.cif
#   From: 2010.05.17/outbox.cif.g08.bks.cpg/sg59_5_cif.got.tgz:8624.got - 2010.06.03 14:40:33.
