data_PCOD9452100
_publ_section_title
;
Structure prediction by ZEFSAII (Michael W. Deem and Ramdas Pophale) SiO2 
 PCOD9452100
Probable space group: P M M N
;
_chemical_formula_sum "Si O2"
_cell_formula_units_Z 56
_cell_length_a 9.132191
_cell_length_b 13.427526
_cell_length_c 21.286986
_cell_angle_alpha 90.000000
_cell_angle_beta 90.000000
_cell_angle_gamma 90.000000
_cell_volume 2610.268381
_symmetry_space_group_name_H-M "P M M N"
_symmetry_group_IT_number 59
_space_group.IT_coordinate_system_code '2'
_symmetry_cell_setting 'orthorhombic'
loop_
_space_group_symop_operation_xyz
x,y,z
1/2-x,1/2-y,z
1/2+x,-y,-z
-x,1/2+y,-z
-x,-y,-z
1/2+x,1/2+y,-z
1/2-x,y,z
x,1/2-y,z
loop_
_atom_site_type_symbol
_atom_site_label
_atom_site_fract_x
_atom_site_fract_y
_atom_site_fract_z
Si Si1 0.921494 0.937015 0.408461
Si Si2 0.418582 0.370935 0.094887
Si Si3 0.927664 0.861574 0.766284
Si Si4 0.416343 0.369398 0.841740
Si Si5 0.424503 0.932205 0.285086
Si Si6 0.423085 0.137264 0.451735
Si Si7 0.580815 0.128789 0.967918
O O1 0.250000 0.122881 0.436598
O O2 0.007664 0.892750 0.349350
O O3 0.938574 0.875339 0.472878
O O4 0.984799 0.047179 0.422917
O O5 0.250000 0.403731 0.092405
O O6 0.416293 0.250000 0.094270
O O7 0.481222 0.393382 0.164122
O O8 0.501624 0.401648 0.032198
O O9 0.750000 0.857161 0.771046
O O10 0.978623 0.750000 0.750891
O O11 0.960077 0.949295 0.718460
O O12 0.250000 0.408742 0.839518
O O13 0.406704 0.250000 0.847973
O O14 0.503286 0.389425 0.777727
O O15 0.502439 0.404749 0.903797
O O16 0.250000 0.918939 0.283241
O O17 0.250000 0.057717 0.606384
O O18 0.463491 0.250000 0.433055
O O19 0.750000 0.100358 0.969269
O O20 0.576195 0.250000 0.967080
#
# Coordination Sequence:
#
# PCOD9452100 Si02
#       7
#     8   8   8   8   8   8   8
#     4  10  21  37  57  85 119 150 182 222 269 320
#     4   8  13  25  47  71  95 128 172 219 268 324
#     4   8  16  32  53  76 103 139 182 224 268 323
#     4  10  21  37  55  74 101 141 186 230 278 331
#     4  11  22  36  56  82 113 148 185 225 268 317
#     4   9  19  38  63  87 112 146 186 225 266 314
#     4   9  16  27  46  73 102 130 167 221 281 335
#
# _framework density 21.453731999999999
#
# number of rings (size 3 to 8) (size 9 to 14) (size 15 to 20)
#    0.000    2.714    0.000    2.571    0.000    4.571 
#    0.000    5.000    0.000    3.000    0.000    0.000 
#    0.000    0.000    0.000    0.000    0.000    0.000 
#
# Total GULP energy -312818.759133 kJ/mol
# GULP energy per Si atom -5586.049270 kJ/mol
# Density = 2.140490 g / cm^3
# Si number density = 21.453732 Si / 1000 Ang^3
#
#
#
# Elastic Constant Matrix: (Units=GPa)
#
#
# Indices 1 2 3 4 5 6 
#
# 1 105.3679 -5.9073 54.8391 0.0000 0.0000 0.0000
# 2 -5.9073 44.9283 -15.8559 0.0000 0.0000 0.0000
# 3 54.8391 -15.8559 95.0117 0.0000 0.0000 0.0000
# 4 0.0000 0.0000 0.0000 12.3071 0.0000 0.0000
# 5 0.0000 0.0000 0.0000 0.0000 23.9982 0.0000
# 6 0.0000 0.0000 0.0000 0.0000 0.0000 15.8413
#
#
#
# Elastic Compliance Matrix: (Units=1/GPa)
#
#
# Indices 1 2 3 4 5 6 
#
# 1 0.013612 -0.001044 -0.008031 0.000000 0.000000 0.000000
# 2 -0.001044 0.023731 0.004563 0.000000 0.000000 0.000000
# 3 -0.008031 0.004563 0.015922 0.000000 0.000000 0.000000
# 4 0.000000 0.000000 0.000000 0.081254 0.000000 0.000000
# 5 0.000000 0.000000 0.000000 0.000000 0.041670 0.000000
# 6 0.000000 0.000000 0.000000 0.000000 0.000000 0.063126
#
#
# Mechanical properties :
#
#
# Convention : Reuss Voigt Hill
#
# Bulk Modulus (GPa) = 22.60400 34.60665 28.60533
# Shear Modulus (GPa) = 19.00531 24.57813 21.79172
#
# Velocity S-wave (km/s) = 2.97959 3.38839 3.19055
# Velocity P-wave (km/s) = 4.73248 5.61018 5.18992
#
# Compressibility (1/GPa) = 0.04423995
#
# Stress axis : x y z
#
# Youngs Moduli (GPa) = 73.46670 42.13945 62.80737
#
# Poissons Ratio (x) = 0.04401 0.50439
# Poissons Ratio (y) = 0.07673 -0.28660
# Poissons Ratio (z) = 0.58999 -0.19229
#
# Static dielectric constant tensor:
#      x y z
#    x 1.727200 0.000000 0.000000 
#    y 0.000000 1.842550 0.000000 
#    z 0.000000 0.000000 1.763400 
# 
# From -- ./inp_files/29164.got.cif
#   From: 2010.05.17/outbox.cif.g08.bks.cpg/sg59_15_cif.got.tgz:29164.got - 2010.06.03 14:40:33.
