data_PCOD9452063
_publ_section_title
;
Structure prediction by ZEFSAII (Michael W. Deem and Ramdas Pophale) SiO2 
 PCOD9452063
Probable space group: P M M N
;
_chemical_formula_sum "Si O2"
_cell_formula_units_Z 48
_cell_length_a 10.147767
_cell_length_b 8.819328
_cell_length_c 29.849833
_cell_angle_alpha 90.000000
_cell_angle_beta 90.000000
_cell_angle_gamma 90.000000
_cell_volume 2671.455150
_symmetry_space_group_name_H-M "P M M N"
_symmetry_group_IT_number 59
_space_group.IT_coordinate_system_code '2'
_symmetry_cell_setting 'orthorhombic'
loop_
_space_group_symop_operation_xyz
x,y,z
1/2-x,1/2-y,z
1/2+x,-y,-z
-x,1/2+y,-z
-x,-y,-z
1/2+x,1/2+y,-z
1/2-x,y,z
x,1/2-y,z
loop_
_atom_site_type_symbol
_atom_site_label
_atom_site_fract_x
_atom_site_fract_y
_atom_site_fract_z
Si Si1 0.595297 0.930343 0.269787
Si Si2 0.250000 0.932457 0.931606
Si Si3 0.903623 0.066385 0.462852
Si Si4 0.099289 0.069541 0.197120
Si Si5 0.750000 0.066209 0.965002
Si Si6 0.020371 0.932322 0.102149
Si Si7 0.909697 0.076005 0.363063
O O1 0.750000 0.973138 0.264138
O O2 0.585668 0.750000 0.264656
O O3 0.504212 0.011044 0.233528
O O4 0.553641 0.978530 0.319962
O O5 0.250000 0.750000 0.930309
O O6 0.379276 0.996452 0.907932
O O7 0.250000 0.984057 0.983673
O O8 0.750000 0.021021 0.469502
O O9 0.906842 0.250000 0.463756
O O10 0.948185 0.020429 0.412537
O O11 0.000000 0.000000 0.500000
O O12 0.250000 0.037487 0.211167
O O13 0.085362 0.250000 0.191345
O O14 0.072846 0.989084 0.149786
O O15 0.750000 0.250000 0.965530
O O16 0.621803 0.018925 0.936924
O O17 0.012679 0.750000 0.102261
O O18 0.750000 0.079176 0.364468
O O19 0.954534 0.250000 0.356928
#
# Coordination Sequence:
#
# PCOD9452063 Si02
#       7
#     8   4   8   8   4   8   8
#     4  10  21  36  58  87 113 140 180 229 279 333
#     4  11  23  39  59  89 121 149 187 231 272 325
#     4   9  18  32  51  77 109 145 186 230 276 328
#     4  11  24  41  60  83 111 147 187 227 277 336
#     4   9  20  39  63  87 115 151 189 227 276 329
#     4  11  22  40  62  86 115 150 187 230 279 327
#     4   8  15  31  53  76 106 144 184 228 277 326
#
# _framework density 17.967735000000001
#
# number of rings (size 3 to 8) (size 9 to 14) (size 15 to 20)
#    0.000    2.167    0.833    3.250    1.167    3.000 
#    0.000    5.000    0.000    1.000    0.000    0.000 
#    0.000    0.000    0.000    0.000    0.000    0.000 
#
# Total GULP energy -267888.877033 kJ/mol
# GULP energy per Si atom -5581.018272 kJ/mol
# Density = 1.792684 g / cm^3
# Si number density = 17.967735 Si / 1000 Ang^3
#
#
#
# Elastic Constant Matrix: (Units=GPa)
#
#
# Indices 1 2 3 4 5 6 
#
# 1 95.9625 40.7900 40.2281 0.0000 0.0000 0.0000
# 2 40.7900 55.2631 36.8290 0.0000 0.0000 0.0000
# 3 40.2281 36.8290 97.7422 0.0000 0.0000 0.0000
# 4 0.0000 0.0000 0.0000 34.1437 0.0000 0.0000
# 5 0.0000 0.0000 0.0000 0.0000 35.2773 0.0000
# 6 0.0000 0.0000 0.0000 0.0000 0.0000 15.3259
#
#
#
# Elastic Compliance Matrix: (Units=1/GPa)
#
#
# Indices 1 2 3 4 5 6 
#
# 1 0.015740 -0.009749 -0.002805 0.000000 0.000000 0.000000
# 2 -0.009749 0.030201 -0.007367 0.000000 0.000000 0.000000
# 3 -0.002805 -0.007367 0.014161 0.000000 0.000000 0.000000
# 4 0.000000 0.000000 0.000000 0.029288 0.000000 0.000000
# 5 0.000000 0.000000 0.000000 0.000000 0.028347 0.000000
# 6 0.000000 0.000000 0.000000 0.000000 0.000000 0.065249
#
#
# Mechanical properties :
#
#
# Convention : Reuss Voigt Hill
#
# Bulk Modulus (GPa) = 49.35714 53.85134 51.60424
# Shear Modulus (GPa) = 21.77873 25.69075 23.73474
#
# Velocity S-wave (km/s) = 3.48530 3.78541 3.63845
# Velocity P-wave (km/s) = 6.61256 7.01013 6.81425
#
# Compressibility (1/GPa) = 0.02026049
#
# Stress axis : x y z
#
# Youngs Moduli (GPa) = 63.53057 33.11196 70.61448
#
# Poissons Ratio (x) = 0.32280 0.19808
# Poissons Ratio (y) = 0.61934 0.52023
# Poissons Ratio (z) = 0.17821 0.24394
#
# Static dielectric constant tensor:
#      x y z
#    x 1.597380 0.000000 0.000000 
#    y 0.000000 1.604450 0.000000 
#    z 0.000000 0.000000 1.605900 
# 
# From -- ./inp_files/32993.got.cif
#   From: 2010.05.17/outbox.cif.g08.bks.cpg/sg59_17_cif.got.tgz:32993.got - 2010.06.03 14:40:33.
