data_PCOD9452778
_publ_section_title
;
Structure prediction by ZEFSAII (Michael W. Deem and Ramdas Pophale) SiO2 
 PCOD9452778
Probable space group: P M M N
;
_chemical_formula_sum "Si O2"
_cell_formula_units_Z 56
_cell_length_a 22.227827
_cell_length_b 8.841026
_cell_length_c 14.978567
_cell_angle_alpha 90.000000
_cell_angle_beta 90.000000
_cell_angle_gamma 90.000000
_cell_volume 2943.540002
_symmetry_space_group_name_H-M "P M M N"
_symmetry_group_IT_number 59
_space_group.IT_coordinate_system_code '2'
_symmetry_cell_setting 'orthorhombic'
loop_
_space_group_symop_operation_xyz
x,y,z
1/2-x,1/2-y,z
1/2+x,-y,-z
-x,1/2+y,-z
-x,-y,-z
1/2+x,1/2+y,-z
1/2-x,y,z
x,1/2-y,z
loop_
_atom_site_type_symbol
_atom_site_label
_atom_site_fract_x
_atom_site_fract_y
_atom_site_fract_z
Si Si1 0.318797 0.569404 0.741180
Si Si2 0.250000 0.926862 0.272521
Si Si3 0.250000 0.573564 0.057339
Si Si4 0.377362 0.069028 0.047675
Si Si5 0.820464 0.930217 0.450957
Si Si6 0.946504 0.068401 0.785873
Si Si7 0.423728 0.068339 0.858687
Si Si8 0.868461 0.568541 0.639633
O O1 0.250000 0.519002 0.760388
O O2 0.320359 0.750000 0.745943
O O3 0.333291 0.516042 0.640527
O O4 0.367113 0.500890 0.807911
O O5 0.250000 0.750000 0.298071
O O6 0.250000 0.934471 0.165350
O O7 0.191030 0.007087 0.310913
O O8 0.250000 0.750000 0.030736
O O9 0.189307 0.491765 0.026859
O O10 0.376008 0.250000 0.059337
O O11 0.402241 0.992046 0.136908
O O12 0.419287 0.029510 0.963300
O O13 0.750000 0.957501 0.474440
O O14 0.826855 0.750000 0.435905
O O15 0.860798 0.973526 0.535695
O O16 0.943065 0.250000 0.783294
O O17 0.013638 0.020983 0.813924
O O18 0.924456 0.001269 0.692199
O O19 0.420106 0.250000 0.852433
O O20 0.869596 0.750000 0.645631
#
# Coordination Sequence:
#
# PCOD9452778 Si02
#       8
#     8   4   4   8   8   8   8   8
#     4  10  22  39  61  91 118 145 189 245 297 343
#     4  11  21  33  53  82 120 159 190 234 293 341
#     4  11  23  37  55  86 122 155 188 238 297 341
#     4  11  23  39  61  87 115 154 199 240 287 343
#     4   9  18  35  58  85 117 153 189 233 290 347
#     4  11  23  40  59  85 119 156 195 238 290 343
#     4  10  24  43  62  83 113 155 200 240 286 348
#     4  11  21  35  58  88 119 154 197 236 284 347
#
# _framework density 19.024712000000001
#
# number of rings (size 3 to 8) (size 9 to 14) (size 15 to 20)
#    0.000    1.571    2.143    2.571    1.000    4.857 
#    0.000    0.714    0.000    0.000    0.000    0.000 
#    0.000    0.000    0.000    0.000    0.000    0.000 
#
# Total GULP energy -312964.022718 kJ/mol
# GULP energy per Si atom -5588.643263 kJ/mol
# Density = 1.898141 g / cm^3
# Si number density = 19.024712 Si / 1000 Ang^3
#
#
#
# Elastic Constant Matrix: (Units=GPa)
#
#
# Indices 1 2 3 4 5 6 
#
# 1 68.0719 10.9535 16.6928 0.0000 0.0000 0.0000
# 2 10.9535 29.9717 10.1728 0.0000 0.0000 0.0000
# 3 16.6928 10.1728 51.5169 0.0000 0.0000 0.0000
# 4 0.0000 0.0000 0.0000 25.0755 0.0000 0.0000
# 5 0.0000 0.0000 0.0000 0.0000 22.7927 0.0000
# 6 0.0000 0.0000 0.0000 0.0000 0.0000 25.4652
#
#
#
# Elastic Compliance Matrix: (Units=1/GPa)
#
#
# Indices 1 2 3 4 5 6 
#
# 1 0.016511 -0.004521 -0.004457 0.000000 0.000000 0.000000
# 2 -0.004521 0.037000 -0.005841 0.000000 0.000000 0.000000
# 3 -0.004457 -0.005841 0.022009 0.000000 0.000000 0.000000
# 4 0.000000 0.000000 0.000000 0.039880 0.000000 0.000000
# 5 0.000000 0.000000 0.000000 0.000000 0.043874 0.000000
# 6 0.000000 0.000000 0.000000 0.000000 0.000000 0.039269
#
#
# Mechanical properties :
#
#
# Convention : Reuss Voigt Hill
#
# Bulk Modulus (GPa) = 21.79590 25.02208 23.40899
# Shear Modulus (GPa) = 20.53603 22.11611 21.32607
#
# Velocity S-wave (km/s) = 3.28905 3.41323 3.35172
# Velocity P-wave (km/s) = 5.08972 5.35859 5.22589
#
# Compressibility (1/GPa) = 0.04588018
#
# Stress axis : x y z
#
# Youngs Moduli (GPa) = 60.56623 27.02722 45.43644
#
# Poissons Ratio (x) = 0.12220 0.20252
# Poissons Ratio (y) = 0.27384 0.26540
# Poissons Ratio (z) = 0.26995 0.15787
#
# Static dielectric constant tensor:
#      x y z
#    x 1.653020 0.000000 0.000000 
#    y 0.000000 1.636250 0.000000 
#    z 0.000000 0.000000 1.650190 
# 
# From -- ./inp_files/24376.got.cif
#   From: 2010.05.17/outbox.cif.g08.bks.cpg/sg59_13_cif.got.tgz:24376.got - 2010.06.03 14:40:33.
