data_PCOD9452968
_publ_section_title
;
Structure prediction by ZEFSAII (Michael W. Deem and Ramdas Pophale) SiO2 
 PCOD9452968
Probable space group: P M M N
;
_chemical_formula_sum "Si O2"
_cell_formula_units_Z 32
_cell_length_a 17.710363
_cell_length_b 11.377650
_cell_length_c 7.835778
_cell_angle_alpha 90.000000
_cell_angle_beta 90.000000
_cell_angle_gamma 90.000000
_cell_volume 1578.927380
_symmetry_space_group_name_H-M "P M M N"
_symmetry_group_IT_number 59
_space_group.IT_coordinate_system_code '2'
_symmetry_cell_setting 'orthorhombic'
loop_
_space_group_symop_operation_xyz
x,y,z
1/2-x,1/2-y,z
1/2+x,-y,-z
-x,1/2+y,-z
-x,-y,-z
1/2+x,1/2+y,-z
1/2-x,y,z
x,1/2-y,z
loop_
_atom_site_type_symbol
_atom_site_label
_atom_site_fract_x
_atom_site_fract_y
_atom_site_fract_z
Si Si1 0.160640 0.996965 0.957043
Si Si2 0.578018 0.387556 0.346193
Si Si3 0.585573 0.990395 0.699800
Si Si4 0.341439 0.250000 0.815808
Si Si5 0.659351 0.750000 0.580229
O O1 0.250000 0.996847 0.990571
O O2 0.136099 0.130567 0.909690
O O3 0.140925 0.919974 0.792242
O O4 0.115372 0.957650 0.123737
O O5 0.560767 0.250000 0.344691
O O6 0.502972 0.460116 0.296133
O O7 0.600272 0.428772 0.535550
O O8 0.628630 0.867314 0.667494
O O9 0.250000 0.250000 0.810918
O O10 0.366663 0.250000 0.618355
O O11 0.750000 0.750000 0.585577
#
# Coordination Sequence:
#
# PCOD9452968 Si02
#       5
#     8   8   8   4   4
#     4  11  23  41  65  94 126 164 211 263 318 373
#     4  11  25  43  62  91 131 173 210 255 315 384
#     4  11  23  42  65  94 127 168 215 263 317 376
#     4   9  19  35  61  96 127 155 199 267 323 361
#     4  11  19  37  69  98 124 159 213 275 324 363
#
# _framework density 20.266925000000001
#
# number of rings (size 3 to 8) (size 9 to 14) (size 15 to 20)
#    0.000    1.250    3.750    2.250    0.000    3.500 
#    0.000    0.000    0.000    0.000    0.000    0.000 
#    0.000    0.000    0.000    0.000    0.000    0.000 
#
# Total GULP energy -178966.746974 kJ/mol
# GULP energy per Si atom -5592.710843 kJ/mol
# Density = 2.022080 g / cm^3
# Si number density = 20.266925 Si / 1000 Ang^3
#
#
#
# Elastic Constant Matrix: (Units=GPa)
#
#
# Indices 1 2 3 4 5 6 
#
# 1 23.4183 3.3427 0.3553 0.0000 0.0000 0.0000
# 2 3.3427 42.5302 28.4050 0.0000 0.0000 0.0000
# 3 0.3553 28.4050 93.7543 0.0000 0.0000 0.0000
# 4 0.0000 0.0000 0.0000 4.7370 0.0000 0.0000
# 5 0.0000 0.0000 0.0000 0.0000 34.8505 0.0000
# 6 0.0000 0.0000 0.0000 0.0000 0.0000 22.2724
#
#
#
# Elastic Compliance Matrix: (Units=1/GPa)
#
#
# Indices 1 2 3 4 5 6 
#
# 1 0.043274 -0.004127 0.001086 0.000000 0.000000 0.000000
# 2 -0.004127 0.029871 -0.009034 0.000000 0.000000 0.000000
# 3 0.001086 -0.009034 0.013399 0.000000 0.000000 0.000000
# 4 0.000000 0.000000 0.000000 0.211106 0.000000 0.000000
# 5 0.000000 0.000000 0.000000 0.000000 0.028694 0.000000
# 6 0.000000 0.000000 0.000000 0.000000 0.000000 0.044899
#
#
# Mechanical properties :
#
#
# Convention : Reuss Voigt Hill
#
# Bulk Modulus (GPa) = 16.02699 24.87875 20.45287
# Shear Modulus (GPa) = 12.01372 20.87862 16.44617
#
# Velocity S-wave (km/s) = 2.43734 3.21313 2.85174
# Velocity P-wave (km/s) = 3.98070 5.10566 4.57787
#
# Compressibility (1/GPa) = 0.06239475
#
# Stress axis : x y z
#
# Youngs Moduli (GPa) = 23.10845 33.47729 74.63097
#
# Poissons Ratio (x) = 0.13815 -0.08107
# Poissons Ratio (y) = 0.09536 0.67425
# Poissons Ratio (z) = -0.02510 0.30245
#
# Static dielectric constant tensor:
#      x y z
#    x 1.704180 0.000000 0.000000 
#    y 0.000000 1.696250 0.000000 
#    z 0.000000 0.000000 1.725270 
# 
# From -- ./inp_files/8300.got.cif
#   From: 2010.05.17/outbox.cif.g08.bks.cpg/sg59_5_cif.got.tgz:8300.got - 2010.06.03 14:40:33.
