data_PCOD9452541
_publ_section_title
;
Structure prediction by ZEFSAII (Michael W. Deem and Ramdas Pophale) SiO2 
 PCOD9452541
Probable space group: P M M N
;
_chemical_formula_sum "Si O2"
_cell_formula_units_Z 48
_cell_length_a 31.522839
_cell_length_b 8.674467
_cell_length_c 9.116660
_cell_angle_alpha 90.000000
_cell_angle_beta 90.000000
_cell_angle_gamma 90.000000
_cell_volume 2492.894397
_symmetry_space_group_name_H-M "P M M N"
_symmetry_group_IT_number 59
_space_group.IT_coordinate_system_code '2'
_symmetry_cell_setting 'orthorhombic'
loop_
_space_group_symop_operation_xyz
x,y,z
1/2-x,1/2-y,z
1/2+x,-y,-z
-x,1/2+y,-z
-x,-y,-z
1/2+x,1/2+y,-z
1/2-x,y,z
x,1/2-y,z
loop_
_atom_site_type_symbol
_atom_site_label
_atom_site_fract_x
_atom_site_fract_y
_atom_site_fract_z
Si Si1 0.250000 0.932926 0.168523
Si Si2 0.999530 0.565382 0.335556
Si Si3 0.167882 0.435468 0.330951
Si Si4 0.663711 0.936526 0.326883
Si Si5 0.750000 0.564319 0.159049
Si Si6 0.081590 0.565784 0.836270
Si Si7 0.580747 0.935549 0.834953
O O1 0.250000 0.750000 0.165527
O O2 0.291678 0.992107 0.252303
O O3 0.250000 0.995758 0.002966
O O4 0.998298 0.750000 0.338892
O O5 0.958453 0.501845 0.251147
O O6 0.000000 0.500000 0.500000
O O7 0.041238 0.507646 0.250921
O O8 0.172475 0.250000 0.324645
O O9 0.165206 0.479164 0.501824
O O10 0.124525 0.476171 0.247338
O O11 0.658979 0.750000 0.317846
O O12 0.707675 0.979315 0.247656
O O13 0.624279 0.013987 0.246138
O O14 0.750000 0.750000 0.146728
O O15 0.078651 0.750000 0.842040
O O16 0.081772 0.497516 0.999880
O O17 0.576710 0.750000 0.835768
#
# Coordination Sequence:
#
# PCOD9452541 Si02
#       7
#     4   8   8   8   4   8   8
#     4  12  25  38  58  88 124 160 201 250 300 358
#     4  12  25  43  66  93 125 161 203 253 307 368
#     4  10  22  41  65  89 119 158 202 249 304 366
#     4  10  21  40  65  92 119 156 205 256 306 364
#     4  10  21  38  62  88 120 160 203 250 306 366
#     4  12  25  41  62  91 127 166 205 252 305 362
#     4  11  23  41  65  93 124 163 208 256 306 362
#
# _framework density 19.254726999999999
#
# number of rings (size 3 to 8) (size 9 to 14) (size 15 to 20)
#    0.000    1.000    0.000    7.250    0.000    9.333 
#    0.000    0.833    0.000    0.000    0.000    0.000 
#    0.000    0.000    0.000    0.000    0.000    0.000 
#
# Total GULP energy -268702.454229 kJ/mol
# GULP energy per Si atom -5597.967796 kJ/mol
# Density = 1.921090 g / cm^3
# Si number density = 19.254727 Si / 1000 Ang^3
#
#
#
# Elastic Constant Matrix: (Units=GPa)
#
#
# Indices 1 2 3 4 5 6 
#
# 1 217.1647 81.0270 128.3965 0.0000 0.0000 0.0000
# 2 81.0270 89.1810 70.5141 0.0000 0.0000 0.0000
# 3 128.3965 70.5141 223.5611 0.0000 0.0000 0.0000
# 4 0.0000 0.0000 0.0000 25.8532 0.0000 0.0000
# 5 0.0000 0.0000 0.0000 0.0000 43.6218 0.0000
# 6 0.0000 0.0000 0.0000 0.0000 0.0000 32.9506
#
#
#
# Elastic Compliance Matrix: (Units=1/GPa)
#
#
# Indices 1 2 3 4 5 6 
#
# 1 0.008411 -0.005093 -0.003225 0.000000 0.000000 0.000000
# 2 -0.005093 0.018022 -0.002760 0.000000 0.000000 0.000000
# 3 -0.003225 -0.002760 0.007195 0.000000 0.000000 0.000000
# 4 0.000000 0.000000 0.000000 0.038680 0.000000 0.000000
# 5 0.000000 0.000000 0.000000 0.000000 0.022924 0.000000
# 6 0.000000 0.000000 0.000000 0.000000 0.000000 0.030348
#
#
# Mechanical properties :
#
#
# Convention : Reuss Voigt Hill
#
# Bulk Modulus (GPa) = 87.14377 121.08690 104.11533
# Shear Modulus (GPa) = 32.99007 37.14971 35.06989
#
# Velocity S-wave (km/s) = 4.14375 4.39724 4.27238
# Velocity P-wave (km/s) = 8.26141 9.42360 8.86158
#
# Compressibility (1/GPa) = 0.01147529
#
# Stress axis : x y z
#
# Youngs Moduli (GPa) = 118.88502 55.48716 138.97747
#
# Poissons Ratio (x) = 0.28258 0.44815
# Poissons Ratio (y) = 0.60545 0.38351
# Poissons Ratio (z) = 0.38336 0.15312
#
# Static dielectric constant tensor:
#      x y z
#    x 1.632930 0.000000 0.000000 
#    y 0.000000 1.650740 0.000000 
#    z 0.000000 0.000000 1.633460 
# 
# From -- ./inp_files/13056.got.cif
#   From: 2010.05.17/outbox.cif.g08.bks.cpg/sg59_7_cif.got.tgz:13056.got - 2010.06.03 14:40:33.
