data_PCOD9452975
_publ_section_title
;
Structure prediction by ZEFSAII (Michael W. Deem and Ramdas Pophale) SiO2 
 PCOD9452975
Probable space group: P M M N
;
_chemical_formula_sum "Si O2"
_cell_formula_units_Z 64
_cell_length_a 7.592033
_cell_length_b 15.084805
_cell_length_c 29.151003
_cell_angle_alpha 90.000000
_cell_angle_beta 90.000000
_cell_angle_gamma 90.000000
_cell_volume 3338.499302
_symmetry_space_group_name_H-M "P M M N"
_symmetry_group_IT_number 59
_space_group.IT_coordinate_system_code '2'
_symmetry_cell_setting 'orthorhombic'
loop_
_space_group_symop_operation_xyz
x,y,z
1/2-x,1/2-y,z
1/2+x,-y,-z
-x,1/2+y,-z
-x,-y,-z
1/2+x,1/2+y,-z
1/2-x,y,z
x,1/2-y,z
loop_
_atom_site_type_symbol
_atom_site_label
_atom_site_fract_x
_atom_site_fract_y
_atom_site_fract_z
Si Si1 0.033668 0.040856 0.609529
Si Si2 0.458892 0.101105 0.513693
Si Si3 0.454579 0.655396 0.584203
Si Si4 0.540996 0.849040 0.199824
Si Si5 0.037057 0.147867 0.965267
Si Si6 0.535295 0.852333 0.302398
Si Si7 0.048085 0.521384 0.117991
Si Si8 0.465726 0.350886 0.070074
O O1 0.250000 0.038785 0.607988
O O2 0.980575 0.103380 0.566478
O O3 0.976058 0.082545 0.657426
O O4 0.972076 0.939329 0.601320
O O5 0.250000 0.118026 0.512796
O O6 0.538912 0.153410 0.471285
O O7 0.500000 0.000000 0.500000
O O8 0.250000 0.655362 0.598087
O O9 0.533209 0.750000 0.599348
O O10 0.750000 0.840160 0.204969
O O11 0.472810 0.750000 0.187387
O O12 0.474358 0.873872 0.250641
O O13 0.517069 0.920830 0.160389
O O14 0.250000 0.143406 0.963275
O O15 0.987339 0.250000 0.955354
O O16 0.965299 0.081525 0.927550
O O17 0.982183 0.127783 0.017500
O O18 0.750000 0.855809 0.303007
O O19 0.486724 0.750000 0.311619
O O20 0.250000 0.503553 0.128643
O O21 0.967705 0.426477 0.104300
O O22 0.250000 0.351854 0.070028
O O23 0.519362 0.250000 0.080399
#
# Coordination Sequence:
#
# PCOD9452975 Si02
#       8
#     8   8   8   8   8   8   8   8
#     4   8  14  25  42  63  84 107 141 185 222 251
#     4   9  16  26  41  62  88 116 146 180 218 258
#     4   9  17  28  41  60  90 124 151 176 212 259
#     4   9  18  32  48  65  87 116 145 174 218 275
#     4   9  17  30  47  65  89 121 150 175 208 254
#     4   8  14  26  45  66  84 105 139 181 220 259
#     4  11  20  28  45  70  91 114 145 182 220 254
#     4   8  16  31  47  63  86 118 153 181 207 249
#
# _framework density 19.170290000000001
#
# number of rings (size 3 to 8) (size 9 to 14) (size 15 to 20)
#    0.000    3.125    0.000    3.750    0.000    2.750 
#    0.000    1.875    0.000    7.500    0.000    1.750 
#    0.000    0.000    0.000    0.000    0.000    0.000 
#
# Total GULP energy -356493.182635 kJ/mol
# GULP energy per Si atom -5570.205979 kJ/mol
# Density = 1.912666 g / cm^3
# Si number density = 19.170290 Si / 1000 Ang^3
#
#
#
# Elastic Constant Matrix: (Units=GPa)
#
#
# Indices 1 2 3 4 5 6 
#
# 1 37.2476 -2.4093 2.0434 0.0000 0.0000 0.0000
# 2 -2.4093 120.4044 93.6392 0.0000 0.0000 0.0000
# 3 2.0434 93.6392 134.0188 0.0000 0.0000 0.0000
# 4 0.0000 0.0000 0.0000 25.8578 0.0000 0.0000
# 5 0.0000 0.0000 0.0000 0.0000 8.9471 0.0000
# 6 0.0000 0.0000 0.0000 0.0000 0.0000 8.1742
#
#
#
# Elastic Compliance Matrix: (Units=1/GPa)
#
#
# Indices 1 2 3 4 5 6 
#
# 1 0.027065 0.001889 -0.001732 0.000000 0.000000 0.000000
# 2 0.001889 0.018321 -0.012830 0.000000 0.000000 0.000000
# 3 -0.001732 -0.012830 0.016452 0.000000 0.000000 0.000000
# 4 0.000000 0.000000 0.000000 0.038673 0.000000 0.000000
# 5 0.000000 0.000000 0.000000 0.000000 0.111768 0.000000
# 6 0.000000 0.000000 0.000000 0.000000 0.000000 0.122337
#
#
# Mechanical properties :
#
#
# Convention : Reuss Voigt Hill
#
# Bulk Modulus (GPa) = 27.40381 53.13526 40.26954
# Shear Modulus (GPa) = 13.43635 21.82232 17.62934
#
# Velocity S-wave (km/s) = 2.65031 3.37759 3.03581
# Velocity P-wave (km/s) = 4.86739 6.55656 5.77408
#
# Compressibility (1/GPa) = 0.03649128
#
# Stress axis : x y z
#
# Youngs Moduli (GPa) = 36.94861 54.58291 60.78260
#
# Poissons Ratio (x) = -0.10310 0.10530
# Poissons Ratio (y) = -0.06979 0.77981
# Poissons Ratio (z) = 0.06401 0.70027
#
# Static dielectric constant tensor:
#      x y z
#    x 1.736050 0.000000 0.000000 
#    y 0.000000 1.701600 0.000000 
#    z 0.000000 0.000000 1.664050 
# 
# From -- ./inp_files/33224.got.cif
#   From: 2010.05.17/outbox.cif.g08.bks.cpg/sg59_17_cif.got.tgz:33224.got - 2010.06.03 14:40:33.
