data_PCOD9452793
_publ_section_title
;
Structure prediction by ZEFSAII (Michael W. Deem and Ramdas Pophale) SiO2 
 PCOD9452793
Probable space group: P M M N
;
_chemical_formula_sum "Si O2"
_cell_formula_units_Z 56
_cell_length_a 22.245705
_cell_length_b 9.178367
_cell_length_c 14.888542
_cell_angle_alpha 90.000000
_cell_angle_beta 90.000000
_cell_angle_gamma 90.000000
_cell_volume 3039.931260
_symmetry_space_group_name_H-M "P M M N"
_symmetry_group_IT_number 59
_space_group.IT_coordinate_system_code '2'
_symmetry_cell_setting 'orthorhombic'
loop_
_space_group_symop_operation_xyz
x,y,z
1/2-x,1/2-y,z
1/2+x,-y,-z
-x,1/2+y,-z
-x,-y,-z
1/2+x,1/2+y,-z
1/2-x,y,z
x,1/2-y,z
loop_
_atom_site_type_symbol
_atom_site_label
_atom_site_fract_x
_atom_site_fract_y
_atom_site_fract_z
Si Si1 0.680277 0.423675 0.256581
Si Si2 0.453488 0.424584 0.210414
Si Si3 0.320534 0.922776 0.531994
Si Si4 0.074681 0.423342 0.849552
Si Si5 0.250000 0.581281 0.057297
Si Si6 0.136179 0.075915 0.363734
Si Si7 0.374081 0.423935 0.039001
Si Si8 0.250000 0.579790 0.273675
O O1 0.750000 0.459075 0.236861
O O2 0.672549 0.250000 0.241977
O O3 0.669615 0.451370 0.362703
O O4 0.633553 0.513300 0.198574
O O5 0.462053 0.250000 0.204533
O O6 0.515770 0.503191 0.191381
O O7 0.423326 0.457945 0.306237
O O8 0.406086 0.466174 0.132115
O O9 0.250000 0.955752 0.513224
O O10 0.328931 0.750000 0.517070
O O11 0.361153 0.013728 0.464172
O O12 0.071774 0.250000 0.838658
O O13 0.082302 0.455750 0.955467
O O14 0.250000 0.750000 0.030037
O O15 0.310862 0.503878 0.025980
O O16 0.250000 0.572491 0.165931
O O17 0.144387 0.250000 0.363429
O O18 0.191558 0.999883 0.312383
O O19 0.363284 0.250000 0.041602
O O20 0.250000 0.750000 0.300511
#
# Coordination Sequence:
#
# PCOD9452793 Si02
#       8
#     8   8   8   8   4   8   8   4
#     4   9  20  40  63  85 114 151 189 234 290 345
#     4  10  22  40  59  80 114 158 194 228 279 346
#     4   9  18  34  57  85 116 150 186 232 289 340
#     4  11  24  39  60  86 112 148 195 244 288 331
#     4  11  23  35  55  88 117 150 193 237 280 332
#     4  11  21  33  56  87 116 152 191 229 282 341
#     4  10  22  40  59  82 118 155 188 235 291 338
#     4  11  21  33  51  80 119 154 187 233 280 330
#
# _framework density 18.421469999999999
#
# number of rings (size 3 to 8) (size 9 to 14) (size 15 to 20)
#    0.000    1.857    2.143    2.571    1.000    4.286 
#    0.000    2.143    0.000    0.000    0.000    0.000 
#    0.000    0.000    0.000    0.000    0.000    0.000 
#
# Total GULP energy -312814.107724 kJ/mol
# GULP energy per Si atom -5585.966209 kJ/mol
# Density = 1.837954 g / cm^3
# Si number density = 18.421470 Si / 1000 Ang^3
#
#
#
# Elastic Constant Matrix: (Units=GPa)
#
#
# Indices 1 2 3 4 5 6 
#
# 1 70.3412 24.3516 11.9123 0.0000 0.0000 0.0000
# 2 24.3516 31.1251 20.0347 0.0000 0.0000 0.0000
# 3 11.9123 20.0347 46.2434 0.0000 0.0000 0.0000
# 4 0.0000 0.0000 0.0000 30.9641 0.0000 0.0000
# 5 0.0000 0.0000 0.0000 0.0000 16.8400 0.0000
# 6 0.0000 0.0000 0.0000 0.0000 0.0000 25.8756
#
#
#
# Elastic Compliance Matrix: (Units=1/GPa)
#
#
# Indices 1 2 3 4 5 6 
#
# 1 0.019660 -0.016809 0.002218 0.000000 0.000000 0.000000
# 2 -0.016809 0.058925 -0.021199 0.000000 0.000000 0.000000
# 3 0.002218 -0.021199 0.030238 0.000000 0.000000 0.000000
# 4 0.000000 0.000000 0.000000 0.032295 0.000000 0.000000
# 5 0.000000 0.000000 0.000000 0.000000 0.059382 0.000000
# 6 0.000000 0.000000 0.000000 0.000000 0.000000 0.038647
#
#
# Mechanical properties :
#
#
# Convention : Reuss Voigt Hill
#
# Bulk Modulus (GPa) = 26.85103 28.92299 27.88701
# Shear Modulus (GPa) = 15.47310 20.83002 18.15156
#
# Velocity S-wave (km/s) = 2.90133 3.36631 3.14243
# Velocity P-wave (km/s) = 5.08244 5.55375 5.32331
#
# Compressibility (1/GPa) = 0.03724251
#
# Stress axis : x y z
#
# Youngs Moduli (GPa) = 50.86451 16.97070 33.07139
#
# Poissons Ratio (x) = 0.28527 -0.07336
# Poissons Ratio (y) = 0.85500 0.70108
# Poissons Ratio (z) = -0.11282 0.35976
#
# Static dielectric constant tensor:
#      x y z
#    x 1.598580 0.000000 0.000000 
#    y 0.000000 1.609340 0.000000 
#    z 0.000000 0.000000 1.649940 
# 
# From -- ./inp_files/21141.got.cif
#   From: 2010.05.17/outbox.cif.g08.bks.cpg/sg59_11_cif.got.tgz:21141.got - 2010.06.03 14:40:33.
