data_PCOD9452150
_publ_section_title
;
Structure prediction by ZEFSAII (Michael W. Deem and Ramdas Pophale) SiO2 
 PCOD9452150
Probable space group: P M M N
;
_chemical_formula_sum "Si O2"
_cell_formula_units_Z 64
_cell_length_a 25.402039
_cell_length_b 8.612772
_cell_length_c 15.419402
_cell_angle_alpha 90.000000
_cell_angle_beta 90.000000
_cell_angle_gamma 90.000000
_cell_volume 3373.487150
_symmetry_space_group_name_H-M "P M M N"
_symmetry_group_IT_number 59
_space_group.IT_coordinate_system_code '2'
_symmetry_cell_setting 'orthorhombic'
loop_
_space_group_symop_operation_xyz
x,y,z
1/2-x,1/2-y,z
1/2+x,-y,-z
-x,1/2+y,-z
-x,-y,-z
1/2+x,1/2+y,-z
1/2-x,y,z
x,1/2-y,z
loop_
_atom_site_type_symbol
_atom_site_label
_atom_site_fract_x
_atom_site_fract_y
_atom_site_fract_z
Si Si1 0.189230 0.937043 0.864770
Si Si2 0.808341 0.436552 0.640300
Si Si3 0.352962 0.074634 0.527894
Si Si4 0.884331 0.062312 0.794878
Si Si5 0.610358 0.435719 0.287934
Si Si6 0.994499 0.068816 0.745270
Si Si7 0.189162 0.435642 0.054844
Si Si8 0.462937 0.073208 0.428491
O O1 0.250000 0.976453 0.843916
O O2 0.186022 0.750000 0.873535
O O3 0.150225 0.985022 0.788186
O O4 0.176038 0.012256 0.957090
O O5 0.750000 0.487048 0.669849
O O6 0.810458 0.250000 0.642898
O O7 0.815929 0.486400 0.540317
O O8 0.852916 0.493903 0.708180
O O9 0.333787 0.250000 0.542433
O O10 0.406495 0.080433 0.472203
O O11 0.368904 0.000993 0.620012
O O12 0.886339 0.250000 0.790433
O O13 0.945409 0.008763 0.803147
O O14 0.849637 0.010994 0.876002
O O15 0.610727 0.250000 0.294190
O O16 0.551332 0.488852 0.262294
O O17 0.003586 0.250000 0.762871
O O18 0.968133 0.041846 0.651533
O O19 0.250000 0.484156 0.071096
O O20 0.186431 0.250000 0.061315
O O21 0.478584 0.250000 0.403838
O O22 0.500000 0.000000 0.500000
#
# Coordination Sequence:
#
# PCOD9452150 Si02
#       8
#     8   8   8   8   8   8   8   8
#     4   9  20  41  66  88 111 144 188 235 283 341
#     4  10  21  37  56  79 111 152 197 242 288 340
#     4  11  23  36  53  79 113 151 191 237 286 337
#     4  10  21  37  59  84 114 153 193 233 280 340
#     4  11  23  38  60  87 116 150 192 240 289 341
#     4  11  22  36  56  83 116 153 195 237 283 339
#     4  10  21  37  61  92 119 145 182 233 290 343
#     4  11  21  33  53  78 108 148 193 238 282 329
#
# _framework density 18.971467000000001
#
# number of rings (size 3 to 8) (size 9 to 14) (size 15 to 20)
#    0.000    1.625    2.500    2.250    0.000    5.500 
#    0.000    1.875    0.000    0.000    0.000    0.000 
#    0.000    0.000    0.000    0.000    0.000    0.000 
#
# Total GULP energy -356920.706061 kJ/mol
# GULP energy per Si atom -5576.886032 kJ/mol
# Density = 1.892829 g / cm^3
# Si number density = 18.971467 Si / 1000 Ang^3
#
#
#
# Elastic Constant Matrix: (Units=GPa)
#
#
# Indices 1 2 3 4 5 6 
#
# 1 95.8049 17.4232 64.4588 0.0000 0.0000 0.0000
# 2 17.4232 21.0122 13.3093 0.0000 0.0000 0.0000
# 3 64.4588 13.3093 107.8001 0.0000 0.0000 0.0000
# 4 0.0000 0.0000 0.0000 21.1705 0.0000 0.0000
# 5 0.0000 0.0000 0.0000 0.0000 35.8014 0.0000
# 6 0.0000 0.0000 0.0000 0.0000 0.0000 20.9006
#
#
#
# Elastic Compliance Matrix: (Units=1/GPa)
#
#
# Indices 1 2 3 4 5 6 
#
# 1 0.018998 -0.009284 -0.010214 0.000000 0.000000 0.000000
# 2 -0.009284 0.056165 -0.001383 0.000000 0.000000 0.000000
# 3 -0.010214 -0.001383 0.015554 0.000000 0.000000 0.000000
# 4 0.000000 0.000000 0.000000 0.047236 0.000000 0.000000
# 5 0.000000 0.000000 0.000000 0.000000 0.027932 0.000000
# 6 0.000000 0.000000 0.000000 0.000000 0.000000 0.047846
#
#
# Mechanical properties :
#
#
# Convention : Reuss Voigt Hill
#
# Bulk Modulus (GPa) = 20.42613 46.11110 33.26862
# Shear Modulus (GPa) = 18.39513 24.20288 21.29900
#
# Velocity S-wave (km/s) = 3.11725 3.57564 3.35429
# Velocity P-wave (km/s) = 4.87304 6.43469 5.70753
#
# Compressibility (1/GPa) = 0.04895689
#
# Stress axis : x y z
#
# Youngs Moduli (GPa) = 52.63680 17.80454 64.29023
#
# Poissons Ratio (x) = 0.16529 0.65664
# Poissons Ratio (y) = 0.48866 0.08893
# Poissons Ratio (z) = 0.53762 0.02463
#
# Static dielectric constant tensor:
#      x y z
#    x 1.699800 0.000000 0.000000 
#    y 0.000000 1.664880 0.000000 
#    z 0.000000 0.000000 1.640460 
# 
# From -- ./inp_files/24793.got.cif
#   From: 2010.05.17/outbox.cif.g08.bks.cpg/sg59_13_cif.got.tgz:24793.got - 2010.06.03 14:40:33.
