data_PCOD9452044
_publ_section_title
;
Structure prediction by ZEFSAII (Michael W. Deem and Ramdas Pophale) SiO2 
 PCOD9452044
Probable space group: P M M N
;
_chemical_formula_sum "Si O2"
_cell_formula_units_Z 48
_cell_length_a 14.566580
_cell_length_b 14.806273
_cell_length_c 11.830628
_cell_angle_alpha 90.000000
_cell_angle_beta 90.000000
_cell_angle_gamma 90.000000
_cell_volume 2551.591518
_symmetry_space_group_name_H-M "P M M N"
_symmetry_group_IT_number 59
_space_group.IT_coordinate_system_code '2'
_symmetry_cell_setting 'orthorhombic'
loop_
_space_group_symop_operation_xyz
x,y,z
1/2-x,1/2-y,z
1/2+x,-y,-z
-x,1/2+y,-z
-x,-y,-z
1/2+x,1/2+y,-z
1/2-x,y,z
x,1/2-y,z
loop_
_atom_site_type_symbol
_atom_site_label
_atom_site_fract_x
_atom_site_fract_y
_atom_site_fract_z
Si Si1 0.141061 0.357300 0.147030
Si Si2 0.514078 0.025265 0.270760
Si Si3 0.073806 0.649235 0.345335
Si Si4 0.859803 0.518651 0.059124
Si Si5 0.859213 0.347428 0.910491
Si Si6 0.650429 0.355173 0.410976
O O1 0.250000 0.372826 0.173091
O O2 0.122563 0.250000 0.158388
O O3 0.074320 0.420098 0.222595
O O4 0.127627 0.392820 0.018449
O O5 0.577642 0.988834 0.168794
O O6 0.571592 0.093134 0.346928
O O7 0.489887 0.937700 0.344421
O O8 0.030950 0.750000 0.352417
O O9 0.121528 0.644083 0.222630
O O10 0.138656 0.641218 0.453786
O O11 0.750000 0.511128 0.083695
O O12 0.889868 0.433408 0.981240
O O13 0.750000 0.345077 0.924741
O O14 0.897367 0.250000 0.949035
O O15 0.750000 0.392136 0.378550
O O16 0.646813 0.250000 0.379183
#
# Coordination Sequence:
#
# PCOD9452044 Si02
#       6
#     8   8   8   8   8   8
#     4  10  22  38  55  79 115 157 194 228 277 343
#     4  12  22  37  59  89 114 151 190 243 284 344
#     4  10  21  36  57  83 113 149 192 238 286 339
#     4  10  21  37  55  82 116 149 188 232 286 342
#     4   9  17  31  53  81 110 142 185 235 283 332
#     4  10  22  40  61  86 115 148 188 239 298 348
#
# _framework density 18.811788
#
# number of rings (size 3 to 8) (size 9 to 14) (size 15 to 20)
#    0.000    1.833    1.667    2.500    0.000    4.667 
#    0.000    1.667    0.000    1.500    0.000    2.333 
#    0.000    0.000    0.000    0.000    0.000    0.000 
#
# Total GULP energy -267751.619868 kJ/mol
# GULP energy per Si atom -5578.158747 kJ/mol
# Density = 1.876897 g / cm^3
# Si number density = 18.811788 Si / 1000 Ang^3
#
#
#
# Elastic Constant Matrix: (Units=GPa)
#
#
# Indices 1 2 3 4 5 6 
#
# 1 82.6813 53.7457 25.2146 0.0000 0.0000 0.0000
# 2 53.7457 105.3884 20.2659 0.0000 0.0000 0.0000
# 3 25.2146 20.2659 31.6517 0.0000 0.0000 0.0000
# 4 0.0000 0.0000 0.0000 23.6315 0.0000 0.0000
# 5 0.0000 0.0000 0.0000 0.0000 19.7470 0.0000
# 6 0.0000 0.0000 0.0000 0.0000 0.0000 23.1540
#
#
#
# Elastic Compliance Matrix: (Units=1/GPa)
#
#
# Indices 1 2 3 4 5 6 
#
# 1 0.021144 -0.008603 -0.011335 0.000000 0.000000 0.000000
# 2 -0.008603 0.014322 -0.002316 0.000000 0.000000 0.000000
# 3 -0.011335 -0.002316 0.042107 0.000000 0.000000 0.000000
# 4 0.000000 0.000000 0.000000 0.042316 0.000000 0.000000
# 5 0.000000 0.000000 0.000000 0.000000 0.050641 0.000000
# 6 0.000000 0.000000 0.000000 0.000000 0.000000 0.043189
#
#
# Mechanical properties :
#
#
# Convention : Reuss Voigt Hill
#
# Bulk Modulus (GPa) = 30.24542 46.46376 38.35459
# Shear Modulus (GPa) = 18.57018 21.33951 19.95484
#
# Velocity S-wave (km/s) = 3.14531 3.37169 3.26047
# Velocity P-wave (km/s) = 5.41327 6.31749 5.88278
#
# Compressibility (1/GPa) = 0.03306285
#
# Stress axis : x y z
#
# Youngs Moduli (GPa) = 47.29521 69.82501 23.74900
#
# Poissons Ratio (x) = 0.60071 0.26920
# Poissons Ratio (y) = 0.40689 0.05501
# Poissons Ratio (z) = 0.53611 0.16173
#
# Static dielectric constant tensor:
#      x y z
#    x 1.666200 0.000000 0.000000 
#    y 0.000000 1.680390 0.000000 
#    z 0.000000 0.000000 1.626270 
# 
# From -- ./inp_files/16829.got.cif
#   From: 2010.05.17/outbox.cif.g08.bks.cpg/sg59_9_cif.got.tgz:16829.got - 2010.06.03 14:40:33.
