data_PCOD9452949
_publ_section_title
;
Structure prediction by ZEFSAII (Michael W. Deem and Ramdas Pophale) SiO2 
 PCOD9452949
Probable space group: P M M N
;
_chemical_formula_sum "Si O2"
_cell_formula_units_Z 32
_cell_length_a 8.746384
_cell_length_b 15.530942
_cell_length_c 12.264947
_cell_angle_alpha 90.000000
_cell_angle_beta 90.000000
_cell_angle_gamma 90.000000
_cell_volume 1666.065281
_symmetry_space_group_name_H-M "P M M N"
_symmetry_group_IT_number 59
_space_group.IT_coordinate_system_code '2'
_symmetry_cell_setting 'orthorhombic'
loop_
_space_group_symop_operation_xyz
x,y,z
1/2-x,1/2-y,z
1/2+x,-y,-z
-x,1/2+y,-z
-x,-y,-z
1/2+x,1/2+y,-z
1/2-x,y,z
x,1/2-y,z
loop_
_atom_site_type_symbol
_atom_site_label
_atom_site_fract_x
_atom_site_fract_y
_atom_site_fract_z
Si Si1 0.424870 0.647549 0.248004
Si Si2 0.934464 0.750000 0.854013
Si Si3 0.931621 0.592397 0.471640
Si Si4 0.567105 0.250000 0.389228
Si Si5 0.433798 0.404887 0.982108
O O1 0.250000 0.614426 0.252012
O O2 0.419709 0.750000 0.261947
O O3 0.522423 0.610983 0.347148
O O4 0.499773 0.627373 0.132396
O O5 0.750000 0.750000 0.840851
O O6 0.011034 0.750000 0.735741
O O7 0.975784 0.664837 0.924398
O O8 0.750000 0.593268 0.485200
O O9 0.000000 0.500000 0.500000
O O10 0.003899 0.666322 0.547681
O O11 0.750000 0.250000 0.394069
O O12 0.250000 0.408162 0.977902
O O13 0.500000 0.500000 0.000000
#
# Coordination Sequence:
#
# PCOD9452949 Si02
#       5
#     8   4   8   4   8
#     4  11  23  42  69  98 132 169 217 271 327 391
#     4  10  24  45  66  91 130 177 219 267 325 390
#     4  12  26  45  70  98 133 174 221 272 330 392
#     4  12  26  45  68  97 134 175 221 271 329 394
#     4  11  24  43  67  96 132 172 221 270 327 389
#
# _framework density 19.206931999999998
#
# number of rings (size 3 to 8) (size 9 to 14) (size 15 to 20)
#    0.000    0.750    2.500    4.875    3.500    3.000 
#    0.000    0.000    0.000    0.000    0.000    0.000 
#    0.000    0.000    0.000    0.000    0.000    0.000 
#
# Total GULP energy -179047.679658 kJ/mol
# GULP energy per Si atom -5595.239989 kJ/mol
# Density = 1.916322 g / cm^3
# Si number density = 19.206932 Si / 1000 Ang^3
#
#
#
# Elastic Constant Matrix: (Units=GPa)
#
#
# Indices 1 2 3 4 5 6 
#
# 1 147.8681 59.4056 64.4287 0.0000 0.0000 0.0000
# 2 59.4056 125.7882 43.7589 0.0000 0.0000 0.0000
# 3 64.4287 43.7589 132.1081 0.0000 0.0000 0.0000
# 4 0.0000 0.0000 0.0000 26.1076 0.0000 0.0000
# 5 0.0000 0.0000 0.0000 0.0000 36.1671 0.0000
# 6 0.0000 0.0000 0.0000 0.0000 0.0000 34.9079
#
#
#
# Elastic Compliance Matrix: (Units=1/GPa)
#
#
# Indices 1 2 3 4 5 6 
#
# 1 0.009669 -0.003307 -0.003620 0.000000 0.000000 0.000000
# 2 -0.003307 0.010116 -0.001738 0.000000 0.000000 0.000000
# 3 -0.003620 -0.001738 0.009911 0.000000 0.000000 0.000000
# 4 0.000000 0.000000 0.000000 0.038303 0.000000 0.000000
# 5 0.000000 0.000000 0.000000 0.000000 0.027649 0.000000
# 6 0.000000 0.000000 0.000000 0.000000 0.000000 0.028647
#
#
# Mechanical properties :
#
#
# Convention : Reuss Voigt Hill
#
# Bulk Modulus (GPa) = 80.86914 82.32787 81.59851
# Shear Modulus (GPa) = 34.30609 35.31459 34.81034
#
# Velocity S-wave (km/s) = 4.23085 4.29259 4.26183
# Velocity P-wave (km/s) = 8.12787 8.21736 8.17274
#
# Compressibility (1/GPa) = 0.01236566
#
# Stress axis : x y z
#
# Youngs Moduli (GPa) = 103.42761 98.85099 100.90053
#
# Poissons Ratio (x) = 0.32688 0.36526
# Poissons Ratio (y) = 0.34202 0.17538
# Poissons Ratio (z) = 0.37441 0.17181
#
# Static dielectric constant tensor:
#      x y z
#    x 1.650940 0.000000 0.000000 
#    y 0.000000 1.614930 0.000000 
#    z 0.000000 0.000000 1.649330 
# 
# From -- ./inp_files/13628.got.cif
#   From: 2010.05.17/outbox.cif.g08.bks.cpg/sg59_7_cif.got.tgz:13628.got - 2010.06.03 14:40:33.
