data_PCOD9452986
_publ_section_title
;
Structure prediction by ZEFSAII (Michael W. Deem and Ramdas Pophale) SiO2 
 PCOD9452986
Probable space group: P M M N
;
_chemical_formula_sum "Si O2"
_cell_formula_units_Z 48
_cell_length_a 20.016049
_cell_length_b 9.054571
_cell_length_c 15.679724
_cell_angle_alpha 90.000000
_cell_angle_beta 90.000000
_cell_angle_gamma 90.000000
_cell_volume 2841.742012
_symmetry_space_group_name_H-M "P M M N"
_symmetry_group_IT_number 59
_space_group.IT_coordinate_system_code '2'
_symmetry_cell_setting 'orthorhombic'
loop_
_space_group_symop_operation_xyz
x,y,z
1/2-x,1/2-y,z
1/2+x,-y,-z
-x,1/2+y,-z
-x,-y,-z
1/2+x,1/2+y,-z
1/2-x,y,z
x,1/2-y,z
loop_
_atom_site_type_symbol
_atom_site_label
_atom_site_fract_x
_atom_site_fract_y
_atom_site_fract_z
Si Si1 0.088795 0.080758 0.074034
Si Si2 0.828550 0.923098 0.595835
Si Si3 0.396505 0.926066 0.247551
Si Si4 0.573214 0.080326 0.094779
Si Si5 0.539857 0.426582 0.277073
Si Si6 0.568967 0.425984 0.469462
O O1 0.109999 0.250000 0.083409
O O2 0.007715 0.077143 0.083646
O O3 0.115904 0.982853 0.151518
O O4 0.103231 0.018219 0.980160
O O5 0.750000 0.934747 0.578951
O O6 0.847094 0.750000 0.600818
O O7 0.846821 0.000920 0.684861
O O8 0.871826 0.001509 0.522962
O O9 0.394569 0.750000 0.251714
O O10 0.470374 0.985083 0.273252
O O11 0.594559 0.250000 0.083731
O O12 0.582562 0.033828 0.193042
O O13 0.524720 0.250000 0.269805
O O14 0.574136 0.450700 0.367867
O O15 0.500000 0.500000 0.500000
O O16 0.566456 0.250000 0.484810
#
# Coordination Sequence:
#
# PCOD9452986 Si02
#       6
#     8   8   8   8   8   8
#     4   9  16  26  41  63  96 132 163 201 248 300
#     4  11  24  40  55  73 103 140 177 221 270 319
#     4  11  20  30  49  73  98 132 171 212 255 311
#     4   8  14  25  40  63  95 130 165 202 244 295
#     4   9  18  31  48  71 103 136 168 209 260 311
#     4  11  21  34  55  80 106 138 176 220 266 318
#
# _framework density 16.891048000000001
#
# number of rings (size 3 to 8) (size 9 to 14) (size 15 to 20)
#    0.000    2.167    1.667    4.000    0.000    6.000 
#    0.000    0.000    0.000    0.000    0.000    1.167 
#    0.000    6.667    0.000    0.000    0.000    0.000 
#
# Total GULP energy -267693.828345 kJ/mol
# GULP energy per Si atom -5576.954757 kJ/mol
# Density = 1.685260 g / cm^3
# Si number density = 16.891048 Si / 1000 Ang^3
#
#
#
# Elastic Constant Matrix: (Units=GPa)
#
#
# Indices 1 2 3 4 5 6 
#
# 1 35.8769 37.9927 37.5989 0.0000 0.0000 0.0000
# 2 37.9927 118.0850 78.1405 0.0000 0.0000 0.0000
# 3 37.5989 78.1405 157.9716 0.0000 0.0000 0.0000
# 4 0.0000 0.0000 0.0000 32.5407 0.0000 0.0000
# 5 0.0000 0.0000 0.0000 0.0000 13.5869 0.0000
# 6 0.0000 0.0000 0.0000 0.0000 0.0000 16.6802
#
#
#
# Elastic Compliance Matrix: (Units=1/GPa)
#
#
# Indices 1 2 3 4 5 6 
#
# 1 0.045060 -0.011002 -0.005283 0.000000 0.000000 0.000000
# 2 -0.011002 0.015275 -0.004937 0.000000 0.000000 0.000000
# 3 -0.005283 -0.004937 0.010030 0.000000 0.000000 0.000000
# 4 0.000000 0.000000 0.000000 0.030731 0.000000 0.000000
# 5 0.000000 0.000000 0.000000 0.000000 0.073600 0.000000
# 6 0.000000 0.000000 0.000000 0.000000 0.000000 0.059951
#
#
# Mechanical properties :
#
#
# Convention : Reuss Voigt Hill
#
# Bulk Modulus (GPa) = 35.81488 68.82198 52.31843
# Shear Modulus (GPa) = 17.45816 23.10832 20.28324
#
# Velocity S-wave (km/s) = 3.21841 3.70277 3.46906
# Velocity P-wave (km/s) = 5.92118 7.68855 6.86200
#
# Compressibility (1/GPa) = 0.02792136
#
# Stress axis : x y z
#
# Youngs Moduli (GPa) = 22.19260 65.46432 99.70201
#
# Poissons Ratio (x) = 0.72023 0.52669
# Poissons Ratio (y) = 0.24416 0.49227
# Poissons Ratio (z) = 0.11724 0.32323
#
# Static dielectric constant tensor:
#      x y z
#    x 1.538690 0.000000 0.000000 
#    y 0.000000 1.569390 0.000000 
#    z 0.000000 0.000000 1.603530 
# 
# From -- ./inp_files/24076.got.cif
#   From: 2010.05.17/outbox.cif.g08.bks.cpg/sg59_13_cif.got.tgz:24076.got - 2010.06.03 14:40:33.
