data_PCOD9452001
_publ_section_title
;
Structure prediction by ZEFSAII (Michael W. Deem and Ramdas Pophale) SiO2 
 PCOD9452001
Probable space group: P M M N
;
_chemical_formula_sum "Si O2"
_cell_formula_units_Z 56
_cell_length_a 22.272011
_cell_length_b 15.239809
_cell_length_c 7.662846
_cell_angle_alpha 90.000000
_cell_angle_beta 90.000000
_cell_angle_gamma 90.000000
_cell_volume 2600.932336
_symmetry_space_group_name_H-M "P M M N"
_symmetry_group_IT_number 59
_space_group.IT_coordinate_system_code '2'
_symmetry_cell_setting 'orthorhombic'
loop_
_space_group_symop_operation_xyz
x,y,z
1/2-x,1/2-y,z
1/2+x,-y,-z
-x,1/2+y,-z
-x,-y,-z
1/2+x,1/2+y,-z
1/2-x,y,z
x,1/2-y,z
loop_
_atom_site_type_symbol
_atom_site_label
_atom_site_fract_x
_atom_site_fract_y
_atom_site_fract_z
Si Si1 0.680195 0.656162 0.819272
Si Si2 0.317812 0.531160 0.032098
Si Si3 0.020750 0.148990 0.662687
Si Si4 0.930023 0.144409 0.377818
Si Si5 0.687497 0.457700 0.378520
Si Si6 0.952798 0.418541 0.984307
Si Si7 0.648018 0.851888 0.436255
O O1 0.750000 0.657584 0.756995
O O2 0.668367 0.750000 0.907090
O O3 0.675432 0.573283 0.941779
O O4 0.639725 0.649832 0.646615
O O5 0.250000 0.553504 0.106550
O O6 0.384314 0.565091 0.085890
O O7 0.313666 0.554569 0.829545
O O8 0.029085 0.250000 0.615196
O O9 0.982764 0.110957 0.503897
O O10 0.985539 0.140890 0.841669
O O11 0.088666 0.117533 0.667129
O O12 0.922434 0.250000 0.392981
O O13 0.870586 0.093734 0.441294
O O14 0.945246 0.121011 0.177720
O O15 0.750000 0.421393 0.450656
O O16 0.687704 0.562080 0.409817
O O17 0.000000 0.500000 0.000000
O O18 0.665921 0.750000 0.391080
#
# Coordination Sequence:
#
# PCOD9452001 Si02
#       7
#     8   8   8   8   8   8   8
#     4   9  18  33  53  78 112 154 194 233 288 364
#     4   9  20  37  54  80 114 150 196 245 303 366
#     4  10  22  40  60  85 120 159 202 249 301 372
#     4  10  23  42  62  86 120 163 207 255 311 363
#     4  10  21  37  59  86 115 152 200 252 306 365
#     4  11  23  38  62  93 120 158 202 260 319 373
#     4  10  21  36  55  85 121 156 193 240 305 371
#
# _framework density 21.530743000000001
#
# number of rings (size 3 to 8) (size 9 to 14) (size 15 to 20)
#    0.000    2.143    0.000    2.571    4.000    2.857 
#    0.000    2.143    0.000    2.143    0.000    0.000 
#    0.000    0.000    0.000    0.000    0.000    0.000 
#
# Total GULP energy -311796.692810 kJ/mol
# GULP energy per Si atom -5567.798086 kJ/mol
# Density = 2.148174 g / cm^3
# Si number density = 21.530743 Si / 1000 Ang^3
#
#
#
# Elastic Constant Matrix: (Units=GPa)
#
#
# Indices 1 2 3 4 5 6 
#
# 1 101.2182 27.5578 5.2138 0.0000 0.0000 0.0000
# 2 27.5578 48.0681 -9.2277 0.0000 0.0000 0.0000
# 3 5.2138 -9.2277 38.7209 0.0000 0.0000 0.0000
# 4 0.0000 0.0000 0.0000 36.9440 0.0000 0.0000
# 5 0.0000 0.0000 0.0000 0.0000 20.3123 0.0000
# 6 0.0000 0.0000 0.0000 0.0000 0.0000 -10.3463
#
#
#
# Elastic Compliance Matrix: (Units=1/GPa)
#
#
# Indices 1 2 3 4 5 6 
#
# 1 0.012131 -0.007617 -0.003449 0.000000 0.000000 0.000000
# 2 -0.007617 0.026584 0.007361 0.000000 0.000000 0.000000
# 3 -0.003449 0.007361 0.028044 0.000000 0.000000 0.000000
# 4 0.000000 0.000000 0.000000 0.027068 0.000000 0.000000
# 5 0.000000 0.000000 0.000000 0.000000 0.049231 0.000000
# 6 0.000000 0.000000 0.000000 0.000000 0.000000 -0.096653
#
#
# Mechanical properties :
#
#
# Convention : Reuss Voigt Hill
#
# Bulk Modulus (GPa) = 16.84925 26.12167 21.48546
# Shear Modulus (GPa) = 67.93666 20.34622 44.14144
#
# Velocity S-wave (km/s) = 5.62333 3.07739 4.53278
# Velocity P-wave (km/s) = 7.07143 4.97853 6.11518
#
# Compressibility (1/GPa) = 0.05934983
#
# Stress axis : x y z
#
# Youngs Moduli (GPa) = 82.43290 37.61701 35.65775
#
# Poissons Ratio (x) = 0.28652 0.12297
# Poissons Ratio (y) = 0.62788 -0.26247
# Poissons Ratio (z) = 0.28428 -0.27689
#
# Static dielectric constant tensor:
#      x y z
#    x 1.873370 0.000000 0.000000 
#    y 0.000000 1.787920 0.000000 
#    z 0.000000 0.000000 1.759410 
# 
# From -- ./inp_files/11453.got.cif
#   From: 2010.05.17/outbox.cif.g08.bks.cpg/sg59_6_cif.got.tgz:11453.got - 2010.06.03 14:40:33.
