data_PCOD9452959
_publ_section_title
;
Structure prediction by ZEFSAII (Michael W. Deem and Ramdas Pophale) SiO2 
 PCOD9452959
Probable space group: P M M N
;
_chemical_formula_sum "Si O2"
_cell_formula_units_Z 26
_cell_length_a 8.067739
_cell_length_b 10.236141
_cell_length_c 15.608661
_cell_angle_alpha 90.000000
_cell_angle_beta 90.000000
_cell_angle_gamma 90.000000
_cell_volume 1289.002465
_symmetry_space_group_name_H-M "P M M N"
_symmetry_group_IT_number 59
_space_group.IT_coordinate_system_code '2'
_symmetry_cell_setting 'orthorhombic'
loop_
_space_group_symop_operation_xyz
x,y,z
1/2-x,1/2-y,z
1/2+x,-y,-z
-x,1/2+y,-z
-x,-y,-z
1/2+x,1/2+y,-z
1/2-x,y,z
x,1/2-y,z
loop_
_atom_site_type_symbol
_atom_site_label
_atom_site_fract_x
_atom_site_fract_y
_atom_site_fract_z
Si Si1 0.551820 0.897376 0.428300
Si Si2 0.564534 0.750000 0.113462
Si Si3 0.250000 0.750000 0.982491
Si Si4 0.567926 0.250000 0.197080
Si Si5 0.559271 0.034088 0.762284
O O1 0.750000 0.899944 0.419982
O O2 0.500717 0.750000 0.452259
O O3 0.500000 0.000000 0.500000
O O4 0.477836 0.931469 0.335830
O O5 0.750000 0.750000 0.072783
O O6 0.402355 0.750000 0.053225
O O7 0.549568 0.623194 0.174607
O O8 0.109207 0.750000 0.903903
O O9 0.750000 0.250000 0.240884
O O10 0.476096 0.382147 0.221786
O O11 0.750000 0.063904 0.781012
#
# Coordination Sequence:
#
# PCOD9452959 Si02
#       5
#     8   4   2   4   8
#     4  11  25  44  70 104 142 187 239 289 349 423
#     4  12  24  46  75 103 141 190 237 302 357 431
#     4  10  26  50  70 108 140 182 250 294 368 430
#     4  10  25  46  66 101 140 183 233 294 361 421
#     4  12  24  45  73 103 142 190 239 292 361 427
#
# _framework density 20.170635999999998
#
# number of rings (size 3 to 8) (size 9 to 14) (size 15 to 20)
#    0.462    0.308    3.077    4.154    2.154    4.308 
#    0.000    0.000    0.000    0.000    0.000    0.000 
#    0.000    0.000    0.000    0.000    0.000    0.000 
#
# Total GULP energy -144781.248812 kJ/mol
# GULP energy per Si atom -5568.509570 kJ/mol
# Density = 2.012473 g / cm^3
# Si number density = 20.170636 Si / 1000 Ang^3
#
#
#
# Elastic Constant Matrix: (Units=GPa)
#
#
# Indices 1 2 3 4 5 6 
#
# 1 127.9013 26.8050 29.4895 0.0000 0.0000 0.0000
# 2 26.8050 153.5526 46.3207 0.0000 0.0000 0.0000
# 3 29.4895 46.3207 76.6105 0.0000 0.0000 0.0000
# 4 0.0000 0.0000 0.0000 16.2330 0.0000 0.0000
# 5 0.0000 0.0000 0.0000 0.0000 24.9944 0.0000
# 6 0.0000 0.0000 0.0000 0.0000 0.0000 43.3136
#
#
#
# Elastic Compliance Matrix: (Units=1/GPa)
#
#
# Indices 1 2 3 4 5 6 
#
# 1 0.008628 -0.000617 -0.002948 0.000000 0.000000 0.000000
# 2 -0.000617 0.008009 -0.004605 0.000000 0.000000 0.000000
# 3 -0.002948 -0.004605 0.016972 0.000000 0.000000 0.000000
# 4 0.000000 0.000000 0.000000 0.061603 0.000000 0.000000
# 5 0.000000 0.000000 0.000000 0.000000 0.040009 0.000000
# 6 0.000000 0.000000 0.000000 0.000000 0.000000 0.023087
#
#
# Mechanical properties :
#
#
# Convention : Reuss Voigt Hill
#
# Bulk Modulus (GPa) = 57.90726 62.58832 60.24779
# Shear Modulus (GPa) = 27.71546 33.93815 30.82680
#
# Velocity S-wave (km/s) = 3.71084 4.10634 3.91359
# Velocity P-wave (km/s) = 6.86524 7.31980 7.09616
#
# Compressibility (1/GPa) = 0.01726899
#
# Stress axis : x y z
#
# Youngs Moduli (GPa) = 115.90839 124.85484 58.91969
#
# Poissons Ratio (x) = 0.07700 0.17370
# Poissons Ratio (y) = 0.07149 0.27134
# Poissons Ratio (z) = 0.34171 0.57498
#
# Static dielectric constant tensor:
#      x y z
#    x 1.742570 0.000000 0.000000 
#    y 0.000000 1.730320 0.000000 
#    z 0.000000 0.000000 1.670850 
# 
# From -- ./inp_files/25177.got.cif
#   From: 2010.05.17/outbox.cif.g08.bks.cpg/sg59_13_cif.got.tgz:25177.got - 2010.06.03 14:40:33.
