data_PCOD9452773
_publ_section_title
;
Structure prediction by ZEFSAII (Michael W. Deem and Ramdas Pophale) SiO2 
 PCOD9452773
Probable space group: P M M N
;
_chemical_formula_sum "Si O2"
_cell_formula_units_Z 56
_cell_length_a 8.370738
_cell_length_b 22.329156
_cell_length_c 15.154134
_cell_angle_alpha 90.000000
_cell_angle_beta 90.000000
_cell_angle_gamma 90.000000
_cell_volume 2832.482139
_symmetry_space_group_name_H-M "P M M N"
_symmetry_group_IT_number 59
_space_group.IT_coordinate_system_code '2'
_symmetry_cell_setting 'orthorhombic'
loop_
_space_group_symop_operation_xyz
x,y,z
1/2-x,1/2-y,z
1/2+x,-y,-z
-x,1/2+y,-z
-x,-y,-z
1/2+x,1/2+y,-z
1/2-x,y,z
x,1/2-y,z
loop_
_atom_site_type_symbol
_atom_site_label
_atom_site_fract_x
_atom_site_fract_y
_atom_site_fract_z
Si Si1 0.058434 0.380123 0.960865
Si Si2 0.558948 0.180042 0.454092
Si Si3 0.940320 0.137616 0.640702
Si Si4 0.441060 0.317347 0.259469
Si Si5 0.059056 0.054748 0.784413
Si Si6 0.935817 0.750000 0.250057
Si Si7 0.064634 0.750000 0.055170
Si Si8 0.055758 0.070828 0.143426
O O1 0.250000 0.383023 0.958260
O O2 0.000404 0.403321 0.865873
O O3 0.011713 0.311617 0.978138
O O4 0.004334 0.421704 0.041657
O O5 0.750000 0.174777 0.443067
O O6 0.524247 0.250000 0.475259
O O7 0.509557 0.140997 0.538395
O O8 0.479641 0.166411 0.360671
O O9 0.750000 0.148246 0.643219
O O10 0.982304 0.078007 0.694118
O O11 0.024780 0.191652 0.692794
O O12 0.250000 0.314474 0.249515
O O13 0.505482 0.250000 0.242958
O O14 0.497671 0.369289 0.194654
O O15 0.250000 0.060750 0.777458
O O16 0.013659 0.987741 0.810915
O O17 0.750000 0.750000 0.223961
O O18 0.037316 0.750000 0.160791
O O19 0.250000 0.750000 0.034197
O O20 0.250000 0.067609 0.146112
#
# Coordination Sequence:
#
# PCOD9452773 Si02
#       8
#     8   8   8   8   8   4   4   8
#     4  10  22  39  60  84 116 155 194 240 291 340
#     4   9  18  34  56  84 116 149 185 231 293 346
#     4  11  21  36  58  85 118 154 193 233 284 347
#     4   9  19  36  59  87 113 143 190 241 289 343
#     4  11  23  38  57  85 118 154 196 239 285 343
#     4  12  22  34  54  83 120 155 190 235 288 338
#     4  12  24  36  56  87 120 155 192 237 288 338
#     4  10  22  40  62  83 111 155 198 237 289 345
#
# _framework density 19.770644999999998
#
# number of rings (size 3 to 8) (size 9 to 14) (size 15 to 20)
#    0.000    1.714    2.143    2.571    1.000    2.857 
#    0.000    0.714    0.000    0.000    0.000    0.000 
#    0.000    0.000    0.000    0.000    0.000    0.000 
#
# Total GULP energy -312835.558895 kJ/mol
# GULP energy per Si atom -5586.349266 kJ/mol
# Density = 1.972565 g / cm^3
# Si number density = 19.770645 Si / 1000 Ang^3
#
#
#
# Elastic Constant Matrix: (Units=GPa)
#
#
# Indices 1 2 3 4 5 6 
#
# 1 10.7132 1.9160 4.6617 0.0000 0.0000 0.0000
# 2 1.9160 72.9007 20.7753 0.0000 0.0000 0.0000
# 3 4.6617 20.7753 52.8928 0.0000 0.0000 0.0000
# 4 0.0000 0.0000 0.0000 23.3641 0.0000 0.0000
# 5 0.0000 0.0000 0.0000 0.0000 18.0064 0.0000
# 6 0.0000 0.0000 0.0000 0.0000 0.0000 25.9101
#
#
#
# Elastic Compliance Matrix: (Units=1/GPa)
#
#
# Indices 1 2 3 4 5 6 
#
# 1 0.097066 -0.000127 -0.008505 0.000000 0.000000 0.000000
# 2 -0.000127 0.015446 -0.006056 0.000000 0.000000 0.000000
# 3 -0.008505 -0.006056 0.022034 0.000000 0.000000 0.000000
# 4 0.000000 0.000000 0.000000 0.042801 0.000000 0.000000
# 5 0.000000 0.000000 0.000000 0.000000 0.055536 0.000000
# 6 0.000000 0.000000 0.000000 0.000000 0.000000 0.038595
#
#
# Mechanical properties :
#
#
# Convention : Reuss Voigt Hill
#
# Bulk Modulus (GPa) = 9.50833 21.24585 15.37709
# Shear Modulus (GPa) = 14.88486 20.73304 17.80895
#
# Velocity S-wave (km/s) = 2.74684 3.24184 3.00455
# Velocity P-wave (km/s) = 3.85745 4.97817 4.45321
#
# Compressibility (1/GPa) = 0.10517095
#
# Stress axis : x y z
#
# Youngs Moduli (GPa) = 10.30223 64.73985 45.38372
#
# Poissons Ratio (x) = 0.00825 0.38598
# Poissons Ratio (y) = 0.00131 0.27484
# Poissons Ratio (z) = 0.08762 0.39205
#
# Static dielectric constant tensor:
#      x y z
#    x 1.677300 0.000000 0.000000 
#    y 0.000000 1.692710 0.000000 
#    z 0.000000 0.000000 1.692190 
# 
# From -- ./inp_files/21151.got.cif
#   From: 2010.05.17/outbox.cif.g08.bks.cpg/sg59_11_cif.got.tgz:21151.got - 2010.06.03 14:40:33.
