data_PCOD9452090
_publ_section_title
;
Structure prediction by ZEFSAII (Michael W. Deem and Ramdas Pophale) SiO2 
 PCOD9452090
Probable space group: P M M N
;
_chemical_formula_sum "Si O2"
_cell_formula_units_Z 64
_cell_length_a 24.883234
_cell_length_b 8.419437
_cell_length_c 15.732207
_cell_angle_alpha 90.000000
_cell_angle_beta 90.000000
_cell_angle_gamma 90.000000
_cell_volume 3295.941747
_symmetry_space_group_name_H-M "P M M N"
_symmetry_group_IT_number 59
_space_group.IT_coordinate_system_code '2'
_symmetry_cell_setting 'orthorhombic'
loop_
_space_group_symop_operation_xyz
x,y,z
1/2-x,1/2-y,z
1/2+x,-y,-z
-x,1/2+y,-z
-x,-y,-z
1/2+x,1/2+y,-z
1/2-x,y,z
x,1/2-y,z
loop_
_atom_site_type_symbol
_atom_site_label
_atom_site_fract_x
_atom_site_fract_y
_atom_site_fract_z
Si Si1 0.845156 0.566428 0.401958
Si Si2 0.044290 0.930375 0.560371
Si Si3 0.387447 0.435248 0.279594
Si Si4 0.879424 0.560702 0.215167
Si Si5 0.690630 0.061149 0.576848
Si Si6 0.685833 0.438688 0.867389
Si Si7 0.311266 0.558802 0.941701
Si Si8 0.995941 0.937125 0.272426
O O1 0.828255 0.750000 0.398424
O O2 0.905514 0.547328 0.436801
O O3 0.852360 0.502720 0.304886
O O4 0.812924 0.478754 0.476294
O O5 0.060479 0.750000 0.539382
O O6 0.000000 0.000000 0.500000
O O7 0.017668 0.943078 0.651987
O O8 0.399983 0.250000 0.286866
O O9 0.357860 0.490137 0.366843
O O10 0.345094 0.467870 0.204793
O O11 0.441932 0.528369 0.253622
O O12 0.872298 0.750000 0.217319
O O13 0.849543 0.493383 0.133880
O O14 0.944058 0.533965 0.212104
O O15 0.750000 0.006293 0.607279
O O16 0.687907 0.250000 0.587467
O O17 0.750000 0.456418 0.859267
O O18 0.674063 0.250000 0.858100
O O19 0.671366 0.490879 0.963416
O O20 0.250000 0.501984 0.926962
O O21 0.309534 0.750000 0.943793
O O22 0.991732 0.750000 0.297516
#
# Coordination Sequence:
#
# PCOD9452090 Si02
#       8
#     8   8   8   8   8   8   8   8
#     4  10  21  37  54  76 108 145 184 225 271 322
#     4  11  20  32  51  75 103 136 178 226 272 319
#     4  12  24  37  57  85 113 145 187 234 286 338
#     4   9  20  37  58  84 114 149 186 229 279 328
#     4  11  24  40  57  79 110 150 192 234 284 340
#     4   9  19  38  61  84 112 147 186 228 278 335
#     4   9  19  36  60  88 115 145 182 225 275 333
#     4  10  21  38  56  77 109 148 189 230 277 333
#
# _framework density 19.417816999999999
#
# number of rings (size 3 to 8) (size 9 to 14) (size 15 to 20)
#    0.000    1.875    0.000    6.000    0.000    7.000 
#    0.000    4.375    0.000    0.000    0.000    0.000 
#    0.000    0.000    0.000    0.000    0.000    0.000 
#
# Total GULP energy -356785.279738 kJ/mol
# GULP energy per Si atom -5574.769996 kJ/mol
# Density = 1.937362 g / cm^3
# Si number density = 19.417817 Si / 1000 Ang^3
#
#
#
# Elastic Constant Matrix: (Units=GPa)
#
#
# Indices 1 2 3 4 5 6 
#
# 1 66.5318 14.6605 42.1390 0.0000 0.0000 0.0000
# 2 14.6605 47.4698 13.5576 0.0000 0.0000 0.0000
# 3 42.1390 13.5576 85.1367 0.0000 0.0000 0.0000
# 4 0.0000 0.0000 0.0000 30.6906 0.0000 0.0000
# 5 0.0000 0.0000 0.0000 0.0000 30.4176 0.0000
# 6 0.0000 0.0000 0.0000 0.0000 0.0000 26.0312
#
#
#
# Elastic Compliance Matrix: (Units=1/GPa)
#
#
# Indices 1 2 3 4 5 6 
#
# 1 0.022584 -0.003962 -0.010547 0.000000 0.000000 0.000000
# 2 -0.003962 0.022765 -0.001664 0.000000 0.000000 0.000000
# 3 -0.010547 -0.001664 0.017231 0.000000 0.000000 0.000000
# 4 0.000000 0.000000 0.000000 0.032583 0.000000 0.000000
# 5 0.000000 0.000000 0.000000 0.000000 0.032876 0.000000
# 6 0.000000 0.000000 0.000000 0.000000 0.000000 0.038415
#
#
# Mechanical properties :
#
#
# Convention : Reuss Voigt Hill
#
# Bulk Modulus (GPa) = 33.07642 37.76139 35.41890
# Shear Modulus (GPa) = 23.93739 26.01330 24.97534
#
# Velocity S-wave (km/s) = 3.51487 3.66411 3.59026
# Velocity P-wave (km/s) = 5.79167 6.11473 5.95539
#
# Compressibility (1/GPa) = 0.03023302
#
# Stress axis : x y z
#
# Youngs Moduli (GPa) = 44.27998 43.92705 58.03477
#
# Poissons Ratio (x) = 0.17406 0.61209
# Poissons Ratio (y) = 0.17546 0.09657
# Poissons Ratio (z) = 0.46702 0.07309
#
# Static dielectric constant tensor:
#      x y z
#    x 1.689680 0.000000 0.000000 
#    y 0.000000 1.665320 0.000000 
#    z 0.000000 0.000000 1.683440 
# 
# From -- ./inp_files/24764.got.cif
#   From: 2010.05.17/outbox.cif.g08.bks.cpg/sg59_13_cif.got.tgz:24764.got - 2010.06.03 14:40:33.
