data_PCOD9452194
_publ_section_title
;
Structure prediction by ZEFSAII (Michael W. Deem and Ramdas Pophale) SiO2 
 PCOD9452194
Probable space group: P M M N
;
_chemical_formula_sum "Si O2"
_cell_formula_units_Z 64
_cell_length_a 26.310624
_cell_length_b 8.125840
_cell_length_c 14.824583
_cell_angle_alpha 90.000000
_cell_angle_beta 90.000000
_cell_angle_gamma 90.000000
_cell_volume 3169.435375
_symmetry_space_group_name_H-M "P M M N"
_symmetry_group_IT_number 59
_space_group.IT_coordinate_system_code '2'
_symmetry_cell_setting 'orthorhombic'
loop_
_space_group_symop_operation_xyz
x,y,z
1/2-x,1/2-y,z
1/2+x,-y,-z
-x,1/2+y,-z
-x,-y,-z
1/2+x,1/2+y,-z
1/2-x,y,z
x,1/2-y,z
loop_
_atom_site_type_symbol
_atom_site_label
_atom_site_fract_x
_atom_site_fract_y
_atom_site_fract_z
Si Si1 0.691707 0.948372 0.912273
Si Si2 0.902960 0.551176 0.383161
Si Si3 0.635881 0.447533 0.090083
Si Si4 0.808097 0.548919 0.707985
Si Si5 0.692821 0.051103 0.267376
Si Si6 0.401106 0.447790 0.411503
Si Si7 0.494259 0.553871 0.287359
Si Si8 0.979004 0.053350 0.096501
O O1 0.750000 0.001314 0.929877
O O2 0.690965 0.750000 0.912802
O O3 0.678343 0.001558 0.810488
O O4 0.655780 0.008876 0.991346
O O5 0.904912 0.750000 0.383477
O O6 0.849994 0.500499 0.338292
O O7 0.906958 0.491315 0.486233
O O8 0.951338 0.491201 0.325216
O O9 0.634196 0.250000 0.096727
O O10 0.673428 0.506976 0.168926
O O11 0.578856 0.510765 0.105750
O O12 0.750000 0.497756 0.689207
O O13 0.808223 0.750000 0.707192
O O14 0.849855 0.490686 0.637132
O O15 0.750000 0.991953 0.286394
O O16 0.694165 0.250000 0.265893
O O17 0.397245 0.250000 0.416442
O O18 0.449091 0.488872 0.349483
O O19 0.494225 0.750000 0.293880
O O20 0.489517 0.505992 0.182815
O O21 0.978149 0.250000 0.099036
O O22 0.000000 0.000000 0.000000
#
# Coordination Sequence:
#
# PCOD9452194 Si02
#       8
#     8   8   8   8   8   8   8   8
#     4   9  18  32  52  79 109 144 185 227 274 332
#     4  10  22  39  59  86 118 152 197 249 299 350
#     4  10  21  37  57  81 112 149 189 235 288 346
#     4   8  16  33  55  81 113 146 183 230 284 341
#     4  10  21  38  60  85 116 156 199 244 299 360
#     4  10  21  37  61  89 113 151 200 244 295 351
#     4  11  23  40  60  86 120 156 194 243 294 350
#     4  11  24  41  61  87 118 155 192 237 293 351
#
# _framework density 20.192871
#
# number of rings (size 3 to 8) (size 9 to 14) (size 15 to 20)
#    0.000    2.125    1.250    2.250    1.750    4.000 
#    0.000    1.250    0.000    1.125    0.000    0.000 
#    0.000    0.000    0.000    0.000    0.000    0.000 
#
# Total GULP energy -357435.071758 kJ/mol
# GULP energy per Si atom -5584.922996 kJ/mol
# Density = 2.014691 g / cm^3
# Si number density = 20.192871 Si / 1000 Ang^3
#
#
#
# Elastic Constant Matrix: (Units=GPa)
#
#
# Indices 1 2 3 4 5 6 
#
# 1 109.9853 3.3883 67.3849 0.0000 0.0000 0.0000
# 2 3.3883 6.1679 4.2087 0.0000 0.0000 0.0000
# 3 67.3849 4.2087 148.7076 0.0000 0.0000 0.0000
# 4 0.0000 0.0000 0.0000 18.9716 0.0000 0.0000
# 5 0.0000 0.0000 0.0000 0.0000 6.1955 0.0000
# 6 0.0000 0.0000 0.0000 0.0000 0.0000 22.8647
#
#
#
# Elastic Compliance Matrix: (Units=1/GPa)
#
#
# Indices 1 2 3 4 5 6 
#
# 1 0.012644 -0.003096 -0.005642 0.000000 0.000000 0.000000
# 2 -0.003096 0.166081 -0.003297 0.000000 0.000000 0.000000
# 3 -0.005642 -0.003297 0.009374 0.000000 0.000000 0.000000
# 4 0.000000 0.000000 0.000000 0.052710 0.000000 0.000000
# 5 0.000000 0.000000 0.000000 0.000000 0.161407 0.000000
# 6 0.000000 0.000000 0.000000 0.000000 0.000000 0.043736
#
#
# Mechanical properties :
#
#
# Convention : Reuss Voigt Hill
#
# Bulk Modulus (GPa) = 6.09649 46.09163 26.09406
# Shear Modulus (GPa) = 9.52924 22.26495 15.89710
#
# Velocity S-wave (km/s) = 2.17471 3.32417 2.80886
# Velocity P-wave (km/s) = 3.05475 6.13259 4.84459
#
# Compressibility (1/GPa) = 0.16402892
#
# Stress axis : x y z
#
# Youngs Moduli (GPa) = 79.08798 6.02114 106.67260
#
# Poissons Ratio (x) = 0.01864 0.60184
# Poissons Ratio (y) = 0.24488 0.35174
# Poissons Ratio (z) = 0.44621 0.01985
#
# Static dielectric constant tensor:
#      x y z
#    x 1.709560 0.000000 0.000000 
#    y 0.000000 1.782890 0.000000 
#    z 0.000000 0.000000 1.686610 
# 
# From -- ./inp_files/21433.got.cif
#   From: 2010.05.17/outbox.cif.g08.bks.cpg/sg59_11_cif.got.tgz:21433.got - 2010.06.03 14:40:33.
