data_PCOD9452222
_publ_section_title
;
Structure prediction by ZEFSAII (Michael W. Deem and Ramdas Pophale) SiO2 
 PCOD9452222
Probable space group: P M M N
;
_chemical_formula_sum "Si O2"
_cell_formula_units_Z 48
_cell_length_a 25.529198
_cell_length_b 8.811359
_cell_length_c 12.006485
_cell_angle_alpha 90.000000
_cell_angle_beta 90.000000
_cell_angle_gamma 90.000000
_cell_volume 2700.821924
_symmetry_space_group_name_H-M "P M M N"
_symmetry_group_IT_number 59
_space_group.IT_coordinate_system_code '2'
_symmetry_cell_setting 'orthorhombic'
loop_
_space_group_symop_operation_xyz
x,y,z
1/2-x,1/2-y,z
1/2+x,-y,-z
-x,1/2+y,-z
-x,-y,-z
1/2+x,1/2+y,-z
1/2-x,y,z
x,1/2-y,z
loop_
_atom_site_type_symbol
_atom_site_label
_atom_site_fract_x
_atom_site_fract_y
_atom_site_fract_z
Si Si1 0.689151 0.432090 0.611103
Si Si2 0.688148 0.570080 0.370910
Si Si3 0.596892 0.069234 0.774981
Si Si4 0.994626 0.569289 0.377564
Si Si5 0.598048 0.069278 0.229355
Si Si6 0.558424 0.930684 0.001734
O O1 0.750000 0.466371 0.636433
O O2 0.684561 0.250000 0.594541
O O3 0.674930 0.512795 0.495345
O O4 0.649469 0.474518 0.709109
O O5 0.750000 0.541111 0.354442
O O6 0.678867 0.750000 0.363053
O O7 0.652585 0.483530 0.282632
O O8 0.598945 0.250000 0.799402
O O9 0.547785 0.044563 0.692506
O O10 0.586819 0.980063 0.888302
O O11 0.985613 0.750000 0.384454
O O12 0.000000 0.500000 0.500000
O O13 0.947355 0.491889 0.311120
O O14 0.595159 0.250000 0.221927
O O15 0.587843 0.996511 0.109097
O O16 0.554582 0.750000 0.010148
O O17 0.500000 0.000000 0.000000
#
# Coordination Sequence:
#
# PCOD9452222 Si02
#       6
#     8   8   8   8   8   8
#     4   9  18  35  60  89 121 156 195 238 287 346
#     4  10  21  38  61  89 121 155 194 242 295 350
#     4  10  21  37  57  83 116 155 196 239 290 348
#     4  11  22  35  55  84 120 153 191 241 293 352
#     4  12  24  39  60  85 116 154 198 243 292 351
#     4  12  24  40  61  84 113 153 197 244 297 355
#
# _framework density 17.772366999999999
#
# number of rings (size 3 to 8) (size 9 to 14) (size 15 to 20)
#    0.000    1.333    1.667    5.000    0.000    3.667 
#    0.000    0.833    0.000    3.000    0.000    0.000 
#    0.000    0.000    0.000    0.000    0.000    0.000 
#
# Total GULP energy -268373.456517 kJ/mol
# GULP energy per Si atom -5591.113677 kJ/mol
# Density = 1.773192 g / cm^3
# Si number density = 17.772367 Si / 1000 Ang^3
#
#
#
# Elastic Constant Matrix: (Units=GPa)
#
#
# Indices 1 2 3 4 5 6 
#
# 1 82.2160 66.8290 72.9042 0.0000 0.0000 0.0000
# 2 66.8290 127.1746 96.4581 0.0000 0.0000 0.0000
# 3 72.9042 96.4581 166.9921 0.0000 0.0000 0.0000
# 4 0.0000 0.0000 0.0000 37.5001 0.0000 0.0000
# 5 0.0000 0.0000 0.0000 0.0000 18.5452 0.0000
# 6 0.0000 0.0000 0.0000 0.0000 0.0000 21.7494
#
#
#
# Elastic Compliance Matrix: (Units=1/GPa)
#
#
# Indices 1 2 3 4 5 6 
#
# 1 0.023902 -0.008268 -0.005659 0.000000 0.000000 0.000000
# 2 -0.008268 0.016854 -0.006126 0.000000 0.000000 0.000000
# 3 -0.005659 -0.006126 0.011997 0.000000 0.000000 0.000000
# 4 0.000000 0.000000 0.000000 0.026667 0.000000 0.000000
# 5 0.000000 0.000000 0.000000 0.000000 0.053922 0.000000
# 6 0.000000 0.000000 0.000000 0.000000 0.000000 0.045978
#
#
# Mechanical properties :
#
#
# Convention : Reuss Voigt Hill
#
# Bulk Modulus (GPa) = 79.06620 94.30724 86.68672
# Shear Modulus (GPa) = 22.35720 24.90504 23.63112
#
# Velocity S-wave (km/s) = 3.55064 3.74750 3.65040
# Velocity P-wave (km/s) = 7.83545 8.47963 8.16390
#
# Compressibility (1/GPa) = 0.01264763
#
# Stress axis : x y z
#
# Youngs Moduli (GPa) = 41.83788 59.33295 83.35192
#
# Poissons Ratio (x) = 0.49055 0.47171
# Poissons Ratio (y) = 0.34591 0.51059
# Poissons Ratio (z) = 0.23677 0.36346
#
# Static dielectric constant tensor:
#      x y z
#    x 1.599440 0.000000 0.000000 
#    y 0.000000 1.593720 0.000000 
#    z 0.000000 0.000000 1.571720 
# 
# From -- ./inp_files/18840.got.cif
#   From: 2010.05.17/outbox.cif.g08.bks.cpg/sg59_10_cif.got.tgz:18840.got - 2010.06.03 14:40:33.
