data_PCOD9452920
_publ_section_title
;
Structure prediction by ZEFSAII (Michael W. Deem and Ramdas Pophale) SiO2 
 PCOD9452920
Probable space group: P M M N
;
_chemical_formula_sum "Si O2"
_cell_formula_units_Z 48
_cell_length_a 8.799192
_cell_length_b 19.344314
_cell_length_c 15.352978
_cell_angle_alpha 90.000000
_cell_angle_beta 90.000000
_cell_angle_gamma 90.000000
_cell_volume 2613.296910
_symmetry_space_group_name_H-M "P M M N"
_symmetry_group_IT_number 59
_space_group.IT_coordinate_system_code '2'
_symmetry_cell_setting 'orthorhombic'
loop_
_space_group_symop_operation_xyz
x,y,z
1/2-x,1/2-y,z
1/2+x,-y,-z
-x,1/2+y,-z
-x,-y,-z
1/2+x,1/2+y,-z
1/2-x,y,z
x,1/2-y,z
loop_
_atom_site_type_symbol
_atom_site_label
_atom_site_fract_x
_atom_site_fract_y
_atom_site_fract_z
Si Si1 0.931471 0.074693 0.523576
Si Si2 0.067829 0.072919 0.031972
Si Si3 0.068614 0.922623 0.778900
Si Si4 0.068297 0.331387 0.374576
Si Si5 0.567481 0.669603 0.130964
Si Si6 0.930696 0.070214 0.725953
O O1 0.750000 0.072950 0.510416
O O2 0.961963 0.088196 0.625363
O O3 0.004241 0.131054 0.460187
O O4 0.000000 0.000000 0.500000
O O5 0.250000 0.066775 0.039124
O O6 0.998409 0.090758 0.125440
O O7 0.032076 0.130069 0.958938
O O8 0.000000 0.000000 0.000000
O O9 0.250000 0.920540 0.781025
O O10 0.004881 0.868883 0.708561
O O11 0.014129 0.998992 0.750308
O O12 0.250000 0.340694 0.371236
O O13 0.034274 0.250000 0.375266
O O14 0.750000 0.664821 0.143386
O O15 0.525420 0.750000 0.127517
O O16 0.486531 0.629344 0.209019
O O17 0.750000 0.059348 0.735445
#
# Coordination Sequence:
#
# PCOD9452920 Si02
#       6
#     8   8   8   8   8   8
#     4  11  23  39  64  94 126 164 210 258 309 372
#     4  11  22  38  63  93 126 164 209 259 310 371
#     4  12  24  39  64  94 125 165 210 261 314 374
#     4  11  25  44  65  92 128 167 209 262 321 376
#     4  10  23  42  63  90 125 164 206 255 313 372
#     4  11  23  39  63  93 125 163 208 258 309 370
#
# _framework density 18.367604
#
# number of rings (size 3 to 8) (size 9 to 14) (size 15 to 20)
#    0.000    1.000    3.333    3.500    0.000    5.667 
#    0.000    5.000    0.000    0.000    0.000    0.000 
#    0.000    0.000    0.000    0.000    0.000    0.000 
#
# Total GULP energy -268497.424384 kJ/mol
# GULP energy per Si atom -5593.696341 kJ/mol
# Density = 1.832580 g / cm^3
# Si number density = 18.367604 Si / 1000 Ang^3
#
#
#
# Elastic Constant Matrix: (Units=GPa)
#
#
# Indices 1 2 3 4 5 6 
#
# 1 102.7797 90.3574 101.3611 0.0000 0.0000 0.0000
# 2 90.3574 166.4685 109.6248 0.0000 0.0000 0.0000
# 3 101.3611 109.6248 197.2937 0.0000 0.0000 0.0000
# 4 0.0000 0.0000 0.0000 34.1627 0.0000 0.0000
# 5 0.0000 0.0000 0.0000 0.0000 37.9538 0.0000
# 6 0.0000 0.0000 0.0000 0.0000 0.0000 31.6971
#
#
#
# Elastic Compliance Matrix: (Units=1/GPa)
#
#
# Indices 1 2 3 4 5 6 
#
# 1 0.025170 -0.008116 -0.008422 0.000000 0.000000 0.000000
# 2 -0.008116 0.012091 -0.002548 0.000000 0.000000 0.000000
# 3 -0.008422 -0.002548 0.010811 0.000000 0.000000 0.000000
# 4 0.000000 0.000000 0.000000 0.029272 0.000000 0.000000
# 5 0.000000 0.000000 0.000000 0.000000 0.026348 0.000000
# 6 0.000000 0.000000 0.000000 0.000000 0.000000 0.031549
#
#
# Mechanical properties :
#
#
# Convention : Reuss Voigt Hill
#
# Bulk Modulus (GPa) = 101.01292 118.80317 109.90804
# Shear Modulus (GPa) = 28.29449 31.77596 30.03523
#
# Velocity S-wave (km/s) = 3.92912 4.16384 4.04818
# Velocity P-wave (km/s) = 8.70049 9.37753 9.04535
#
# Compressibility (1/GPa) = 0.00989972
#
# Stress axis : x y z
#
# Youngs Moduli (GPa) = 39.72942 82.70808 92.49609
#
# Poissons Ratio (x) = 0.67128 0.77897
# Poissons Ratio (y) = 0.32245 0.23571
# Poissons Ratio (z) = 0.33459 0.21077
#
# Static dielectric constant tensor:
#      x y z
#    x 1.616940 0.000000 0.000000 
#    y 0.000000 1.593570 0.000000 
#    z 0.000000 0.000000 1.613420 
# 
# From -- ./inp_files/20331.got.cif
#   From: 2010.05.17/outbox.cif.g08.bks.cpg/sg59_11_cif.got.tgz:20331.got - 2010.06.03 14:40:33.
