data_PCOD9452490
_publ_section_title
;
Structure prediction by ZEFSAII (Michael W. Deem and Ramdas Pophale) SiO2 
 PCOD9452490
Probable space group: P M M N
;
_chemical_formula_sum "Si O2"
_cell_formula_units_Z 32
_cell_length_a 7.781231
_cell_length_b 13.941725
_cell_length_c 13.836976
_cell_angle_alpha 90.000000
_cell_angle_beta 90.000000
_cell_angle_gamma 90.000000
_cell_volume 1501.087498
_symmetry_space_group_name_H-M "P M M N"
_symmetry_group_IT_number 59
_space_group.IT_coordinate_system_code '2'
_symmetry_cell_setting 'orthorhombic'
loop_
_space_group_symop_operation_xyz
x,y,z
1/2-x,1/2-y,z
1/2+x,-y,-z
-x,1/2+y,-z
-x,-y,-z
1/2+x,1/2+y,-z
1/2-x,y,z
x,1/2-y,z
loop_
_atom_site_type_symbol
_atom_site_label
_atom_site_fract_x
_atom_site_fract_y
_atom_site_fract_z
Si Si1 0.961352 0.250000 0.839440
Si Si2 0.543724 0.034571 0.892887
Si Si3 0.039611 0.358586 0.245137
Si Si4 0.452888 0.103563 0.463870
Si Si5 0.948030 0.250000 0.624779
O O1 0.750000 0.250000 0.847650
O O2 0.016651 0.354699 0.879854
O O3 0.030280 0.250000 0.729304
O O4 0.750000 0.037500 0.880387
O O5 0.482135 0.950625 0.818470
O O6 0.500000 0.000000 0.000000
O O7 0.250000 0.360008 0.243800
O O8 0.989264 0.250000 0.212549
O O9 0.980518 0.371588 0.356703
O O10 0.250000 0.117065 0.456268
O O11 0.514463 0.164190 0.553977
O O12 0.500000 0.000000 0.500000
O O13 0.750000 0.250000 0.649101
#
# Coordination Sequence:
#
# PCOD9452490 Si02
#       5
#     4   8   8   8   4
#     4   9  20  39  58  81 118 158 191 227 290 371
#     4  10  21  38  61  84 110 149 194 240 289 347
#     4   9  18  35  58  82 111 152 195 232 284 357
#     4  11  21  36  58  86 120 158 198 239 285 345
#     4  11  21  37  60  87 116 156 199 237 290 351
#
# _framework density 21.317879000000001
#
# number of rings (size 3 to 8) (size 9 to 14) (size 15 to 20)
#    0.000    2.000    1.250    2.625    1.750    4.000 
#    0.000    7.500    0.000    0.000    0.000    0.000 
#    0.000    0.000    0.000    0.000    0.000    0.000 
#
# Total GULP energy -178336.212572 kJ/mol
# GULP energy per Si atom -5573.006643 kJ/mol
# Density = 2.126936 g / cm^3
# Si number density = 21.317879 Si / 1000 Ang^3
#
#
#
# Elastic Constant Matrix: (Units=GPa)
#
#
# Indices 1 2 3 4 5 6 
#
# 1 20.0591 -2.8636 -4.4629 0.0000 0.0000 0.0000
# 2 -2.8636 250.1508 105.8849 0.0000 0.0000 0.0000
# 3 -4.4629 105.8849 154.8553 0.0000 0.0000 0.0000
# 4 0.0000 0.0000 0.0000 35.5271 0.0000 0.0000
# 5 0.0000 0.0000 0.0000 0.0000 24.0978 0.0000
# 6 0.0000 0.0000 0.0000 0.0000 0.0000 14.8727
#
#
#
# Elastic Compliance Matrix: (Units=1/GPa)
#
#
# Indices 1 2 3 4 5 6 
#
# 1 0.050175 -0.000053 0.001482 0.000000 0.000000 0.000000
# 2 -0.000053 0.005626 -0.003848 0.000000 0.000000 0.000000
# 3 0.001482 -0.003848 0.009132 0.000000 0.000000 0.000000
# 4 0.000000 0.000000 0.000000 0.028148 0.000000 0.000000
# 5 0.000000 0.000000 0.000000 0.000000 0.041498 0.000000
# 6 0.000000 0.000000 0.000000 0.000000 0.000000 0.067237
#
#
# Mechanical properties :
#
#
# Convention : Reuss Voigt Hill
#
# Bulk Modulus (GPa) = 16.64046 69.13133 42.88590
# Shear Modulus (GPa) = 22.05706 36.66663 29.36184
#
# Velocity S-wave (km/s) = 3.22012 4.15178 3.71527
# Velocity P-wave (km/s) = 4.65279 7.44864 6.21010
#
# Compressibility (1/GPa) = 0.06009448
#
# Stress axis : x y z
#
# Youngs Moduli (GPa) = 19.93024 177.74850 109.50821
#
# Poissons Ratio (x) = 0.00943 -0.16233
# Poissons Ratio (y) = 0.00106 0.42143
# Poissons Ratio (z) = -0.02954 0.68404
#
# Static dielectric constant tensor:
#      x y z
#    x 1.805160 0.000000 0.000000 
#    y 0.000000 1.719520 0.000000 
#    z 0.000000 0.000000 1.760490 
# 
# From -- ./inp_files/13645.got.cif
#   From: 2010.05.17/outbox.cif.g08.bks.cpg/sg59_7_cif.got.tgz:13645.got - 2010.06.03 14:40:33.
