data_PCOD9452588
_publ_section_title
;
Structure prediction by ZEFSAII (Michael W. Deem and Ramdas Pophale) SiO2 
 PCOD9452588
Probable space group: P M M N
;
_chemical_formula_sum "Si O2"
_cell_formula_units_Z 48
_cell_length_a 18.354689
_cell_length_b 8.565647
_cell_length_c 16.206028
_cell_angle_alpha 90.000000
_cell_angle_beta 90.000000
_cell_angle_gamma 90.000000
_cell_volume 2547.908267
_symmetry_space_group_name_H-M "P M M N"
_symmetry_group_IT_number 59
_space_group.IT_coordinate_system_code '2'
_symmetry_cell_setting 'orthorhombic'
loop_
_space_group_symop_operation_xyz
x,y,z
1/2-x,1/2-y,z
1/2+x,-y,-z
-x,1/2+y,-z
-x,-y,-z
1/2+x,1/2+y,-z
1/2-x,y,z
x,1/2-y,z
loop_
_atom_site_type_symbol
_atom_site_label
_atom_site_fract_x
_atom_site_fract_y
_atom_site_fract_z
Si Si1 0.539360 0.437688 0.811222
Si Si2 0.250000 0.432946 0.784451
Si Si3 0.387767 0.562463 0.882555
Si Si4 0.019697 0.065593 0.370446
Si Si5 0.250000 0.926013 0.608146
Si Si6 0.166361 0.559981 0.064760
Si Si7 0.113366 0.068887 0.530668
O O1 0.539967 0.250000 0.805568
O O2 0.464387 0.490120 0.854946
O O3 0.540702 0.509639 0.720042
O O4 0.609152 0.488836 0.865227
O O5 0.250000 0.250000 0.803271
O O6 0.322279 0.509483 0.823078
O O7 0.250000 0.461485 0.686884
O O8 0.393791 0.750000 0.879946
O O9 0.364576 0.514367 0.975088
O O10 0.001542 0.250000 0.369381
O O11 0.082205 0.042712 0.439050
O O12 0.951065 0.970096 0.405208
O O13 0.250000 0.750000 0.640010
O O14 0.179844 0.959816 0.553402
O O15 0.250000 0.506428 0.075406
O O16 0.168048 0.750000 0.065455
O O17 0.134420 0.250000 0.538427
#
# Coordination Sequence:
#
# PCOD9452588 Si02
#       7
#     8   4   8   8   4   8   8
#     4  11  22  36  59  89 120 153 198 245 288 346
#     4  12  24  38  58  87 122 153 192 243 298 349
#     4  11  21  38  62  85 117 155 197 242 295 350
#     4  10  21  39  61  85 116 153 194 237 288 346
#     4  12  24  38  58  87 118 151 192 233 288 353
#     4   9  19  38  61  84 115 156 198 243 293 342
#     4  10  21  39  62  85 116 152 191 241 292 341
#
# _framework density 18.838982999999999
#
# number of rings (size 3 to 8) (size 9 to 14) (size 15 to 20)
#    0.000    1.500    0.833    5.000    0.000    2.000 
#    1.500    2.500    0.000    0.000    0.000    0.000 
#    0.000    0.000    0.000    0.000    0.000    0.000 
#
# Total GULP energy -268272.542698 kJ/mol
# GULP energy per Si atom -5589.011306 kJ/mol
# Density = 1.879611 g / cm^3
# Si number density = 18.838983 Si / 1000 Ang^3
#
#
#
# Elastic Constant Matrix: (Units=GPa)
#
#
# Indices 1 2 3 4 5 6 
#
# 1 95.1665 8.2146 72.4863 0.0000 0.0000 0.0000
# 2 8.2146 30.6589 27.3732 0.0000 0.0000 0.0000
# 3 72.4863 27.3732 97.4208 0.0000 0.0000 0.0000
# 4 0.0000 0.0000 0.0000 20.9685 0.0000 0.0000
# 5 0.0000 0.0000 0.0000 0.0000 12.3246 0.0000
# 6 0.0000 0.0000 0.0000 0.0000 0.0000 17.4839
#
#
#
# Elastic Compliance Matrix: (Units=1/GPa)
#
#
# Indices 1 2 3 4 5 6 
#
# 1 0.028733 0.015203 -0.025651 0.000000 0.000000 0.000000
# 2 0.015203 0.051584 -0.025806 0.000000 0.000000 0.000000
# 3 -0.025651 -0.025806 0.036601 0.000000 0.000000 0.000000
# 4 0.000000 0.000000 0.000000 0.047691 0.000000 0.000000
# 5 0.000000 0.000000 0.000000 0.000000 0.081139 0.000000
# 6 0.000000 0.000000 0.000000 0.000000 0.000000 0.057196
#
#
# Mechanical properties :
#
#
# Convention : Reuss Voigt Hill
#
# Bulk Modulus (GPa) = 22.51684 48.82160 35.66922
# Shear Modulus (GPa) = 12.81213 17.83352 15.32282
#
# Velocity S-wave (km/s) = 2.61067 3.08007 2.85504
# Velocity P-wave (km/s) = 4.58974 6.21455 5.46289
#
# Compressibility (1/GPa) = 0.04441121
#
# Stress axis : x y z
#
# Youngs Moduli (GPa) = 34.80266 19.38589 27.32130
#
# Poissons Ratio (x) = -0.29473 0.70082
# Poissons Ratio (y) = -0.52912 0.70506
# Poissons Ratio (z) = 0.89272 0.50027
#
# Static dielectric constant tensor:
#      x y z
#    x 1.632740 0.000000 0.000000 
#    y 0.000000 1.634900 0.000000 
#    z 0.000000 0.000000 1.623920 
# 
# From -- ./inp_files/20571.got.cif
#   From: 2010.05.17/outbox.cif.g08.bks.cpg/sg59_11_cif.got.tgz:20571.got - 2010.06.03 14:40:33.
