data_PCOD9452133
_publ_section_title
;
Structure prediction by ZEFSAII (Michael W. Deem and Ramdas Pophale) SiO2 
 PCOD9452133
Probable space group: P M M N
;
_chemical_formula_sum "Si O2"
_cell_formula_units_Z 48
_cell_length_a 7.724064
_cell_length_b 18.722603
_cell_length_c 16.194630
_cell_angle_alpha 90.000000
_cell_angle_beta 90.000000
_cell_angle_gamma 90.000000
_cell_volume 2341.979678
_symmetry_space_group_name_H-M "P M M N"
_symmetry_group_IT_number 59
_space_group.IT_coordinate_system_code '2'
_symmetry_cell_setting 'orthorhombic'
loop_
_space_group_symop_operation_xyz
x,y,z
1/2-x,1/2-y,z
1/2+x,-y,-z
-x,1/2+y,-z
-x,-y,-z
1/2+x,1/2+y,-z
1/2-x,y,z
x,1/2-y,z
loop_
_atom_site_type_symbol
_atom_site_label
_atom_site_fract_x
_atom_site_fract_y
_atom_site_fract_z
Si Si1 0.537602 0.912644 0.327177
Si Si2 0.955819 0.584223 0.506679
Si Si3 0.545778 0.076267 0.313123
Si Si4 0.461889 0.168107 0.837011
Si Si5 0.543933 0.916662 0.002355
Si Si6 0.543426 0.330663 0.162128
O O1 0.750000 0.913631 0.328505
O O2 0.482609 0.886039 0.418245
O O3 0.482733 0.865210 0.250139
O O4 0.477533 0.994760 0.314459
O O5 0.750000 0.592420 0.510501
O O6 0.000000 0.500000 0.500000
O O7 0.026159 0.608438 0.595041
O O8 0.750000 0.068577 0.297090
O O9 0.472271 0.125365 0.240578
O O10 0.250000 0.166915 0.836921
O O11 0.515793 0.250000 0.846274
O O12 0.522431 0.120788 0.914161
O O13 0.750000 0.910428 0.003893
O O14 0.482876 0.875147 0.921235
O O15 0.500000 0.000000 0.000000
O O16 0.750000 0.324745 0.174261
O O17 0.473601 0.250000 0.155592
#
# Coordination Sequence:
#
# PCOD9452133 Si02
#       6
#     8   8   8   8   8   8
#     4   8  14  26  45  68  95 128 167 209 251 298
#     4   9  16  27  46  73 101 131 170 216 262 304
#     4   9  17  31  50  71  99 137 177 215 256 308
#     4   9  17  30  49  73 101 132 165 204 253 308
#     4  11  22  36  56  81 106 135 175 220 264 313
#     4  10  21  37  56  78 107 143 178 215 267 326
#
# _framework density 20.495481000000002
#
# number of rings (size 3 to 8) (size 9 to 14) (size 15 to 20)
#    0.000    2.667    0.000    3.500    0.000    4.333 
#    0.000    0.833    0.000    4.000    0.000    0.000 
#    0.000    0.000    0.000    0.000    0.000    0.000 
#
# Total GULP energy -267724.198312 kJ/mol
# GULP energy per Si atom -5577.587465 kJ/mol
# Density = 2.044883 g / cm^3
# Si number density = 20.495481 Si / 1000 Ang^3
#
#
#
# Elastic Constant Matrix: (Units=GPa)
#
#
# Indices 1 2 3 4 5 6 
#
# 1 24.0606 -6.5430 -19.7161 0.0000 0.0000 0.0000
# 2 -6.5430 120.6363 81.2961 0.0000 0.0000 0.0000
# 3 -19.7161 81.2961 179.5443 0.0000 0.0000 0.0000
# 4 0.0000 0.0000 0.0000 -8.8992 0.0000 0.0000
# 5 0.0000 0.0000 0.0000 0.0000 22.6755 0.0000
# 6 0.0000 0.0000 0.0000 0.0000 0.0000 10.7212
#
#
#
# Elastic Compliance Matrix: (Units=1/GPa)
#
#
# Indices 1 2 3 4 5 6 
#
# 1 0.045813 -0.001303 0.005621 0.000000 0.000000 0.000000
# 2 -0.001303 0.011967 -0.005561 0.000000 0.000000 0.000000
# 3 0.005621 -0.005561 0.008705 0.000000 0.000000 0.000000
# 4 0.000000 0.000000 0.000000 -0.112369 0.000000 0.000000
# 5 0.000000 0.000000 0.000000 0.000000 0.044101 0.000000
# 6 0.000000 0.000000 0.000000 0.000000 0.000000 0.093273
#
#
# Mechanical properties :
#
#
# Convention : Reuss Voigt Hill
#
# Bulk Modulus (GPa) = 15.62561 48.25724 31.94142
# Shear Modulus (GPa) = 43.36175 22.84644 33.10410
#
# Velocity S-wave (km/s) = 4.60464 3.34234 4.02330
# Velocity P-wave (km/s) = 5.99255 6.20415 6.09927
#
# Compressibility (1/GPa) = 0.06399752
#
# Stress axis : x y z
#
# Youngs Moduli (GPa) = 21.82776 83.56657 114.87575
#
# Poissons Ratio (x) = 0.10889 -0.64570
# Poissons Ratio (y) = 0.02844 0.63887
# Poissons Ratio (z) = -0.12269 0.46475
#
# Static dielectric constant tensor:
#      x y z
#    x 1.766990 0.000000 0.000000 
#    y 0.000000 1.697140 0.000000 
#    z 0.000000 0.000000 1.745280 
# 
# From -- ./inp_files/20426.got.cif
#   From: 2010.05.17/outbox.cif.g08.bks.cpg/sg59_11_cif.got.tgz:20426.got - 2010.06.03 14:40:33.
