data_PCOD9452786
_publ_section_title
;
Structure prediction by ZEFSAII (Michael W. Deem and Ramdas Pophale) SiO2 
 PCOD9452786
Probable space group: P M M N
;
_chemical_formula_sum "Si O2"
_cell_formula_units_Z 40
_cell_length_a 9.848316
_cell_length_b 18.518592
_cell_length_c 9.989220
_cell_angle_alpha 90.000000
_cell_angle_beta 90.000000
_cell_angle_gamma 90.000000
_cell_volume 1821.803435
_symmetry_space_group_name_H-M "P M M N"
_symmetry_group_IT_number 59
_space_group.IT_coordinate_system_code '2'
_symmetry_cell_setting 'orthorhombic'
loop_
_space_group_symop_operation_xyz
x,y,z
1/2-x,1/2-y,z
1/2+x,-y,-z
-x,1/2+y,-z
-x,-y,-z
1/2+x,1/2+y,-z
1/2-x,y,z
x,1/2-y,z
loop_
_atom_site_type_symbol
_atom_site_label
_atom_site_fract_x
_atom_site_fract_y
_atom_site_fract_z
Si Si1 0.401296 0.633988 0.130557
Si Si2 0.102333 0.477688 0.230136
Si Si3 0.906784 0.666064 0.370668
Si Si4 0.499638 0.329649 0.155169
Si Si5 0.904949 0.095052 0.407571
O O1 0.250000 0.652961 0.181891
O O2 0.411152 0.546687 0.135591
O O3 0.519578 0.661349 0.227183
O O4 0.417754 0.663363 0.981742
O O5 0.250000 0.482910 0.296926
O O6 0.096090 0.400316 0.156598
O O7 0.980014 0.472392 0.335931
O O8 0.750000 0.641296 0.367221
O O9 0.905933 0.750000 0.412423
O O10 0.001092 0.622824 0.473335
O O11 0.437179 0.250000 0.162857
O O12 0.587027 0.345002 0.288563
O O13 0.750000 0.082359 0.444652
#
# Coordination Sequence:
#
# PCOD9452786 Si02
#       5
#     8   8   8   8   8
#     4  11  23  42  67  93 128 169 211 261 312 375
#     4   9  22  41  63  94 129 166 211 257 314 376
#     4  11  25  43  63  92 130 168 210 262 318 377
#     4  10  22  39  65  96 126 161 208 260 312 372
#     4  10  22  40  66  94 123 163 210 259 311 371
#
# _framework density 21.956265999999999
#
# number of rings (size 3 to 8) (size 9 to 14) (size 15 to 20)
#    1.200    0.600    0.000    3.600    0.000    7.600 
#    0.000    0.000    0.000    0.000    0.000    0.000 
#    0.000    0.000    0.000    0.000    0.000    0.000 
#
# Total GULP energy -223122.453282 kJ/mol
# GULP energy per Si atom -5578.061332 kJ/mol
# Density = 2.190629 g / cm^3
# Si number density = 21.956266 Si / 1000 Ang^3
#
#
#
# Elastic Constant Matrix: (Units=GPa)
#
#
# Indices 1 2 3 4 5 6 
#
# 1 174.8838 24.7817 47.3628 0.0000 0.0000 0.0000
# 2 24.7817 124.4191 19.6869 0.0000 0.0000 0.0000
# 3 47.3628 19.6869 102.8211 0.0000 0.0000 0.0000
# 4 0.0000 0.0000 0.0000 8.6298 0.0000 0.0000
# 5 0.0000 0.0000 0.0000 0.0000 21.3101 0.0000
# 6 0.0000 0.0000 0.0000 0.0000 0.0000 5.4538
#
#
#
# Elastic Compliance Matrix: (Units=1/GPa)
#
#
# Indices 1 2 3 4 5 6 
#
# 1 0.006622 -0.000862 -0.002885 0.000000 0.000000 0.000000
# 2 -0.000862 0.008401 -0.001211 0.000000 0.000000 0.000000
# 3 -0.002885 -0.001211 0.011286 0.000000 0.000000 0.000000
# 4 0.000000 0.000000 0.000000 0.115878 0.000000 0.000000
# 5 0.000000 0.000000 0.000000 0.000000 0.046926 0.000000
# 6 0.000000 0.000000 0.000000 0.000000 0.000000 0.183358
#
#
# Mechanical properties :
#
#
# Convention : Reuss Voigt Hill
#
# Bulk Modulus (GPa) = 61.00688 65.08742 63.04715
# Shear Modulus (GPa) = 12.89153 27.76491 20.32822
#
# Velocity S-wave (km/s) = 2.42574 3.55992 3.04608
# Velocity P-wave (km/s) = 5.97424 6.82685 6.41472
#
# Compressibility (1/GPa) = 0.01639159
#
# Stress axis : x y z
#
# Youngs Moduli (GPa) = 151.02048 119.03659 88.60160
#
# Poissons Ratio (x) = 0.10266 0.25562
# Poissons Ratio (y) = 0.13024 0.10732
# Poissons Ratio (z) = 0.43570 0.14418
#
# Static dielectric constant tensor:
#      x y z
#    x 1.780980 0.000000 0.000000 
#    y 0.000000 1.824040 0.000000 
#    z 0.000000 0.000000 1.788410 
# 
# From -- ./inp_files/14078.got.cif
#   From: 2010.05.17/outbox.cif.g08.bks.cpg/sg59_8_cif.got.tgz:14078.got - 2010.06.03 14:40:33.
