data_PCOD9452987
_publ_section_title
;
Structure prediction by ZEFSAII (Michael W. Deem and Ramdas Pophale) SiO2 
 PCOD9452987
Probable space group: P M M N
;
_chemical_formula_sum "Si O2"
_cell_formula_units_Z 64
_cell_length_a 8.150707
_cell_length_b 29.630955
_cell_length_c 16.253682
_cell_angle_alpha 90.000000
_cell_angle_beta 90.000000
_cell_angle_gamma 90.000000
_cell_volume 3925.479277
_symmetry_space_group_name_H-M "P M M N"
_symmetry_group_IT_number 59
_space_group.IT_coordinate_system_code '2'
_symmetry_cell_setting 'orthorhombic'
loop_
_space_group_symop_operation_xyz
x,y,z
1/2-x,1/2-y,z
1/2+x,-y,-z
-x,1/2+y,-z
-x,-y,-z
1/2+x,1/2+y,-z
1/2-x,y,z
x,1/2-y,z
loop_
_atom_site_type_symbol
_atom_site_label
_atom_site_fract_x
_atom_site_fract_y
_atom_site_fract_z
Si Si1 0.053211 0.552022 0.821195
Si Si2 0.950032 0.300244 0.405981
Si Si3 0.054166 0.447693 0.001692
Si Si4 0.054275 0.948224 0.500234
Si Si5 0.945289 0.605669 0.338201
Si Si6 0.447792 0.699551 0.403113
Si Si7 0.951213 0.394067 0.337897
Si Si8 0.049083 0.447417 0.821730
O O1 0.250000 0.550189 0.815620
O O2 0.992357 0.582383 0.745923
O O3 0.995600 0.499857 0.813390
O O4 0.010754 0.570479 0.911737
O O5 0.750000 0.300133 0.405424
O O6 0.003992 0.250000 0.380995
O O7 0.998644 0.307560 0.501432
O O8 0.004196 0.342457 0.351707
O O9 0.250000 0.445534 0.004176
O O10 0.999018 0.429729 0.912330
O O11 0.000000 0.500000 0.000000
O O12 0.250000 0.946928 0.502834
O O13 0.994965 0.922726 0.582459
O O14 0.000640 0.922104 0.418383
O O15 0.000000 0.000000 0.500000
O O16 0.750000 0.603155 0.335262
O O17 0.009182 0.582161 0.254936
O O18 0.994411 0.657638 0.349599
O O19 0.250000 0.699396 0.402771
O O20 0.502529 0.750000 0.378325
O O21 0.750000 0.394344 0.337251
O O22 0.250000 0.447794 0.820817
#
# Coordination Sequence:
#
# PCOD9452987 Si02
#       8
#     8   8   8   8   8   8   8   8
#     4   9  16  28  45  64  87 116 150 185 219 260
#     4   8  13  24  44  66  85 111 150 187 218 261
#     4   9  16  29  46  63  85 113 146 183 223 266
#     4  11  21  33  45  61  90 127 161 187 220 266
#     4  11  20  31  47  68  92 120 155 192 227 268
#     4   9  17  31  49  67  90 120 154 192 233 273
#     4   9  16  27  44  63  88 121 152 181 220 270
#     4   8  16  29  43  60  87 121 149 177 222 272
#
# _framework density 16.303743000000001
#
# number of rings (size 3 to 8) (size 9 to 14) (size 15 to 20)
#    0.000    2.750    1.250    3.375    0.000    2.250 
#    0.000   10.000    0.000    0.000    0.000    0.875 
#    0.000    3.000    0.000    0.000    0.000    0.000 
#
# Total GULP energy -356536.024666 kJ/mol
# GULP energy per Si atom -5570.875385 kJ/mol
# Density = 1.626663 g / cm^3
# Si number density = 16.303743 Si / 1000 Ang^3
#
#
#
# Elastic Constant Matrix: (Units=GPa)
#
#
# Indices 1 2 3 4 5 6 
#
# 1 11.3162 10.9826 11.1909 0.0000 0.0000 0.0000
# 2 10.9826 122.9101 84.3492 0.0000 0.0000 0.0000
# 3 11.1909 84.3492 160.4510 0.0000 0.0000 0.0000
# 4 0.0000 0.0000 0.0000 9.0248 0.0000 0.0000
# 5 0.0000 0.0000 0.0000 0.0000 19.8677 0.0000
# 6 0.0000 0.0000 0.0000 0.0000 0.0000 17.8152
#
#
#
# Elastic Compliance Matrix: (Units=1/GPa)
#
#
# Indices 1 2 3 4 5 6 
#
# 1 0.097994 -0.006360 -0.003491 0.000000 0.000000 0.000000
# 2 -0.006360 0.013141 -0.006464 0.000000 0.000000 0.000000
# 3 -0.003491 -0.006464 0.009874 0.000000 0.000000 0.000000
# 4 0.000000 0.000000 0.000000 0.110806 0.000000 0.000000
# 5 0.000000 0.000000 0.000000 0.000000 0.050333 0.000000
# 6 0.000000 0.000000 0.000000 0.000000 0.000000 0.056132
#
#
# Mechanical properties :
#
#
# Convention : Reuss Voigt Hill
#
# Bulk Modulus (GPa) = 11.31512 56.41364 33.86438
# Shear Modulus (GPa) = 12.48841 21.88518 17.18680
#
# Velocity S-wave (km/s) = 2.77064 3.66777 3.25031
# Velocity P-wave (km/s) = 4.14615 7.25352 5.90779
#
# Compressibility (1/GPa) = 0.08837732
#
# Stress axis : x y z
#
# Youngs Moduli (GPa) = 10.20468 76.09942 101.27301
#
# Poissons Ratio (x) = 0.48402 0.35356
# Poissons Ratio (y) = 0.06491 0.65468
# Poissons Ratio (z) = 0.03563 0.49194
#
# Static dielectric constant tensor:
#      x y z
#    x 1.580300 0.000000 0.000000 
#    y 0.000000 1.537250 0.000000 
#    z 0.000000 0.000000 1.563030 
# 
# From -- ./inp_files/21837.got.cif
#   From: 2010.05.17/outbox.cif.g08.bks.cpg/sg59_11_cif.got.tgz:21837.got - 2010.06.03 14:40:33.
