data_PCOD9452641
_publ_section_title
;
Structure prediction by ZEFSAII (Michael W. Deem and Ramdas Pophale) SiO2 
 PCOD9452641
Probable space group: P M M N
;
_chemical_formula_sum "Si O2"
_cell_formula_units_Z 64
_cell_length_a 13.922399
_cell_length_b 8.929284
_cell_length_c 24.484821
_cell_angle_alpha 90.000000
_cell_angle_beta 90.000000
_cell_angle_gamma 90.000000
_cell_volume 3043.880830
_symmetry_space_group_name_H-M "P M M N"
_symmetry_group_IT_number 59
_space_group.IT_coordinate_system_code '2'
_symmetry_cell_setting 'orthorhombic'
loop_
_space_group_symop_operation_xyz
x,y,z
1/2-x,1/2-y,z
1/2+x,-y,-z
-x,1/2+y,-z
-x,-y,-z
1/2+x,1/2+y,-z
1/2-x,y,z
x,1/2-y,z
loop_
_atom_site_type_symbol
_atom_site_label
_atom_site_fract_x
_atom_site_fract_y
_atom_site_fract_z
Si Si1 0.637540 0.569209 0.204420
Si Si2 0.634133 0.074917 0.850312
Si Si3 0.958794 0.927299 0.745523
Si Si4 0.136717 0.572585 0.587242
Si Si5 0.633021 0.922236 0.081656
Si Si6 0.634647 0.922352 0.528185
Si Si7 0.958252 0.427826 0.634045
Si Si8 0.634096 0.072896 0.970698
O O1 0.750000 0.536862 0.212724
O O2 0.625840 0.750000 0.208148
O O3 0.567336 0.484636 0.244790
O O4 0.609094 0.522272 0.142374
O O5 0.750000 0.071916 0.850596
O O6 0.605164 0.250000 0.844009
O O7 0.600942 0.020919 0.910602
O O8 0.596583 0.981269 0.799565
O O9 0.954806 0.750000 0.739251
O O10 0.920531 0.007331 0.691133
O O11 0.250000 0.544806 0.595848
O O12 0.119164 0.750000 0.592756
O O13 0.111602 0.517370 0.525954
O O14 0.068759 0.479553 0.627048
O O15 0.750000 0.925473 0.080947
O O16 0.603136 0.750000 0.078443
O O17 0.598243 0.001946 0.026943
O O18 0.750000 0.919942 0.532012
O O19 0.601200 0.750000 0.522261
O O20 0.594072 0.996939 0.582569
O O21 0.949607 0.250000 0.632334
O O22 0.750000 0.049478 0.970807
O O23 0.618068 0.250000 0.972800
#
# Coordination Sequence:
#
# PCOD9452641 Si02
#       8
#     8   8   8   8   8   8   8   8
#     4   9  19  38  61  82 109 148 190 233 285 344
#     4   9  19  38  61  82 109 148 190 233 285 344
#     4  12  26  41  58  83 114 148 193 244 289 338
#     4  10  21  39  64  94 127 159 193 235 282 334
#     4   8  14  26  48  78 108 138 175 222 278 339
#     4  10  21  39  64  94 127 159 193 235 282 334
#     4  12  25  41  62  85 116 158 199 240 286 338
#     4   8  14  26  48  78 108 138 175 222 278 339
#
# _framework density 21.025791000000002
#
# number of rings (size 3 to 8) (size 9 to 14) (size 15 to 20)
#    0.000    2.250    0.000    4.875    0.000    4.000 
#    0.000    3.125    0.000    0.000    0.000    0.000 
#    0.000    0.000    0.000    0.000    0.000    0.000 
#
# Total GULP energy -357713.323334 kJ/mol
# GULP energy per Si atom -5589.270677 kJ/mol
# Density = 2.097794 g / cm^3
# Si number density = 21.025791 Si / 1000 Ang^3
#
#
#
# Elastic Constant Matrix: (Units=GPa)
#
#
# Indices 1 2 3 4 5 6 
#
# 1 39.3313 1.6875 4.0699 0.0000 0.0000 0.0000
# 2 1.6875 78.2491 28.9547 0.0000 0.0000 0.0000
# 3 4.0699 28.9547 104.2199 0.0000 0.0000 0.0000
# 4 0.0000 0.0000 0.0000 36.9027 0.0000 0.0000
# 5 0.0000 0.0000 0.0000 0.0000 23.9738 0.0000
# 6 0.0000 0.0000 0.0000 0.0000 0.0000 26.9064
#
#
#
# Elastic Compliance Matrix: (Units=1/GPa)
#
#
# Indices 1 2 3 4 5 6 
#
# 1 0.025531 -0.000202 -0.000941 0.000000 0.000000 0.000000
# 2 -0.000202 0.014246 -0.003950 0.000000 0.000000 0.000000
# 3 -0.000941 -0.003950 0.010729 0.000000 0.000000 0.000000
# 4 0.000000 0.000000 0.000000 0.027098 0.000000 0.000000
# 5 0.000000 0.000000 0.000000 0.000000 0.041712 0.000000
# 6 0.000000 0.000000 0.000000 0.000000 0.000000 0.037166
#
#
# Mechanical properties :
#
#
# Convention : Reuss Voigt Hill
#
# Bulk Modulus (GPa) = 24.80179 32.35828 28.58003
# Shear Modulus (GPa) = 27.76108 30.02914 28.89511
#
# Velocity S-wave (km/s) = 3.63758 3.78326 3.71114
# Velocity P-wave (km/s) = 5.42809 5.87429 5.65559
#
# Compressibility (1/GPa) = 0.04031967
#
# Stress axis : x y z
#
# Youngs Moduli (GPa) = 39.16799 70.19687 93.20358
#
# Poissons Ratio (x) = 0.01421 0.08768
# Poissons Ratio (y) = 0.00793 0.36814
# Poissons Ratio (z) = 0.03685 0.27727
#
# Static dielectric constant tensor:
#      x y z
#    x 1.818730 0.000000 0.000000 
#    y 0.000000 1.697870 0.000000 
#    z 0.000000 0.000000 1.750000 
# 
# From -- ./inp_files/32183.got.cif
#   From: 2010.05.17/outbox.cif.g08.bks.cpg/sg59_17_cif.got.tgz:32183.got - 2010.06.03 14:40:33.
