data_PCOD9452381
_publ_section_title
;
Structure prediction by ZEFSAII (Michael W. Deem and Ramdas Pophale) SiO2 
 PCOD9452381
Probable space group: P M M N
;
_chemical_formula_sum "Si O2"
_cell_formula_units_Z 32
_cell_length_a 13.920739
_cell_length_b 14.158125
_cell_length_c 8.711016
_cell_angle_alpha 90.000000
_cell_angle_beta 90.000000
_cell_angle_gamma 90.000000
_cell_volume 1716.867757
_symmetry_space_group_name_H-M "P M M N"
_symmetry_group_IT_number 59
_space_group.IT_coordinate_system_code '2'
_symmetry_cell_setting 'orthorhombic'
loop_
_space_group_symop_operation_xyz
x,y,z
1/2-x,1/2-y,z
1/2+x,-y,-z
-x,1/2+y,-z
-x,-y,-z
1/2+x,1/2+y,-z
1/2-x,y,z
x,1/2-y,z
loop_
_atom_site_type_symbol
_atom_site_label
_atom_site_fract_x
_atom_site_fract_y
_atom_site_fract_z
Si Si1 0.359258 0.861489 0.345295
Si Si2 0.250000 0.142220 0.473151
Si Si3 0.540114 0.636076 0.565889
Si Si4 0.250000 0.356561 0.098014
Si Si5 0.074965 0.023714 0.128856
O O1 0.250000 0.879394 0.403178
O O2 0.364947 0.750000 0.306203
O O3 0.446056 0.880868 0.463865
O O4 0.377821 0.930407 0.202744
O O5 0.250000 0.250000 0.530624
O O6 0.356990 0.103606 0.508859
O O7 0.250000 0.142629 0.285846
O O8 0.548455 0.750000 0.589329
O O9 0.532881 0.583440 0.728128
O O10 0.250000 0.250000 0.044845
O O11 0.343845 0.412037 0.052253
O O12 0.000000 0.000000 0.000000
#
# Coordination Sequence:
#
# PCOD9452381 Si02
#       5
#     8   4   8   4   8
#     4  10  21  38  57  81 118 158 191 231 285 351
#     4   7  12  26  53  80 102 130 174 230 275 320
#     4   9  18  35  59  86 111 146 195 239 287 342
#     4   9  18  36  58  78 108 150 191 234 288 348
#     4  11  21  36  58  86 117 150 193 242 296 351
#
# _framework density 18.638594000000001
#
# number of rings (size 3 to 8) (size 9 to 14) (size 15 to 20)
#    0.000    2.500    1.250    3.000    0.000    2.000 
#    2.250    1.250    0.000    1.500    0.000    0.000 
#    0.000    0.000    0.000    0.000    0.000    0.000 
#
# Total GULP energy -178341.978914 kJ/mol
# GULP energy per Si atom -5573.186841 kJ/mol
# Density = 1.859617 g / cm^3
# Si number density = 18.638594 Si / 1000 Ang^3
#
#
#
# Elastic Constant Matrix: (Units=GPa)
#
#
# Indices 1 2 3 4 5 6 
#
# 1 204.4559 81.0011 65.0003 0.0000 0.0000 0.0000
# 2 81.0011 95.6244 38.2082 0.0000 0.0000 0.0000
# 3 65.0003 38.2082 34.8146 0.0000 0.0000 0.0000
# 4 0.0000 0.0000 0.0000 12.6303 0.0000 0.0000
# 5 0.0000 0.0000 0.0000 0.0000 33.6961 0.0000
# 6 0.0000 0.0000 0.0000 0.0000 0.0000 31.3945
#
#
#
# Elastic Compliance Matrix: (Units=1/GPa)
#
#
# Indices 1 2 3 4 5 6 
#
# 1 0.012291 -0.002213 -0.020520 0.000000 0.000000 0.000000
# 2 -0.002213 0.019023 -0.016746 0.000000 0.000000 0.000000
# 3 -0.020520 -0.016746 0.085415 0.000000 0.000000 0.000000
# 4 0.000000 0.000000 0.000000 0.079174 0.000000 0.000000
# 5 0.000000 0.000000 0.000000 0.000000 0.029677 0.000000
# 6 0.000000 0.000000 0.000000 0.000000 0.000000 0.031853
#
#
# Mechanical properties :
#
#
# Convention : Reuss Voigt Hill
#
# Bulk Modulus (GPa) = 26.47571 78.14601 52.31086
# Shear Modulus (GPa) = 14.32739 25.58988 19.95864
#
# Velocity S-wave (km/s) = 2.77554 3.70936 3.27589
# Velocity P-wave (km/s) = 4.95047 7.76941 6.51425
#
# Compressibility (1/GPa) = 0.03777047
#
# Stress axis : x y z
#
# Youngs Moduli (GPa) = 81.35795 52.56776 11.70760
#
# Poissons Ratio (x) = 0.11631 0.24024
# Poissons Ratio (y) = 0.18001 0.19606
# Poissons Ratio (z) = 1.66949 0.88032
#
# Static dielectric constant tensor:
#      x y z
#    x 1.674320 0.000000 0.000000 
#    y 0.000000 1.686820 0.000000 
#    z 0.000000 0.000000 1.596230 
# 
# From -- ./inp_files/6828.got.cif
#   From: 2010.05.17/outbox.cif.g08.bks.cpg/sg59_4_cif.got.tgz:6828.got - 2010.06.03 14:40:33.
