data_PCOD9452340
_publ_section_title
;
Structure prediction by ZEFSAII (Michael W. Deem and Ramdas Pophale) SiO2 
 PCOD9452340
Probable space group: P M M N
;
_chemical_formula_sum "Si O2"
_cell_formula_units_Z 48
_cell_length_a 17.202745
_cell_length_b 8.877444
_cell_length_c 17.252016
_cell_angle_alpha 90.000000
_cell_angle_beta 90.000000
_cell_angle_gamma 90.000000
_cell_volume 2634.665869
_symmetry_space_group_name_H-M "P M M N"
_symmetry_group_IT_number 59
_space_group.IT_coordinate_system_code '2'
_symmetry_cell_setting 'orthorhombic'
loop_
_space_group_symop_operation_xyz
x,y,z
1/2-x,1/2-y,z
1/2+x,-y,-z
-x,1/2+y,-z
-x,-y,-z
1/2+x,1/2+y,-z
1/2-x,y,z
x,1/2-y,z
loop_
_atom_site_type_symbol
_atom_site_label
_atom_site_fract_x
_atom_site_fract_y
_atom_site_fract_z
Si Si1 0.750000 0.070336 0.339854
Si Si2 0.430979 0.429961 0.103140
Si Si3 0.928736 0.069180 0.596929
Si Si4 0.659735 0.431547 0.753569
Si Si5 0.750000 0.567982 0.169008
Si Si6 0.607687 0.570415 0.433710
Si Si7 0.095956 0.068809 0.925983
O O1 0.750000 0.250000 0.339679
O O2 0.750000 0.007182 0.252753
O O3 0.825829 0.009340 0.384488
O O4 0.431735 0.250000 0.108865
O O5 0.379249 0.498390 0.170837
O O6 0.518615 0.492633 0.107331
O O7 0.399754 0.470959 0.017178
O O8 0.919934 0.250000 0.586975
O O9 0.886730 0.023944 0.676092
O O10 0.021020 0.036879 0.598515
O O11 0.893204 0.987830 0.522070
O O12 0.750000 0.474402 0.747387
O O13 0.655334 0.250000 0.759164
O O14 0.750000 0.750000 0.178103
O O15 0.826938 0.526577 0.120625
O O16 0.619133 0.750000 0.431461
O O17 0.086950 0.250000 0.921133
#
# Coordination Sequence:
#
# PCOD9452340 Si02
#       7
#     4   8   8   8   4   8   8
#     4  12  26  40  58  87 122 153 192 245 296 345
#     4  10  21  37  60  88 118 152 194 241 291 346
#     4   9  20  39  62  87 117 155 194 238 291 346
#     4  10  22  38  58  86 119 157 197 236 288 347
#     4  10  22  40  62  85 112 153 198 241 292 351
#     4  10  21  39  62  88 117 153 196 238 289 351
#     4   9  20  39  62  84 114 154 194 239 295 351
#
# _framework density 18.218629
#
# number of rings (size 3 to 8) (size 9 to 14) (size 15 to 20)
#    0.000    2.167    0.000    1.750    4.667    3.000 
#    0.000    0.000    0.000    0.000    0.000    0.000 
#    0.000    0.000    0.000    0.000    0.000    0.000 
#
# Total GULP energy -268113.233803 kJ/mol
# GULP energy per Si atom -5585.692371 kJ/mol
# Density = 1.817716 g / cm^3
# Si number density = 18.218629 Si / 1000 Ang^3
#
#
#
# Elastic Constant Matrix: (Units=GPa)
#
#
# Indices 1 2 3 4 5 6 
#
# 1 149.6844 63.0645 125.5427 0.0000 0.0000 0.0000
# 2 63.0645 42.7386 59.0426 0.0000 0.0000 0.0000
# 3 125.5427 59.0426 151.5681 0.0000 0.0000 0.0000
# 4 0.0000 0.0000 0.0000 35.1985 0.0000 0.0000
# 5 0.0000 0.0000 0.0000 0.0000 28.8900 0.0000
# 6 0.0000 0.0000 0.0000 0.0000 0.0000 26.4546
#
#
#
# Elastic Compliance Matrix: (Units=1/GPa)
#
#
# Indices 1 2 3 4 5 6 
#
# 1 0.028137 -0.020185 -0.015443 0.000000 0.000000 0.000000
# 2 -0.020185 0.065141 -0.008657 0.000000 0.000000 0.000000
# 3 -0.015443 -0.008657 0.022761 0.000000 0.000000 0.000000
# 4 0.000000 0.000000 0.000000 0.028410 0.000000 0.000000
# 5 0.000000 0.000000 0.000000 0.000000 0.034614 0.000000
# 6 0.000000 0.000000 0.000000 0.000000 0.000000 0.037801
#
#
# Mechanical properties :
#
#
# Convention : Reuss Voigt Hill
#
# Bulk Modulus (GPa) = 36.40206 93.25452 64.82829
# Shear Modulus (GPa) = 15.89373 24.53137 20.21255
#
# Velocity S-wave (km/s) = 2.95683 3.67345 3.33445
# Velocity P-wave (km/s) = 5.62860 8.32405 7.10531
#
# Compressibility (1/GPa) = 0.02747098
#
# Stress axis : x y z
#
# Youngs Moduli (GPa) = 35.54039 15.35130 43.93458
#
# Poissons Ratio (x) = 0.30986 0.67848
# Poissons Ratio (y) = 0.71737 0.38033
# Poissons Ratio (z) = 0.54885 0.13289
#
# Static dielectric constant tensor:
#      x y z
#    x 1.602810 0.000000 0.000000 
#    y 0.000000 1.609650 0.000000 
#    z 0.000000 0.000000 1.595460 
# 
# From -- ./inp_files/23762.got.cif
#   From: 2010.05.17/outbox.cif.g08.bks.cpg/sg59_12_cif.got.tgz:23762.got - 2010.06.03 14:40:33.
