data_PCOD9452026
_publ_section_title
;
Structure prediction by ZEFSAII (Michael W. Deem and Ramdas Pophale) SiO2 
 PCOD9452026
Probable space group: P M M N
;
_chemical_formula_sum "Si O2"
_cell_formula_units_Z 64
_cell_length_a 7.727345
_cell_length_b 15.271815
_cell_length_c 24.764268
_cell_angle_alpha 90.000000
_cell_angle_beta 90.000000
_cell_angle_gamma 90.000000
_cell_volume 2922.445711
_symmetry_space_group_name_H-M "P M M N"
_symmetry_group_IT_number 59
_space_group.IT_coordinate_system_code '2'
_symmetry_cell_setting 'orthorhombic'
loop_
_space_group_symop_operation_xyz
x,y,z
1/2-x,1/2-y,z
1/2+x,-y,-z
-x,1/2+y,-z
-x,-y,-z
1/2+x,1/2+y,-z
1/2-x,y,z
x,1/2-y,z
loop_
_atom_site_type_symbol
_atom_site_label
_atom_site_fract_x
_atom_site_fract_y
_atom_site_fract_z
Si Si1 0.046747 0.527351 0.635051
Si Si2 0.049802 0.844103 0.250063
Si Si3 0.455920 0.651133 0.851466
Si Si4 0.041248 0.150650 0.463298
Si Si5 0.541776 0.012818 0.062485
Si Si6 0.461463 0.151220 0.587356
Si Si7 0.450357 0.463294 0.252168
Si Si8 0.041236 0.343676 0.873524
O O1 0.250000 0.521733 0.645305
O O2 0.976626 0.429083 0.623802
O O3 0.021662 0.582215 0.580534
O O4 0.965265 0.573667 0.687320
O O5 0.250000 0.844672 0.268106
O O6 0.971833 0.750000 0.268382
O O7 0.042706 0.841975 0.185080
O O8 0.967960 0.939474 0.259770
O O9 0.250000 0.658493 0.858848
O O10 0.526734 0.750000 0.846921
O O11 0.523600 0.596268 0.903170
O O12 0.479196 0.595083 0.796464
O O13 0.250000 0.148722 0.463052
O O14 0.986357 0.250000 0.449913
O O15 0.987204 0.133240 0.525140
O O16 0.750000 0.014610 0.066438
O O17 0.479695 0.926356 0.093460
O O18 0.500000 0.000000 0.000000
O O19 0.250000 0.150921 0.588919
O O20 0.517592 0.250000 0.601507
O O21 0.250000 0.476599 0.238556
O O22 0.250000 0.350366 0.865834
O O23 0.006818 0.250000 0.900729
#
# Coordination Sequence:
#
# PCOD9452026 Si02
#       8
#     8   8   8   8   8   8   8   8
#     4  11  22  34  54  83 114 147 186 234 282 331
#     4   9  18  33  54  79 105 135 172 216 268 324
#     4  10  22  42  64  84 111 149 192 237 282 326
#     4   9  18  35  58  80 107 145 187 233 284 336
#     4  10  21  36  56  84 116 146 180 223 272 328
#     4   8  16  33  56  82 112 147 186 228 279 339
#     4  11  23  38  57  81 112 149 189 232 279 334
#     4   9  17  31  53  79 106 136 171 214 262 315
#
# _framework density 21.899466
#
# number of rings (size 3 to 8) (size 9 to 14) (size 15 to 20)
#    0.000    2.375    1.250    1.875    0.000    3.500 
#    0.000    0.625    0.000    2.625    0.000    0.000 
#    0.000    0.000    0.000    0.000    0.000    0.000 
#
# Total GULP energy -357053.035687 kJ/mol
# GULP energy per Si atom -5578.953683 kJ/mol
# Density = 2.184962 g / cm^3
# Si number density = 21.899466 Si / 1000 Ang^3
#
#
#
# Elastic Constant Matrix: (Units=GPa)
#
#
# Indices 1 2 3 4 5 6 
#
# 1 40.7687 15.2015 0.5344 0.0000 0.0000 0.0000
# 2 15.2015 143.5456 75.5220 0.0000 0.0000 0.0000
# 3 0.5344 75.5220 138.2481 0.0000 0.0000 0.0000
# 4 0.0000 0.0000 0.0000 -2.2534 0.0000 0.0000
# 5 0.0000 0.0000 0.0000 0.0000 21.2821 0.0000
# 6 0.0000 0.0000 0.0000 0.0000 0.0000 12.7658
#
#
#
# Elastic Compliance Matrix: (Units=1/GPa)
#
#
# Indices 1 2 3 4 5 6 
#
# 1 0.025911 -0.003777 0.001963 0.000000 0.000000 0.000000
# 2 -0.003777 0.010327 -0.005627 0.000000 0.000000 0.000000
# 3 0.001963 -0.005627 0.010300 0.000000 0.000000 0.000000
# 4 0.000000 0.000000 0.000000 -0.443780 0.000000 0.000000
# 5 0.000000 0.000000 0.000000 0.000000 0.046988 0.000000
# 6 0.000000 0.000000 0.000000 0.000000 0.000000 0.078335
#
#
# Mechanical properties :
#
#
# Convention : Reuss Voigt Hill
#
# Bulk Modulus (GPa) = 31.58909 56.11979 43.85444
# Shear Modulus (GPa) = -20.28506 21.77920 0.74707
#
# Velocity S-wave (km/s) = -3.04679 3.15700 0.58470
# Velocity P-wave (km/s) = 1.44176 6.24265 4.53041
#
# Compressibility (1/GPa) = 0.03165650
#
# Stress axis : x y z
#
# Youngs Moduli (GPa) = 38.59348 96.83669 97.09206
#
# Poissons Ratio (x) = 0.36573 -0.19059
# Poissons Ratio (y) = 0.14576 0.54630
# Poissons Ratio (z) = -0.07576 0.54487
#
# Static dielectric constant tensor:
#      x y z
#    x 1.813330 0.000000 0.000000 
#    y 0.000000 1.863860 0.000000 
#    z 0.000000 0.000000 1.778630 
# 
# From -- ./inp_files/31407.got.cif
#   From: 2010.05.17/outbox.cif.g08.bks.cpg/sg59_16_cif.got.tgz:31407.got - 2010.06.03 14:40:33.
