data_PCOD9452446
_publ_section_title
;
Structure prediction by ZEFSAII (Michael W. Deem and Ramdas Pophale) SiO2 
 PCOD9452446
Probable space group: P M M N
;
_chemical_formula_sum "Si O2"
_cell_formula_units_Z 56
_cell_length_a 8.973693
_cell_length_b 14.344222
_cell_length_c 21.788622
_cell_angle_alpha 90.000000
_cell_angle_beta 90.000000
_cell_angle_gamma 90.000000
_cell_volume 2804.645468
_symmetry_space_group_name_H-M "P M M N"
_symmetry_group_IT_number 59
_space_group.IT_coordinate_system_code '2'
_symmetry_cell_setting 'orthorhombic'
loop_
_space_group_symop_operation_xyz
x,y,z
1/2-x,1/2-y,z
1/2+x,-y,-z
-x,1/2+y,-z
-x,-y,-z
1/2+x,1/2+y,-z
1/2-x,y,z
x,1/2-y,z
loop_
_atom_site_type_symbol
_atom_site_label
_atom_site_fract_x
_atom_site_fract_y
_atom_site_fract_z
Si Si1 0.579609 0.363607 0.481447
Si Si2 0.071929 0.473068 0.841714
Si Si3 0.926612 0.033148 0.716157
Si Si4 0.572708 0.860804 0.901566
Si Si5 0.420894 0.362781 0.604993
Si Si6 0.568966 0.857349 0.039747
Si Si7 0.070406 0.641238 0.657931
O O1 0.750000 0.394874 0.490895
O O2 0.582025 0.250000 0.482284
O O3 0.478097 0.393783 0.537957
O O4 0.531433 0.386888 0.412368
O O5 0.250000 0.468137 0.837285
O O6 0.020275 0.417594 0.902472
O O7 0.999530 0.434752 0.779863
O O8 0.017549 0.578190 0.853610
O O9 0.750000 0.033017 0.720696
O O10 0.988440 0.929634 0.702255
O O11 0.980768 0.095687 0.659298
O O12 0.750000 0.879770 0.896046
O O13 0.552338 0.750000 0.894494
O O14 0.522022 0.886114 0.971171
O O15 0.250000 0.392155 0.613946
O O16 0.427316 0.250000 0.606547
O O17 0.750000 0.859598 0.038567
O O18 0.524208 0.750000 0.048432
O O19 0.250000 0.633169 0.663585
O O20 0.032087 0.750000 0.667101
#
# Coordination Sequence:
#
# PCOD9452446 Si02
#       7
#     8   8   8   8   8   8   8
#     4   8  15  31  57  86 112 139 174 222 282 338
#     4  11  22  36  56  81 111 146 185 229 273 321
#     4  12  26  40  55  78 111 152 194 232 275 331
#     4   9  18  35  59  85 113 144 178 218 268 326
#     4  10  21  38  60  84 111 144 184 231 279 330
#     4   8  16  33  58  86 112 140 176 219 270 326
#     4   9  19  38  62  85 111 143 182 232 284 333
#
# _framework density 19.966873
#
# number of rings (size 3 to 8) (size 9 to 14) (size 15 to 20)
#    0.000    2.429    0.000    4.286    0.000    3.714 
#    0.000    3.571    0.000    3.000    0.000    0.000 
#    0.000    0.000    0.000    0.000    0.000    0.000 
#
# Total GULP energy -312767.513501 kJ/mol
# GULP energy per Si atom -5585.134170 kJ/mol
# Density = 1.992143 g / cm^3
# Si number density = 19.966873 Si / 1000 Ang^3
#
#
#
# Elastic Constant Matrix: (Units=GPa)
#
#
# Indices 1 2 3 4 5 6 
#
# 1 51.7419 12.6983 29.0150 0.0000 0.0000 0.0000
# 2 12.6983 34.8742 9.1078 0.0000 0.0000 0.0000
# 3 29.0150 9.1078 77.6135 0.0000 0.0000 0.0000
# 4 0.0000 0.0000 0.0000 21.1663 0.0000 0.0000
# 5 0.0000 0.0000 0.0000 0.0000 33.5314 0.0000
# 6 0.0000 0.0000 0.0000 0.0000 0.0000 23.7903
#
#
#
# Elastic Compliance Matrix: (Units=1/GPa)
#
#
# Indices 1 2 3 4 5 6 
#
# 1 0.026082 -0.007170 -0.008909 0.000000 0.000000 0.000000
# 2 -0.007170 0.031552 -0.001022 0.000000 0.000000 0.000000
# 3 -0.008909 -0.001022 0.016335 0.000000 0.000000 0.000000
# 4 0.000000 0.000000 0.000000 0.047245 0.000000 0.000000
# 5 0.000000 0.000000 0.000000 0.000000 0.029823 0.000000
# 6 0.000000 0.000000 0.000000 0.000000 0.000000 0.042034
#
#
# Mechanical properties :
#
#
# Convention : Reuss Voigt Hill
#
# Bulk Modulus (GPa) = 25.14686 29.54132 27.34409
# Shear Modulus (GPa) = 20.78745 23.25816 22.02280
#
# Velocity S-wave (km/s) = 3.23010 3.41667 3.32470
# Velocity P-wave (km/s) = 5.15102 5.51291 5.33504
#
# Compressibility (1/GPa) = 0.03976640
#
# Stress axis : x y z
#
# Youngs Moduli (GPa) = 38.34006 31.69350 61.21852
#
# Poissons Ratio (x) = 0.22725 0.54541
# Poissons Ratio (y) = 0.27491 0.06257
# Poissons Ratio (z) = 0.34158 0.03239
#
# Static dielectric constant tensor:
#      x y z
#    x 1.661640 0.000000 0.000000 
#    y 0.000000 1.730010 0.000000 
#    z 0.000000 0.000000 1.699230 
# 
# From -- ./inp_files/29091.got.cif
#   From: 2010.05.17/outbox.cif.g08.bks.cpg/sg59_15_cif.got.tgz:29091.got - 2010.06.03 14:40:33.
