data_PCOD9452576
_publ_section_title
;
Structure prediction by ZEFSAII (Michael W. Deem and Ramdas Pophale) SiO2 
 PCOD9452576
Probable space group: P M M N
;
_chemical_formula_sum "Si O2"
_cell_formula_units_Z 48
_cell_length_a 16.513232
_cell_length_b 8.648816
_cell_length_c 18.512164
_cell_angle_alpha 90.000000
_cell_angle_beta 90.000000
_cell_angle_gamma 90.000000
_cell_volume 2643.905506
_symmetry_space_group_name_H-M "P M M N"
_symmetry_group_IT_number 59
_space_group.IT_coordinate_system_code '2'
_symmetry_cell_setting 'orthorhombic'
loop_
_space_group_symop_operation_xyz
x,y,z
1/2-x,1/2-y,z
1/2+x,-y,-z
-x,1/2+y,-z
-x,-y,-z
1/2+x,1/2+y,-z
1/2-x,y,z
x,1/2-y,z
loop_
_atom_site_type_symbol
_atom_site_label
_atom_site_fract_x
_atom_site_fract_y
_atom_site_fract_z
Si Si1 0.415656 0.935528 0.031788
Si Si2 0.158046 0.565160 0.323010
Si Si3 0.008809 0.564718 0.420308
Si Si4 0.750000 0.435841 0.216942
Si Si5 0.750000 0.438090 0.048603
Si Si6 0.432398 0.066661 0.190449
Si Si7 0.583887 0.563921 0.278303
O O1 0.418345 0.750000 0.027251
O O2 0.412028 0.988698 0.114593
O O3 0.333790 0.988272 0.990034
O O4 0.500000 0.000000 0.000000
O O5 0.250000 0.536298 0.343945
O O6 0.147742 0.750000 0.309919
O O7 0.094675 0.520178 0.384768
O O8 0.134199 0.477522 0.250161
O O9 0.005848 0.750000 0.424743
O O10 0.000000 0.500000 0.500000
O O11 0.943037 0.517093 0.359583
O O12 0.750000 0.250000 0.219228
O O13 0.750000 0.484103 0.132593
O O14 0.670277 0.499894 0.255510
O O15 0.750000 0.250000 0.046149
O O16 0.439004 0.250000 0.181429
O O17 0.516098 0.001069 0.223561
O O18 0.582564 0.750000 0.274711
#
# Coordination Sequence:
#
# PCOD9452576 Si02
#       7
#     8   8   8   4   4   8   8
#     4  11  22  39  59  83 114 155 196 242 299 354
#     4   9  19  37  59  82 110 149 192 232 283 346
#     4   9  19  36  58  83 115 149 186 231 283 340
#     4  11  21  37  61  89 116 145 192 249 289 332
#     4   9  22  39  57  81 114 151 192 237 291 348
#     4  11  22  36  56  84 116 148 191 244 290 343
#     4  10  21  39  60  84 114 156 197 233 285 349
#
# _framework density 18.154959999999999
#
# number of rings (size 3 to 8) (size 9 to 14) (size 15 to 20)
#    0.000    2.000    0.000    4.750    1.167    5.000 
#    1.500    3.750    0.000    0.000    0.000    0.000 
#    0.000    0.000    0.000    0.000    0.000    0.000 
#
# Total GULP energy -268006.706464 kJ/mol
# GULP energy per Si atom -5583.473051 kJ/mol
# Density = 1.811364 g / cm^3
# Si number density = 18.154960 Si / 1000 Ang^3
#
#
#
# Elastic Constant Matrix: (Units=GPa)
#
#
# Indices 1 2 3 4 5 6 
#
# 1 157.0391 44.9291 100.5535 0.0000 0.0000 0.0000
# 2 44.9291 58.8753 42.6775 0.0000 0.0000 0.0000
# 3 100.5535 42.6775 169.0195 0.0000 0.0000 0.0000
# 4 0.0000 0.0000 0.0000 33.6605 0.0000 0.0000
# 5 0.0000 0.0000 0.0000 0.0000 11.1690 0.0000
# 6 0.0000 0.0000 0.0000 0.0000 0.0000 29.6230
#
#
#
# Elastic Compliance Matrix: (Units=1/GPa)
#
#
# Indices 1 2 3 4 5 6 
#
# 1 0.011201 -0.004550 -0.005515 0.000000 0.000000 0.000000
# 2 -0.004550 0.022639 -0.003009 0.000000 0.000000 0.000000
# 3 -0.005515 -0.003009 0.009957 0.000000 0.000000 0.000000
# 4 0.000000 0.000000 0.000000 0.029708 0.000000 0.000000
# 5 0.000000 0.000000 0.000000 0.000000 0.089534 0.000000
# 6 0.000000 0.000000 0.000000 0.000000 0.000000 0.033758
#
#
# Mechanical properties :
#
#
# Convention : Reuss Voigt Hill
#
# Bulk Modulus (GPa) = 56.66227 84.58380 70.62303
# Shear Modulus (GPa) = 21.85056 28.00874 24.92965
#
# Velocity S-wave (km/s) = 3.47300 3.93206 3.70964
# Velocity P-wave (km/s) = 6.88189 8.20401 7.57186
#
# Compressibility (1/GPa) = 0.01764843
#
# Stress axis : x y z
#
# Youngs Moduli (GPa) = 89.28002 44.17205 100.43050
#
# Poissons Ratio (x) = 0.20099 0.55384
# Poissons Ratio (y) = 0.40623 0.30223
# Poissons Ratio (z) = 0.49235 0.13293
#
# Static dielectric constant tensor:
#      x y z
#    x 1.623460 0.000000 0.000000 
#    y 0.000000 1.620350 0.000000 
#    z 0.000000 0.000000 1.598690 
# 
# From -- ./inp_files/27422.got.cif
#   From: 2010.05.17/outbox.cif.g08.bks.cpg/sg59_14_cif.got.tgz:27422.got - 2010.06.03 14:40:33.
