data_PCOD9452996
_publ_section_title
;
Structure prediction by ZEFSAII (Michael W. Deem and Ramdas Pophale) SiO2 
 PCOD9452996
Probable space group: P M M N
;
_chemical_formula_sum "Si O2"
_cell_formula_units_Z 48
_cell_length_a 10.150963
_cell_length_b 27.632879
_cell_length_c 9.877033
_cell_angle_alpha 90.000000
_cell_angle_beta 90.000000
_cell_angle_gamma 90.000000
_cell_volume 2770.511039
_symmetry_space_group_name_H-M "P M M N"
_symmetry_group_IT_number 59
_space_group.IT_coordinate_system_code '2'
_symmetry_cell_setting 'orthorhombic'
loop_
_space_group_symop_operation_xyz
x,y,z
1/2-x,1/2-y,z
1/2+x,-y,-z
-x,1/2+y,-z
-x,-y,-z
1/2+x,1/2+y,-z
1/2-x,y,z
x,1/2-y,z
loop_
_atom_site_type_symbol
_atom_site_label
_atom_site_fract_x
_atom_site_fract_y
_atom_site_fract_z
Si Si1 0.001066 0.096148 0.029288
Si Si2 0.250000 0.967800 0.901177
Si Si3 0.094839 0.303361 0.719402
Si Si4 0.750000 0.954185 0.878793
Si Si5 0.250000 0.017397 0.623172
Si Si6 0.750000 0.039546 0.657848
Si Si7 0.904622 0.197059 0.980429
Si Si8 0.475240 0.408522 0.705060
O O1 0.878569 0.060874 0.052290
O O2 0.954627 0.150537 0.060582
O O3 0.120420 0.078367 0.121499
O O4 0.039335 0.093641 0.869475
O O5 0.250000 0.978145 0.742960
O O6 0.250000 0.018811 0.976887
O O7 0.250000 0.307314 0.758661
O O8 0.080869 0.250000 0.651327
O O9 0.056672 0.354418 0.651011
O O10 0.996602 0.301612 0.847637
O O11 0.750000 0.997392 0.771275
O O12 0.375431 0.052282 0.644201
O O13 0.250000 0.989006 0.483112
O O14 0.878244 0.072940 0.675387
O O15 0.750000 0.189956 0.944909
O O16 0.916189 0.250000 0.046744
#
# Coordination Sequence:
#
# PCOD9452996 Si02
#       8
#     8   4   8   4   4   4   8   8
#     4  11  20  33  56  82 104 144 183 224 267 320
#     4  12  20  36  55  79 105 143 188 214 260 321
#     4   9  18  31  51  80 110 140 177 222 275 330
#     4  12  22  36  53  77 107 143 186 224 262 315
#     4  12  24  38  55  79 109 151 184 222 274 326
#     4  12  26  38  53  79 113 151 182 232 274 324
#     4   9  18  31  48  78 114 140 168 219 283 332
#     4  11  20  36  55  80 111 146 180 222 279 320
#
# _framework density 17.325323000000001
#
# number of rings (size 3 to 8) (size 9 to 14) (size 15 to 20)
#    0.000    1.333    5.000    2.000    7.000    0.000 
#    0.000    0.000    0.000    0.000    0.000    7.000 
#    0.000    0.000    0.000    0.000    0.000    0.000 
#
# Total GULP energy -267532.359213 kJ/mol
# GULP energy per Si atom -5573.590817 kJ/mol
# Density = 1.728589 g / cm^3
# Si number density = 17.325323 Si / 1000 Ang^3
#
#
#
# Elastic Constant Matrix: (Units=GPa)
#
#
# Indices 1 2 3 4 5 6 
#
# 1 110.9876 53.1359 6.5606 0.0000 0.0000 0.0000
# 2 53.1359 137.3703 16.7021 0.0000 0.0000 0.0000
# 3 6.5606 16.7021 42.2681 0.0000 0.0000 0.0000
# 4 0.0000 0.0000 0.0000 5.7655 0.0000 0.0000
# 5 0.0000 0.0000 0.0000 0.0000 7.2410 0.0000
# 6 0.0000 0.0000 0.0000 0.0000 0.0000 36.8559
#
#
#
# Elastic Compliance Matrix: (Units=1/GPa)
#
#
# Indices 1 2 3 4 5 6 
#
# 1 0.011058 -0.004274 -0.000028 0.000000 0.000000 0.000000
# 2 -0.004274 0.009299 -0.003011 0.000000 0.000000 0.000000
# 3 -0.000028 -0.003011 0.024853 0.000000 0.000000 0.000000
# 4 0.000000 0.000000 0.000000 0.173447 0.000000 0.000000
# 5 0.000000 0.000000 0.000000 0.000000 0.138102 0.000000
# 6 0.000000 0.000000 0.000000 0.000000 0.000000 0.027133
#
#
# Mechanical properties :
#
#
# Convention : Reuss Voigt Hill
#
# Bulk Modulus (GPa) = 32.69651 49.26928 40.98290
# Shear Modulus (GPa) = 12.23361 24.25430 18.24396
#
# Velocity S-wave (km/s) = 2.66016 3.74563 3.24855
# Velocity P-wave (km/s) = 5.32431 6.87065 6.14630
#
# Compressibility (1/GPa) = 0.03058430
#
# Stress axis : x y z
#
# Youngs Moduli (GPa) = 90.43396 107.53993 40.23729
#
# Poissons Ratio (x) = 0.45961 0.00111
# Poissons Ratio (y) = 0.38651 0.12116
# Poissons Ratio (z) = 0.00249 0.32381
#
# Static dielectric constant tensor:
#      x y z
#    x 1.597170 0.000000 0.000000 
#    y 0.000000 1.635240 0.000000 
#    z 0.000000 0.000000 1.559170 
# 
# From -- ./inp_files/6472.got.cif
#   From: 2010.05.17/outbox.cif.g08.bks.cpg/sg59_4_cif.got.tgz:6472.got - 2010.06.03 14:40:33.
