data_PCOD9452330
_publ_section_title
;
Structure prediction by ZEFSAII (Michael W. Deem and Ramdas Pophale) SiO2 
 PCOD9452330
Probable space group: P M M N
;
_chemical_formula_sum "Si O2"
_cell_formula_units_Z 52
_cell_length_a 8.586766
_cell_length_b 25.877375
_cell_length_c 12.159021
_cell_angle_alpha 90.000000
_cell_angle_beta 90.000000
_cell_angle_gamma 90.000000
_cell_volume 2701.770503
_symmetry_space_group_name_H-M "P M M N"
_symmetry_group_IT_number 59
_space_group.IT_coordinate_system_code '2'
_symmetry_cell_setting 'orthorhombic'
loop_
_space_group_symop_operation_xyz
x,y,z
1/2-x,1/2-y,z
1/2+x,-y,-z
-x,1/2+y,-z
-x,-y,-z
1/2+x,1/2+y,-z
1/2-x,y,z
x,1/2-y,z
loop_
_atom_site_type_symbol
_atom_site_label
_atom_site_fract_x
_atom_site_fract_y
_atom_site_fract_z
Si Si1 0.064627 0.310568 0.626427
Si Si2 0.567466 0.136917 0.841863
Si Si3 0.432084 0.339293 0.065910
Si Si4 0.435526 0.477274 0.884951
Si Si5 0.064620 0.845447 0.598392
Si Si6 0.564013 0.571376 0.761649
Si Si7 0.026650 0.250000 0.249445
O O1 0.250000 0.313696 0.608750
O O2 0.019177 0.250000 0.623472
O O3 0.020905 0.335027 0.743101
O O4 0.978965 0.341154 0.528946
O O5 0.750000 0.136286 0.818202
O O6 0.505817 0.078784 0.860031
O O7 0.533779 0.165155 0.957425
O O8 0.250000 0.339587 0.034410
O O9 0.465875 0.392052 0.132010
O O10 0.459344 0.294508 0.153618
O O11 0.250000 0.473512 0.893117
O O12 0.485031 0.517206 0.789445
O O13 0.500000 0.500000 0.000000
O O14 0.250000 0.841164 0.615400
O O15 0.002890 0.896941 0.658319
O O16 0.987278 0.795824 0.657388
O O17 0.750000 0.565853 0.750576
#
# Coordination Sequence:
#
# PCOD9452330 Si02
#       7
#     8   8   8   8   8   8   4
#     4  11  25  45  68  91 124 170 217 260 312 373
#     4  12  26  42  63  92 129 167 211 258 313 377
#     4  10  21  37  59  89 126 165 208 256 309 371
#     4  12  23  40  65  93 128 166 208 256 315 376
#     4  11  22  40  65  95 128 164 211 262 316 372
#     4  10  21  38  63  95 128 163 207 256 310 370
#     4  10  22  36  60  90 128 162 208 258 320 370
#
# _framework density 19.246638000000001
#
# number of rings (size 3 to 8) (size 9 to 14) (size 15 to 20)
#    0.000    1.077    2.308    4.615    1.077    5.846 
#    0.000    0.769    0.000    0.000    0.000    0.000 
#    0.000    0.000    0.000    0.000    0.000    0.000 
#
# Total GULP energy -289696.520536 kJ/mol
# GULP energy per Si atom -5571.086933 kJ/mol
# Density = 1.920283 g / cm^3
# Si number density = 19.246638 Si / 1000 Ang^3
#
#
#
# Elastic Constant Matrix: (Units=GPa)
#
#
# Indices 1 2 3 4 5 6 
#
# 1 27.2906 -0.2012 8.0814 0.0000 0.0000 0.0000
# 2 -0.2012 29.5878 8.6607 0.0000 0.0000 0.0000
# 3 8.0814 8.6607 77.9548 0.0000 0.0000 0.0000
# 4 0.0000 0.0000 0.0000 25.0625 0.0000 0.0000
# 5 0.0000 0.0000 0.0000 0.0000 15.2201 0.0000
# 6 0.0000 0.0000 0.0000 0.0000 0.0000 -1.0378
#
#
#
# Elastic Compliance Matrix: (Units=1/GPa)
#
#
# Indices 1 2 3 4 5 6 
#
# 1 0.037864 0.001454 -0.004087 0.000000 0.000000 0.000000
# 2 0.001454 0.034990 -0.004038 0.000000 0.000000 0.000000
# 3 -0.004087 -0.004038 0.013700 0.000000 0.000000 0.000000
# 4 0.000000 0.000000 0.000000 0.039900 0.000000 0.000000
# 5 0.000000 0.000000 0.000000 0.000000 0.065703 0.000000
# 6 0.000000 0.000000 0.000000 0.000000 0.000000 -0.963544
#
#
# Mechanical properties :
#
#
# Convention : Reuss Voigt Hill
#
# Bulk Modulus (GPa) = 13.65912 18.65723 16.15817
# Shear Modulus (GPa) = -6.81531 15.73511 4.45990
#
# Velocity S-wave (km/s) = -1.88381 2.86239 1.52390
# Velocity P-wave (km/s) = 1.54294 4.54303 3.39262
#
# Compressibility (1/GPa) = 0.07321117
#
# Stress axis : x y z
#
# Youngs Moduli (GPa) = 26.41063 28.57996 72.99144
#
# Poissons Ratio (x) = -0.04155 0.29830
# Poissons Ratio (y) = -0.03839 0.29474
# Poissons Ratio (z) = 0.10793 0.11541
#
# Static dielectric constant tensor:
#      x y z
#    x 1.666720 0.000000 0.000000 
#    y 0.000000 1.660910 0.000000 
#    z 0.000000 0.000000 1.661190 
# 
# From -- ./inp_files/14587.got.cif
#   From: 2010.05.17/outbox.cif.g08.bks.cpg/sg59_8_cif.got.tgz:14587.got - 2010.06.03 14:40:33.
