data_PCOD9452870
_publ_section_title
;
Structure prediction by ZEFSAII (Michael W. Deem and Ramdas Pophale) SiO2 
 PCOD9452870
Probable space group: P M M N
;
_chemical_formula_sum "Si O2"
_cell_formula_units_Z 24
_cell_length_a 10.764966
_cell_length_b 13.567395
_cell_length_c 7.093087
_cell_angle_alpha 90.000000
_cell_angle_beta 90.000000
_cell_angle_gamma 90.000000
_cell_volume 1035.963415
_symmetry_space_group_name_H-M "P M M N"
_symmetry_group_IT_number 59
_space_group.IT_coordinate_system_code '2'
_symmetry_cell_setting 'orthorhombic'
loop_
_space_group_symop_operation_xyz
x,y,z
1/2-x,1/2-y,z
1/2+x,-y,-z
-x,1/2+y,-z
-x,-y,-z
1/2+x,1/2+y,-z
1/2-x,y,z
x,1/2-y,z
loop_
_atom_site_type_symbol
_atom_site_label
_atom_site_fract_x
_atom_site_fract_y
_atom_site_fract_z
Si Si1 0.891198 0.133898 0.879606
Si Si2 0.443826 0.860607 0.677461
Si Si3 0.116346 0.425962 0.611439
O O1 0.750000 0.093631 0.855247
O O2 0.885268 0.250000 0.835344
O O3 0.004071 0.092432 0.756793
O O4 0.928335 0.126227 0.099571
O O5 0.398675 0.750000 0.632637
O O6 0.579282 0.873220 0.583773
O O7 0.378582 0.955810 0.587684
O O8 0.250000 0.391403 0.681458
#
# Coordination Sequence:
#
# PCOD9452870 Si02
#       3
#     8   8   8
#     4  10  22  41  66  94 125 166 211 252 303 372
#     4  10  23  42  62  88 126 170 211 250 303 375
#     4  11  24  41  65  97 128 160 205 263 319 366
#
# _framework density 23.166841999999999
#
# number of rings (size 3 to 8) (size 9 to 14) (size 15 to 20)
#    0.000    1.667    0.000    3.000    0.000   12.667 
#    0.000    6.667    0.000    0.000    0.000    0.000 
#    0.000    0.000    0.000    0.000    0.000    0.000 
#
# Total GULP energy -133900.272060 kJ/mol
# GULP energy per Si atom -5579.178002 kJ/mol
# Density = 2.311411 g / cm^3
# Si number density = 23.166842 Si / 1000 Ang^3
#
#
#
# Elastic Constant Matrix: (Units=GPa)
#
#
# Indices 1 2 3 4 5 6 
#
# 1 211.4559 63.9541 93.6590 0.0000 0.0000 0.0000
# 2 63.9541 103.5219 25.8277 0.0000 0.0000 0.0000
# 3 93.6590 25.8277 120.3252 0.0000 0.0000 0.0000
# 4 0.0000 0.0000 0.0000 -13.1856 0.0000 0.0000
# 5 0.0000 0.0000 0.0000 0.0000 15.6114 0.0000
# 6 0.0000 0.0000 0.0000 0.0000 0.0000 1.8568
#
#
#
# Elastic Compliance Matrix: (Units=1/GPa)
#
#
# Indices 1 2 3 4 5 6 
#
# 1 0.008408 -0.003763 -0.005737 0.000000 0.000000 0.000000
# 2 -0.003763 0.011891 0.000377 0.000000 0.000000 0.000000
# 3 -0.005737 0.000377 0.012696 0.000000 0.000000 0.000000
# 4 0.000000 0.000000 0.000000 -0.075841 0.000000 0.000000
# 5 0.000000 0.000000 0.000000 0.000000 0.064056 0.000000
# 6 0.000000 0.000000 0.000000 0.000000 0.000000 0.538567
#
#
# Mechanical properties :
#
#
# Convention : Reuss Voigt Hill
#
# Bulk Modulus (GPa) = 67.80733 89.13164 78.46949
# Shear Modulus (GPa) = 8.57722 17.64734 13.11228
#
# Velocity S-wave (km/s) = 1.92624 2.76298 2.38164
# Velocity P-wave (km/s) = 5.85490 6.98112 6.44267
#
# Compressibility (1/GPa) = 0.01474767
#
# Stress axis : x y z
#
# Youngs Moduli (GPa) = 118.92807 84.10000 78.76710
#
# Poissons Ratio (x) = 0.31649 0.45190
# Poissons Ratio (y) = 0.44755 -0.02969
# Poissons Ratio (z) = 0.68232 -0.03170
#
# Static dielectric constant tensor:
#      x y z
#    x 1.855930 0.000000 0.000000 
#    y 0.000000 1.895390 0.000000 
#    z 0.000000 0.000000 1.893330 
# 
# From -- ./inp_files/4987.got.cif
#   From: 2010.05.17/outbox.cif.g08.bks.cpg/sg59_3_cif.got.tgz:4987.got - 2010.06.03 14:40:33.
