data_PCOD9452219
_publ_section_title
;
Structure prediction by ZEFSAII (Michael W. Deem and Ramdas Pophale) SiO2 
 PCOD9452219
Probable space group: P M M N
;
_chemical_formula_sum "Si O2"
_cell_formula_units_Z 40
_cell_length_a 8.611586
_cell_length_b 10.313995
_cell_length_c 24.420262
_cell_angle_alpha 90.000000
_cell_angle_beta 90.000000
_cell_angle_gamma 90.000000
_cell_volume 2169.004129
_symmetry_space_group_name_H-M "P M M N"
_symmetry_group_IT_number 59
_space_group.IT_coordinate_system_code '2'
_symmetry_cell_setting 'orthorhombic'
loop_
_space_group_symop_operation_xyz
x,y,z
1/2-x,1/2-y,z
1/2+x,-y,-z
-x,1/2+y,-z
-x,-y,-z
1/2+x,1/2+y,-z
1/2-x,y,z
x,1/2-y,z
loop_
_atom_site_type_symbol
_atom_site_label
_atom_site_fract_x
_atom_site_fract_y
_atom_site_fract_z
Si Si1 0.437624 0.398440 0.242725
Si Si2 0.563564 0.250000 0.919467
Si Si3 0.564085 0.898968 0.456170
Si Si4 0.061180 0.750000 0.954395
Si Si5 0.062527 0.601189 0.335377
Si Si6 0.063661 0.518204 0.875154
O O1 0.250000 0.405541 0.238955
O O2 0.479482 0.250000 0.256341
O O3 0.488365 0.499683 0.289278
O O4 0.506832 0.435665 0.184096
O O5 0.750000 0.250000 0.918825
O O6 0.502913 0.378452 0.890061
O O7 0.509125 0.250000 0.982852
O O8 0.750000 0.903008 0.456633
O O9 0.515086 0.750000 0.468421
O O10 0.504305 0.929533 0.395146
O O11 0.500000 0.000000 0.500000
O O12 0.250000 0.750000 0.954862
O O13 0.011525 0.623115 0.920689
O O14 0.250000 0.596224 0.338571
O O15 0.018482 0.750000 0.321607
O O16 0.250000 0.514027 0.875621
#
# Coordination Sequence:
#
# PCOD9452219 Si02
#       6
#     8   4   8   4   8   8
#     4  10  21  37  57  83 114 151 193 235 284 343
#     4  11  23  39  59  85 113 149 192 235 284 347
#     4  10  21  37  58  86 119 155 195 238 285 337
#     4   9  20  39  61  83 115 149 186 235 288 343
#     4   9  19  36  57  81 113 153 194 237 282 332
#     4  11  22  39  59  85 116 149 188 237 291 343
#
# _framework density 18.441644
#
# number of rings (size 3 to 8) (size 9 to 14) (size 15 to 20)
#    0.000    2.000    1.000    2.100    1.400    2.800 
#    0.000    5.000    0.000    0.000    0.000    0.000 
#    0.000    0.000    0.000    0.000    0.000    0.000 
#
# Total GULP energy -223417.151331 kJ/mol
# GULP energy per Si atom -5585.428783 kJ/mol
# Density = 1.839967 g / cm^3
# Si number density = 18.441644 Si / 1000 Ang^3
#
#
#
# Elastic Constant Matrix: (Units=GPa)
#
#
# Indices 1 2 3 4 5 6 
#
# 1 24.1008 36.7096 32.7746 0.0000 0.0000 0.0000
# 2 36.7096 150.7274 87.6326 0.0000 0.0000 0.0000
# 3 32.7746 87.6326 124.1152 0.0000 0.0000 0.0000
# 4 0.0000 0.0000 0.0000 45.0916 0.0000 0.0000
# 5 0.0000 0.0000 0.0000 0.0000 32.1857 0.0000
# 6 0.0000 0.0000 0.0000 0.0000 0.0000 11.1903
#
#
#
# Elastic Compliance Matrix: (Units=1/GPa)
#
#
# Indices 1 2 3 4 5 6 
#
# 1 0.074771 -0.011418 -0.011683 0.000000 0.000000 0.000000
# 2 -0.011418 0.012998 -0.006162 0.000000 0.000000 0.000000
# 3 -0.011683 -0.006162 0.015493 0.000000 0.000000 0.000000
# 4 0.000000 0.000000 0.000000 0.022177 0.000000 0.000000
# 5 0.000000 0.000000 0.000000 0.000000 0.031070 0.000000
# 6 0.000000 0.000000 0.000000 0.000000 0.000000 0.089363
#
#
# Mechanical properties :
#
#
# Convention : Reuss Voigt Hill
#
# Bulk Modulus (GPa) = 22.35329 68.13077 45.24203
# Shear Modulus (GPa) = 15.65875 27.14866 21.40371
#
# Velocity S-wave (km/s) = 2.91709 3.84101 3.41048
# Velocity P-wave (km/s) = 4.84699 7.52963 6.33201
#
# Compressibility (1/GPa) = 0.04473614
#
# Stress axis : x y z
#
# Youngs Moduli (GPa) = 13.37410 76.93415 64.54562
#
# Poissons Ratio (x) = 0.87846 0.75406
# Poissons Ratio (y) = 0.15271 0.39775
# Poissons Ratio (z) = 0.15624 0.47409
#
# Static dielectric constant tensor:
#      x y z
#    x 1.623170 0.000000 0.000000 
#    y 0.000000 1.626010 0.000000 
#    z 0.000000 0.000000 1.594240 
# 
# From -- ./inp_files/32388.got.cif
#   From: 2010.05.17/outbox.cif.g08.bks.cpg/sg59_17_cif.got.tgz:32388.got - 2010.06.03 14:40:33.
