data_PCOD9452627
_publ_section_title
;
Structure prediction by ZEFSAII (Michael W. Deem and Ramdas Pophale) SiO2 
 PCOD9452627
Probable space group: P M M N
;
_chemical_formula_sum "Si O2"
_cell_formula_units_Z 40
_cell_length_a 23.197709
_cell_length_b 8.079073
_cell_length_c 10.155029
_cell_angle_alpha 90.000000
_cell_angle_beta 90.000000
_cell_angle_gamma 90.000000
_cell_volume 1903.214757
_symmetry_space_group_name_H-M "P M M N"
_symmetry_group_IT_number 59
_space_group.IT_coordinate_system_code '2'
_symmetry_cell_setting 'orthorhombic'
loop_
_space_group_symop_operation_xyz
x,y,z
1/2-x,1/2-y,z
1/2+x,-y,-z
-x,1/2+y,-z
-x,-y,-z
1/2+x,1/2+y,-z
1/2-x,y,z
x,1/2-y,z
loop_
_atom_site_type_symbol
_atom_site_label
_atom_site_fract_x
_atom_site_fract_y
_atom_site_fract_z
Si Si1 0.981939 0.449438 0.351188
Si Si2 0.312681 0.452183 0.442838
Si Si3 0.901767 0.948143 0.771902
Si Si4 0.146043 0.445792 0.723909
Si Si5 0.814655 0.444174 0.992433
O O1 0.977074 0.250000 0.347971
O O2 0.033042 0.505641 0.252163
O O3 0.000000 0.500000 0.500000
O O4 0.921238 0.523893 0.306569
O O5 0.250000 0.502047 0.392398
O O6 0.314900 0.250000 0.442939
O O7 0.363138 0.513127 0.349112
O O8 0.321544 0.505183 0.592633
O O9 0.904383 0.750000 0.760064
O O10 0.865862 0.985294 0.902580
O O11 0.156178 0.250000 0.738590
O O12 0.168561 0.529336 0.855813
O O13 0.750000 0.514582 0.967286
O O14 0.812312 0.250000 0.964613
#
# Coordination Sequence:
#
# PCOD9452627 Si02
#       5
#     8   8   8   8   8
#     4  11  22  39  63  93 127 161 204 259 311 366
#     4   9  17  32  57  88 117 149 200 255 298 353
#     4  10  21  39  63  89 119 161 208 251 302 363
#     4  11  22  39  63  91 122 164 209 252 308 367
#     4  11  25  43  61  89 128 164 202 253 312 369
#
# _framework density 21.017073
#
# number of rings (size 3 to 8) (size 9 to 14) (size 15 to 20)
#    0.000    1.600    2.000    3.000    0.000    5.600 
#    0.000    0.000    0.000    3.600    0.000    0.000 
#    0.000    0.000    0.000    0.000    0.000    0.000 
#
# Total GULP energy -223465.686887 kJ/mol
# GULP energy per Si atom -5586.642172 kJ/mol
# Density = 2.096924 g / cm^3
# Si number density = 21.017073 Si / 1000 Ang^3
#
#
#
# Elastic Constant Matrix: (Units=GPa)
#
#
# Indices 1 2 3 4 5 6 
#
# 1 84.4424 -11.3997 -12.5265 0.0000 0.0000 0.0000
# 2 -11.3997 15.5677 -15.2371 0.0000 0.0000 0.0000
# 3 -12.5265 -15.2371 52.8691 0.0000 0.0000 0.0000
# 4 0.0000 0.0000 0.0000 17.1475 0.0000 0.0000
# 5 0.0000 0.0000 0.0000 0.0000 -12.1329 0.0000
# 6 0.0000 0.0000 0.0000 0.0000 0.0000 4.8759
#
#
#
# Elastic Compliance Matrix: (Units=1/GPa)
#
#
# Indices 1 2 3 4 5 6 
#
# 1 0.016309 0.021903 0.010177 0.000000 0.000000 0.000000
# 2 0.021903 0.118892 0.039455 0.000000 0.000000 0.000000
# 3 0.010177 0.039455 0.032697 0.000000 0.000000 0.000000
# 4 0.000000 0.000000 0.000000 0.058318 0.000000 0.000000
# 5 0.000000 0.000000 0.000000 0.000000 -0.082421 0.000000
# 6 0.000000 0.000000 0.000000 0.000000 0.000000 0.205090
#
#
# Mechanical properties :
#
#
# Convention : Reuss Voigt Hill
#
# Bulk Modulus (GPa) = 3.21578 8.28362 5.74970
# Shear Modulus (GPa) = 16.15662 14.78093 15.46878
#
# Velocity S-wave (km/s) = 2.77562 2.65482 2.71589
# Velocity P-wave (km/s) = 3.43591 3.65341 3.54633
#
# Compressibility (1/GPa) = 0.31096680
#
# Stress axis : x y z
#
# Youngs Moduli (GPa) = 61.31594 8.41102 30.58394
#
# Poissons Ratio (x) = -0.18423 -0.31125
# Poissons Ratio (y) = -1.34302 -1.20668
# Poissons Ratio (z) = -0.62400 -0.33185
#
# Static dielectric constant tensor:
#      x y z
#    x 1.992120 0.000000 0.000000 
#    y 0.000000 1.754940 0.000000 
#    z 0.000000 0.000000 1.728720 
# 
# From -- ./inp_files/5646.got.cif
#   From: 2010.05.17/outbox.cif.g08.bks.cpg/sg59_3_cif.got.tgz:5646.got - 2010.06.03 14:40:33.
