data_PCOD9452038
_publ_section_title
;
Structure prediction by ZEFSAII (Michael W. Deem and Ramdas Pophale) SiO2 
 PCOD9452038
Probable space group: P M M N
;
_chemical_formula_sum "Si O2"
_cell_formula_units_Z 40
_cell_length_a 8.642776
_cell_length_b 14.680596
_cell_length_c 17.707165
_cell_angle_alpha 90.000000
_cell_angle_beta 90.000000
_cell_angle_gamma 90.000000
_cell_volume 2246.704622
_symmetry_space_group_name_H-M "P M M N"
_symmetry_group_IT_number 59
_space_group.IT_coordinate_system_code '2'
_symmetry_cell_setting 'orthorhombic'
loop_
_space_group_symop_operation_xyz
x,y,z
1/2-x,1/2-y,z
1/2+x,-y,-z
-x,1/2+y,-z
-x,-y,-z
1/2+x,1/2+y,-z
1/2-x,y,z
x,1/2-y,z
loop_
_atom_site_type_symbol
_atom_site_label
_atom_site_fract_x
_atom_site_fract_y
_atom_site_fract_z
Si Si1 0.561720 0.250000 0.653921
Si Si2 0.063017 0.645354 0.991812
Si Si3 0.935238 0.515468 0.118751
Si Si4 0.436941 0.944598 0.282749
Si Si5 0.935921 0.250000 0.477622
Si Si6 0.564247 0.941501 0.569772
O O1 0.750000 0.250000 0.653716
O O2 0.511649 0.342290 0.695184
O O3 0.514642 0.250000 0.566004
O O4 0.250000 0.644877 0.995573
O O5 0.012092 0.750000 0.983685
O O6 0.999351 0.597553 0.067149
O O7 0.016648 0.578555 0.923027
O O8 0.750000 0.519044 0.118619
O O9 0.996707 0.524056 0.203172
O O10 0.250000 0.943960 0.278143
O O11 0.481268 0.010400 0.351880
O O12 0.750000 0.250000 0.476191
O O13 0.999373 0.159645 0.438570
O O14 0.750000 0.940942 0.565791
O O15 0.500000 0.000000 0.500000
#
# Coordination Sequence:
#
# PCOD9452038 Si02
#       6
#     4   8   8   8   4   8
#     4   9  18  35  57  81 108 147 190 225 275 344
#     4   9  19  38  61  80 107 149 185 218 273 340
#     4  10  21  36  56  86 116 139 181 234 277 327
#     4  10  21  38  58  81 115 153 187 227 282 343
#     4  11  21  39  61  83 112 153 198 241 291 346
#     4  11  22  38  60  85 115 152 196 242 289 344
#
# _framework density 17.803854000000001
#
# number of rings (size 3 to 8) (size 9 to 14) (size 15 to 20)
#    0.000    2.000    2.000    1.500    1.400    2.800 
#    1.800    0.000    0.000    0.000    0.000    0.000 
#    0.000    0.000    0.000    0.000    0.000    0.000 
#
# Total GULP energy -223334.062668 kJ/mol
# GULP energy per Si atom -5583.351567 kJ/mol
# Density = 1.776333 g / cm^3
# Si number density = 17.803854 Si / 1000 Ang^3
#
#
#
# Elastic Constant Matrix: (Units=GPa)
#
#
# Indices 1 2 3 4 5 6 
#
# 1 25.7440 39.0829 39.5629 0.0000 0.0000 0.0000
# 2 39.0829 192.4060 106.6492 0.0000 0.0000 0.0000
# 3 39.5629 106.6492 184.4283 0.0000 0.0000 0.0000
# 4 0.0000 0.0000 0.0000 12.7918 0.0000 0.0000
# 5 0.0000 0.0000 0.0000 0.0000 34.2183 0.0000
# 6 0.0000 0.0000 0.0000 0.0000 0.0000 27.9352
#
#
#
# Elastic Compliance Matrix: (Units=1/GPa)
#
#
# Indices 1 2 3 4 5 6 
#
# 1 0.065581 -0.008129 -0.009367 0.000000 0.000000 0.000000
# 2 -0.008129 0.008657 -0.003262 0.000000 0.000000 0.000000
# 3 -0.009367 -0.003262 0.009318 0.000000 0.000000 0.000000
# 4 0.000000 0.000000 0.000000 0.078175 0.000000 0.000000
# 5 0.000000 0.000000 0.000000 0.000000 0.029224 0.000000
# 6 0.000000 0.000000 0.000000 0.000000 0.000000 0.035797
#
#
# Mechanical properties :
#
#
# Convention : Reuss Voigt Hill
#
# Bulk Modulus (GPa) = 23.78779 85.90761 54.84770
# Shear Modulus (GPa) = 17.71284 29.47462 23.59373
#
# Velocity S-wave (km/s) = 3.15761 4.07322 3.64428
# Velocity P-wave (km/s) = 5.16566 8.39515 6.97003
#
# Compressibility (1/GPa) = 0.04203838
#
# Stress axis : x y z
#
# Youngs Moduli (GPa) = 15.24842 115.51712 107.31911
#
# Poissons Ratio (x) = 0.93903 1.00530
# Poissons Ratio (y) = 0.12395 0.35009
# Poissons Ratio (z) = 0.14284 0.37683
#
# Static dielectric constant tensor:
#      x y z
#    x 1.611680 0.000000 0.000000 
#    y 0.000000 1.600950 0.000000 
#    z 0.000000 0.000000 1.575250 
# 
# From -- ./inp_files/19935.got.cif
#   From: 2010.05.17/outbox.cif.g08.bks.cpg/sg59_10_cif.got.tgz:19935.got - 2010.06.03 14:40:33.
