data_PCOD9452772
_publ_section_title
;
Structure prediction by ZEFSAII (Michael W. Deem and Ramdas Pophale) SiO2 
 PCOD9452772
Probable space group: P M M N
;
_chemical_formula_sum "Si O2"
_cell_formula_units_Z 48
_cell_length_a 8.409825
_cell_length_b 15.024311
_cell_length_c 20.376049
_cell_angle_alpha 90.000000
_cell_angle_beta 90.000000
_cell_angle_gamma 90.000000
_cell_volume 2574.551003
_symmetry_space_group_name_H-M "P M M N"
_symmetry_group_IT_number 59
_space_group.IT_coordinate_system_code '2'
_symmetry_cell_setting 'orthorhombic'
loop_
_space_group_symop_operation_xyz
x,y,z
1/2-x,1/2-y,z
1/2+x,-y,-z
-x,1/2+y,-z
-x,-y,-z
1/2+x,1/2+y,-z
1/2-x,y,z
x,1/2-y,z
loop_
_atom_site_type_symbol
_atom_site_label
_atom_site_fract_x
_atom_site_fract_y
_atom_site_fract_z
Si Si1 0.439267 0.250000 0.626075
Si Si2 0.558264 0.648800 0.913075
Si Si3 0.555685 0.485284 0.829116
Si Si4 0.439006 0.750000 0.523637
Si Si5 0.941824 0.146985 0.944079
Si Si6 0.942710 0.435828 0.683144
Si Si7 0.940671 0.942216 0.561852
O O1 0.250000 0.250000 0.622669
O O2 0.505740 0.250000 0.552103
O O3 0.497726 0.161226 0.662332
O O4 0.750000 0.650455 0.912132
O O5 0.499914 0.750000 0.904363
O O6 0.504610 0.580809 0.857196
O O7 0.506327 0.617122 0.985290
O O8 0.750000 0.484587 0.828068
O O9 0.505298 0.412770 0.883185
O O10 0.502607 0.462647 0.755886
O O11 0.250000 0.750000 0.525112
O O12 0.500476 0.658880 0.556035
O O13 0.750000 0.143598 0.946653
O O14 0.989855 0.250000 0.935059
O O15 0.750000 0.433601 0.683129
O O16 0.992855 0.507180 0.628014
O O17 0.750000 0.941623 0.560233
O O18 0.000000 0.000000 0.500000
#
# Coordination Sequence:
#
# PCOD9452772 Si02
#       7
#     4   8   8   4   8   8   8
#     4  12  24  38  60  88 118 147 182 231 288 345
#     4   9  17  31  51  75 104 137 178 229 275 318
#     4   9  18  33  53  78 104 140 185 222 267 329
#     4  12  24  40  64  88 114 153 196 239 290 339
#     4   9  17  29  49  76 103 136 179 225 269 322
#     4  10  22  39  60  84 114 151 189 229 281 344
#     4  11  22  38  61  90 120 150 193 240 285 340
#
# _framework density 18.644027000000001
#
# number of rings (size 3 to 8) (size 9 to 14) (size 15 to 20)
#    0.000    2.000    1.667    2.500    1.167    0.667 
#    1.500    1.667    0.000    0.000    0.000    0.000 
#    0.000    0.000    0.000    0.000    0.000    0.000 
#
# Total GULP energy -268019.160389 kJ/mol
# GULP energy per Si atom -5583.732508 kJ/mol
# Density = 1.860159 g / cm^3
# Si number density = 18.644027 Si / 1000 Ang^3
#
#
#
# Elastic Constant Matrix: (Units=GPa)
#
#
# Indices 1 2 3 4 5 6 
#
# 1 23.1964 27.3068 30.0572 0.0000 0.0000 0.0000
# 2 27.3068 170.4170 115.5088 0.0000 0.0000 0.0000
# 3 30.0572 115.5088 171.5541 0.0000 0.0000 0.0000
# 4 0.0000 0.0000 0.0000 10.5917 0.0000 0.0000
# 5 0.0000 0.0000 0.0000 0.0000 24.0239 0.0000
# 6 0.0000 0.0000 0.0000 0.0000 0.0000 23.2178
#
#
#
# Elastic Compliance Matrix: (Units=1/GPa)
#
#
# Indices 1 2 3 4 5 6 
#
# 1 0.057501 -0.004388 -0.007120 0.000000 0.000000 0.000000
# 2 -0.004388 0.011129 -0.006724 0.000000 0.000000 0.000000
# 3 -0.007120 -0.006724 0.011604 0.000000 0.000000 0.000000
# 4 0.000000 0.000000 0.000000 0.094413 0.000000 0.000000
# 5 0.000000 0.000000 0.000000 0.000000 0.041625 0.000000
# 6 0.000000 0.000000 0.000000 0.000000 0.000000 0.043070
#
#
# Mechanical properties :
#
#
# Convention : Reuss Voigt Hill
#
# Bulk Modulus (GPa) = 22.84681 78.99036 50.91858
# Shear Modulus (GPa) = 16.10836 24.38634 20.24735
#
# Velocity S-wave (km/s) = 2.94257 3.62055 3.29902
# Velocity P-wave (km/s) = 4.88117 7.74193 6.47160
#
# Compressibility (1/GPa) = 0.04376979
#
# Stress axis : x y z
#
# Youngs Moduli (GPa) = 17.39085 89.85693 86.17580
#
# Poissons Ratio (x) = 0.39425 0.61361
# Poissons Ratio (y) = 0.07630 0.57948
# Poissons Ratio (z) = 0.12383 0.60423
#
# Static dielectric constant tensor:
#      x y z
#    x 1.641610 0.000000 0.000000 
#    y 0.000000 1.622640 0.000000 
#    z 0.000000 0.000000 1.615600 
# 
# From -- ./inp_files/25565.got.cif
#   From: 2010.05.17/outbox.cif.g08.bks.cpg/sg59_13_cif.got.tgz:25565.got - 2010.06.03 14:40:33.
