data_PCOD9452860
_publ_section_title
;
Structure prediction by ZEFSAII (Michael W. Deem and Ramdas Pophale) SiO2 
 PCOD9452860
Probable space group: P M M N
;
_chemical_formula_sum "Si O2"
_cell_formula_units_Z 64
_cell_length_a 8.375303
_cell_length_b 15.504663
_cell_length_c 24.677327
_cell_angle_alpha 90.000000
_cell_angle_beta 90.000000
_cell_angle_gamma 90.000000
_cell_volume 3204.505158
_symmetry_space_group_name_H-M "P M M N"
_symmetry_group_IT_number 59
_space_group.IT_coordinate_system_code '2'
_symmetry_cell_setting 'orthorhombic'
loop_
_space_group_symop_operation_xyz
x,y,z
1/2-x,1/2-y,z
1/2+x,-y,-z
-x,1/2+y,-z
-x,-y,-z
1/2+x,1/2+y,-z
1/2-x,y,z
x,1/2-y,z
loop_
_atom_site_type_symbol
_atom_site_label
_atom_site_fract_x
_atom_site_fract_y
_atom_site_fract_z
Si Si1 0.559586 0.654377 0.900643
Si Si2 0.560561 0.985328 0.813644
Si Si3 0.554226 0.350098 0.395043
Si Si4 0.940152 0.488440 0.306396
Si Si5 0.437870 0.595690 0.012931
Si Si6 0.443169 0.848922 0.368512
Si Si7 0.060228 0.347009 0.871254
Si Si8 0.066233 0.855046 0.486814
O O1 0.750000 0.641402 0.909812
O O2 0.537121 0.750000 0.877573
O O3 0.501257 0.581474 0.859416
O O4 0.475453 0.647670 0.958502
O O5 0.750000 0.974327 0.809733
O O6 0.487597 0.969366 0.755012
O O7 0.521394 0.080645 0.834829
O O8 0.750000 0.350479 0.396894
O O9 0.507759 0.250000 0.386010
O O10 0.501491 0.414791 0.348127
O O11 0.495805 0.379514 0.454899
O O12 0.750000 0.491095 0.310425
O O13 0.005660 0.581125 0.324988
O O14 0.250000 0.593368 0.024044
O O15 0.500000 0.500000 0.000000
O O16 0.523112 0.632732 0.065921
O O17 0.250000 0.847292 0.371540
O O18 0.494869 0.750000 0.357813
O O19 0.505676 0.877345 0.428381
O O20 0.250000 0.352018 0.862994
O O21 0.005666 0.250000 0.858849
O O22 0.250000 0.885660 0.486543
O O23 0.070669 0.750000 0.487319
#
# Coordination Sequence:
#
# PCOD9452860 Si02
#       8
#     8   8   8   8   8   8   8   8
#     4  10  22  41  64  90 119 152 191 238 292 344
#     4  11  24  42  62  82 111 154 198 241 284 337
#     4   8  15  30  52  79 111 146 183 225 277 338
#     4  11  23  36  54  81 112 146 187 237 287 335
#     4  12  23  37  62  94 128 162 194 233 282 337
#     4   9  18  34  56  80 107 143 186 230 278 339
#     4  11  24  42  65  92 122 154 189 237 293 345
#     4   7  11  24  49  78 106 138 179 225 273 331
#
# _framework density 19.971882000000001
#
# number of rings (size 3 to 8) (size 9 to 14) (size 15 to 20)
#    0.000    2.125    1.250    4.125    0.000    5.000 
#    0.000    0.000    0.000    1.875    0.000    3.500 
#    0.000    0.000    0.000    0.000    0.000    0.000 
#
# Total GULP energy -357296.949092 kJ/mol
# GULP energy per Si atom -5582.764830 kJ/mol
# Density = 1.992642 g / cm^3
# Si number density = 19.971882 Si / 1000 Ang^3
#
#
#
# Elastic Constant Matrix: (Units=GPa)
#
#
# Indices 1 2 3 4 5 6 
#
# 1 16.1662 2.6141 -2.8030 0.0000 0.0000 0.0000
# 2 2.6141 50.8592 -13.6515 0.0000 0.0000 0.0000
# 3 -2.8030 -13.6515 48.6682 0.0000 0.0000 0.0000
# 4 0.0000 0.0000 0.0000 -54.7587 0.0000 0.0000
# 5 0.0000 0.0000 0.0000 0.0000 4.9055 0.0000
# 6 0.0000 0.0000 0.0000 0.0000 0.0000 17.3643
#
#
#
# Elastic Compliance Matrix: (Units=1/GPa)
#
#
# Indices 1 2 3 4 5 6 
#
# 1 0.062760 -0.002439 0.002930 0.000000 0.000000 0.000000
# 2 -0.002439 0.021358 0.005850 0.000000 0.000000 0.000000
# 3 0.002930 0.005850 0.022357 0.000000 0.000000 0.000000
# 4 0.000000 0.000000 0.000000 -0.018262 0.000000 0.000000
# 5 0.000000 0.000000 0.000000 0.000000 0.203851 0.000000
# 6 0.000000 0.000000 0.000000 0.000000 0.000000 0.057590
#
#
# Mechanical properties :
#
#
# Convention : Reuss Voigt Hill
#
# Bulk Modulus (GPa) = 8.39221 9.77921 9.08571
# Shear Modulus (GPa) = 13.27351 2.13781 7.70566
#
# Velocity S-wave (km/s) = 2.58080 1.03573 1.96637
# Velocity P-wave (km/s) = 3.61826 2.51743 3.11683
#
# Compressibility (1/GPa) = 0.11915818
#
# Stress axis : x y z
#
# Youngs Moduli (GPa) = 15.93369 46.82121 44.72851
#
# Poissons Ratio (x) = 0.11421 -0.13107
# Poissons Ratio (y) = 0.03887 -0.26168
# Poissons Ratio (z) = -0.04669 -0.27392
#
# Static dielectric constant tensor:
#      x y z
#    x 1.692820 0.000000 0.000000 
#    y 0.000000 1.714960 0.000000 
#    z 0.000000 0.000000 1.688780 
# 
# From -- ./inp_files/31563.got.cif
#   From: 2010.05.17/outbox.cif.g08.bks.cpg/sg59_16_cif.got.tgz:31563.got - 2010.06.03 14:40:33.
