data_PCOD9452982
_publ_section_title
;
Structure prediction by ZEFSAII (Michael W. Deem and Ramdas Pophale) SiO2 
 PCOD9452982
Probable space group: P M M N
;
_chemical_formula_sum "Si O2"
_cell_formula_units_Z 64
_cell_length_a 30.987470
_cell_length_b 7.984621
_cell_length_c 14.691174
_cell_angle_alpha 90.000000
_cell_angle_beta 90.000000
_cell_angle_gamma 90.000000
_cell_volume 3634.937337
_symmetry_space_group_name_H-M "P M M N"
_symmetry_group_IT_number 59
_space_group.IT_coordinate_system_code '2'
_symmetry_cell_setting 'orthorhombic'
loop_
_space_group_symop_operation_xyz
x,y,z
1/2-x,1/2-y,z
1/2+x,-y,-z
-x,1/2+y,-z
-x,-y,-z
1/2+x,1/2+y,-z
1/2-x,y,z
x,1/2-y,z
loop_
_atom_site_type_symbol
_atom_site_label
_atom_site_fract_x
_atom_site_fract_y
_atom_site_fract_z
Si Si1 0.637831 0.449711 0.840781
Si Si2 0.550005 0.552438 0.485635
Si Si3 0.201135 0.047459 0.011860
Si Si4 0.939554 0.941954 0.969262
Si Si5 0.509106 0.050221 0.804789
Si Si6 0.912941 0.048521 0.674934
Si Si7 0.624026 0.544520 0.118948
Si Si8 0.578533 0.544992 0.290260
O O1 0.629468 0.250000 0.849132
O O2 0.682308 0.490834 0.890555
O O3 0.601429 0.542723 0.900421
O O4 0.629095 0.495499 0.735478
O O5 0.500000 0.500000 0.500000
O O6 0.547799 0.750000 0.473832
O O7 0.578658 0.514600 0.574047
O O8 0.571836 0.483489 0.393151
O O9 0.250000 0.989827 0.997071
O O10 0.200917 0.250000 0.010726
O O11 0.167001 0.990335 0.934509
O O12 0.949891 0.750000 0.987975
O O13 0.978439 0.012626 0.908760
O O14 0.917736 0.014667 0.060218
O O15 0.508686 0.250000 0.797425
O O16 0.546915 0.989414 0.737473
O O17 0.464286 0.990939 0.764290
O O18 0.914698 0.250000 0.669714
O O19 0.623366 0.750000 0.115037
O O20 0.617737 0.494463 0.223852
O O21 0.579591 0.750000 0.292621
#
# Coordination Sequence:
#
# PCOD9452982 Si02
#       8
#     8   8   8   8   8   8   8   8
#     4   9  17  29  46  67  92 121 149 179 218 270
#     4  11  20  30  45  63  84 116 159 202 238 270
#     4   9  17  30  50  76 100 117 138 175 221 267
#     4   9  16  26  41  62  86 114 150 186 220 261
#     4   9  16  27  41  57  82 117 152 188 228 266
#     4   9  17  30  44  62  88 117 151 192 232 267
#     4   8  15  28  44  61  87 119 147 177 216 268
#     4   9  17  29  42  58  83 118 157 191 225 267
#
# _framework density 17.606905999999999
#
# number of rings (size 3 to 8) (size 9 to 14) (size 15 to 20)
#    0.000    2.875    1.250    2.625    0.000    3.250 
#    0.000    0.000    0.000   10.500    0.000    0.875 
#    0.000    3.000    0.000    0.000    0.000    0.000 
#
# Total GULP energy -356326.934576 kJ/mol
# GULP energy per Si atom -5567.608353 kJ/mol
# Density = 1.756683 g / cm^3
# Si number density = 17.606906 Si / 1000 Ang^3
#
#
#
# Elastic Constant Matrix: (Units=GPa)
#
#
# Indices 1 2 3 4 5 6 
#
# 1 81.9582 8.9299 64.0029 0.0000 0.0000 0.0000
# 2 8.9299 15.8537 7.6525 0.0000 0.0000 0.0000
# 3 64.0029 7.6525 168.3300 0.0000 0.0000 0.0000
# 4 0.0000 0.0000 0.0000 14.6475 0.0000 0.0000
# 5 0.0000 0.0000 0.0000 0.0000 16.8818 0.0000
# 6 0.0000 0.0000 0.0000 0.0000 0.0000 12.2816
#
#
#
# Elastic Compliance Matrix: (Units=1/GPa)
#
#
# Indices 1 2 3 4 5 6 
#
# 1 0.018088 -0.007023 -0.006558 0.000000 0.000000 0.000000
# 2 -0.007023 0.067219 -0.000386 0.000000 0.000000 0.000000
# 3 -0.006558 -0.000386 0.008452 0.000000 0.000000 0.000000
# 4 0.000000 0.000000 0.000000 0.068271 0.000000 0.000000
# 5 0.000000 0.000000 0.000000 0.000000 0.059235 0.000000
# 6 0.000000 0.000000 0.000000 0.000000 0.000000 0.081422
#
#
# Mechanical properties :
#
#
# Convention : Reuss Voigt Hill
#
# Bulk Modulus (GPa) = 15.19174 47.47916 31.33545
# Shear Modulus (GPa) = 14.18190 21.13263 17.65727
#
# Velocity S-wave (km/s) = 2.84117 3.46822 3.17023
# Velocity P-wave (km/s) = 4.40568 6.56222 5.58895
#
# Compressibility (1/GPa) = 0.06582526
#
# Stress axis : x y z
#
# Youngs Moduli (GPa) = 55.28536 14.87681 118.31778
#
# Poissons Ratio (x) = 0.10448 0.77595
# Poissons Ratio (y) = 0.38826 0.04562
# Poissons Ratio (z) = 0.36257 0.00574
#
# Static dielectric constant tensor:
#      x y z
#    x 1.613380 0.000000 0.000000 
#    y 0.000000 1.640960 0.000000 
#    z 0.000000 0.000000 1.654130 
# 
# From -- ./inp_files/25079.got.cif
#   From: 2010.05.17/outbox.cif.g08.bks.cpg/sg59_13_cif.got.tgz:25079.got - 2010.06.03 14:40:33.
