data_PCOD9452021
_publ_section_title
;
Structure prediction by ZEFSAII (Michael W. Deem and Ramdas Pophale) SiO2 
 PCOD9452021
Probable space group: P M M N
;
_chemical_formula_sum "Si O2"
_cell_formula_units_Z 64
_cell_length_a 14.910016
_cell_length_b 8.898165
_cell_length_c 25.410690
_cell_angle_alpha 90.000000
_cell_angle_beta 90.000000
_cell_angle_gamma 90.000000
_cell_volume 3371.281537
_symmetry_space_group_name_H-M "P M M N"
_symmetry_group_IT_number 59
_space_group.IT_coordinate_system_code '2'
_symmetry_cell_setting 'orthorhombic'
loop_
_space_group_symop_operation_xyz
x,y,z
1/2-x,1/2-y,z
1/2+x,-y,-z
-x,1/2+y,-z
-x,-y,-z
1/2+x,1/2+y,-z
1/2-x,y,z
x,1/2-y,z
loop_
_atom_site_type_symbol
_atom_site_label
_atom_site_fract_x
_atom_site_fract_y
_atom_site_fract_z
Si Si1 0.652638 0.930852 0.908130
Si Si2 0.348408 0.574273 0.593725
Si Si3 0.476406 0.428272 0.673198
Si Si4 0.145780 0.431726 0.771828
Si Si5 0.591045 0.426268 0.520958
Si Si6 0.952496 0.430831 0.127860
Si Si7 0.851840 0.929513 0.630944
Si Si8 0.096149 0.929967 0.986992
O O1 0.750000 0.969141 0.882938
O O2 0.647567 0.750000 0.911784
O O3 0.557527 0.978150 0.881437
O O4 0.654279 0.997958 0.967024
O O5 0.250000 0.534604 0.614654
O O6 0.367251 0.750000 0.605415
O O7 0.423722 0.474099 0.620315
O O8 0.347867 0.560642 0.530832
O O9 0.487519 0.250000 0.675863
O O10 0.412594 0.478460 0.721037
O O11 0.573084 0.505191 0.669742
O O12 0.250000 0.481415 0.769313
O O13 0.146193 0.250000 0.773036
O O14 0.094801 0.493121 0.822910
O O15 0.500000 0.500000 0.500000
O O16 0.578415 0.250000 0.532743
O O17 0.627887 0.506587 0.572659
O O18 0.953173 0.250000 0.134221
O O19 0.894633 0.464335 0.074920
O O20 0.750000 0.969974 0.645601
O O21 0.859648 0.750000 0.629231
O O22 0.096757 0.750000 0.992361
O O23 0.000000 0.000000 0.000000
#
# Coordination Sequence:
#
# PCOD9452021 Si02
#       8
#     8   8   8   8   8   8   8   8
#     4   9  18  33  53  80 116 155 191 228 276 333
#     4  10  21  36  56  83 115 149 185 226 273 329
#     4  11  23  40  62  84 110 144 184 236 289 338
#     4  10  23  42  61  83 110 141 181 231 288 345
#     4  11  21  35  57  86 120 156 191 228 275 329
#     4   9  19  35  55  81 112 148 189 233 280 332
#     4  11  24  41  61  86 117 153 192 232 278 337
#     4   9  17  30  49  76 111 148 189 233 275 325
#
# _framework density 18.983879000000002
#
# number of rings (size 3 to 8) (size 9 to 14) (size 15 to 20)
#    0.000    2.000    1.250    3.000    0.000    7.250 
#    0.000    3.125    0.000    2.250    0.000    0.000 
#    0.000    0.000    0.000    0.000    0.000    0.000 
#
# Total GULP energy -356878.325346 kJ/mol
# GULP energy per Si atom -5576.223834 kJ/mol
# Density = 1.894067 g / cm^3
# Si number density = 18.983879 Si / 1000 Ang^3
#
#
#
# Elastic Constant Matrix: (Units=GPa)
#
#
# Indices 1 2 3 4 5 6 
#
# 1 165.5842 45.7376 58.9346 0.0000 0.0000 0.0000
# 2 45.7376 30.3403 25.8582 0.0000 0.0000 0.0000
# 3 58.9346 25.8582 94.4216 0.0000 0.0000 0.0000
# 4 0.0000 0.0000 0.0000 31.4335 0.0000 0.0000
# 5 0.0000 0.0000 0.0000 0.0000 23.7142 0.0000
# 6 0.0000 0.0000 0.0000 0.0000 0.0000 24.2425
#
#
#
# Elastic Compliance Matrix: (Units=1/GPa)
#
#
# Indices 1 2 3 4 5 6 
#
# 1 0.010973 -0.013963 -0.003025 0.000000 0.000000 0.000000
# 2 -0.013963 0.060763 -0.007925 0.000000 0.000000 0.000000
# 3 -0.003025 -0.007925 0.014649 0.000000 0.000000 0.000000
# 4 0.000000 0.000000 0.000000 0.031813 0.000000 0.000000
# 5 0.000000 0.000000 0.000000 0.000000 0.042169 0.000000
# 6 0.000000 0.000000 0.000000 0.000000 0.000000 0.041250
#
#
# Mechanical properties :
#
#
# Convention : Reuss Voigt Hill
#
# Bulk Modulus (GPa) = 27.35333 61.26745 44.31039
# Shear Modulus (GPa) = 18.96598 26.53242 22.74920
#
# Velocity S-wave (km/s) = 3.16422 3.74254 3.46546
# Velocity P-wave (km/s) = 5.27159 7.14276 6.27729
#
# Compressibility (1/GPa) = 0.03655862
#
# Stress axis : x y z
#
# Youngs Moduli (GPa) = 91.13478 16.45731 68.26323
#
# Poissons Ratio (x) = 0.22980 0.20649
# Poissons Ratio (y) = 1.27254 0.54100
# Poissons Ratio (z) = 0.27567 0.13043
#
# Static dielectric constant tensor:
#      x y z
#    x 1.699660 0.000000 0.000000 
#    y 0.000000 1.637210 0.000000 
#    z 0.000000 0.000000 1.659270 
# 
# From -- ./inp_files/32268.got.cif
#   From: 2010.05.17/outbox.cif.g08.bks.cpg/sg59_17_cif.got.tgz:32268.got - 2010.06.03 14:40:33.
