data_PCOD9452399
_publ_section_title
;
Structure prediction by ZEFSAII (Michael W. Deem and Ramdas Pophale) SiO2 
 PCOD9452399
Probable space group: P M M N
;
_chemical_formula_sum "Si O2"
_cell_formula_units_Z 64
_cell_length_a 7.885172
_cell_length_b 15.225100
_cell_length_c 24.817884
_cell_angle_alpha 90.000000
_cell_angle_beta 90.000000
_cell_angle_gamma 90.000000
_cell_volume 2979.449818
_symmetry_space_group_name_H-M "P M M N"
_symmetry_group_IT_number 59
_space_group.IT_coordinate_system_code '2'
_symmetry_cell_setting 'orthorhombic'
loop_
_space_group_symop_operation_xyz
x,y,z
1/2-x,1/2-y,z
1/2+x,-y,-z
-x,1/2+y,-z
-x,-y,-z
1/2+x,1/2+y,-z
1/2-x,y,z
x,1/2-y,z
loop_
_atom_site_type_symbol
_atom_site_label
_atom_site_fract_x
_atom_site_fract_y
_atom_site_fract_z
Si Si1 0.953935 0.150332 0.020673
Si Si2 0.552298 0.154934 0.399170
Si Si3 0.550431 0.846697 0.102871
Si Si4 0.451114 0.399736 0.512319
Si Si5 0.454488 0.652040 0.366238
Si Si6 0.958649 0.462661 0.121470
Si Si7 0.048712 0.848979 0.778016
Si Si8 0.055804 0.022343 0.315972
O O1 0.750000 0.143315 0.014662
O O2 0.989747 0.250000 0.040210
O O3 0.010506 0.079262 0.064346
O O4 0.032641 0.141337 0.961648
O O5 0.750000 0.144878 0.384958
O O6 0.492826 0.250000 0.378956
O O7 0.534510 0.152361 0.463256
O O8 0.453618 0.075523 0.372133
O O9 0.750000 0.843197 0.115902
O O10 0.476542 0.750000 0.116064
O O11 0.481738 0.936857 0.127958
O O12 0.500000 0.500000 0.500000
O O13 0.250000 0.389319 0.508628
O O14 0.505986 0.370441 0.571600
O O15 0.250000 0.651744 0.361334
O O16 0.516983 0.750000 0.353647
O O17 0.520823 0.573294 0.328430
O O18 0.750000 0.463783 0.121582
O O19 0.017584 0.399111 0.169186
O O20 0.250000 0.840336 0.785948
O O21 0.980088 0.750000 0.770427
O O22 0.024823 0.913236 0.727512
O O23 0.250000 0.010701 0.299569
#
# Coordination Sequence:
#
# PCOD9452399 Si02
#       8
#     8   8   8   8   8   8   8   8
#     4   9  16  27  46  72 101 134 174 216 258 313
#     4  11  23  38  58  84 115 150 184 222 272 328
#     4   9  17  29  46  71 104 139 173 212 262 316
#     4  12  23  36  57  86 119 153 187 226 271 322
#     4  10  22  41  62  83 111 148 186 225 274 330
#     4   9  17  31  51  73  99 136 179 219 263 320
#     4  10  21  38  59  80 104 137 178 226 277 327
#     4  11  23  39  60  83 109 142 179 225 276 327
#
# _framework density 21.480474999999998
#
# number of rings (size 3 to 8) (size 9 to 14) (size 15 to 20)
#    0.000    1.875    1.250    3.375    0.000    6.500 
#    0.000    1.875    0.000    2.250    0.000    0.000 
#    0.000    0.000    0.000    0.000    0.000    0.000 
#
# Total GULP energy -357374.322756 kJ/mol
# GULP energy per Si atom -5583.973793 kJ/mol
# Density = 2.143158 g / cm^3
# Si number density = 21.480475 Si / 1000 Ang^3
#
#
#
# Elastic Constant Matrix: (Units=GPa)
#
#
# Indices 1 2 3 4 5 6 
#
# 1 27.5020 11.3577 -4.5066 0.0000 0.0000 0.0000
# 2 11.3577 194.6249 43.6029 0.0000 0.0000 0.0000
# 3 -4.5066 43.6029 48.6806 0.0000 0.0000 0.0000
# 4 0.0000 0.0000 0.0000 20.2313 0.0000 0.0000
# 5 0.0000 0.0000 0.0000 0.0000 16.9540 0.0000
# 6 0.0000 0.0000 0.0000 0.0000 0.0000 13.6492
#
#
#
# Elastic Compliance Matrix: (Units=1/GPa)
#
#
# Indices 1 2 3 4 5 6 
#
# 1 0.039121 -0.003871 0.007089 0.000000 0.000000 0.000000
# 2 -0.003871 0.006811 -0.006459 0.000000 0.000000 0.000000
# 3 0.007089 -0.006459 0.026984 0.000000 0.000000 0.000000
# 4 0.000000 0.000000 0.000000 0.049428 0.000000 0.000000
# 5 0.000000 0.000000 0.000000 0.000000 0.058983 0.000000
# 6 0.000000 0.000000 0.000000 0.000000 0.000000 0.073264
#
#
# Mechanical properties :
#
#
# Convention : Reuss Voigt Hill
#
# Bulk Modulus (GPa) = 15.05257 41.30171 28.17714
# Shear Modulus (GPa) = 17.65418 24.85711 21.25565
#
# Velocity S-wave (km/s) = 2.86994 3.40545 3.14910
# Velocity P-wave (km/s) = 4.24321 5.89339 5.13502
#
# Compressibility (1/GPa) = 0.06643384
#
# Stress axis : x y z
#
# Youngs Moduli (GPa) = 25.56147 146.82031 37.05950
#
# Poissons Ratio (x) = 0.56837 -0.26272
# Poissons Ratio (y) = 0.09895 0.23937
# Poissons Ratio (z) = -0.18121 0.94831
#
# Static dielectric constant tensor:
#      x y z
#    x 1.781260 0.000000 0.000000 
#    y 0.000000 1.830520 0.000000 
#    z 0.000000 0.000000 1.752500 
# 
# From -- ./inp_files/31576.got.cif
#   From: 2010.05.17/outbox.cif.g08.bks.cpg/sg59_16_cif.got.tgz:31576.got - 2010.06.03 14:40:33.
