data_PCOD9452587
_publ_section_title
;
Structure prediction by ZEFSAII (Michael W. Deem and Ramdas Pophale) SiO2 
 PCOD9452587
Probable space group: P M M N
;
_chemical_formula_sum "Si O2"
_cell_formula_units_Z 48
_cell_length_a 31.711368
_cell_length_b 8.676731
_cell_length_c 9.149190
_cell_angle_alpha 90.000000
_cell_angle_beta 90.000000
_cell_angle_gamma 90.000000
_cell_volume 2517.408867
_symmetry_space_group_name_H-M "P M M N"
_symmetry_group_IT_number 59
_space_group.IT_coordinate_system_code '2'
_symmetry_cell_setting 'orthorhombic'
loop_
_space_group_symop_operation_xyz
x,y,z
1/2-x,1/2-y,z
1/2+x,-y,-z
-x,1/2+y,-z
-x,-y,-z
1/2+x,1/2+y,-z
1/2-x,y,z
x,1/2-y,z
loop_
_atom_site_type_symbol
_atom_site_label
_atom_site_fract_x
_atom_site_fract_y
_atom_site_fract_z
Si Si1 0.250000 0.065486 0.169892
Si Si2 0.667235 0.435298 0.328483
Si Si3 0.916850 0.063488 0.839933
Si Si4 0.000322 0.435889 0.663285
Si Si5 0.832000 0.064055 0.668901
Si Si6 0.250000 0.064743 0.829299
Si Si7 0.585173 0.935101 0.166865
O O1 0.250000 0.250000 0.175364
O O2 0.291496 0.003503 0.250152
O O3 0.250000 0.018037 0.999741
O O4 0.667832 0.250000 0.321285
O O5 0.666978 0.481798 0.498938
O O6 0.708579 0.500573 0.249782
O O7 0.625732 0.496934 0.248331
O O8 0.917154 0.250000 0.851216
O O9 0.874955 0.018069 0.750939
O O10 0.958684 0.015431 0.752072
O O11 0.916217 0.993676 0.001058
O O12 0.999864 0.250000 0.656257
O O13 0.042572 0.483235 0.748840
O O14 0.000000 0.500000 0.500000
O O15 0.829317 0.250000 0.673817
O O16 0.250000 0.250000 0.822034
O O17 0.587566 0.750000 0.168107
#
# Coordination Sequence:
#
# PCOD9452587 Si02
#       7
#     4   8   8   8   8   4   8
#     4  11  24  39  58  84 116 151 186 231 290 344
#     4  11  23  40  62  87 116 155 197 238 288 347
#     4  10  21  39  61  85 115 154 196 240 289 347
#     4  10  22  39  60  87 119 154 195 241 293 350
#     4  10  22  39  60  85 113 147 193 240 282 337
#     4  11  24  41  60  88 122 153 192 243 292 344
#     4  11  23  38  58  88 121 153 192 241 292 345
#
# _framework density 19.067222999999998
#
# number of rings (size 3 to 8) (size 9 to 14) (size 15 to 20)
#    0.000    1.500    0.000    4.500    0.000   11.333 
#    0.000    0.000    0.000    0.000    0.000    0.000 
#    0.000    0.000    0.000    0.000    0.000    0.000 
#
# Total GULP energy -268470.492446 kJ/mol
# GULP energy per Si atom -5593.135259 kJ/mol
# Density = 1.902383 g / cm^3
# Si number density = 19.067223 Si / 1000 Ang^3
#
#
#
# Elastic Constant Matrix: (Units=GPa)
#
#
# Indices 1 2 3 4 5 6 
#
# 1 241.4754 53.0649 148.5571 0.0000 0.0000 0.0000
# 2 53.0649 31.0883 55.7577 0.0000 0.0000 0.0000
# 3 148.5571 55.7577 241.3608 0.0000 0.0000 0.0000
# 4 0.0000 0.0000 0.0000 34.8187 0.0000 0.0000
# 5 0.0000 0.0000 0.0000 0.0000 46.2699 0.0000
# 6 0.0000 0.0000 0.0000 0.0000 0.0000 -8.9937
#
#
#
# Elastic Compliance Matrix: (Units=1/GPa)
#
#
# Indices 1 2 3 4 5 6 
#
# 1 0.007649 -0.007875 -0.002889 0.000000 0.000000 0.000000
# 2 -0.007875 0.063031 -0.009714 0.000000 0.000000 0.000000
# 3 -0.002889 -0.009714 0.008165 0.000000 0.000000 0.000000
# 4 0.000000 0.000000 0.000000 0.028720 0.000000 0.000000
# 5 0.000000 0.000000 0.000000 0.000000 0.021612 0.000000
# 6 0.000000 0.000000 0.000000 0.000000 0.000000 -0.111189
#
#
# Mechanical properties :
#
#
# Convention : Reuss Voigt Hill
#
# Bulk Modulus (GPa) = 26.39251 114.29819 70.34535
# Shear Modulus (GPa) = 69.85854 31.52196 50.69025
#
# Velocity S-wave (km/s) = 6.05950 4.07037 5.16166
# Velocity P-wave (km/s) = 7.92645 9.06452 8.51452
#
# Compressibility (1/GPa) = 0.03788954
#
# Stress axis : x y z
#
# Youngs Moduli (GPa) = 130.73810 15.86528 122.47210
#
# Poissons Ratio (x) = 0.12494 0.35377
# Poissons Ratio (y) = 1.02959 1.18967
# Poissons Ratio (z) = 0.37765 0.15411
#
# Static dielectric constant tensor:
#      x y z
#    x 1.628300 0.000000 0.000000 
#    y 0.000000 1.645030 0.000000 
#    z 0.000000 0.000000 1.623540 
# 
# From -- ./inp_files/13000.got.cif
#   From: 2010.05.17/outbox.cif.g08.bks.cpg/sg59_7_cif.got.tgz:13000.got - 2010.06.03 14:40:33.
