data_PCOD9452201
_publ_section_title
;
Structure prediction by ZEFSAII (Michael W. Deem and Ramdas Pophale) SiO2 
 PCOD9452201
Probable space group: P M M N
;
_chemical_formula_sum "Si O2"
_cell_formula_units_Z 64
_cell_length_a 8.712237
_cell_length_b 20.591495
_cell_length_c 20.568042
_cell_angle_alpha 90.000000
_cell_angle_beta 90.000000
_cell_angle_gamma 90.000000
_cell_volume 3689.865282
_symmetry_space_group_name_H-M "P M M N"
_symmetry_group_IT_number 59
_space_group.IT_coordinate_system_code '2'
_symmetry_cell_setting 'orthorhombic'
loop_
_space_group_symop_operation_xyz
x,y,z
1/2-x,1/2-y,z
1/2+x,-y,-z
-x,1/2+y,-z
-x,-y,-z
1/2+x,1/2+y,-z
1/2-x,y,z
x,1/2-y,z
loop_
_atom_site_type_symbol
_atom_site_label
_atom_site_fract_x
_atom_site_fract_y
_atom_site_fract_z
Si Si1 0.565353 0.675900 0.063753
Si Si2 0.933995 0.917231 0.335623
Si Si3 0.064095 0.934875 0.693215
Si Si4 0.067414 0.566615 0.970349
Si Si5 0.065032 0.824196 0.444703
Si Si6 0.063057 0.823861 0.593473
Si Si7 0.432395 0.456098 0.167200
Si Si8 0.065872 0.097684 0.810503
O O1 0.750000 0.671303 0.055422
O O2 0.518435 0.750000 0.052960
O O3 0.486690 0.625792 0.015165
O O4 0.531895 0.653201 0.137520
O O5 0.750000 0.914967 0.341842
O O6 0.975207 0.888908 0.264354
O O7 0.004852 0.875886 0.393375
O O8 0.979390 0.993330 0.333058
O O9 0.250000 0.933996 0.697916
O O10 0.013044 0.878244 0.644456
O O11 0.996266 0.927687 0.765258
O O12 0.250000 0.561564 0.969662
O O13 0.994634 0.425727 0.102763
O O14 0.000000 0.500000 0.000000
O O15 0.250000 0.825227 0.443894
O O16 0.016470 0.750000 0.429072
O O17 0.015943 0.838147 0.519111
O O18 0.250000 0.824274 0.593930
O O19 0.015218 0.750000 0.609557
O O20 0.250000 0.450892 0.164785
O O21 0.482532 0.531754 0.168131
O O22 0.250000 0.085024 0.812022
#
# Coordination Sequence:
#
# PCOD9452201 Si02
#       8
#     8   8   8   8   8   8   8   8
#     4  10  21  37  57  82 112 145 182 226 275 324
#     4   9  18  30  47  75 107 138 173 212 259 313
#     4   9  18  34  54  77 105 135 171 221 269 318
#     4  12  23  37  59  84 109 143 186 228 269 320
#     4   9  18  32  49  71 100 136 178 221 263 312
#     4   8  15  31  55  77  98 132 178 221 266 320
#     4  11  21  34  55  82 108 137 175 220 267 321
#     4   9  18  34  54  75 105 142 178 216 262 319
#
# _framework density 17.344805999999998
#
# number of rings (size 3 to 8) (size 9 to 14) (size 15 to 20)
#    0.000    2.375    1.250    3.750    0.000    3.500 
#    0.000    2.500    0.000    3.375    0.000    0.000 
#    0.000    0.000    0.000    0.000    0.000    0.000 
#
# Total GULP energy -357005.730884 kJ/mol
# GULP energy per Si atom -5578.214545 kJ/mol
# Density = 1.730533 g / cm^3
# Si number density = 17.344806 Si / 1000 Ang^3
#
#
#
# Elastic Constant Matrix: (Units=GPa)
#
#
# Indices 1 2 3 4 5 6 
#
# 1 41.5158 46.0354 47.4323 0.0000 0.0000 0.0000
# 2 46.0354 126.7943 111.6962 0.0000 0.0000 0.0000
# 3 47.4323 111.6962 159.8813 0.0000 0.0000 0.0000
# 4 0.0000 0.0000 0.0000 29.2809 0.0000 0.0000
# 5 0.0000 0.0000 0.0000 0.0000 26.0769 0.0000
# 6 0.0000 0.0000 0.0000 0.0000 0.0000 22.2237
#
#
#
# Elastic Compliance Matrix: (Units=1/GPa)
#
#
# Indices 1 2 3 4 5 6 
#
# 1 0.041611 -0.011007 -0.004655 0.000000 0.000000 0.000000
# 2 -0.011007 0.023420 -0.013096 0.000000 0.000000 0.000000
# 3 -0.004655 -0.013096 0.016785 0.000000 0.000000 0.000000
# 4 0.000000 0.000000 0.000000 0.034152 0.000000 0.000000
# 5 0.000000 0.000000 0.000000 0.000000 0.038348 0.000000
# 6 0.000000 0.000000 0.000000 0.000000 0.000000 0.044997
#
#
# Mechanical properties :
#
#
# Convention : Reuss Voigt Hill
#
# Bulk Modulus (GPa) = 41.15341 82.05767 61.60554
# Shear Modulus (GPa) = 18.87304 23.71815 21.29560
#
# Velocity S-wave (km/s) = 3.30223 3.70192 3.50777
# Velocity P-wave (km/s) = 6.19013 8.10460 7.21118
#
# Compressibility (1/GPa) = 0.02429933
#
# Stress axis : x y z
#
# Youngs Moduli (GPa) = 24.03213 42.69927 59.57771
#
# Poissons Ratio (x) = 0.46998 0.27735
# Poissons Ratio (y) = 0.26452 0.78023
# Poissons Ratio (z) = 0.11187 0.55919
#
# Static dielectric constant tensor:
#      x y z
#    x 1.588910 0.000000 0.000000 
#    y 0.000000 1.572800 0.000000 
#    z 0.000000 0.000000 1.585540 
# 
# From -- ./inp_files/29730.got.cif
#   From: 2010.05.17/outbox.cif.g08.bks.cpg/sg59_15_cif.got.tgz:29730.got - 2010.06.03 14:40:33.
