data_PCOD9452357
_publ_section_title
;
Structure prediction by ZEFSAII (Michael W. Deem and Ramdas Pophale) SiO2 
 PCOD9452357
Probable space group: P M M N
;
_chemical_formula_sum "Si O2"
_cell_formula_units_Z 56
_cell_length_a 14.431596
_cell_length_b 32.247881
_cell_length_c 5.297026
_cell_angle_alpha 90.000000
_cell_angle_beta 90.000000
_cell_angle_gamma 90.000000
_cell_volume 2465.174404
_symmetry_space_group_name_H-M "P M M N"
_symmetry_group_IT_number 59
_space_group.IT_coordinate_system_code '2'
_symmetry_cell_setting 'orthorhombic'
loop_
_space_group_symop_operation_xyz
x,y,z
1/2-x,1/2-y,z
1/2+x,-y,-z
-x,1/2+y,-z
-x,-y,-z
1/2+x,1/2+y,-z
1/2-x,y,z
x,1/2-y,z
loop_
_atom_site_type_symbol
_atom_site_label
_atom_site_fract_x
_atom_site_fract_y
_atom_site_fract_z
Si Si1 0.146927 0.580525 0.786961
Si Si2 0.646397 0.161547 0.557170
Si Si3 0.353986 0.136161 0.557843
Si Si4 0.913653 0.988581 0.187025
Si Si5 0.033660 0.201762 0.316880
Si Si6 0.853410 0.947116 0.684361
Si Si7 0.513251 0.133843 0.935193
O O1 0.250000 0.585316 0.907645
O O2 0.144968 0.615411 0.566958
O O3 0.134524 0.532136 0.736791
O O4 0.053811 0.593484 0.933365
O O5 0.750000 0.177948 0.537735
O O6 0.566559 0.190164 0.437801
O O7 0.609506 0.154103 0.836839
O O8 0.250000 0.134502 0.662125
O O9 0.383851 0.182618 0.484158
O O10 0.358344 0.102871 0.330175
O O11 0.439170 0.121709 0.728611
O O12 0.920255 0.965640 0.461584
O O13 0.859577 0.962140 0.973153
O O14 0.000000 0.000000 0.000000
O O15 0.041687 0.250000 0.269079
O O16 0.034305 0.171442 0.079723
O O17 0.750000 0.958639 0.591883
#
# Coordination Sequence:
#
# PCOD9452357 Si02
#       7
#     8   8   8   8   8   8   8
#     4  10  21  37  60  93 133 179 219 267 323 387
#     4   9  20  38  63  92 130 172 211 254 317 390
#     4  10  24  43  67  89 122 166 212 269 335 399
#     4  12  26  40  65  98 137 180 234 286 336 392
#     4  10  23  42  64  92 126 160 204 265 330 399
#     4  11  25  44  64  93 132 178 226 279 335 396
#     4  10  21  38  65  92 128 161 216 262 330 389
#
# _framework density 22.716443999999999
#
# number of rings (size 3 to 8) (size 9 to 14) (size 15 to 20)
#    0.000    1.714    0.000    3.000   10.000    4.000 
#    0.000    0.000    0.000    0.000    0.000    0.000 
#    0.000    0.000    0.000    0.000    0.000    0.000 
#
# Total GULP energy -311992.514356 kJ/mol
# GULP energy per Si atom -5571.294899 kJ/mol
# Density = 2.266474 g / cm^3
# Si number density = 22.716444 Si / 1000 Ang^3
#
#
#
# Elastic Constant Matrix: (Units=GPa)
#
#
# Indices 1 2 3 4 5 6 
#
# 1 103.1901 12.2881 -5.8147 0.0000 0.0000 0.0000
# 2 12.2881 143.2003 13.0226 0.0000 0.0000 0.0000
# 3 -5.8147 13.0226 39.0862 0.0000 0.0000 0.0000
# 4 0.0000 0.0000 0.0000 4.1903 0.0000 0.0000
# 5 0.0000 0.0000 0.0000 0.0000 20.7643 0.0000
# 6 0.0000 0.0000 0.0000 0.0000 0.0000 17.4654
#
#
#
# Elastic Compliance Matrix: (Units=1/GPa)
#
#
# Indices 1 2 3 4 5 6 
#
# 1 0.009914 -0.001016 0.001813 0.000000 0.000000 0.000000
# 2 -0.001016 0.007305 -0.002585 0.000000 0.000000 0.000000
# 3 0.001813 -0.002585 0.026715 0.000000 0.000000 0.000000
# 4 0.000000 0.000000 0.000000 0.238647 0.000000 0.000000
# 5 0.000000 0.000000 0.000000 0.000000 0.048160 0.000000
# 6 0.000000 0.000000 0.000000 0.000000 0.000000 0.057256
#
#
# Mechanical properties :
#
#
# Convention : Reuss Voigt Hill
#
# Bulk Modulus (GPa) = 24.77702 36.05207 30.41455
# Shear Modulus (GPa) = 12.34487 26.21602 19.28045
#
# Velocity S-wave (km/s) = 2.33369 3.40082 2.91648
# Velocity P-wave (km/s) = 4.26524 5.59694 4.97584
#
# Compressibility (1/GPa) = 0.04035998
#
# Stress axis : x y z
#
# Youngs Moduli (GPa) = 100.86777 136.88382 37.43146
#
# Poissons Ratio (x) = 0.13902 -0.06787
# Poissons Ratio (y) = 0.10244 0.09676
# Poissons Ratio (z) = -0.18290 0.35386
#
# Static dielectric constant tensor:
#      x y z
#    x 1.928760 0.000000 0.000000 
#    y 0.000000 1.845080 0.000000 
#    z 0.000000 0.000000 1.950890 
# 
# From -- ./inp_files/2293.got.cif
#   From: 2010.05.17/outbox.cif.g08.bks.cpg/sg59_2_cif.got.tgz:2293.got - 2010.06.03 14:40:33.
