data_PCOD9452916
_publ_section_title
;
Structure prediction by ZEFSAII (Michael W. Deem and Ramdas Pophale) SiO2 
 PCOD9452916
Probable space group: P M M N
;
_chemical_formula_sum "Si O2"
_cell_formula_units_Z 56
_cell_length_a 21.058447
_cell_length_b 8.436535
_cell_length_c 15.154139
_cell_angle_alpha 90.000000
_cell_angle_beta 90.000000
_cell_angle_gamma 90.000000
_cell_volume 2692.289262
_symmetry_space_group_name_H-M "P M M N"
_symmetry_group_IT_number 59
_space_group.IT_coordinate_system_code '2'
_symmetry_cell_setting 'orthorhombic'
loop_
_space_group_symop_operation_xyz
x,y,z
1/2-x,1/2-y,z
1/2+x,-y,-z
-x,1/2+y,-z
-x,-y,-z
1/2+x,1/2+y,-z
1/2-x,y,z
x,1/2-y,z
loop_
_atom_site_type_symbol
_atom_site_label
_atom_site_fract_x
_atom_site_fract_y
_atom_site_fract_z
Si Si1 0.676064 0.439814 0.359768
Si Si2 0.458004 0.438107 0.170666
Si Si3 0.070486 0.070303 0.504771
Si Si4 0.099663 0.439881 0.809489
Si Si5 0.250000 0.567744 0.108882
Si Si6 0.116329 0.931224 0.332400
Si Si7 0.371419 0.060168 0.011406
Si Si8 0.250000 0.435115 0.296883
O O1 0.750000 0.494749 0.372836
O O2 0.677572 0.250000 0.358077
O O3 0.625027 0.489935 0.434979
O O4 0.646486 0.500221 0.267110
O O5 0.449899 0.250000 0.184076
O O6 0.529437 0.485882 0.194797
O O7 0.412880 0.532123 0.237354
O O8 0.433810 0.474087 0.071231
O O9 0.066357 0.250000 0.535969
O O10 0.090394 0.053129 0.403612
O O11 0.000000 0.000000 0.500000
O O12 0.094186 0.250000 0.801848
O O13 0.122286 0.478621 0.908591
O O14 0.250000 0.750000 0.140056
O O15 0.187418 0.532239 0.052740
O O16 0.250000 0.449001 0.191155
O O17 0.102800 0.750000 0.358324
O O18 0.189858 0.968776 0.329192
O O19 0.360033 0.250000 0.018322
O O20 0.250000 0.250000 0.322952
#
# Coordination Sequence:
#
# PCOD9452916 Si02
#       8
#     8   8   8   8   4   8   8   4
#     4  11  26  48  71  98 135 176 225 284 339 401
#     4  11  22  40  65  95 133 176 218 270 330 390
#     4  12  26  47  74 103 136 175 221 274 335 402
#     4  11  24  42  66  95 129 173 224 276 330 392
#     4  12  24  38  62  93 128 171 218 272 326 388
#     4  12  25  42  67  99 133 171 215 263 322 393
#     4  10  23  41  63  91 130 176 221 272 328 391
#     4  12  24  42  64  93 132 173 216 264 324 388
#
# _framework density 20.800141
#
# number of rings (size 3 to 8) (size 9 to 14) (size 15 to 20)
#    0.000    0.714    1.429    6.429    2.000    2.857 
#    0.000    0.000    0.000    0.000    0.000    0.000 
#    0.000    0.000    0.000    0.000    0.000    0.000 
#
# Total GULP energy -313040.173061 kJ/mol
# GULP energy per Si atom -5590.003090 kJ/mol
# Density = 2.075280 g / cm^3
# Si number density = 20.800141 Si / 1000 Ang^3
#
#
#
# Elastic Constant Matrix: (Units=GPa)
#
#
# Indices 1 2 3 4 5 6 
#
# 1 113.9838 29.8684 4.4314 0.0000 0.0000 0.0000
# 2 29.8684 58.9526 10.4548 0.0000 0.0000 0.0000
# 3 4.4314 10.4548 60.4966 0.0000 0.0000 0.0000
# 4 0.0000 0.0000 0.0000 26.5265 0.0000 0.0000
# 5 0.0000 0.0000 0.0000 0.0000 3.4636 0.0000
# 6 0.0000 0.0000 0.0000 0.0000 0.0000 19.0754
#
#
#
# Elastic Compliance Matrix: (Units=1/GPa)
#
#
# Indices 1 2 3 4 5 6 
#
# 1 0.010118 -0.005153 0.000149 0.000000 0.000000 0.000000
# 2 -0.005153 0.020123 -0.003100 0.000000 0.000000 0.000000
# 3 0.000149 -0.003100 0.017055 0.000000 0.000000 0.000000
# 4 0.000000 0.000000 0.000000 0.037698 0.000000 0.000000
# 5 0.000000 0.000000 0.000000 0.000000 0.288721 0.000000
# 6 0.000000 0.000000 0.000000 0.000000 0.000000 0.052424
#
#
# Mechanical properties :
#
#
# Convention : Reuss Voigt Hill
#
# Bulk Modulus (GPa) = 32.16618 35.88247 34.02432
# Shear Modulus (GPa) = 11.04466 22.39165 16.71815
#
# Velocity S-wave (km/s) = 2.30682 3.28459 2.83813
# Velocity P-wave (km/s) = 4.75323 5.62790 5.20895
#
# Compressibility (1/GPa) = 0.03108856
#
# Stress axis : x y z
#
# Youngs Moduli (GPa) = 98.83822 49.69410 58.63496
#
# Poissons Ratio (x) = 0.25605 -0.00876
# Poissons Ratio (y) = 0.50927 0.18178
# Poissons Ratio (z) = -0.01476 0.15406
#
# Static dielectric constant tensor:
#      x y z
#    x 1.769550 0.000000 0.000000 
#    y 0.000000 1.706780 0.000000 
#    z 0.000000 0.000000 2.110740 
# 
# From -- ./inp_files/24383.got.cif
#   From: 2010.05.17/outbox.cif.g08.bks.cpg/sg59_13_cif.got.tgz:24383.got - 2010.06.03 14:40:33.
