data_PCOD9452413
_publ_section_title
;
Structure prediction by ZEFSAII (Michael W. Deem and Ramdas Pophale) SiO2 
 PCOD9452413
Probable space group: P M M N
;
_chemical_formula_sum "Si O2"
_cell_formula_units_Z 56
_cell_length_a 20.978139
_cell_length_b 7.991124
_cell_length_c 15.825766
_cell_angle_alpha 90.000000
_cell_angle_beta 90.000000
_cell_angle_gamma 90.000000
_cell_volume 2653.014163
_symmetry_space_group_name_H-M "P M M N"
_symmetry_group_IT_number 59
_space_group.IT_coordinate_system_code '2'
_symmetry_cell_setting 'orthorhombic'
loop_
_space_group_symop_operation_xyz
x,y,z
1/2-x,1/2-y,z
1/2+x,-y,-z
-x,1/2+y,-z
-x,-y,-z
1/2+x,1/2+y,-z
1/2-x,y,z
x,1/2-y,z
loop_
_atom_site_type_symbol
_atom_site_label
_atom_site_fract_x
_atom_site_fract_y
_atom_site_fract_z
Si Si1 0.996111 0.561183 0.095698
Si Si2 0.969415 0.945809 0.391139
Si Si3 0.402251 0.561675 0.774142
Si Si4 0.750000 0.951967 0.787281
Si Si5 0.894392 0.446516 0.555135
Si Si6 0.750000 0.446086 0.594259
Si Si7 0.371797 0.053161 0.101515
Si Si8 0.677519 0.452755 0.078434
O O1 0.971375 0.750000 0.100860
O O2 0.067619 0.551560 0.129400
O O3 0.953895 0.439365 0.150945
O O4 0.000000 0.500000 0.000000
O O5 0.973095 0.750000 0.413977
O O6 0.043269 0.011234 0.391158
O O7 0.934119 0.965065 0.302336
O O8 0.924260 0.031158 0.461440
O O9 0.387999 0.750000 0.745164
O O10 0.343356 0.490567 0.827970
O O11 0.750000 0.750000 0.775982
O O12 0.811087 0.996119 0.843443
O O13 0.750000 0.033422 0.695484
O O14 0.888351 0.250000 0.575891
O O15 0.821110 0.514284 0.565033
O O16 0.750000 0.250000 0.569337
O O17 0.384218 0.250000 0.113666
O O18 0.359795 0.022637 0.002018
O O19 0.750000 0.498918 0.063414
O O20 0.671313 0.250000 0.077579
#
# Coordination Sequence:
#
# PCOD9452413 Si02
#       8
#     8   8   8   4   8   4   8   8
#     4  12  24  38  57  84 118 157 202 250 297 350
#     4  10  21  39  64  92 120 155 198 243 298 361
#     4  11  23  39  60  88 120 156 200 248 298 352
#     4  10  24  40  56  87 122 155 198 243 295 352
#     4   9  20  41  65  90 119 154 195 241 300 363
#     4  10  22  40  64  93 122 157 198 245 299 360
#     4  11  22  38  57  82 117 160 202 246 298 351
#     4  10  21  38  59  82 111 155 205 251 300 354
#
# _framework density 21.108066000000001
#
# number of rings (size 3 to 8) (size 9 to 14) (size 15 to 20)
#    0.000    1.571    2.143    2.571    2.000    2.857 
#    1.286    0.000    0.000    0.000    0.000    0.000 
#    0.000    0.000    0.000    0.000    0.000    0.000 
#
# Total GULP energy -312265.160648 kJ/mol
# GULP energy per Si atom -5576.163583 kJ/mol
# Density = 2.106002 g / cm^3
# Si number density = 21.108066 Si / 1000 Ang^3
#
#
#
# Elastic Constant Matrix: (Units=GPa)
#
#
# Indices 1 2 3 4 5 6 
#
# 1 118.9309 4.9390 9.7391 0.0000 0.0000 0.0000
# 2 4.9390 31.2463 -7.4557 0.0000 0.0000 0.0000
# 3 9.7391 -7.4557 62.6286 0.0000 0.0000 0.0000
# 4 0.0000 0.0000 0.0000 30.2561 0.0000 0.0000
# 5 0.0000 0.0000 0.0000 0.0000 32.4162 0.0000
# 6 0.0000 0.0000 0.0000 0.0000 0.0000 22.0007
#
#
#
# Elastic Compliance Matrix: (Units=1/GPa)
#
#
# Indices 1 2 3 4 5 6 
#
# 1 0.008606 -0.001729 -0.001544 0.000000 0.000000 0.000000
# 2 -0.001729 0.033287 0.004232 0.000000 0.000000 0.000000
# 3 -0.001544 0.004232 0.016711 0.000000 0.000000 0.000000
# 4 0.000000 0.000000 0.000000 0.033051 0.000000 0.000000
# 5 0.000000 0.000000 0.000000 0.000000 0.030849 0.000000
# 6 0.000000 0.000000 0.000000 0.000000 0.000000 0.045453
#
#
# Mechanical properties :
#
#
# Convention : Reuss Voigt Hill
#
# Bulk Modulus (GPa) = 16.52312 25.25005 20.88658
# Shear Modulus (GPa) = 26.85083 30.64017 28.74550
#
# Velocity S-wave (km/s) = 3.57047 3.81410 3.69430
# Velocity P-wave (km/s) = 4.98423 5.60221 5.30223
#
# Compressibility (1/GPa) = 0.06052127
#
# Stress axis : x y z
#
# Youngs Moduli (GPa) = 116.19138 30.04200 59.84076
#
# Poissons Ratio (x) = 0.05194 0.09240
# Poissons Ratio (y) = 0.20088 -0.25322
# Poissons Ratio (z) = 0.17942 -0.12712
#
# Static dielectric constant tensor:
#      x y z
#    x 1.797650 0.000000 0.000000 
#    y 0.000000 1.760810 0.000000 
#    z 0.000000 0.000000 1.731750 
# 
# From -- ./inp_files/24344.got.cif
#   From: 2010.05.17/outbox.cif.g08.bks.cpg/sg59_13_cif.got.tgz:24344.got - 2010.06.03 14:40:33.
