data_PCOD9452390
_publ_section_title
;
Structure prediction by ZEFSAII (Michael W. Deem and Ramdas Pophale) SiO2 
 PCOD9452390
Probable space group: P M M N
;
_chemical_formula_sum "Si O2"
_cell_formula_units_Z 40
_cell_length_a 26.278356
_cell_length_b 8.614674
_cell_length_c 9.766147
_cell_angle_alpha 90.000000
_cell_angle_beta 90.000000
_cell_angle_gamma 90.000000
_cell_volume 2210.855184
_symmetry_space_group_name_H-M "P M M N"
_symmetry_group_IT_number 59
_space_group.IT_coordinate_system_code '2'
_symmetry_cell_setting 'orthorhombic'
loop_
_space_group_symop_operation_xyz
x,y,z
1/2-x,1/2-y,z
1/2+x,-y,-z
-x,1/2+y,-z
-x,-y,-z
1/2+x,1/2+y,-z
1/2-x,y,z
x,1/2-y,z
loop_
_atom_site_type_symbol
_atom_site_label
_atom_site_fract_x
_atom_site_fract_y
_atom_site_fract_z
Si Si1 0.657790 0.064596 0.908097
Si Si2 0.544127 0.935838 0.594245
Si Si3 0.341468 0.061650 0.398610
Si Si4 0.453691 0.063566 0.088651
Si Si5 0.750000 0.561031 0.405031
Si Si6 0.750000 0.562955 0.088452
O O1 0.659021 0.250000 0.908960
O O2 0.667950 0.004283 0.753258
O O3 0.601467 0.005337 0.948549
O O4 0.700459 0.998171 0.008986
O O5 0.542849 0.750000 0.586357
O O6 0.601573 0.985343 0.556878
O O7 0.536827 0.979787 0.752774
O O8 0.500000 0.000000 0.500000
O O9 0.340296 0.250000 0.387464
O O10 0.299411 0.012541 0.508197
O O11 0.450986 0.250000 0.079056
O O12 0.500000 0.000000 0.000000
O O13 0.750000 0.750000 0.403375
O O14 0.750000 0.511079 0.247296
O O15 0.750000 0.750000 0.084894
#
# Coordination Sequence:
#
# PCOD9452390 Si02
#       6
#     8   8   8   8   4   4
#     4  11  22  37  57  83 111 146 188 228 271 328
#     4   9  19  33  52  79 110 141 178 220 268 321
#     4   9  18  36  58  80 105 139 182 227 269 321
#     4  10  21  38  58  83 112 146 185 228 274 325
#     4   9  19  35  58  82 104 135 180 227 276 326
#     4  11  22  37  56  82 114 149 184 227 280 330
#
# _framework density 18.092547
#
# number of rings (size 3 to 8) (size 9 to 14) (size 15 to 20)
#    0.000    2.200    0.000    4.500    0.000    6.400 
#    0.000    4.000    0.000    0.000    0.000    0.000 
#    0.000    0.000    0.000    0.000    0.000    0.000 
#
# Total GULP energy -223300.951874 kJ/mol
# GULP energy per Si atom -5582.523797 kJ/mol
# Density = 1.805137 g / cm^3
# Si number density = 18.092547 Si / 1000 Ang^3
#
#
#
# Elastic Constant Matrix: (Units=GPa)
#
#
# Indices 1 2 3 4 5 6 
#
# 1 208.9048 53.5346 141.3632 0.0000 0.0000 0.0000
# 2 53.5346 59.1329 42.6048 0.0000 0.0000 0.0000
# 3 141.3632 42.6048 130.7465 0.0000 0.0000 0.0000
# 4 0.0000 0.0000 0.0000 24.1727 0.0000 0.0000
# 5 0.0000 0.0000 0.0000 0.0000 40.6776 0.0000
# 6 0.0000 0.0000 0.0000 0.0000 0.0000 33.2594
#
#
#
# Elastic Compliance Matrix: (Units=1/GPa)
#
#
# Indices 1 2 3 4 5 6 
#
# 1 0.018238 -0.003011 -0.018738 0.000000 0.000000 0.000000
# 2 -0.003011 0.022597 -0.004108 0.000000 0.000000 0.000000
# 3 -0.018738 -0.004108 0.029247 0.000000 0.000000 0.000000
# 4 0.000000 0.000000 0.000000 0.041369 0.000000 0.000000
# 5 0.000000 0.000000 0.000000 0.000000 0.024584 0.000000
# 6 0.000000 0.000000 0.000000 0.000000 0.000000 0.030067
#
#
# Mechanical properties :
#
#
# Convention : Reuss Voigt Hill
#
# Bulk Modulus (GPa) = 54.44333 97.08770 75.76552
# Shear Modulus (GPa) = 22.32768 30.37406 26.35087
#
# Velocity S-wave (km/s) = 3.51676 4.10178 3.82049
# Velocity P-wave (km/s) = 6.82986 8.72989 7.83767
#
# Compressibility (1/GPa) = 0.01836772
#
# Stress axis : x y z
#
# Youngs Moduli (GPa) = 54.82957 44.25436 34.19193
#
# Poissons Ratio (x) = 0.13325 0.64069
# Poissons Ratio (y) = 0.16509 0.14046
# Poissons Ratio (z) = 1.02740 0.18179
#
# Static dielectric constant tensor:
#      x y z
#    x 1.610600 0.000000 0.000000 
#    y 0.000000 1.618050 0.000000 
#    z 0.000000 0.000000 1.596260 
# 
# From -- ./inp_files/12396.got.cif
#   From: 2010.05.17/outbox.cif.g08.bks.cpg/sg59_7_cif.got.tgz:12396.got - 2010.06.03 14:40:33.
