data_PCOD9452480
_publ_section_title
;
Structure prediction by ZEFSAII (Michael W. Deem and Ramdas Pophale) SiO2 
 PCOD9452480
Probable space group: P M M N
;
_chemical_formula_sum "Si O2"
_cell_formula_units_Z 40
_cell_length_a 8.778157
_cell_length_b 14.564643
_cell_length_c 17.507224
_cell_angle_alpha 90.000000
_cell_angle_beta 90.000000
_cell_angle_gamma 90.000000
_cell_volume 2238.311244
_symmetry_space_group_name_H-M "P M M N"
_symmetry_group_IT_number 59
_space_group.IT_coordinate_system_code '2'
_symmetry_cell_setting 'orthorhombic'
loop_
_space_group_symop_operation_xyz
x,y,z
1/2-x,1/2-y,z
1/2+x,-y,-z
-x,1/2+y,-z
-x,-y,-z
1/2+x,1/2+y,-z
1/2-x,y,z
x,1/2-y,z
loop_
_atom_site_type_symbol
_atom_site_label
_atom_site_fract_x
_atom_site_fract_y
_atom_site_fract_z
Si Si1 0.568201 0.482813 0.877337
Si Si2 0.068444 0.440626 0.713631
Si Si3 0.931400 0.250000 0.655525
Si Si4 0.068139 0.050884 0.426272
Si Si5 0.069428 0.250000 0.487126
Si Si6 0.066840 0.356478 0.007164
O O1 0.750000 0.478329 0.867053
O O2 0.486816 0.472127 0.796656
O O3 0.530577 0.578341 0.920655
O O4 0.514068 0.402380 0.934491
O O5 0.250000 0.435638 0.710282
O O6 0.999616 0.340972 0.693877
O O7 0.007195 0.509592 0.648986
O O8 0.750000 0.250000 0.662585
O O9 0.978235 0.250000 0.566302
O O10 0.250000 0.036071 0.423330
O O11 0.038532 0.158475 0.439308
O O12 0.000000 0.000000 0.500000
O O13 0.250000 0.250000 0.507136
O O14 0.250000 0.361589 0.995770
O O15 0.025464 0.250000 0.017511
#
# Coordination Sequence:
#
# PCOD9452480 Si02
#       6
#     8   8   4   8   4   8
#     4  10  21  38  60  88 120 153 196 244 292 350
#     4  12  25  41  60  86 123 160 196 246 301 355
#     4  12  24  38  62  90 117 150 199 252 298 354
#     4  11  22  39  62  88 119 158 200 247 298 354
#     4  10  22  40  62  86 117 156 199 244 302 358
#     4   9  19  38  63  88 117 154 193 238 295 354
#
# _framework density 17.870615999999998
#
# number of rings (size 3 to 8) (size 9 to 14) (size 15 to 20)
#    0.000    1.400    2.000    3.900    1.400    2.000 
#    1.800    0.000    0.000    0.000    0.000    0.000 
#    0.000    0.000    0.000    0.000    0.000    0.000 
#
# Total GULP energy -223579.322198 kJ/mol
# GULP energy per Si atom -5589.483055 kJ/mol
# Density = 1.782994 g / cm^3
# Si number density = 17.870616 Si / 1000 Ang^3
#
#
#
# Elastic Constant Matrix: (Units=GPa)
#
#
# Indices 1 2 3 4 5 6 
#
# 1 116.3680 84.7114 88.4206 0.0000 0.0000 0.0000
# 2 84.7114 170.3018 90.3609 0.0000 0.0000 0.0000
# 3 88.4206 90.3609 165.6967 0.0000 0.0000 0.0000
# 4 0.0000 0.0000 0.0000 6.7842 0.0000 0.0000
# 5 0.0000 0.0000 0.0000 0.0000 37.0407 0.0000
# 6 0.0000 0.0000 0.0000 0.0000 0.0000 26.2700
#
#
#
# Elastic Compliance Matrix: (Units=1/GPa)
#
#
# Indices 1 2 3 4 5 6 
#
# 1 0.017188 -0.005183 -0.006346 0.000000 0.000000 0.000000
# 2 -0.005183 0.009825 -0.002593 0.000000 0.000000 0.000000
# 3 -0.006346 -0.002593 0.010835 0.000000 0.000000 0.000000
# 4 0.000000 0.000000 0.000000 0.147401 0.000000 0.000000
# 5 0.000000 0.000000 0.000000 0.000000 0.026997 0.000000
# 6 0.000000 0.000000 0.000000 0.000000 0.000000 0.038066
#
#
# Mechanical properties :
#
#
# Convention : Reuss Voigt Hill
#
# Bulk Modulus (GPa) = 104.09348 108.81692 106.45520
# Shear Modulus (GPa) = 17.74581 26.61055 22.17818
#
# Velocity S-wave (km/s) = 3.15463 3.86303 3.52666
# Velocity P-wave (km/s) = 8.46427 8.99561 8.73398
#
# Compressibility (1/GPa) = 0.00960675
#
# Stress axis : x y z
#
# Youngs Moduli (GPa) = 58.18079 101.77611 92.29163
#
# Poissons Ratio (x) = 0.52746 0.58565
# Poissons Ratio (y) = 0.30153 0.23928
# Poissons Ratio (z) = 0.36919 0.26387
#
# Static dielectric constant tensor:
#      x y z
#    x 1.595270 0.000000 0.000000 
#    y 0.000000 1.602090 0.000000 
#    z 0.000000 0.000000 1.570620 
# 
# From -- ./inp_files/19916.got.cif
#   From: 2010.05.17/outbox.cif.g08.bks.cpg/sg59_10_cif.got.tgz:19916.got - 2010.06.03 14:40:33.
