data_PCOD9452973
_publ_section_title
;
Structure prediction by ZEFSAII (Michael W. Deem and Ramdas Pophale) SiO2 
 PCOD9452973
Probable space group: P M M N
;
_chemical_formula_sum "Si O2"
_cell_formula_units_Z 64
_cell_length_a 20.539673
_cell_length_b 7.902742
_cell_length_c 18.171221
_cell_angle_alpha 90.000000
_cell_angle_beta 90.000000
_cell_angle_gamma 90.000000
_cell_volume 2949.547804
_symmetry_space_group_name_H-M "P M M N"
_symmetry_group_IT_number 59
_space_group.IT_coordinate_system_code '2'
_symmetry_cell_setting 'orthorhombic'
loop_
_space_group_symop_operation_xyz
x,y,z
1/2-x,1/2-y,z
1/2+x,-y,-z
-x,1/2+y,-z
-x,-y,-z
1/2+x,1/2+y,-z
1/2-x,y,z
x,1/2-y,z
loop_
_atom_site_type_symbol
_atom_site_label
_atom_site_fract_x
_atom_site_fract_y
_atom_site_fract_z
Si Si1 0.534112 0.043435 0.714358
Si Si2 0.324029 0.953259 0.622007
Si Si3 0.853160 0.450809 0.912049
Si Si4 0.458073 0.451231 0.570559
Si Si5 0.997272 0.457085 0.878887
Si Si6 0.827591 0.058528 0.218848
Si Si7 0.870624 0.554868 0.062801
Si Si8 0.320147 0.956995 0.249502
O O1 0.534522 0.250000 0.713253
O O2 0.494310 0.981017 0.643984
O O3 0.501703 0.994957 0.792515
O O4 0.610482 0.990062 0.716221
O O5 0.250000 0.012376 0.604935
O O6 0.320247 0.750000 0.629581
O O7 0.346958 0.019827 0.702640
O O8 0.382883 0.991893 0.567465
O O9 0.853478 0.250000 0.903133
O O10 0.821639 0.513275 0.836478
O O11 0.927776 0.512404 0.909286
O O12 0.830078 0.483029 0.994707
O O13 0.500000 0.500000 0.500000
O O14 0.457421 0.250000 0.576317
O O15 0.999508 0.250000 0.880598
O O16 0.057707 0.524310 0.925333
O O17 0.750000 0.070808 0.225868
O O18 0.853836 0.250000 0.211304
O O19 0.841536 0.962102 0.144081
O O20 0.877780 0.750000 0.044879
O O21 0.250000 0.010621 0.281457
O O22 0.320776 0.750000 0.251424
#
# Coordination Sequence:
#
# PCOD9452973 Si02
#       8
#     8   8   8   8   8   8   8   8
#     4   8  15  29  49  73 100 131 171 221 268 309
#     4   9  19  38  62  85 110 142 182 227 272 321
#     4   9  17  29  44  63  91 127 165 209 263 317
#     4  11  22  36  57  86 120 153 182 216 263 320
#     4   8  15  28  45  65  90 122 164 213 262 310
#     4   9  19  35  52  70  95 129 168 209 256 314
#     4  11  20  28  42  66  96 129 167 213 262 312
#     4   8  14  27  49  73  93 121 170 226 272 315
#
# _framework density 21.698242
#
# number of rings (size 3 to 8) (size 9 to 14) (size 15 to 20)
#    0.000    2.875    0.000    4.125    0.000    2.500 
#    0.000    3.750    0.000    8.250    0.000    0.000 
#    0.000    0.000    0.000    0.000    0.000    0.000 
#
# Total GULP energy -356720.854119 kJ/mol
# GULP energy per Si atom -5573.763346 kJ/mol
# Density = 2.164886 g / cm^3
# Si number density = 21.698242 Si / 1000 Ang^3
#
#
#
# Elastic Constant Matrix: (Units=GPa)
#
#
# Indices 1 2 3 4 5 6 
#
# 1 120.4056 5.7097 46.2619 0.0000 0.0000 0.0000
# 2 5.7097 24.0881 2.3413 0.0000 0.0000 0.0000
# 3 46.2619 2.3413 89.8262 0.0000 0.0000 0.0000
# 4 0.0000 0.0000 0.0000 12.5470 0.0000 0.0000
# 5 0.0000 0.0000 0.0000 0.0000 -3.5269 0.0000
# 6 0.0000 0.0000 0.0000 0.0000 0.0000 12.9743
#
#
#
# Elastic Compliance Matrix: (Units=1/GPa)
#
#
# Indices 1 2 3 4 5 6 
#
# 1 0.010445 -0.001958 -0.005329 0.000000 0.000000 0.000000
# 2 -0.001958 0.041987 -0.000086 0.000000 0.000000 0.000000
# 3 -0.005329 -0.000086 0.013879 0.000000 0.000000 0.000000
# 4 0.000000 0.000000 0.000000 0.079700 0.000000 0.000000
# 5 0.000000 0.000000 0.000000 0.000000 -0.283537 0.000000
# 6 0.000000 0.000000 0.000000 0.000000 0.000000 0.077075
#
#
# Mechanical properties :
#
#
# Convention : Reuss Voigt Hill
#
# Bulk Modulus (GPa) = 19.39249 38.10506 28.74877
# Shear Modulus (GPa) = -175.33912 16.39936 -79.46988
#
# Velocity S-wave (km/s) = -8.99908 2.75215 -6.05843
# Velocity P-wave (km/s) = 9.95094 5.26294 5.97171
#
# Compressibility (1/GPa) = 0.05156636
#
# Stress axis : x y z
#
# Youngs Moduli (GPa) = 95.73574 23.81701 72.05066
#
# Poissons Ratio (x) = 0.04663 0.38392
# Poissons Ratio (y) = 0.18745 0.00619
# Poissons Ratio (z) = 0.51013 0.00205
#
# Static dielectric constant tensor:
#      x y z
#    x 1.842010 0.000000 0.000000 
#    y 0.000000 1.817090 0.000000 
#    z 0.000000 0.000000 1.824860 
# 
# From -- ./inp_files/28284.got.cif
#   From: 2010.05.17/outbox.cif.g08.bks.cpg/sg59_15_cif.got.tgz:28284.got - 2010.06.03 14:40:33.
