data_PCOD9452469
_publ_section_title
;
Structure prediction by ZEFSAII (Michael W. Deem and Ramdas Pophale) SiO2 
 PCOD9452469
Probable space group: P M M N
;
_chemical_formula_sum "Si O2"
_cell_formula_units_Z 48
_cell_length_a 8.884779
_cell_length_b 15.542727
_cell_length_c 17.732280
_cell_angle_alpha 90.000000
_cell_angle_beta 90.000000
_cell_angle_gamma 90.000000
_cell_volume 2448.716056
_symmetry_space_group_name_H-M "P M M N"
_symmetry_group_IT_number 59
_space_group.IT_coordinate_system_code '2'
_symmetry_cell_setting 'orthorhombic'
loop_
_space_group_symop_operation_xyz
x,y,z
1/2-x,1/2-y,z
1/2+x,-y,-z
-x,1/2+y,-z
-x,-y,-z
1/2+x,1/2+y,-z
1/2-x,y,z
x,1/2-y,z
loop_
_atom_site_type_symbol
_atom_site_label
_atom_site_fract_x
_atom_site_fract_y
_atom_site_fract_z
Si Si1 0.081281 0.851840 0.844201
Si Si2 0.069935 0.998238 0.583130
Si Si3 0.929967 0.852614 0.688227
Si Si4 0.930641 0.593786 0.998197
Si Si5 0.428293 0.852485 0.318023
Si Si6 0.919455 0.852083 0.164656
O O1 0.250000 0.889777 0.846632
O O2 0.095138 0.750000 0.834207
O O3 0.989360 0.881097 0.770920
O O4 0.998130 0.864690 0.923236
O O5 0.250000 0.994903 0.580172
O O6 0.016735 0.084520 0.626439
O O7 0.000000 0.000000 0.500000
O O8 0.007551 0.914919 0.627889
O O9 0.750000 0.862208 0.684905
O O10 0.963510 0.750000 0.677205
O O11 0.750000 0.595150 0.993443
O O12 0.972878 0.632561 0.079522
O O13 0.000000 0.500000 0.000000
O O14 0.250000 0.863165 0.328511
O O15 0.462666 0.750000 0.328271
O O16 0.474522 0.879722 0.232913
O O17 0.750000 0.888936 0.172990
O O18 0.907616 0.750000 0.172684
#
# Coordination Sequence:
#
# PCOD9452469 Si02
#       6
#     8   8   8   8   8   8
#     4  10  21  38  60  86 118 158 204 252 305 364
#     4  12  26  44  68  96 129 165 204 253 309 373
#     4  10  22  42  68  96 127 165 209 257 312 372
#     4  11  23  36  53  81 119 161 206 256 306 358
#     4  10  22  41  66  95 127 164 208 257 310 369
#     4   9  19  37  59  82 112 155 205 253 304 361
#
# _framework density 19.60211
#
# number of rings (size 3 to 8) (size 9 to 14) (size 15 to 20)
#    0.000    1.667    0.000    4.000    2.333    5.667 
#    0.000    1.667    0.000    0.000    0.000    0.000 
#    0.000    0.000    0.000    0.000    0.000    0.000 
#
# Total GULP energy -268000.685593 kJ/mol
# GULP energy per Si atom -5583.347617 kJ/mol
# Density = 1.955749 g / cm^3
# Si number density = 19.602110 Si / 1000 Ang^3
#
#
#
# Elastic Constant Matrix: (Units=GPa)
#
#
# Indices 1 2 3 4 5 6 
#
# 1 136.5524 61.6376 93.6678 0.0000 0.0000 0.0000
# 2 61.6376 71.8240 59.7758 0.0000 0.0000 0.0000
# 3 93.6678 59.7758 184.6920 0.0000 0.0000 0.0000
# 4 0.0000 0.0000 0.0000 34.5358 0.0000 0.0000
# 5 0.0000 0.0000 0.0000 0.0000 39.3726 0.0000
# 6 0.0000 0.0000 0.0000 0.0000 0.0000 30.4282
#
#
#
# Elastic Compliance Matrix: (Units=1/GPa)
#
#
# Indices 1 2 3 4 5 6 
#
# 1 0.014214 -0.008484 -0.004463 0.000000 0.000000 0.000000
# 2 -0.008484 0.024119 -0.003504 0.000000 0.000000 0.000000
# 3 -0.004463 -0.003504 0.008812 0.000000 0.000000 0.000000
# 4 0.000000 0.000000 0.000000 0.028955 0.000000 0.000000
# 5 0.000000 0.000000 0.000000 0.000000 0.025398 0.000000
# 6 0.000000 0.000000 0.000000 0.000000 0.000000 0.032864
#
#
# Mechanical properties :
#
#
# Convention : Reuss Voigt Hill
#
# Bulk Modulus (GPa) = 70.20288 91.47008 80.83648
# Shear Modulus (GPa) = 29.06769 32.73312 30.90041
#
# Velocity S-wave (km/s) = 3.85500 4.09085 3.97467
# Velocity P-wave (km/s) = 7.46367 8.31132 7.89888
#
# Compressibility (1/GPa) = 0.01424443
#
# Stress axis : x y z
#
# Youngs Moduli (GPa) = 70.35324 41.46031 113.48426
#
# Poissons Ratio (x) = 0.35174 0.50647
# Poissons Ratio (y) = 0.59686 0.39761
# Poissons Ratio (z) = 0.31398 0.14526
#
# Static dielectric constant tensor:
#      x y z
#    x 1.677840 0.000000 0.000000 
#    y 0.000000 1.685010 0.000000 
#    z 0.000000 0.000000 1.755450 
# 
# From -- ./inp_files/20441.got.cif
#   From: 2010.05.17/outbox.cif.g08.bks.cpg/sg59_11_cif.got.tgz:20441.got - 2010.06.03 14:40:33.
