data_PCOD9452813
_publ_section_title
;
Structure prediction by ZEFSAII (Michael W. Deem and Ramdas Pophale) SiO2 
 PCOD9452813
Probable space group: P M M N
;
_chemical_formula_sum "Si O2"
_cell_formula_units_Z 48
_cell_length_a 28.994772
_cell_length_b 8.722038
_cell_length_c 10.185523
_cell_angle_alpha 90.000000
_cell_angle_beta 90.000000
_cell_angle_gamma 90.000000
_cell_volume 2575.852593
_symmetry_space_group_name_H-M "P M M N"
_symmetry_group_IT_number 59
_space_group.IT_coordinate_system_code '2'
_symmetry_cell_setting 'orthorhombic'
loop_
_space_group_symop_operation_xyz
x,y,z
1/2-x,1/2-y,z
1/2+x,-y,-z
-x,1/2+y,-z
-x,-y,-z
1/2+x,1/2+y,-z
1/2-x,y,z
x,1/2-y,z
loop_
_atom_site_type_symbol
_atom_site_label
_atom_site_fract_x
_atom_site_fract_y
_atom_site_fract_z
Si Si1 0.873923 0.067411 0.984127
Si Si2 0.803509 0.434970 0.500864
Si Si3 0.480514 0.433136 0.634870
Si Si4 0.880757 0.064899 0.290107
Si Si5 0.468531 0.432635 0.115602
Si Si6 0.805114 0.570758 0.784163
O O1 0.881488 0.250000 0.976907
O O2 0.916791 0.981475 0.917926
O O3 0.829596 0.020677 0.900271
O O4 0.871242 0.025070 0.137989
O O5 0.750000 0.479052 0.474491
O O6 0.804693 0.250000 0.512028
O O7 0.838686 0.480004 0.385714
O O8 0.817890 0.505801 0.640570
O O9 0.500000 0.500000 0.500000
O O10 0.480964 0.250000 0.632062
O O11 0.428722 0.491404 0.663869
O O12 0.513100 0.494392 0.750754
O O13 0.885515 0.250000 0.297021
O O14 0.473166 0.250000 0.120790
O O15 0.500000 0.500000 0.000000
O O16 0.750000 0.556214 0.794849
O O17 0.817444 0.750000 0.792212
#
# Coordination Sequence:
#
# PCOD9452813 Si02
#       6
#     8   8   8   8   8   8
#     4  11  23  39  63  92 123 162 205 251 308 368
#     4   9  19  38  63  89 119 157 201 251 306 365
#     4  12  26  43  64  90 124 165 208 255 308 365
#     4  10  22  40  62  90 124 157 203 255 307 367
#     4  12  24  42  65  91 125 163 206 252 306 368
#     4  10  22  40  61  88 123 161 204 254 306 364
#
# _framework density 18.634605000000001
#
# number of rings (size 3 to 8) (size 9 to 14) (size 15 to 20)
#    0.000    1.333    1.667    4.000    2.333    3.000 
#    0.000    1.667    0.000    2.000    0.000    0.000 
#    0.000    0.000    0.000    0.000    0.000    0.000 
#
# Total GULP energy -268339.434327 kJ/mol
# GULP energy per Si atom -5590.404882 kJ/mol
# Density = 1.859219 g / cm^3
# Si number density = 18.634605 Si / 1000 Ang^3
#
#
#
# Elastic Constant Matrix: (Units=GPa)
#
#
# Indices 1 2 3 4 5 6 
#
# 1 75.7877 44.1714 79.3801 0.0000 0.0000 0.0000
# 2 44.1714 86.0191 66.3716 0.0000 0.0000 0.0000
# 3 79.3801 66.3716 190.6898 0.0000 0.0000 0.0000
# 4 0.0000 0.0000 0.0000 23.8832 0.0000 0.0000
# 5 0.0000 0.0000 0.0000 0.0000 42.4833 0.0000
# 6 0.0000 0.0000 0.0000 0.0000 0.0000 32.9977
#
#
#
# Elastic Compliance Matrix: (Units=1/GPa)
#
#
# Indices 1 2 3 4 5 6 
#
# 1 0.026046 -0.006848 -0.008459 0.000000 0.000000 0.000000
# 2 -0.006848 0.017694 -0.003308 0.000000 0.000000 0.000000
# 3 -0.008459 -0.003308 0.009917 0.000000 0.000000 0.000000
# 4 0.000000 0.000000 0.000000 0.041870 0.000000 0.000000
# 5 0.000000 0.000000 0.000000 0.000000 0.023539 0.000000
# 6 0.000000 0.000000 0.000000 0.000000 0.000000 0.030305
#
#
# Mechanical properties :
#
#
# Convention : Reuss Voigt Hill
#
# Bulk Modulus (GPa) = 60.87467 81.37143 71.12305
# Shear Modulus (GPa) = 26.03135 30.71106 28.37120
#
# Velocity S-wave (km/s) = 3.74162 4.06404 3.90616
# Velocity P-wave (km/s) = 7.16971 8.11071 7.65468
#
# Compressibility (1/GPa) = 0.01642719
#
# Stress axis : x y z
#
# Youngs Moduli (GPa) = 38.39408 56.51560 100.83978
#
# Poissons Ratio (x) = 0.38701 0.85298
# Poissons Ratio (y) = 0.26292 0.33358
# Poissons Ratio (z) = 0.32477 0.18695
#
# Static dielectric constant tensor:
#      x y z
#    x 1.631610 0.000000 0.000000 
#    y 0.000000 1.627320 0.000000 
#    z 0.000000 0.000000 1.608430 
# 
# From -- ./inp_files/6271.got.cif
#   From: 2010.05.17/outbox.cif.g08.bks.cpg/sg59_4_cif.got.tgz:6271.got - 2010.06.03 14:40:33.
