data_PCOD9452549
_publ_section_title
;
Structure prediction by ZEFSAII (Michael W. Deem and Ramdas Pophale) SiO2 
 PCOD9452549
Probable space group: P M M N
;
_chemical_formula_sum "Si O2"
_cell_formula_units_Z 64
_cell_length_a 31.509812
_cell_length_b 8.748414
_cell_length_c 12.412352
_cell_angle_alpha 90.000000
_cell_angle_beta 90.000000
_cell_angle_gamma 90.000000
_cell_volume 3421.599881
_symmetry_space_group_name_H-M "P M M N"
_symmetry_group_IT_number 59
_space_group.IT_coordinate_system_code '2'
_symmetry_cell_setting 'orthorhombic'
loop_
_space_group_symop_operation_xyz
x,y,z
1/2-x,1/2-y,z
1/2+x,-y,-z
-x,1/2+y,-z
-x,-y,-z
1/2+x,1/2+y,-z
1/2-x,y,z
x,1/2-y,z
loop_
_atom_site_type_symbol
_atom_site_label
_atom_site_fract_x
_atom_site_fract_y
_atom_site_fract_z
Si Si1 0.372167 0.066309 0.369238
Si Si2 0.200502 0.566715 0.520851
Si Si3 0.941818 0.567917 0.244562
Si Si4 0.516730 0.567613 0.887219
Si Si5 0.609765 0.433112 0.857057
Si Si6 0.952581 0.933090 0.490557
Si Si7 0.867487 0.431738 0.097962
Si Si8 0.800493 0.573428 0.245250
O O1 0.371554 0.250000 0.372481
O O2 0.417220 0.015065 0.422916
O O3 0.333023 0.001845 0.437755
O O4 0.369462 0.007664 0.247428
O O5 0.250000 0.526860 0.497069
O O6 0.197310 0.750000 0.522742
O O7 0.190185 0.500216 0.638810
O O8 0.947799 0.750000 0.233049
O O9 0.934916 0.533743 0.370501
O O10 0.903905 0.513851 0.167760
O O11 0.983541 0.481064 0.203991
O O12 0.519946 0.750000 0.894522
O O13 0.561830 0.493863 0.862581
O O14 0.500000 0.500000 0.000000
O O15 0.610212 0.250000 0.846749
O O16 0.630018 0.474528 0.972452
O O17 0.956411 0.750000 0.500951
O O18 0.000000 0.000000 0.500000
O O19 0.874321 0.250000 0.105534
O O20 0.823872 0.480756 0.152644
O O21 0.750000 0.569789 0.230897
O O22 0.814829 0.750000 0.244620
#
# Coordination Sequence:
#
# PCOD9452549 Si02
#       8
#     8   8   8   8   8   8   8   8
#     4  11  23  40  62  89 121 160 205 252 307 368
#     4  10  21  39  65  95 124 156 198 247 302 365
#     4  11  22  37  59  85 116 151 193 246 298 352
#     4  12  23  37  57  83 115 155 201 248 297 353
#     4  11  24  41  59  84 118 158 204 251 299 357
#     4  10  23  39  56  83 116 154 196 242 295 353
#     4  11  23  38  59  86 116 151 195 242 293 354
#     4  10  21  38  62  91 122 153 188 237 297 359
#
# _framework density 18.704699000000002
#
# number of rings (size 3 to 8) (size 9 to 14) (size 15 to 20)
#    0.000    1.250    1.250    4.875    0.000    8.000 
#    0.000    0.625    0.000    0.750    0.000    0.000 
#    0.000    0.000    0.000    0.000    0.000    0.000 
#
# Total GULP energy -357834.516211 kJ/mol
# GULP energy per Si atom -5591.164316 kJ/mol
# Density = 1.866213 g / cm^3
# Si number density = 18.704699 Si / 1000 Ang^3
#
#
#
# Elastic Constant Matrix: (Units=GPa)
#
#
# Indices 1 2 3 4 5 6 
#
# 1 70.8748 21.3136 55.4324 0.0000 0.0000 0.0000
# 2 21.3136 27.8883 23.8808 0.0000 0.0000 0.0000
# 3 55.4324 23.8808 124.0128 0.0000 0.0000 0.0000
# 4 0.0000 0.0000 0.0000 31.7251 0.0000 0.0000
# 5 0.0000 0.0000 0.0000 0.0000 25.9397 0.0000
# 6 0.0000 0.0000 0.0000 0.0000 0.0000 33.9625
#
#
#
# Elastic Compliance Matrix: (Units=1/GPa)
#
#
# Indices 1 2 3 4 5 6 
#
# 1 0.024250 -0.011078 -0.008706 0.000000 0.000000 0.000000
# 2 -0.011078 0.047998 -0.004291 0.000000 0.000000 0.000000
# 3 -0.008706 -0.004291 0.012782 0.000000 0.000000 0.000000
# 4 0.000000 0.000000 0.000000 0.031521 0.000000 0.000000
# 5 0.000000 0.000000 0.000000 0.000000 0.038551 0.000000
# 6 0.000000 0.000000 0.000000 0.000000 0.000000 0.029444
#
#
# Mechanical properties :
#
#
# Convention : Reuss Voigt Hill
#
# Bulk Modulus (GPa) = 27.11555 47.11438 37.11496
# Shear Modulus (GPa) = 20.40900 26.46870 23.43885
#
# Velocity S-wave (km/s) = 3.30679 3.76584 3.54375
# Velocity P-wave (km/s) = 5.39518 6.64469 6.05227
#
# Compressibility (1/GPa) = 0.03687921
#
# Stress axis : x y z
#
# Youngs Moduli (GPa) = 41.23691 20.83409 78.23718
#
# Poissons Ratio (x) = 0.23080 0.68116
# Poissons Ratio (y) = 0.45682 0.33573
# Poissons Ratio (z) = 0.35902 0.08940
#
# Static dielectric constant tensor:
#      x y z
#    x 1.629850 0.000000 0.000000 
#    y 0.000000 1.623980 0.000000 
#    z 0.000000 0.000000 1.651320 
# 
# From -- ./inp_files/19230.got.cif
#   From: 2010.05.17/outbox.cif.g08.bks.cpg/sg59_10_cif.got.tgz:19230.got - 2010.06.03 14:40:33.
