data_PCOD9452297
_publ_section_title
;
Structure prediction by ZEFSAII (Michael W. Deem and Ramdas Pophale) SiO2 
 PCOD9452297
Probable space group: P M M N
;
_chemical_formula_sum "Si O2"
_cell_formula_units_Z 64
_cell_length_a 18.836004
_cell_length_b 8.841220
_cell_length_c 21.733854
_cell_angle_alpha 90.000000
_cell_angle_beta 90.000000
_cell_angle_gamma 90.000000
_cell_volume 3619.409457
_symmetry_space_group_name_H-M "P M M N"
_symmetry_group_IT_number 59
_space_group.IT_coordinate_system_code '2'
_symmetry_cell_setting 'orthorhombic'
loop_
_space_group_symop_operation_xyz
x,y,z
1/2-x,1/2-y,z
1/2+x,-y,-z
-x,1/2+y,-z
-x,-y,-z
1/2+x,1/2+y,-z
1/2-x,y,z
x,1/2-y,z
loop_
_atom_site_type_symbol
_atom_site_label
_atom_site_fract_x
_atom_site_fract_y
_atom_site_fract_z
Si Si1 0.332373 0.569206 0.257726
Si Si2 0.333189 0.932384 0.625108
Si Si3 0.470015 0.568970 0.937936
Si Si4 0.334221 0.428078 0.391203
Si Si5 0.330588 0.568012 0.870097
Si Si6 0.101620 0.069342 0.748969
Si Si7 0.078533 0.568482 0.502780
Si Si8 0.963480 0.931324 0.807220
O O1 0.250000 0.532643 0.244096
O O2 0.340194 0.750000 0.257614
O O3 0.348554 0.504878 0.325567
O O4 0.387270 0.494167 0.211243
O O5 0.250000 0.973372 0.617723
O O6 0.336531 0.750000 0.631912
O O7 0.379185 0.974068 0.565101
O O8 0.365994 0.007600 0.685707
O O9 0.471719 0.750000 0.943575
O O10 0.389341 0.524073 0.920521
O O11 0.515089 0.527776 0.877085
O O12 0.500000 0.500000 0.000000
O O13 0.250000 0.443820 0.403314
O O14 0.351192 0.250000 0.388025
O O15 0.377778 0.506940 0.444856
O O16 0.250000 0.533902 0.887759
O O17 0.336976 0.750000 0.860712
O O18 0.350826 0.488913 0.806077
O O19 0.098902 0.250000 0.748344
O O20 0.023554 0.002292 0.762956
O O21 0.074637 0.750000 0.500609
O O22 0.000000 0.500000 0.500000
O O23 0.966083 0.750000 0.801588
#
# Coordination Sequence:
#
# PCOD9452297 Si02
#       8
#     8   8   8   8   8   8   8   8
#     4  10  21  37  59  87 115 144 184 235 286 333
#     4  10  22  40  59  78 106 147 187 224 276 339
#     4   9  19  35  56  82 111 148 188 228 275 327
#     4  10  21  38  60  83 109 145 185 228 283 343
#     4   9  18  35  57  80 110 148 189 229 274 332
#     4  11  22  34  54  85 116 144 180 228 281 331
#     4  11  24  40  58  80 109 145 188 236 284 335
#     4  10  21  38  59  82 113 151 189 227 273 330
#
# _framework density 17.682444
#
# number of rings (size 3 to 8) (size 9 to 14) (size 15 to 20)
#    0.000    2.000    0.000    4.125    1.750    7.500 
#    0.000    0.625    0.000    2.250    0.000    0.000 
#    0.000    0.000    0.000    0.000    0.000    0.000 
#
# Total GULP energy -357435.376995 kJ/mol
# GULP energy per Si atom -5584.927766 kJ/mol
# Density = 1.764220 g / cm^3
# Si number density = 17.682444 Si / 1000 Ang^3
#
#
#
# Elastic Constant Matrix: (Units=GPa)
#
#
# Indices 1 2 3 4 5 6 
#
# 1 141.8560 64.8932 112.7292 0.0000 0.0000 0.0000
# 2 64.8932 60.1403 56.0948 0.0000 0.0000 0.0000
# 3 112.7292 56.0948 125.3241 0.0000 0.0000 0.0000
# 4 0.0000 0.0000 0.0000 33.2691 0.0000 0.0000
# 5 0.0000 0.0000 0.0000 0.0000 24.2444 0.0000
# 6 0.0000 0.0000 0.0000 0.0000 0.0000 31.4241
#
#
#
# Elastic Compliance Matrix: (Units=1/GPa)
#
#
# Indices 1 2 3 4 5 6 
#
# 1 0.028979 -0.011941 -0.020722 0.000000 0.000000 0.000000
# 2 -0.011941 0.033466 -0.004238 0.000000 0.000000 0.000000
# 3 -0.020722 -0.004238 0.028516 0.000000 0.000000 0.000000
# 4 0.000000 0.000000 0.000000 0.030058 0.000000 0.000000
# 5 0.000000 0.000000 0.000000 0.000000 0.041247 0.000000
# 6 0.000000 0.000000 0.000000 0.000000 0.000000 0.031823
#
#
# Mechanical properties :
#
#
# Convention : Reuss Voigt Hill
#
# Bulk Modulus (GPa) = 58.28145 88.30611 73.29378
# Shear Modulus (GPa) = 18.27421 24.02773 21.15097
#
# Velocity S-wave (km/s) = 3.21824 3.69025 3.46230
# Velocity P-wave (km/s) = 6.84405 8.25867 7.58442
#
# Compressibility (1/GPa) = 0.01715812
#
# Stress axis : x y z
#
# Youngs Moduli (GPa) = 34.50742 29.88131 35.06862
#
# Poissons Ratio (x) = 0.35683 0.72669
# Poissons Ratio (y) = 0.41207 0.14861
# Poissons Ratio (z) = 0.71506 0.12663
#
# Static dielectric constant tensor:
#      x y z
#    x 1.620530 0.000000 0.000000 
#    y 0.000000 1.599330 0.000000 
#    z 0.000000 0.000000 1.566550 
# 
# From -- ./inp_files/30697.got.cif
#   From: 2010.05.17/outbox.cif.g08.bks.cpg/sg59_16_cif.got.tgz:30697.got - 2010.06.03 14:40:33.
