data_PCOD9452625
_publ_section_title
;
Structure prediction by ZEFSAII (Michael W. Deem and Ramdas Pophale) SiO2 
 PCOD9452625
Probable space group: P M M N
;
_chemical_formula_sum "Si O2"
_cell_formula_units_Z 64
_cell_length_a 8.777010
_cell_length_b 14.726691
_cell_length_c 24.733674
_cell_angle_alpha 90.000000
_cell_angle_beta 90.000000
_cell_angle_gamma 90.000000
_cell_volume 3196.983537
_symmetry_space_group_name_H-M "P M M N"
_symmetry_group_IT_number 59
_space_group.IT_coordinate_system_code '2'
_symmetry_cell_setting 'orthorhombic'
loop_
_space_group_symop_operation_xyz
x,y,z
1/2-x,1/2-y,z
1/2+x,-y,-z
-x,1/2+y,-z
-x,-y,-z
1/2+x,1/2+y,-z
1/2-x,y,z
x,1/2-y,z
loop_
_atom_site_type_symbol
_atom_site_label
_atom_site_fract_x
_atom_site_fract_y
_atom_site_fract_z
Si Si1 0.563965 0.854895 0.347691
Si Si2 0.072413 0.484830 0.558255
Si Si3 0.069063 0.644821 0.910839
Si Si4 0.070233 0.535272 0.127079
Si Si5 0.926941 0.642508 0.027472
Si Si6 0.930178 0.958260 0.238290
Si Si7 0.922471 0.852380 0.613234
Si Si8 0.925994 0.648529 0.743478
O O1 0.750000 0.857590 0.348239
O O2 0.517300 0.750000 0.345586
O O3 0.510687 0.905515 0.402225
O O4 0.517264 0.909414 0.293608
O O5 0.250000 0.467549 0.550540
O O6 0.000000 0.500000 0.500000
O O7 0.042417 0.576816 0.591336
O O8 0.250000 0.633672 0.903205
O O9 0.028473 0.750000 0.899380
O O10 0.978975 0.570329 0.876819
O O11 0.024615 0.627089 0.973411
O O12 0.250000 0.543730 0.121610
O O13 0.988109 0.585686 0.077633
O O14 0.014214 0.574386 0.184308
O O15 0.750000 0.619802 0.016373
O O16 0.935713 0.750000 0.039783
O O17 0.750000 0.943868 0.232571
O O18 0.967157 0.065194 0.241995
O O19 0.750000 0.879374 0.596755
O O20 0.949850 0.750000 0.593604
O O21 0.924713 0.849970 0.678105
O O22 0.750000 0.631799 0.760817
O O23 0.971446 0.750000 0.761837
#
# Coordination Sequence:
#
# PCOD9452625 Si02
#       8
#     8   8   8   8   8   8   8   8
#     4   9  20  40  63  85 113 153 198 241 291 350
#     4  11  22  37  59  89 120 154 195 243 295 349
#     4  10  21  39  63  90 121 158 201 250 303 360
#     4  12  25  39  58  86 122 161 201 249 302 360
#     4  10  21  39  63  89 119 157 201 250 304 361
#     4  11  22  38  60  86 114 150 200 252 299 350
#     4   9  18  34  57  83 113 149 185 227 284 347
#     4   9  18  34  57  83 112 147 184 226 286 355
#
# _framework density 20.018872000000002
#
# number of rings (size 3 to 8) (size 9 to 14) (size 15 to 20)
#    0.000    1.875    1.250    3.750    0.000    3.500 
#    0.000    3.750    0.000    5.250    0.000    0.000 
#    0.000    0.000    0.000    0.000    0.000    0.000 
#
# Total GULP energy -357484.035426 kJ/mol
# GULP energy per Si atom -5585.688054 kJ/mol
# Density = 1.997331 g / cm^3
# Si number density = 20.018872 Si / 1000 Ang^3
#
#
#
# Elastic Constant Matrix: (Units=GPa)
#
#
# Indices 1 2 3 4 5 6 
#
# 1 35.8205 9.4795 8.4719 0.0000 0.0000 0.0000
# 2 9.4795 69.0830 35.5276 0.0000 0.0000 0.0000
# 3 8.4719 35.5276 95.0327 0.0000 0.0000 0.0000
# 4 0.0000 0.0000 0.0000 0.3690 0.0000 0.0000
# 5 0.0000 0.0000 0.0000 0.0000 32.1117 0.0000
# 6 0.0000 0.0000 0.0000 0.0000 0.0000 24.0195
#
#
#
# Elastic Compliance Matrix: (Units=1/GPa)
#
#
# Indices 1 2 3 4 5 6 
#
# 1 0.029111 -0.003293 -0.001364 0.000000 0.000000 0.000000
# 2 -0.003293 0.018293 -0.006545 0.000000 0.000000 0.000000
# 3 -0.001364 -0.006545 0.013091 0.000000 0.000000 0.000000
# 4 0.000000 0.000000 0.000000 2.709719 0.000000 0.000000
# 5 0.000000 0.000000 0.000000 0.000000 0.031141 0.000000
# 6 0.000000 0.000000 0.000000 0.000000 0.000000 0.041633
#
#
# Mechanical properties :
#
#
# Convention : Reuss Voigt Hill
#
# Bulk Modulus (GPa) = 26.25312 34.09935 30.17623
# Shear Modulus (GPa) = 1.73726 21.06386 11.40056
#
# Velocity S-wave (km/s) = 0.93258 3.24728 2.38899
# Velocity P-wave (km/s) = 3.78183 5.57946 4.76616
#
# Compressibility (1/GPa) = 0.03809071
#
# Stress axis : x y z
#
# Youngs Moduli (GPa) = 34.35116 54.66483 76.38702
#
# Poissons Ratio (x) = 0.18002 0.10420
# Poissons Ratio (y) = 0.11312 0.49998
# Poissons Ratio (z) = 0.04686 0.35780
#
# Static dielectric constant tensor:
#      x y z
#    x 1.695850 0.000000 0.000000 
#    y 0.000000 1.713090 0.000000 
#    z 0.000000 0.000000 1.716230 
# 
# From -- ./inp_files/31488.got.cif
#   From: 2010.05.17/outbox.cif.g08.bks.cpg/sg59_16_cif.got.tgz:31488.got - 2010.06.03 14:40:33.
