data_PCOD9452293
_publ_section_title
;
Structure prediction by ZEFSAII (Michael W. Deem and Ramdas Pophale) SiO2 
 PCOD9452293
Probable space group: P M M N
;
_chemical_formula_sum "Si O2"
_cell_formula_units_Z 64
_cell_length_a 25.248474
_cell_length_b 8.904044
_cell_length_c 14.913039
_cell_angle_alpha 90.000000
_cell_angle_beta 90.000000
_cell_angle_gamma 90.000000
_cell_volume 3352.652843
_symmetry_space_group_name_H-M "P M M N"
_symmetry_group_IT_number 59
_space_group.IT_coordinate_system_code '2'
_symmetry_cell_setting 'orthorhombic'
loop_
_space_group_symop_operation_xyz
x,y,z
1/2-x,1/2-y,z
1/2+x,-y,-z
-x,1/2+y,-z
-x,-y,-z
1/2+x,1/2+y,-z
1/2-x,y,z
x,1/2-y,z
loop_
_atom_site_type_symbol
_atom_site_label
_atom_site_fract_x
_atom_site_fract_y
_atom_site_fract_z
Si Si1 0.192346 0.569484 0.321939
Si Si2 0.485609 0.577825 0.721237
Si Si3 0.547847 0.924400 0.448437
Si Si4 0.333340 0.425389 0.508825
Si Si5 0.811980 0.571126 0.285785
Si Si6 0.057715 0.429404 0.022675
Si Si7 0.088668 0.569908 0.212819
Si Si8 0.107968 0.924145 0.856665
O O1 0.250000 0.524257 0.284911
O O2 0.189903 0.750000 0.323887
O O3 0.188949 0.512029 0.423927
O O4 0.142433 0.519161 0.262368
O O5 0.500262 0.750000 0.702202
O O6 0.448504 0.512308 0.644264
O O7 0.537864 0.478479 0.728735
O O8 0.449822 0.572890 0.809464
O O9 0.536955 0.750000 0.431573
O O10 0.603178 0.935359 0.498882
O O11 0.500000 0.000000 0.500000
O O12 0.317570 0.250000 0.503802
O O13 0.319210 0.477923 0.609847
O O14 0.750000 0.552229 0.262953
O O15 0.824820 0.750000 0.284381
O O16 0.849551 0.488983 0.214174
O O17 0.052416 0.250000 0.025605
O O18 0.078443 0.492058 0.117398
O O19 0.099258 0.479825 0.946049
O O20 0.000000 0.500000 0.000000
O O21 0.089634 0.750000 0.202078
O O22 0.120353 0.750000 0.876814
#
# Coordination Sequence:
#
# PCOD9452293 Si02
#       8
#     8   8   8   8   8   8   8   8
#     4  10  23  42  62  87 120 159 204 252 299 350
#     4  11  22  36  57  86 122 158 197 245 301 363
#     4  11  22  35  53  80 119 161 203 248 303 363
#     4  10  21  37  59  86 118 159 205 250 297 354
#     4  10  21  39  62  88 121 162 208 256 305 359
#     4  12  24  40  65  94 125 158 197 247 303 368
#     4  11  23  40  64  91 122 161 202 248 307 365
#     4  11  23  39  61  90 124 160 198 246 301 362
#
# _framework density 19.089359999999999
#
# number of rings (size 3 to 8) (size 9 to 14) (size 15 to 20)
#    0.000    1.250    2.500    3.750    0.000    6.500 
#    0.000    0.625    0.000    2.250    0.000    0.000 
#    0.000    0.000    0.000    0.000    0.000    0.000 
#
# Total GULP energy -357511.188446 kJ/mol
# GULP energy per Si atom -5586.112319 kJ/mol
# Density = 1.904591 g / cm^3
# Si number density = 19.089360 Si / 1000 Ang^3
#
#
#
# Elastic Constant Matrix: (Units=GPa)
#
#
# Indices 1 2 3 4 5 6 
#
# 1 113.2216 42.2502 44.6671 0.0000 0.0000 0.0000
# 2 42.2502 86.0606 36.8804 0.0000 0.0000 0.0000
# 3 44.6671 36.8804 87.8800 0.0000 0.0000 0.0000
# 4 0.0000 0.0000 0.0000 34.6059 0.0000 0.0000
# 5 0.0000 0.0000 0.0000 0.0000 16.4102 0.0000
# 6 0.0000 0.0000 0.0000 0.0000 0.0000 17.6554
#
#
#
# Elastic Compliance Matrix: (Units=1/GPa)
#
#
# Indices 1 2 3 4 5 6 
#
# 1 0.012093 -0.004027 -0.004457 0.000000 0.000000 0.000000
# 2 -0.004027 0.015509 -0.004462 0.000000 0.000000 0.000000
# 3 -0.004457 -0.004462 0.015517 0.000000 0.000000 0.000000
# 4 0.000000 0.000000 0.000000 0.028897 0.000000 0.000000
# 5 0.000000 0.000000 0.000000 0.000000 0.060938 0.000000
# 6 0.000000 0.000000 0.000000 0.000000 0.000000 0.056640
#
#
# Mechanical properties :
#
#
# Convention : Reuss Voigt Hill
#
# Bulk Modulus (GPa) = 58.04522 59.41750 58.73136
# Shear Modulus (GPa) = 22.60126 24.62526 23.61326
#
# Velocity S-wave (km/s) = 3.44462 3.59555 3.52090
# Velocity P-wave (km/s) = 6.80395 6.95923 6.88203
#
# Compressibility (1/GPa) = 0.01722795
#
# Stress axis : x y z
#
# Youngs Moduli (GPa) = 82.69111 64.47962 64.44653
#
# Poissons Ratio (x) = 0.25967 0.28721
# Poissons Ratio (y) = 0.33301 0.28754
# Poissons Ratio (z) = 0.36852 0.28768
#
# Static dielectric constant tensor:
#      x y z
#    x 1.674170 0.000000 0.000000 
#    y 0.000000 1.641900 0.000000 
#    z 0.000000 0.000000 1.675840 
# 
# From -- ./inp_files/24704.got.cif
#   From: 2010.05.17/outbox.cif.g08.bks.cpg/sg59_13_cif.got.tgz:24704.got - 2010.06.03 14:40:33.
