data_PCOD9452937
_publ_section_title
;
Structure prediction by ZEFSAII (Michael W. Deem and Ramdas Pophale) SiO2 
 PCOD9452937
Probable space group: P M M N
;
_chemical_formula_sum "Si O2"
_cell_formula_units_Z 40
_cell_length_a 11.201636
_cell_length_b 21.207696
_cell_length_c 9.410085
_cell_angle_alpha 90.000000
_cell_angle_beta 90.000000
_cell_angle_gamma 90.000000
_cell_volume 2235.468177
_symmetry_space_group_name_H-M "P M M N"
_symmetry_group_IT_number 59
_space_group.IT_coordinate_system_code '2'
_symmetry_cell_setting 'orthorhombic'
loop_
_space_group_symop_operation_xyz
x,y,z
1/2-x,1/2-y,z
1/2+x,-y,-z
-x,1/2+y,-z
-x,-y,-z
1/2+x,1/2+y,-z
1/2-x,y,z
x,1/2-y,z
loop_
_atom_site_type_symbol
_atom_site_label
_atom_site_fract_x
_atom_site_fract_y
_atom_site_fract_z
Si Si1 0.750000 0.889383 0.300842
Si Si2 0.033498 0.469686 0.150449
Si Si3 0.492451 0.941351 0.394778
Si Si4 0.547252 0.750000 0.663228
Si Si5 0.250000 0.392051 0.029505
Si Si6 0.250000 0.250000 0.578995
Si Si7 0.889421 0.374474 0.348063
Si Si8 0.250000 0.250000 0.103451
O O1 0.626377 0.915705 0.366826
O O2 0.750000 0.814159 0.329476
O O3 0.750000 0.910612 0.136223
O O4 0.138436 0.420895 0.114070
O O5 0.062836 0.529294 0.251986
O O6 0.936083 0.428905 0.239142
O O7 0.000000 0.500000 0.000000
O O8 0.414686 0.893528 0.487611
O O9 0.500000 0.000000 0.500000
O O10 0.633401 0.750000 0.524175
O O11 0.466280 0.688226 0.672351
O O12 0.635603 0.750000 0.795707
O O13 0.250000 0.316438 0.024476
O O14 0.750000 0.364759 0.325068
#
# Coordination Sequence:
#
# PCOD9452937 Si02
#       8
#     4   8   8   4   4   2   8   2
#     4  12  22  43  62  93 125 165 206 258 320 372
#     4  11  24  40  61  94 126 164 206 255 309 376
#     4  10  24  36  60  90 124 158 203 252 307 372
#     4  11  21  40  64  90 119 161 216 260 312 371
#     4  12  24  41  70  89 129 169 208 261 316 373
#     4  11  23  38  66  92 129 157 208 270 310 372
#     4  11  24  41  62  87 124 169 205 257 311 375
#     4  11  23  42  62 100 121 157 220 264 306 370
#
# _framework density 17.893343000000002
#
# number of rings (size 3 to 8) (size 9 to 14) (size 15 to 20)
#    0.000    1.000    6.000    0.600    8.400    2.400 
#    0.000    0.000    0.000    0.000    0.000    5.600 
#    0.000    0.000    0.000    0.000    0.000    0.000 
#
# Total GULP energy -223026.744566 kJ/mol
# GULP energy per Si atom -5575.668614 kJ/mol
# Density = 1.785262 g / cm^3
# Si number density = 17.893343 Si / 1000 Ang^3
#
#
#
# Elastic Constant Matrix: (Units=GPa)
#
#
# Indices 1 2 3 4 5 6 
#
# 1 121.0614 43.7609 37.3373 0.0000 0.0000 0.0000
# 2 43.7609 104.3191 30.7769 0.0000 0.0000 0.0000
# 3 37.3373 30.7769 112.7087 0.0000 0.0000 0.0000
# 4 0.0000 0.0000 0.0000 35.9035 0.0000 0.0000
# 5 0.0000 0.0000 0.0000 0.0000 26.3262 0.0000
# 6 0.0000 0.0000 0.0000 0.0000 0.0000 43.4107
#
#
#
# Elastic Compliance Matrix: (Units=1/GPa)
#
#
# Indices 1 2 3 4 5 6 
#
# 1 0.010315 -0.003610 -0.002431 0.000000 0.000000 0.000000
# 2 -0.003610 0.011689 -0.001996 0.000000 0.000000 0.000000
# 3 -0.002431 -0.001996 0.010223 0.000000 0.000000 0.000000
# 4 0.000000 0.000000 0.000000 0.027852 0.000000 0.000000
# 5 0.000000 0.000000 0.000000 0.000000 0.037985 0.000000
# 6 0.000000 0.000000 0.000000 0.000000 0.000000 0.023036
#
#
# Mechanical properties :
#
#
# Convention : Reuss Voigt Hill
#
# Bulk Modulus (GPa) = 61.90934 62.42660 62.16797
# Shear Modulus (GPa) = 35.07325 36.20904 35.64114
#
# Velocity S-wave (km/s) = 4.43214 4.50333 4.46787
# Velocity P-wave (km/s) = 7.80167 7.87425 7.83804
#
# Compressibility (1/GPa) = 0.01615265
#
# Stress axis : x y z
#
# Youngs Moduli (GPa) = 96.94646 85.54971 97.81926
#
# Poissons Ratio (x) = 0.30881 0.23784
# Poissons Ratio (y) = 0.34995 0.19526
# Poissons Ratio (z) = 0.23571 0.17077
#
# Static dielectric constant tensor:
#      x y z
#    x 1.581650 0.000000 0.000000 
#    y 0.000000 1.648990 0.000000 
#    z 0.000000 0.000000 1.634310 
# 
# From -- ./inp_files/7444.got.cif
#   From: 2010.05.17/outbox.cif.g08.bks.cpg/sg59_4_cif.got.tgz:7444.got - 2010.06.03 14:40:33.
