data_PCOD9452384
_publ_section_title
;
Structure prediction by ZEFSAII (Michael W. Deem and Ramdas Pophale) SiO2 
 PCOD9452384
Probable space group: P M M N
;
_chemical_formula_sum "Si O2"
_cell_formula_units_Z 56
_cell_length_a 9.440141
_cell_length_b 14.923400
_cell_length_c 22.137493
_cell_angle_alpha 90.000000
_cell_angle_beta 90.000000
_cell_angle_gamma 90.000000
_cell_volume 3118.707881
_symmetry_space_group_name_H-M "P M M N"
_symmetry_group_IT_number 59
_space_group.IT_coordinate_system_code '2'
_symmetry_cell_setting 'orthorhombic'
loop_
_space_group_symop_operation_xyz
x,y,z
1/2-x,1/2-y,z
1/2+x,-y,-z
-x,1/2+y,-z
-x,-y,-z
1/2+x,1/2+y,-z
1/2-x,y,z
x,1/2-y,z
loop_
_atom_site_type_symbol
_atom_site_label
_atom_site_fract_x
_atom_site_fract_y
_atom_site_fract_z
Si Si1 0.918840 0.509079 0.089614
Si Si2 0.580692 0.499820 0.231560
Si Si3 0.920164 0.144980 0.994994
Si Si4 0.083780 0.353089 0.306232
Si Si5 0.087068 0.391633 0.441920
Si Si6 0.083617 0.853021 0.306125
Si Si7 0.587099 0.391482 0.558044
O O1 0.750000 0.524532 0.082769
O O2 0.950916 0.500893 0.160277
O O3 0.002541 0.590832 0.058554
O O4 0.951995 0.416456 0.053952
O O5 0.750000 0.499410 0.239349
O O6 0.509867 0.415034 0.264034
O O7 0.510413 0.584710 0.264281
O O8 0.750000 0.142506 0.986132
O O9 0.961215 0.250000 0.999875
O O10 0.250000 0.381446 0.304942
O O11 0.076365 0.250000 0.287673
O O12 0.036193 0.360962 0.376158
O O13 0.250000 0.363232 0.448095
O O14 0.083065 0.500076 0.440974
O O15 0.000162 0.361012 0.500015
O O16 0.250000 0.881067 0.304554
O O17 0.075758 0.750000 0.287295
O O18 0.036751 0.860680 0.376141
O O19 0.750000 0.363127 0.551690
#
# Coordination Sequence:
#
# PCOD9452384 Si02
#       7
#     8   8   8   8   8   8   8
#     4   9  20  37  56  82 115 150 180 217 268 316
#     4  11  23  38  57  81 114 150 185 226 272 321
#     4   9  18  35  60  87 113 143 181 221 260 310
#     4  10  21  38  58  79 107 145 187 229 276 331
#     4   9  17  31  51  75 103 135 173 223 281 335
#     4  10  21  38  58  78 105 145 189 231 278 331
#     4   9  17  31  51  75 102 134 175 225 280 335
#
# _framework density 17.956154000000002
#
# number of rings (size 3 to 8) (size 9 to 14) (size 15 to 20)
#    0.000    2.429    1.429    0.429    0.000    4.857 
#    0.000    4.286    0.000    0.000    0.000    0.000 
#    0.000    0.000    0.000    0.000    0.000    0.000 
#
# Total GULP energy -312435.951680 kJ/mol
# GULP energy per Si atom -5579.213423 kJ/mol
# Density = 1.791528 g / cm^3
# Si number density = 17.956154 Si / 1000 Ang^3
#
#
#
# Elastic Constant Matrix: (Units=GPa)
#
#
# Indices 1 2 3 4 5 6 
#
# 1 59.0976 50.7060 79.9100 0.0000 0.0000 0.0000
# 2 50.7060 127.0916 73.9335 0.0000 0.0000 0.0000
# 3 79.9100 73.9335 167.0527 0.0000 0.0000 0.0000
# 4 0.0000 0.0000 0.0000-1308.0727 0.0000 0.0000
# 5 0.0000 0.0000 0.0000 0.0000 33.4576 0.0000
# 6 0.0000 0.0000 0.0000 0.0000 0.0000 16.8435
#
#
#
# Elastic Compliance Matrix: (Units=1/GPa)
#
#
# Indices 1 2 3 4 5 6 
#
# 1 0.054410 -0.008844 -0.022113 0.000000 0.000000 0.000000
# 2 -0.008844 0.012034 -0.001095 0.000000 0.000000 0.000000
# 3 -0.022113 -0.001095 0.017049 0.000000 0.000000 0.000000
# 4 0.000000 0.000000 0.000000 -0.000764 0.000000 0.000000
# 5 0.000000 0.000000 0.000000 0.000000 0.029889 0.000000
# 6 0.000000 0.000000 0.000000 0.000000 0.000000 0.059370
#
#
# Mechanical properties :
#
#
# Convention : Reuss Voigt Hill
#
# Bulk Modulus (GPa) = 51.57881 84.70455 68.14168
# Shear Modulus (GPa) = 20.61391 -241.64150 -110.51379
#
# Velocity S-wave (km/s) = 3.39191 -11.61315 -7.85367
# Velocity P-wave (km/s) = 6.64284 11.51281 6.64897
#
# Compressibility (1/GPa) = 0.01938781
#
# Stress axis : x y z
#
# Youngs Moduli (GPa) = 18.37899 83.09682 58.65558
#
# Poissons Ratio (x) = 0.73493 1.29704
# Poissons Ratio (y) = 0.16255 0.06425
# Poissons Ratio (z) = 0.40641 0.09102
#
# Static dielectric constant tensor:
#      x y z
#    x 1.602570 0.000000 0.000000 
#    y 0.000000 1.630260 0.000000 
#    z 0.000000 0.000000 1.593100 
# 
# From -- ./inp_files/29029.got.cif
#   From: 2010.05.17/outbox.cif.g08.bks.cpg/sg59_15_cif.got.tgz:29029.got - 2010.06.03 14:40:33.
