data_PCOD9452657
_publ_section_title
;
Structure prediction by ZEFSAII (Michael W. Deem and Ramdas Pophale) SiO2 
 PCOD9452657
Probable space group: P M M N
;
_chemical_formula_sum "Si O2"
_cell_formula_units_Z 40
_cell_length_a 8.153815
_cell_length_b 15.922505
_cell_length_c 14.594603
_cell_angle_alpha 90.000000
_cell_angle_beta 90.000000
_cell_angle_gamma 90.000000
_cell_volume 1894.805050
_symmetry_space_group_name_H-M "P M M N"
_symmetry_group_IT_number 59
_space_group.IT_coordinate_system_code '2'
_symmetry_cell_setting 'orthorhombic'
loop_
_space_group_symop_operation_xyz
x,y,z
1/2-x,1/2-y,z
1/2+x,-y,-z
-x,1/2+y,-z
-x,-y,-z
1/2+x,1/2+y,-z
1/2-x,y,z
x,1/2-y,z
loop_
_atom_site_type_symbol
_atom_site_label
_atom_site_fract_x
_atom_site_fract_y
_atom_site_fract_z
Si Si1 0.058864 0.903866 0.309044
Si Si2 0.942940 0.648335 0.114953
Si Si3 0.564739 0.750000 0.425370
Si Si4 0.950295 0.848103 0.912881
Si Si5 0.937578 0.250000 0.376669
Si Si6 0.553849 0.583954 0.721999
O O1 0.250000 0.898289 0.335227
O O2 0.040858 0.887056 0.200533
O O3 0.965578 0.831572 0.363266
O O4 0.992358 0.997978 0.323064
O O5 0.750000 0.626787 0.125426
O O6 0.952979 0.750000 0.116852
O O7 0.002237 0.622153 0.013750
O O8 0.750000 0.750000 0.460108
O O9 0.451226 0.750000 0.514046
O O10 0.750000 0.848902 0.913896
O O11 0.997370 0.750000 0.900647
O O12 0.008615 0.900320 0.825491
O O13 0.750000 0.250000 0.347023
O O14 0.018691 0.333492 0.336150
O O15 0.750000 0.573760 0.729197
#
# Coordination Sequence:
#
# PCOD9452657 Si02
#       6
#     8   8   4   8   4   8
#     4  11  23  38  61  94 126 156 199 254 301 350
#     4   9  17  31  55  86 120 165 208 244 292 349
#     4  12  26  46  69  86 113 160 201 242 306 370
#     4   8  14  29  57  86 117 161 209 243 280 349
#     4  12  26  44  67  94 121 148 191 254 308 354
#     4  10  21  40  65  91 123 164 202 240 298 363
#
# _framework density 21.110351000000001
#
# number of rings (size 3 to 8) (size 9 to 14) (size 15 to 20)
#    0.000    2.000    2.000    3.600    0.000    3.200 
#    0.000    1.000    0.000    0.000    0.000    0.000 
#    0.000    0.000    0.000    0.000    0.000    0.000 
#
# Total GULP energy -223445.820291 kJ/mol
# GULP energy per Si atom -5586.145507 kJ/mol
# Density = 2.106230 g / cm^3
# Si number density = 21.110351 Si / 1000 Ang^3
#
#
#
# Elastic Constant Matrix: (Units=GPa)
#
#
# Indices 1 2 3 4 5 6 
#
# 1 19.6762 -0.4840 -16.2964 0.0000 0.0000 0.0000
# 2 -0.4840 104.0259 31.4822 0.0000 0.0000 0.0000
# 3 -16.2964 31.4822 78.2031 0.0000 0.0000 0.0000
# 4 0.0000 0.0000 0.0000 -10.1263 0.0000 0.0000
# 5 0.0000 0.0000 0.0000 0.0000 23.1760 0.0000
# 6 0.0000 0.0000 0.0000 0.0000 0.0000 -2.5418
#
#
#
# Elastic Compliance Matrix: (Units=1/GPa)
#
#
# Indices 1 2 3 4 5 6 
#
# 1 0.062988 -0.004190 0.014812 0.000000 0.000000 0.000000
# 2 -0.004190 0.011225 -0.005392 0.000000 0.000000 0.000000
# 3 0.014812 -0.005392 0.018045 0.000000 0.000000 0.000000
# 4 0.000000 0.000000 0.000000 -0.098752 0.000000 0.000000
# 5 0.000000 0.000000 0.000000 0.000000 0.043148 0.000000
# 6 0.000000 0.000000 0.000000 0.000000 0.000000 -0.393418
#
#
# Mechanical properties :
#
#
# Convention : Reuss Voigt Hill
#
# Bulk Modulus (GPa) = 9.73530 25.70099 17.71815
# Shear Modulus (GPa) = -15.01564 14.58179 -0.21692
#
# Velocity S-wave (km/s) = -2.66990 2.63105 -0.32091
# Velocity P-wave (km/s) = 2.20972 4.62935 2.87646
#
# Compressibility (1/GPa) = 0.10271895
#
# Stress axis : x y z
#
# Youngs Moduli (GPa) = 15.87608 89.08419 55.41832
#
# Poissons Ratio (x) = 0.37324 -0.82088
# Poissons Ratio (y) = 0.06652 0.29882
# Poissons Ratio (z) = -0.23516 0.48035
#
# Static dielectric constant tensor:
#      x y z
#    x 1.724320 0.000000 0.000000 
#    y 0.000000 1.826550 0.000000 
#    z 0.000000 0.000000 1.739630 
# 
# From -- ./inp_files/19958.got.cif
#   From: 2010.05.17/outbox.cif.g08.bks.cpg/sg59_10_cif.got.tgz:19958.got - 2010.06.03 14:40:33.
