data_PCOD9452814
_publ_section_title
;
Structure prediction by ZEFSAII (Michael W. Deem and Ramdas Pophale) SiO2 
 PCOD9452814
Probable space group: P M M N
;
_chemical_formula_sum "Si O2"
_cell_formula_units_Z 56
_cell_length_a 21.019565
_cell_length_b 8.986508
_cell_length_c 15.341817
_cell_angle_alpha 90.000000
_cell_angle_beta 90.000000
_cell_angle_gamma 90.000000
_cell_volume 2897.953999
_symmetry_space_group_name_H-M "P M M N"
_symmetry_group_IT_number 59
_space_group.IT_coordinate_system_code '2'
_symmetry_cell_setting 'orthorhombic'
loop_
_space_group_symop_operation_xyz
x,y,z
1/2-x,1/2-y,z
1/2+x,-y,-z
-x,1/2+y,-z
-x,-y,-z
1/2+x,1/2+y,-z
1/2-x,y,z
x,1/2-y,z
loop_
_atom_site_type_symbol
_atom_site_label
_atom_site_fract_x
_atom_site_fract_y
_atom_site_fract_z
Si Si1 0.678536 0.575291 0.025275
Si Si2 0.056882 0.573795 0.056852
Si Si3 0.823535 0.413353 0.347771
Si Si4 0.322430 0.924161 0.443439
Si Si5 0.489473 0.075811 0.222585
Si Si6 0.614942 0.582248 0.203929
Si Si7 0.041641 0.428294 0.421055
O O1 0.750000 0.530017 0.002728
O O2 0.669995 0.750000 0.002009
O O3 0.667479 0.566514 0.129339
O O4 0.623667 0.479457 0.982044
O O5 0.049213 0.750000 0.052722
O O6 0.053768 0.517072 0.156555
O O7 0.000000 0.500000 0.000000
O O8 0.750000 0.412148 0.320975
O O9 0.851721 0.250000 0.325568
O O10 0.824691 0.427833 0.451294
O O11 0.857274 0.545311 0.298000
O O12 0.250000 0.972721 0.417889
O O13 0.329039 0.750000 0.417633
O O14 0.385062 0.015420 0.417323
O O15 0.475356 0.250000 0.214408
O O16 0.486015 0.035483 0.324908
O O17 0.559745 0.036051 0.189379
O O18 0.589085 0.750000 0.198810
O O19 0.039823 0.250000 0.432463
O O20 0.000000 0.500000 0.500000
#
# Coordination Sequence:
#
# PCOD9452814 Si02
#       7
#     8   8   8   8   8   8   8
#     4  10  22  40  61  88 125 164 202 251 309 363
#     4  12  24  41  66  93 121 159 206 252 301 362
#     4   9  18  32  50  75 111 154 196 240 297 365
#     4   9  19  37  59  82 113 157 205 255 313 370
#     4  11  24  41  61  87 119 160 206 252 307 368
#     4  11  21  33  54  85 118 154 196 245 303 365
#     4  11  24  40  61  91 126 163 207 259 313 369
#
# _framework density 19.323978
#
# number of rings (size 3 to 8) (size 9 to 14) (size 15 to 20)
#    0.000    1.571    1.429    4.714    0.000    8.286 
#    0.000    2.143    0.000    0.857    0.000    0.000 
#    0.000    0.000    0.000    0.000    0.000    0.000 
#
# Total GULP energy -312488.550496 kJ/mol
# GULP energy per Si atom -5580.152687 kJ/mol
# Density = 1.928000 g / cm^3
# Si number density = 19.323978 Si / 1000 Ang^3
#
#
#
# Elastic Constant Matrix: (Units=GPa)
#
#
# Indices 1 2 3 4 5 6 
#
# 1 106.6387 51.6811 34.1717 0.0000 0.0000 0.0000
# 2 51.6811 89.4638 50.0743 0.0000 0.0000 0.0000
# 3 34.1717 50.0743 75.7201 0.0000 0.0000 0.0000
# 4 0.0000 0.0000 0.0000 21.3523 0.0000 0.0000
# 5 0.0000 0.0000 0.0000 0.0000 27.8993 0.0000
# 6 0.0000 0.0000 0.0000 0.0000 0.0000 33.0552
#
#
#
# Elastic Compliance Matrix: (Units=1/GPa)
#
#
# Indices 1 2 3 4 5 6 
#
# 1 0.013122 -0.006773 -0.001443 0.000000 0.000000 0.000000
# 2 -0.006773 0.021242 -0.010991 0.000000 0.000000 0.000000
# 3 -0.001443 -0.010991 0.021126 0.000000 0.000000 0.000000
# 4 0.000000 0.000000 0.000000 0.046833 0.000000 0.000000
# 5 0.000000 0.000000 0.000000 0.000000 0.035843 0.000000
# 6 0.000000 0.000000 0.000000 0.000000 0.000000 0.030252
#
#
# Mechanical properties :
#
#
# Convention : Reuss Voigt Hill
#
# Bulk Modulus (GPa) = 58.55896 60.40853 59.48374
# Shear Modulus (GPa) = 23.52659 25.52104 24.52381
#
# Velocity S-wave (km/s) = 3.49303 3.63808 3.56629
# Velocity P-wave (km/s) = 6.82919 6.99830 6.91427
#
# Compressibility (1/GPa) = 0.01707681
#
# Stress axis : x y z
#
# Youngs Moduli (GPa) = 76.20694 47.07655 47.33438
#
# Poissons Ratio (x) = 0.31883 0.06831
# Poissons Ratio (y) = 0.51612 0.52026
# Poissons Ratio (z) = 0.10997 0.51742
#
# Static dielectric constant tensor:
#      x y z
#    x 1.708540 0.000000 0.000000 
#    y 0.000000 1.665990 0.000000 
#    z 0.000000 0.000000 1.677950 
# 
# From -- ./inp_files/24278.got.cif
#   From: 2010.05.17/outbox.cif.g08.bks.cpg/sg59_13_cif.got.tgz:24278.got - 2010.06.03 14:40:33.
