data_PCOD9452183
_publ_section_title
;
Structure prediction by ZEFSAII (Michael W. Deem and Ramdas Pophale) SiO2 
 PCOD9452183
Probable space group: P M M N
;
_chemical_formula_sum "Si O2"
_cell_formula_units_Z 48
_cell_length_a 9.522144
_cell_length_b 7.880184
_cell_length_c 32.233786
_cell_angle_alpha 90.000000
_cell_angle_beta 90.000000
_cell_angle_gamma 90.000000
_cell_volume 2418.702321
_symmetry_space_group_name_H-M "P M M N"
_symmetry_group_IT_number 59
_space_group.IT_coordinate_system_code '2'
_symmetry_cell_setting 'orthorhombic'
loop_
_space_group_symop_operation_xyz
x,y,z
1/2-x,1/2-y,z
1/2+x,-y,-z
-x,1/2+y,-z
-x,-y,-z
1/2+x,1/2+y,-z
1/2-x,y,z
x,1/2-y,z
loop_
_atom_site_type_symbol
_atom_site_label
_atom_site_fract_x
_atom_site_fract_y
_atom_site_fract_z
Si Si1 0.589224 0.545203 0.290535
Si Si2 0.089857 0.545970 0.460212
Si Si3 0.589359 0.952441 0.040480
Si Si4 0.909826 0.546041 0.878998
Si Si5 0.588691 0.045975 0.198792
Si Si6 0.586460 0.457013 0.630991
O O1 0.750000 0.484392 0.293439
O O2 0.590721 0.750000 0.292352
O O3 0.536083 0.496528 0.244914
O O4 0.500590 0.481608 0.329592
O O5 0.250000 0.484076 0.464891
O O6 0.094700 0.750000 0.458285
O O7 0.036094 0.487930 0.414856
O O8 0.000000 0.500000 0.500000
O O9 0.750000 0.019738 0.039297
O O10 0.598129 0.750000 0.041646
O O11 0.504796 0.009425 0.081065
O O12 0.500000 0.000000 0.000000
O O13 0.750000 0.481336 0.883224
O O14 0.900951 0.750000 0.875364
O O15 0.989195 0.481343 0.837863
O O16 0.750000 0.982203 0.194732
O O17 0.594498 0.250000 0.195422
O O18 0.750000 0.503676 0.634617
O O19 0.580559 0.250000 0.631652
#
# Coordination Sequence:
#
# PCOD9452183 Si02
#       6
#     8   8   8   8   8   8
#     4   9  17  29  47  71  95 121 160 206 245 288
#     4   9  18  32  49  70  96 126 162 204 249 299
#     4  11  24  40  59  84 112 142 177 216 258 305
#     4  10  21  37  57  81 108 139 177 217 256 302
#     4   9  18  33  51  71 100 137 169 201 250 304
#     4   8  15  29  47  66  91 123 157 195 242 295
#
# _framework density 19.845352999999999
#
# number of rings (size 3 to 8) (size 9 to 14) (size 15 to 20)
#    0.000    2.667    0.000    2.500    0.000    6.667 
#    0.000    4.167    0.000    3.000    0.000    0.000 
#    0.000    0.000    0.000    0.000    0.000    0.000 
#
# Total GULP energy -267758.444576 kJ/mol
# GULP energy per Si atom -5578.300929 kJ/mol
# Density = 1.980018 g / cm^3
# Si number density = 19.845353 Si / 1000 Ang^3
#
#
#
# Elastic Constant Matrix: (Units=GPa)
#
#
# Indices 1 2 3 4 5 6 
#
# 1 128.1367 8.1102 122.3805 0.0000 0.0000 0.0000
# 2 8.1102 18.7988 3.9010 0.0000 0.0000 0.0000
# 3 122.3805 3.9010 238.4571 0.0000 0.0000 0.0000
# 4 0.0000 0.0000 0.0000 29.1401 0.0000 0.0000
# 5 0.0000 0.0000 0.0000 0.0000 42.7186 0.0000
# 6 0.0000 0.0000 0.0000 0.0000 0.0000 17.5992
#
#
#
# Elastic Compliance Matrix: (Units=1/GPa)
#
#
# Indices 1 2 3 4 5 6 
#
# 1 0.015788 -0.005147 -0.008019 0.000000 0.000000 0.000000
# 2 -0.005147 0.055054 0.001741 0.000000 0.000000 0.000000
# 3 -0.008019 0.001741 0.008280 0.000000 0.000000 0.000000
# 4 0.000000 0.000000 0.000000 0.034317 0.000000 0.000000
# 5 0.000000 0.000000 0.000000 0.000000 0.023409 0.000000
# 6 0.000000 0.000000 0.000000 0.000000 0.000000 0.056821
#
#
# Mechanical properties :
#
#
# Convention : Reuss Voigt Hill
#
# Bulk Modulus (GPa) = 17.77047 72.68623 45.22835
# Shear Modulus (GPa) = 21.25148 34.62499 27.93823
#
# Velocity S-wave (km/s) = 3.27594 4.18154 3.75613
# Velocity P-wave (km/s) = 4.82524 7.74723 6.45378
#
# Compressibility (1/GPa) = 0.05627314
#
# Stress axis : x y z
#
# Youngs Moduli (GPa) = 63.33739 18.16388 120.76572
#
# Poissons Ratio (x) = 0.09350 0.96839
# Poissons Ratio (y) = 0.32603 -0.21027
# Poissons Ratio (z) = 0.50788 -0.03163
#
# Static dielectric constant tensor:
#      x y z
#    x 1.695520 0.000000 0.000000 
#    y 0.000000 1.728560 0.000000 
#    z 0.000000 0.000000 1.693470 
# 
# From -- ./inp_files/32843.got.cif
#   From: 2010.05.17/outbox.cif.g08.bks.cpg/sg59_17_cif.got.tgz:32843.got - 2010.06.03 14:40:33.
