data_PCOD9452611
_publ_section_title
;
Structure prediction by ZEFSAII (Michael W. Deem and Ramdas Pophale) SiO2 
 PCOD9452611
Probable space group: P M M N
;
_chemical_formula_sum "Si O2"
_cell_formula_units_Z 32
_cell_length_a 7.882574
_cell_length_b 13.934305
_cell_length_c 13.334430
_cell_angle_alpha 90.000000
_cell_angle_beta 90.000000
_cell_angle_gamma 90.000000
_cell_volume 1464.629660
_symmetry_space_group_name_H-M "P M M N"
_symmetry_group_IT_number 59
_space_group.IT_coordinate_system_code '2'
_symmetry_cell_setting 'orthorhombic'
loop_
_space_group_symop_operation_xyz
x,y,z
1/2-x,1/2-y,z
1/2+x,-y,-z
-x,1/2+y,-z
-x,-y,-z
1/2+x,1/2+y,-z
1/2-x,y,z
x,1/2-y,z
loop_
_atom_site_type_symbol
_atom_site_label
_atom_site_fract_x
_atom_site_fract_y
_atom_site_fract_z
Si Si1 0.045209 0.464485 0.389522
Si Si2 0.435905 0.750000 0.860313
Si Si3 0.049447 0.393014 0.975187
Si Si4 0.058661 0.250000 0.351032
Si Si5 0.546359 0.356495 0.745352
O O1 0.250000 0.459549 0.376636
O O2 0.980897 0.354493 0.377264
O O3 0.982820 0.548093 0.312824
O O4 0.000000 0.500000 0.500000
O O5 0.250000 0.750000 0.813869
O O6 0.564283 0.750000 0.769400
O O7 0.460233 0.663538 0.935959
O O8 0.250000 0.376327 0.981823
O O9 0.992298 0.365694 0.863436
O O10 0.000000 0.500000 0.000000
O O11 0.250000 0.250000 0.394021
O O12 0.750000 0.355834 0.732814
O O13 0.484080 0.250000 0.711228
#
# Coordination Sequence:
#
# PCOD9452611 Si02
#       5
#     8   4   8   4   8
#     4  10  23  41  64  92 123 165 211 265 324 380
#     4  12  24  40  63  94 129 168 211 258 316 380
#     4  12  24  39  62  93 129 171 214 260 313 374
#     4  10  22  42  63  90 129 168 213 264 320 382
#     4  10  21  39  62  90 126 166 213 265 319 380
#
# _framework density 21.848528000000002
#
# number of rings (size 3 to 8) (size 9 to 14) (size 15 to 20)
#    0.000    1.250    1.250    4.875    1.750    4.000 
#    0.000    0.000    0.000    0.000    0.000    0.000 
#    0.000    0.000    0.000    0.000    0.000    0.000 
#
# Total GULP energy -178661.547996 kJ/mol
# GULP energy per Si atom -5583.173375 kJ/mol
# Density = 2.179880 g / cm^3
# Si number density = 21.848528 Si / 1000 Ang^3
#
#
#
# Elastic Constant Matrix: (Units=GPa)
#
#
# Indices 1 2 3 4 5 6 
#
# 1 42.4574 10.7226 -10.7049 0.0000 0.0000 0.0000
# 2 10.7226 235.3770 64.6965 0.0000 0.0000 0.0000
# 3 -10.7049 64.6965 100.5758 0.0000 0.0000 0.0000
# 4 0.0000 0.0000 0.0000 9.1387 0.0000 0.0000
# 5 0.0000 0.0000 0.0000 0.0000 29.4984 0.0000
# 6 0.0000 0.0000 0.0000 0.0000 0.0000 3.9725
#
#
#
# Elastic Compliance Matrix: (Units=1/GPa)
#
#
# Indices 1 2 3 4 5 6 
#
# 1 0.025178 -0.002288 0.004152 0.000000 0.000000 0.000000
# 2 -0.002288 0.005369 -0.003697 0.000000 0.000000 0.000000
# 3 0.004152 -0.003697 0.012763 0.000000 0.000000 0.000000
# 4 0.000000 0.000000 0.000000 0.109424 0.000000 0.000000
# 5 0.000000 0.000000 0.000000 0.000000 0.033900 0.000000
# 6 0.000000 0.000000 0.000000 0.000000 0.000000 0.251733
#
#
# Mechanical properties :
#
#
# Convention : Reuss Voigt Hill
#
# Bulk Modulus (GPa) = 25.22560 56.42652 40.82606
# Shear Modulus (GPa) = 10.98302 29.43498 20.20900
#
# Velocity S-wave (km/s) = 2.24451 3.67444 3.04461
# Velocity P-wave (km/s) = 4.27643 6.62453 5.57549
#
# Compressibility (1/GPa) = 0.03964227
#
# Stress axis : x y z
#
# Youngs Moduli (GPa) = 39.71774 186.25581 78.35211
#
# Poissons Ratio (x) = 0.42618 -0.32529
# Poissons Ratio (y) = 0.09088 0.28968
# Poissons Ratio (z) = -0.16490 0.68862
#
# Static dielectric constant tensor:
#      x y z
#    x 1.802530 0.000000 0.000000 
#    y 0.000000 1.814810 0.000000 
#    z 0.000000 0.000000 1.718330 
# 
# From -- ./inp_files/13627.got.cif
#   From: 2010.05.17/outbox.cif.g08.bks.cpg/sg59_7_cif.got.tgz:13627.got - 2010.06.03 14:40:33.
