data_PCOD9452913
_publ_section_title
;
Structure prediction by ZEFSAII (Michael W. Deem and Ramdas Pophale) SiO2 
 PCOD9452913
Probable space group: P M M N
;
_chemical_formula_sum "Si O2"
_cell_formula_units_Z 64
_cell_length_a 31.564573
_cell_length_b 9.037084
_cell_length_c 12.258285
_cell_angle_alpha 90.000000
_cell_angle_beta 90.000000
_cell_angle_gamma 90.000000
_cell_volume 3496.696606
_symmetry_space_group_name_H-M "P M M N"
_symmetry_group_IT_number 59
_space_group.IT_coordinate_system_code '2'
_symmetry_cell_setting 'orthorhombic'
loop_
_space_group_symop_operation_xyz
x,y,z
1/2-x,1/2-y,z
1/2+x,-y,-z
-x,1/2+y,-z
-x,-y,-z
1/2+x,1/2+y,-z
1/2-x,y,z
x,1/2-y,z
loop_
_atom_site_type_symbol
_atom_site_label
_atom_site_fract_x
_atom_site_fract_y
_atom_site_fract_z
Si Si1 0.869457 0.576232 0.394325
Si Si2 0.943198 0.424036 0.255791
Si Si3 0.624210 0.574545 0.879180
Si Si4 0.046553 0.574338 0.996786
Si Si5 0.603390 0.576076 0.635536
Si Si6 0.299004 0.572135 0.991918
Si Si7 0.199888 0.579333 0.736851
Si Si8 0.514536 0.425136 0.612973
O O1 0.877298 0.750000 0.377426
O O2 0.905481 0.486300 0.329806
O O3 0.871728 0.547442 0.523564
O O4 0.825592 0.526418 0.342085
O O5 0.949034 0.250000 0.277137
O O6 0.936033 0.443194 0.126993
O O7 0.984989 0.511070 0.292050
O O8 0.621717 0.750000 0.900651
O O9 0.627276 0.552260 0.748950
O O10 0.665121 0.506265 0.937796
O O11 0.580992 0.499588 0.923599
O O12 0.042761 0.750000 0.019344
O O13 0.000000 0.500000 0.000000
O O14 0.590138 0.750000 0.633227
O O15 0.562250 0.474120 0.633980
O O16 0.250000 0.529748 0.016378
O O17 0.301936 0.750000 0.005175
O O18 0.307137 0.541094 0.863860
O O19 0.250000 0.573304 0.717952
O O20 0.185807 0.750000 0.721181
O O21 0.500000 0.500000 0.500000
O O22 0.509963 0.250000 0.604764
#
# Coordination Sequence:
#
# PCOD9452913 Si02
#       8
#     8   8   8   8   8   8   8   8
#     4  11  22  36  57  83 111 145 186 231 279 333
#     4  11  23  38  57  82 113 147 186 234 285 334
#     4  11  23  39  60  85 117 156 197 244 297 351
#     4  11  24  40  58  83 117 154 193 241 293 348
#     4  10  23  41  56  78 115 155 194 237 284 335
#     4   9  19  38  63  89 117 150 189 236 293 355
#     4   9  19  37  60  85 115 147 178 224 286 344
#     4  12  23  36  57  83 111 148 193 238 283 334
#
# _framework density 18.302989
#
# number of rings (size 3 to 8) (size 9 to 14) (size 15 to 20)
#    0.000    1.500    1.250    4.875    0.000   10.500 
#    0.000    1.875    0.000    3.750    0.000    0.000 
#    0.000    0.000    0.000    0.000    0.000    0.000 
#
# Total GULP energy -357647.150162 kJ/mol
# GULP energy per Si atom -5588.236721 kJ/mol
# Density = 1.826133 g / cm^3
# Si number density = 18.302989 Si / 1000 Ang^3
#
#
#
# Elastic Constant Matrix: (Units=GPa)
#
#
# Indices 1 2 3 4 5 6 
#
# 1 87.6805 52.4301 59.6619 0.0000 0.0000 0.0000
# 2 52.4301 95.6618 73.1482 0.0000 0.0000 0.0000
# 3 59.6619 73.1482 104.8554 0.0000 0.0000 0.0000
# 4 0.0000 0.0000 0.0000 27.5074 0.0000 0.0000
# 5 0.0000 0.0000 0.0000 0.0000 29.1968 0.0000
# 6 0.0000 0.0000 0.0000 0.0000 0.0000 36.6972
#
#
#
# Elastic Compliance Matrix: (Units=1/GPa)
#
#
# Indices 1 2 3 4 5 6 
#
# 1 0.019564 -0.004738 -0.007826 0.000000 0.000000 0.000000
# 2 -0.004738 0.023552 -0.013735 0.000000 0.000000 0.000000
# 3 -0.007826 -0.013735 0.023571 0.000000 0.000000 0.000000
# 4 0.000000 0.000000 0.000000 0.036354 0.000000 0.000000
# 5 0.000000 0.000000 0.000000 0.000000 0.034250 0.000000
# 6 0.000000 0.000000 0.000000 0.000000 0.000000 0.027250
#
#
# Mechanical properties :
#
#
# Convention : Reuss Voigt Hill
#
# Bulk Modulus (GPa) = 70.97322 73.18645 72.07984
# Shear Modulus (GPa) = 22.53920 25.54411 24.04166
#
# Velocity S-wave (km/s) = 3.51301 3.73986 3.62821
# Velocity P-wave (km/s) = 7.43747 7.66300 7.55108
#
# Compressibility (1/GPa) = 0.01408982
#
# Stress axis : x y z
#
# Youngs Moduli (GPa) = 51.11547 42.45842 42.42434
#
# Poissons Ratio (x) = 0.20117 0.33202
# Poissons Ratio (y) = 0.24218 0.58268
# Poissons Ratio (z) = 0.40004 0.58315
#
# Static dielectric constant tensor:
#      x y z
#    x 1.612940 0.000000 0.000000 
#    y 0.000000 1.617960 0.000000 
#    z 0.000000 0.000000 1.636620 
# 
# From -- ./inp_files/19235.got.cif
#   From: 2010.05.17/outbox.cif.g08.bks.cpg/sg59_10_cif.got.tgz:19235.got - 2010.06.03 14:40:33.
