data_PCOD9452519
_publ_section_title
;
Structure prediction by ZEFSAII (Michael W. Deem and Ramdas Pophale) SiO2 
 PCOD9452519
Probable space group: P M M N
;
_chemical_formula_sum "Si O2"
_cell_formula_units_Z 48
_cell_length_a 15.253367
_cell_length_b 13.525566
_cell_length_c 10.758979
_cell_angle_alpha 90.000000
_cell_angle_beta 90.000000
_cell_angle_gamma 90.000000
_cell_volume 2219.689499
_symmetry_space_group_name_H-M "P M M N"
_symmetry_group_IT_number 59
_space_group.IT_coordinate_system_code '2'
_symmetry_cell_setting 'orthorhombic'
loop_
_space_group_symop_operation_xyz
x,y,z
1/2-x,1/2-y,z
1/2+x,-y,-z
-x,1/2+y,-z
-x,-y,-z
1/2+x,1/2+y,-z
1/2-x,y,z
x,1/2-y,z
loop_
_atom_site_type_symbol
_atom_site_label
_atom_site_fract_x
_atom_site_fract_y
_atom_site_fract_z
Si Si1 0.853336 0.360888 0.607665
Si Si2 0.001059 0.637578 0.979545
Si Si3 0.907325 0.488330 0.839425
Si Si4 0.250000 0.358869 0.449582
Si Si5 0.145097 0.365281 0.802877
Si Si6 0.903967 0.511761 0.437516
Si Si7 0.750000 0.637272 0.844667
O O1 0.750000 0.360459 0.635779
O O2 0.888754 0.250000 0.620362
O O3 0.895879 0.434514 0.708550
O O4 0.865664 0.403414 0.469029
O O5 0.007799 0.750000 0.939048
O O6 0.082557 0.598427 0.059831
O O7 0.919241 0.630369 0.077662
O O8 0.988064 0.562296 0.866096
O O9 0.830679 0.565333 0.867541
O O10 0.250000 0.250000 0.506898
O O11 0.337307 0.416843 0.487117
O O12 0.250000 0.349357 0.302890
O O13 0.250000 0.384929 0.825559
O O14 0.139166 0.250000 0.760872
O O15 0.107277 0.439951 0.698271
O O16 0.000000 0.500000 0.500000
O O17 0.750000 0.750000 0.899868
#
# Coordination Sequence:
#
# PCOD9452519 Si02
#       7
#     8   8   8   4   8   8   4
#     4  11  22  39  62  88 119 156 205 256 310 367
#     4  10  23  38  59  90 124 161 202 247 299 367
#     4  11  20  39  60  85 124 155 199 252 306 357
#     4  11  22  40  59  91 129 154 199 264 319 367
#     4  10  21  38  61  88 121 160 200 247 303 368
#     4  12  22  37  62  88 123 162 203 248 309 375
#     4  11  22  36  61  89 119 152 199 260 311 353
#
# _framework density 21.624645000000001
#
# number of rings (size 3 to 8) (size 9 to 14) (size 15 to 20)
#    0.000    1.167    4.167    2.500    1.167    2.667 
#    0.000    0.000    0.000    2.000    0.000    2.333 
#    0.000    0.000    0.000    0.000    0.000    0.000 
#
# Total GULP energy -267557.432944 kJ/mol
# GULP energy per Si atom -5574.113186 kJ/mol
# Density = 2.157543 g / cm^3
# Si number density = 21.624645 Si / 1000 Ang^3
#
#
#
# Elastic Constant Matrix: (Units=GPa)
#
#
# Indices 1 2 3 4 5 6 
#
# 1 101.3278 37.7001 22.6632 0.0000 0.0000 0.0000
# 2 37.7001 175.5315 57.8452 0.0000 0.0000 0.0000
# 3 22.6632 57.8452 70.0816 0.0000 0.0000 0.0000
# 4 0.0000 0.0000 0.0000 32.3854 0.0000 0.0000
# 5 0.0000 0.0000 0.0000 0.0000 59.7744 0.0000
# 6 0.0000 0.0000 0.0000 0.0000 0.0000 25.1364
#
#
#
# Elastic Compliance Matrix: (Units=1/GPa)
#
#
# Indices 1 2 3 4 5 6 
#
# 1 0.010968 -0.001630 -0.002201 0.000000 0.000000 0.000000
# 2 -0.001630 0.008068 -0.006132 0.000000 0.000000 0.000000
# 3 -0.002201 -0.006132 0.020042 0.000000 0.000000 0.000000
# 4 0.000000 0.000000 0.000000 0.030878 0.000000 0.000000
# 5 0.000000 0.000000 0.000000 0.000000 0.016730 0.000000
# 6 0.000000 0.000000 0.000000 0.000000 0.000000 0.039783
#
#
# Mechanical properties :
#
#
# Convention : Reuss Voigt Hill
#
# Bulk Modulus (GPa) = 52.21648 64.81754 58.51701
# Shear Modulus (GPa) = 32.72696 38.70808 35.71752
#
# Velocity S-wave (km/s) = 3.89448 4.23543 4.06853
# Velocity P-wave (km/s) = 6.66497 7.34557 7.01353
#
# Compressibility (1/GPa) = 0.01915104
#
# Stress axis : x y z
#
# Youngs Moduli (GPa) = 91.17570 123.94813 49.89451
#
# Poissons Ratio (x) = 0.20207 0.10983
# Poissons Ratio (y) = 0.14864 0.30595
# Poissons Ratio (z) = 0.20070 0.76005
#
# Static dielectric constant tensor:
#      x y z
#    x 1.829410 0.000000 0.000000 
#    y 0.000000 1.806290 0.000000 
#    z 0.000000 0.000000 1.824070 
# 
# From -- ./inp_files/16881.got.cif
#   From: 2010.05.17/outbox.cif.g08.bks.cpg/sg59_9_cif.got.tgz:16881.got - 2010.06.03 14:40:33.
