data_PCOD9452712
_publ_section_title
;
Structure prediction by ZEFSAII (Michael W. Deem and Ramdas Pophale) SiO2 
 PCOD9452712
Probable space group: P M M N
;
_chemical_formula_sum "Si O2"
_cell_formula_units_Z 64
_cell_length_a 19.801345
_cell_length_b 8.785995
_cell_length_c 19.393302
_cell_angle_alpha 90.000000
_cell_angle_beta 90.000000
_cell_angle_gamma 90.000000
_cell_volume 3373.940371
_symmetry_space_group_name_H-M "P M M N"
_symmetry_group_IT_number 59
_space_group.IT_coordinate_system_code '2'
_symmetry_cell_setting 'orthorhombic'
loop_
_space_group_symop_operation_xyz
x,y,z
1/2-x,1/2-y,z
1/2+x,-y,-z
-x,1/2+y,-z
-x,-y,-z
1/2+x,1/2+y,-z
1/2-x,y,z
x,1/2-y,z
loop_
_atom_site_type_symbol
_atom_site_label
_atom_site_fract_x
_atom_site_fract_y
_atom_site_fract_z
Si Si1 0.458189 0.433325 0.708865
Si Si2 0.671158 0.567676 0.499862
Si Si3 0.457212 0.929619 0.562321
Si Si4 0.172780 0.063573 0.787882
Si Si5 0.831977 0.924292 0.060353
Si Si6 0.409952 0.570169 0.215403
Si Si7 0.328241 0.434170 0.089975
Si Si8 0.830808 0.572122 0.659825
O O1 0.458855 0.250000 0.701143
O O2 0.478057 0.505901 0.636373
O O3 0.383619 0.481277 0.733093
O O4 0.513098 0.473288 0.767028
O O5 0.750000 0.533610 0.487764
O O6 0.662297 0.750000 0.491092
O O7 0.619890 0.479401 0.451676
O O8 0.655209 0.532272 0.580124
O O9 0.465163 0.750000 0.561335
O O10 0.500000 0.000000 0.500000
O O11 0.250000 0.017069 0.773040
O O12 0.173165 0.250000 0.790582
O O13 0.152070 0.008366 0.864784
O O14 0.750000 0.917337 0.058990
O O15 0.857417 0.750000 0.061151
O O16 0.850602 0.991868 0.986070
O O17 0.407131 0.750000 0.203567
O O18 0.376030 0.487987 0.150894
O O19 0.368349 0.527961 0.284193
O O20 0.250000 0.481132 0.102568
O O21 0.328007 0.250000 0.087259
O O22 0.750000 0.560540 0.669151
O O23 0.849176 0.750000 0.669814
#
# Coordination Sequence:
#
# PCOD9452712 Si02
#       8
#     8   8   8   8   8   8   8   8
#     4  10  22  38  54  77 107 136 171 215 265 319
#     4   9  19  37  60  84 109 137 171 214 266 324
#     4  12  25  40  59  81 107 141 181 224 270 322
#     4   8  14  29  56  83 103 129 170 218 262 305
#     4   7  11  23  47  78 103 125 165 217 258 294
#     4  11  22  32  44  68 105 142 172 209 256 308
#     4   9  17  30  50  75 102 134 174 217 254 294
#     4   9  18  33  53  75  98 129 171 213 250 295
#
# _framework density 18.968917999999999
#
# number of rings (size 3 to 8) (size 9 to 14) (size 15 to 20)
#    0.000    2.625    0.000    4.875    0.000    6.250 
#    0.000    3.125    0.000    0.750    0.000    1.750 
#    0.000    0.000    0.000    0.000    0.000    0.000 
#
# Total GULP energy -356929.709280 kJ/mol
# GULP energy per Si atom -5577.026708 kJ/mol
# Density = 1.892574 g / cm^3
# Si number density = 18.968918 Si / 1000 Ang^3
#
#
#
# Elastic Constant Matrix: (Units=GPa)
#
#
# Indices 1 2 3 4 5 6 
#
# 1 62.5479 22.3816 44.0180 0.0000 0.0000 0.0000
# 2 22.3816 18.9443 28.0438 0.0000 0.0000 0.0000
# 3 44.0180 28.0438 91.4449 0.0000 0.0000 0.0000
# 4 0.0000 0.0000 0.0000 11.4268 0.0000 0.0000
# 5 0.0000 0.0000 0.0000 0.0000 26.7626 0.0000
# 6 0.0000 0.0000 0.0000 0.0000 0.0000 18.3449
#
#
#
# Elastic Compliance Matrix: (Units=1/GPa)
#
#
# Indices 1 2 3 4 5 6 
#
# 1 0.029645 -0.025456 -0.006463 0.000000 0.000000 0.000000
# 2 -0.025456 0.118534 -0.024098 0.000000 0.000000 0.000000
# 3 -0.006463 -0.024098 0.021437 0.000000 0.000000 0.000000
# 4 0.000000 0.000000 0.000000 0.087514 0.000000 0.000000
# 5 0.000000 0.000000 0.000000 0.000000 0.037366 0.000000
# 6 0.000000 0.000000 0.000000 0.000000 0.000000 0.054511
#
#
# Mechanical properties :
#
#
# Convention : Reuss Voigt Hill
#
# Bulk Modulus (GPa) = 17.36670 40.20267 28.78468
# Shear Modulus (GPa) = 10.41158 16.53978 13.47568
#
# Velocity S-wave (km/s) = 2.34535 2.95607 2.66824
# Velocity P-wave (km/s) = 4.06318 5.73508 4.96994
#
# Compressibility (1/GPa) = 0.05758148
#
# Stress axis : x y z
#
# Youngs Moduli (GPa) = 33.73212 8.43641 46.64864
#
# Poissons Ratio (x) = 0.21476 0.30150
# Poissons Ratio (y) = 0.85870 1.12412
# Poissons Ratio (z) = 0.21802 0.20330
#
# Static dielectric constant tensor:
#      x y z
#    x 1.667620 0.000000 0.000000 
#    y 0.000000 1.645140 0.000000 
#    z 0.000000 0.000000 1.672340 
# 
# From -- ./inp_files/28298.got.cif
#   From: 2010.05.17/outbox.cif.g08.bks.cpg/sg59_15_cif.got.tgz:28298.got - 2010.06.03 14:40:33.
