data_PCOD9452597
_publ_section_title
;
Structure prediction by ZEFSAII (Michael W. Deem and Ramdas Pophale) SiO2 
 PCOD9452597
Probable space group: P M M N
;
_chemical_formula_sum "Si O2"
_cell_formula_units_Z 64
_cell_length_a 18.381593
_cell_length_b 19.451833
_cell_length_c 9.479671
_cell_angle_alpha 90.000000
_cell_angle_beta 90.000000
_cell_angle_gamma 90.000000
_cell_volume 3389.510185
_symmetry_space_group_name_H-M "P M M N"
_symmetry_group_IT_number 59
_space_group.IT_coordinate_system_code '2'
_symmetry_cell_setting 'orthorhombic'
loop_
_space_group_symop_operation_xyz
x,y,z
1/2-x,1/2-y,z
1/2+x,-y,-z
-x,1/2+y,-z
-x,-y,-z
1/2+x,1/2+y,-z
1/2-x,y,z
x,1/2-y,z
loop_
_atom_site_type_symbol
_atom_site_label
_atom_site_fract_x
_atom_site_fract_y
_atom_site_fract_z
Si Si1 0.577603 0.571674 0.407510
Si Si2 0.043581 0.567979 0.946646
Si Si3 0.925194 0.082644 0.750407
Si Si4 0.417481 0.072701 0.264178
Si Si5 0.836964 0.443228 0.285531
Si Si6 0.166251 0.332478 0.779323
Si Si7 0.836852 0.330547 0.522055
Si Si8 0.836615 0.672579 0.914381
O O1 0.502004 0.567073 0.324975
O O2 0.564412 0.577674 0.572355
O O3 0.627876 0.505990 0.373574
O O4 0.619021 0.636870 0.344316
O O5 0.118242 0.556388 0.860879
O O6 0.986812 0.594679 0.830230
O O7 0.060263 0.608705 0.090607
O O8 0.000000 0.500000 0.000000
O O9 0.879382 0.132393 0.649982
O O10 0.892369 0.005745 0.764794
O O11 0.355950 0.124424 0.213977
O O12 0.750000 0.451589 0.266717
O O13 0.849909 0.374594 0.379156
O O14 0.250000 0.354713 0.762554
O O15 0.164887 0.250000 0.781981
O O16 0.137563 0.356064 0.933346
O O17 0.750000 0.334259 0.548829
O O18 0.856871 0.250000 0.508609
O O19 0.750000 0.677037 0.930008
O O20 0.864932 0.750000 0.894751
#
# Coordination Sequence:
#
# PCOD9452597 Si02
#       8
#     8   8   8   8   8   8   8   8
#     4  12  21  36  61  90 125 157 202 256 304 367
#     4  10  21  39  61  91 126 162 200 260 309 367
#     4  11  22  39  65  87 122 158 203 254 311 369
#     4  11  21  35  59  86 122 161 198 254 313 362
#     4  11  22  39  64  95 127 165 209 258 319 381
#     4   9  20  38  57  82 121 165 203 241 291 357
#     4  10  23  44  66  91 127 167 210 265 325 378
#     4   9  20  38  57  82 122 165 203 246 299 363
#
# _framework density 18.881786000000002
#
# number of rings (size 3 to 8) (size 9 to 14) (size 15 to 20)
#    0.000    1.625    3.750    3.000    1.750    3.000 
#    0.000    4.375    0.000    1.500    0.000    0.000 
#    0.000    0.000    0.000    0.000    0.000    0.000 
#
# Total GULP energy -357028.599481 kJ/mol
# GULP energy per Si atom -5578.571867 kJ/mol
# Density = 1.883881 g / cm^3
# Si number density = 18.881786 Si / 1000 Ang^3
#
#
#
# Elastic Constant Matrix: (Units=GPa)
#
#
# Indices 1 2 3 4 5 6 
#
# 1 74.0397 34.6519 46.2396 0.0000 0.0000 0.0000
# 2 34.6519 70.6131 35.8364 0.0000 0.0000 0.0000
# 3 46.2396 35.8364 147.7809 0.0000 0.0000 0.0000
# 4 0.0000 0.0000 0.0000 25.5474 0.0000 0.0000
# 5 0.0000 0.0000 0.0000 0.0000 37.8216 0.0000
# 6 0.0000 0.0000 0.0000 0.0000 0.0000 -61.4380
#
#
#
# Elastic Compliance Matrix: (Units=1/GPa)
#
#
# Indices 1 2 3 4 5 6 
#
# 1 0.019724 -0.007466 -0.004361 0.000000 0.000000 0.000000
# 2 -0.007466 0.018975 -0.002265 0.000000 0.000000 0.000000
# 3 -0.004361 -0.002265 0.008681 0.000000 0.000000 0.000000
# 4 0.000000 0.000000 0.000000 0.039143 0.000000 0.000000
# 5 0.000000 0.000000 0.000000 0.000000 0.026440 0.000000
# 6 0.000000 0.000000 0.000000 0.000000 0.000000 -0.016277
#
#
# Mechanical properties :
#
#
# Convention : Reuss Voigt Hill
#
# Bulk Modulus (GPa) = 52.09656 58.43218 55.26437
# Shear Modulus (GPa) = 38.08969 12.09991 25.09480
#
# Velocity S-wave (km/s) = 4.49628 2.53420 3.64957
# Velocity P-wave (km/s) = 7.38960 6.29098 6.86231
#
# Compressibility (1/GPa) = 0.01919512
#
# Stress axis : x y z
#
# Youngs Moduli (GPa) = 50.69956 52.70067 115.19861
#
# Poissons Ratio (x) = 0.39346 0.50239
# Poissons Ratio (y) = 0.37852 0.26097
# Poissons Ratio (z) = 0.22110 0.11939
#
# Static dielectric constant tensor:
#      x y z
#    x 1.686620 0.000000 0.000000 
#    y 0.000000 1.658200 0.000000 
#    z 0.000000 0.000000 1.677400 
# 
# From -- ./inp_files/10669.got.cif
#   From: 2010.05.17/outbox.cif.g08.bks.cpg/sg59_6_cif.got.tgz:10669.got - 2010.06.03 14:40:33.
