data_PCOD9452950
_publ_section_title
;
Structure prediction by ZEFSAII (Michael W. Deem and Ramdas Pophale) SiO2 
 PCOD9452950
Probable space group: P M M N
;
_chemical_formula_sum "Si O2"
_cell_formula_units_Z 40
_cell_length_a 7.921027
_cell_length_b 15.440908
_cell_length_c 16.541402
_cell_angle_alpha 90.000000
_cell_angle_beta 90.000000
_cell_angle_gamma 90.000000
_cell_volume 2023.143301
_symmetry_space_group_name_H-M "P M M N"
_symmetry_group_IT_number 59
_space_group.IT_coordinate_system_code '2'
_symmetry_cell_setting 'orthorhombic'
loop_
_space_group_symop_operation_xyz
x,y,z
1/2-x,1/2-y,z
1/2+x,-y,-z
-x,1/2+y,-z
-x,-y,-z
1/2+x,1/2+y,-z
1/2-x,y,z
x,1/2-y,z
loop_
_atom_site_type_symbol
_atom_site_label
_atom_site_fract_x
_atom_site_fract_y
_atom_site_fract_z
Si Si1 0.750000 0.644258 0.497210
Si Si2 0.548751 0.250000 0.073760
Si Si3 0.750000 0.645575 0.682193
Si Si4 0.055828 0.250000 0.891489
Si Si5 0.444802 0.645113 0.382463
Si Si6 0.557619 0.397054 0.201998
Si Si7 0.052965 0.581560 0.202274
O O1 0.750000 0.750000 0.498615
O O2 0.750000 0.614690 0.589697
O O3 0.582320 0.617648 0.448410
O O4 0.750000 0.250000 0.058449
O O5 0.509698 0.333454 0.128699
O O6 0.460278 0.250000 0.987825
O O7 0.750000 0.750000 0.683397
O O8 0.581078 0.615500 0.728189
O O9 0.250000 0.250000 0.866443
O O10 0.974567 0.164323 0.853780
O O11 0.250000 0.622193 0.401830
O O12 0.451409 0.750000 0.375867
O O13 0.489195 0.607363 0.294545
O O14 0.750000 0.374935 0.226905
O O15 0.549041 0.497088 0.176681
O O16 0.250000 0.558654 0.200340
#
# Coordination Sequence:
#
# PCOD9452950 Si02
#       7
#     4   4   4   4   8   8   8
#     4   9  20  34  60  92 123 162 209 269 312 369
#     4  10  24  46  66  90 125 166 212 268 319 371
#     4  11  22  42  68  93 123 168 219 266 324 374
#     4  12  26  38  66 102 129 164 208 262 323 383
#     4   9  18  34  58  87 125 167 206 257 318 372
#     4  11  24  42  68  93 125 173 218 261 317 381
#     4  11  22  40  65  94 130 174 213 258 319 384
#
# _framework density 19.771215000000002
#
# number of rings (size 3 to 8) (size 9 to 14) (size 15 to 20)
#    0.000    1.600    3.000    1.500    4.200    1.600 
#    0.000    3.000    0.000    0.000    0.000    0.000 
#    0.000    0.000    0.000    0.000    0.000    0.000 
#
# Total GULP energy -223518.991983 kJ/mol
# GULP energy per Si atom -5587.974800 kJ/mol
# Density = 1.972622 g / cm^3
# Si number density = 19.771215 Si / 1000 Ang^3
#
#
#
# Elastic Constant Matrix: (Units=GPa)
#
#
# Indices 1 2 3 4 5 6 
#
# 1 83.8304 31.0990 61.3042 0.0000 0.0000 0.0000
# 2 31.0990 101.6210 45.2178 0.0000 0.0000 0.0000
# 3 61.3042 45.2178 121.5682 0.0000 0.0000 0.0000
# 4 0.0000 0.0000 0.0000 -8.5512 0.0000 0.0000
# 5 0.0000 0.0000 0.0000 0.0000 31.2557 0.0000
# 6 0.0000 0.0000 0.0000 0.0000 0.0000 20.1328
#
#
#
# Elastic Compliance Matrix: (Units=1/GPa)
#
#
# Indices 1 2 3 4 5 6 
#
# 1 0.019192 -0.001878 -0.008980 0.000000 0.000000 0.000000
# 2 -0.001878 0.011976 -0.003508 0.000000 0.000000 0.000000
# 3 -0.008980 -0.003508 0.014059 0.000000 0.000000 0.000000
# 4 0.000000 0.000000 0.000000 -0.116943 0.000000 0.000000
# 5 0.000000 0.000000 0.000000 0.000000 0.031994 0.000000
# 6 0.000000 0.000000 0.000000 0.000000 0.000000 0.049670
#
#
# Mechanical properties :
#
#
# Convention : Reuss Voigt Hill
#
# Bulk Modulus (GPa) = 60.61800 64.69572 62.65686
# Shear Modulus (GPa) = 113.17987 19.86072 66.52030
#
# Velocity S-wave (km/s) = 7.57424 3.17287 5.80673
# Velocity P-wave (km/s) = 10.35463 6.79823 8.75883
#
# Compressibility (1/GPa) = 0.01649675
#
# Stress axis : x y z
#
# Youngs Moduli (GPa) = 52.10436 83.50121 71.12968
#
# Poissons Ratio (x) = 0.15679 0.63873
# Poissons Ratio (y) = 0.09783 0.24950
# Poissons Ratio (z) = 0.46789 0.29289
#
# Static dielectric constant tensor:
#      x y z
#    x 1.687390 0.000000 0.000000 
#    y 0.000000 1.742570 0.000000 
#    z 0.000000 0.000000 1.650670 
# 
# From -- ./inp_files/20035.got.cif
#   From: 2010.05.17/outbox.cif.g08.bks.cpg/sg59_11_cif.got.tgz:20035.got - 2010.06.03 14:40:33.
