data_PCOD9452676
_publ_section_title
;
Structure prediction by ZEFSAII (Michael W. Deem and Ramdas Pophale) SiO2 
 PCOD9452676
Probable space group: P M M N
;
_chemical_formula_sum "Si O2"
_cell_formula_units_Z 48
_cell_length_a 17.628009
_cell_length_b 8.899968
_cell_length_c 15.703406
_cell_angle_alpha 90.000000
_cell_angle_beta 90.000000
_cell_angle_gamma 90.000000
_cell_volume 2463.687204
_symmetry_space_group_name_H-M "P M M N"
_symmetry_group_IT_number 59
_space_group.IT_coordinate_system_code '2'
_symmetry_cell_setting 'orthorhombic'
loop_
_space_group_symop_operation_xyz
x,y,z
1/2-x,1/2-y,z
1/2+x,-y,-z
-x,1/2+y,-z
-x,-y,-z
1/2+x,1/2+y,-z
1/2-x,y,z
x,1/2-y,z
loop_
_atom_site_type_symbol
_atom_site_label
_atom_site_fract_x
_atom_site_fract_y
_atom_site_fract_z
Si Si1 0.449709 0.580484 0.253993
Si Si2 0.075320 0.565973 0.448384
Si Si3 0.750000 0.418061 0.308166
Si Si4 0.879694 0.582014 0.212876
Si Si5 0.838373 0.077392 0.047804
Si Si6 0.250000 0.581399 0.490673
Si Si7 0.558182 0.926390 0.929848
O O1 0.418205 0.750000 0.242823
O O2 0.427851 0.524092 0.347694
O O3 0.540284 0.591293 0.257385
O O4 0.438378 0.490214 0.166108
O O5 0.070554 0.750000 0.456335
O O6 0.163310 0.520342 0.472815
O O7 0.000000 0.500000 0.500000
O O8 0.750000 0.250000 0.270414
O O9 0.821359 0.509505 0.276466
O O10 0.750000 0.407177 0.408173
O O11 0.856831 0.750000 0.185090
O O12 0.882941 0.475506 0.131140
O O13 0.750000 0.065293 0.069048
O O14 0.855452 0.250000 0.025899
O O15 0.861604 0.969144 0.971897
O O16 0.250000 0.750000 0.451357
O O17 0.543775 0.750000 0.928484
O O18 0.500000 0.000000 0.000000
#
# Coordination Sequence:
#
# PCOD9452676 Si02
#       7
#     8   8   4   8   8   4   8
#     4  10  22  39  60  87 119 158 207 255 306 369
#     4  10  21  41  67  94 127 166 214 267 321 384
#     4  11  21  33  53  84 119 152 195 251 310 376
#     4  11  21  33  54  83 118 156 195 248 308 366
#     4  11  23  39  59  84 117 157 201 248 305 370
#     4   9  20  39  63  90 123 166 209 259 320 382
#     4  12  24  39  62  88 122 162 205 255 308 368
#
# _framework density 19.482991999999999
#
# number of rings (size 3 to 8) (size 9 to 14) (size 15 to 20)
#    0.000    1.333    2.500    3.750    0.000    2.333 
#    1.500    1.250    0.000    0.000    0.000    0.000 
#    0.000    0.000    0.000    0.000    0.000    0.000 
#
# Total GULP energy -267246.672187 kJ/mol
# GULP energy per Si atom -5567.639004 kJ/mol
# Density = 1.943865 g / cm^3
# Si number density = 19.482992 Si / 1000 Ang^3
#
#
#
# Elastic Constant Matrix: (Units=GPa)
#
#
# Indices 1 2 3 4 5 6 
#
# 1 93.2773 14.2204 43.5302 0.0000 0.0000 0.0000
# 2 14.2204 68.6701 35.1609 0.0000 0.0000 0.0000
# 3 43.5302 35.1609 139.5158 0.0000 0.0000 0.0000
# 4 0.0000 0.0000 0.0000 23.5320 0.0000 0.0000
# 5 0.0000 0.0000 0.0000 0.0000 60.4646 0.0000
# 6 0.0000 0.0000 0.0000 0.0000 0.0000 38.8979
#
#
#
# Elastic Compliance Matrix: (Units=1/GPa)
#
#
# Indices 1 2 3 4 5 6 
#
# 1 0.012576 -0.000683 -0.003751 0.000000 0.000000 0.000000
# 2 -0.000683 0.016757 -0.004010 0.000000 0.000000 0.000000
# 3 -0.003751 -0.004010 0.009349 0.000000 0.000000 0.000000
# 4 0.000000 0.000000 0.000000 0.042495 0.000000 0.000000
# 5 0.000000 0.000000 0.000000 0.000000 0.016539 0.000000
# 6 0.000000 0.000000 0.000000 0.000000 0.000000 0.025708
#
#
# Mechanical properties :
#
#
# Convention : Reuss Voigt Hill
#
# Bulk Modulus (GPa) = 45.88858 54.14291 50.01575
# Shear Modulus (GPa) = 33.88057 38.48235 36.18146
#
# Velocity S-wave (km/s) = 4.17463 4.44912 4.31406
# Velocity P-wave (km/s) = 6.84405 7.36499 7.10929
#
# Compressibility (1/GPa) = 0.02179191
#
# Stress axis : x y z
#
# Youngs Moduli (GPa) = 79.51887 59.67633 106.96642
#
# Poissons Ratio (x) = 0.04078 0.40128
# Poissons Ratio (y) = 0.05434 0.42893
# Poissons Ratio (z) = 0.29831 0.23930
#
# Static dielectric constant tensor:
#      x y z
#    x 1.733860 0.000000 0.000000 
#    y 0.000000 1.721080 0.000000 
#    z 0.000000 0.000000 1.671890 
# 
# From -- ./inp_files/23775.got.cif
#   From: 2010.05.17/outbox.cif.g08.bks.cpg/sg59_12_cif.got.tgz:23775.got - 2010.06.03 14:40:33.
