data_PCOD9452507
_publ_section_title
;
Structure prediction by ZEFSAII (Michael W. Deem and Ramdas Pophale) SiO2 
 PCOD9452507
Probable space group: P M M N
;
_chemical_formula_sum "Si O2"
_cell_formula_units_Z 44
_cell_length_a 8.637204
_cell_length_b 14.054621
_cell_length_c 18.594440
_cell_angle_alpha 90.000000
_cell_angle_beta 90.000000
_cell_angle_gamma 90.000000
_cell_volume 2257.227951
_symmetry_space_group_name_H-M "P M M N"
_symmetry_group_IT_number 59
_space_group.IT_coordinate_system_code '2'
_symmetry_cell_setting 'orthorhombic'
loop_
_space_group_symop_operation_xyz
x,y,z
1/2-x,1/2-y,z
1/2+x,-y,-z
-x,1/2+y,-z
-x,-y,-z
1/2+x,1/2+y,-z
1/2-x,y,z
x,1/2-y,z
loop_
_atom_site_type_symbol
_atom_site_label
_atom_site_fract_x
_atom_site_fract_y
_atom_site_fract_z
Si Si1 0.250000 0.853886 0.467128
Si Si2 0.932149 0.360245 0.818552
Si Si3 0.750000 0.362243 0.265705
Si Si4 0.574486 0.636474 0.805632
Si Si5 0.014851 0.358318 0.651322
Si Si6 0.250000 0.982619 0.602070
Si Si7 0.065817 0.519570 0.921253
O O1 0.250000 0.750000 0.504898
O O2 0.109999 0.855216 0.411526
O O3 0.250000 0.942260 0.521609
O O4 0.750000 0.374332 0.834092
O O5 0.970890 0.250000 0.833374
O O6 0.957107 0.375018 0.732926
O O7 0.029778 0.430863 0.868131
O O8 0.750000 0.250000 0.252604
O O9 0.583437 0.397948 0.234919
O O10 0.750000 0.390160 0.348226
O O11 0.750000 0.601469 0.785882
O O12 0.579248 0.750000 0.797550
O O13 0.533272 0.605134 0.886291
O O14 0.082086 0.250000 0.652892
O O15 0.112951 0.448123 0.626119
O O16 0.250000 0.539229 0.922546
O O17 0.000000 0.500000 0.000000
#
# Coordination Sequence:
#
# PCOD9452507 Si02
#       7
#     4   8   4   8   8   4   8
#     4  10  21  41  61  83 121 167 209 254 315 376
#     4  10  21  40  64  89 119 162 211 259 312 374
#     4  10  21  39  61  91 123 160 208 255 309 375
#     4  10  21  40  64  86 118 163 208 254 307 371
#     4  10  21  38  61  87 121 162 207 256 309 372
#     4  12  22  34  58  94 124 159 201 259 318 371
#     4  12  25  40  60  90 126 159 201 258 313 374
#
# _framework density 19.492936
#
# number of rings (size 3 to 8) (size 9 to 14) (size 15 to 20)
#    0.000    1.455    1.818    3.818    1.273    1.091 
#    1.636    0.000    0.000    0.000    0.000    0.000 
#    0.000    0.000    0.000    0.000    0.000    0.000 
#
# Total GULP energy -245057.887831 kJ/mol
# GULP energy per Si atom -5569.497451 kJ/mol
# Density = 1.944857 g / cm^3
# Si number density = 19.492936 Si / 1000 Ang^3
#
#
#
# Elastic Constant Matrix: (Units=GPa)
#
#
# Indices 1 2 3 4 5 6 
#
# 1 132.1552 18.8695 32.1980 0.0000 0.0000 0.0000
# 2 18.8695 57.2741 18.2385 0.0000 0.0000 0.0000
# 3 32.1980 18.2385 100.2983 0.0000 0.0000 0.0000
# 4 0.0000 0.0000 0.0000 33.8395 0.0000 0.0000
# 5 0.0000 0.0000 0.0000 0.0000 18.6375 0.0000
# 6 0.0000 0.0000 0.0000 0.0000 0.0000 25.9227
#
#
#
# Elastic Compliance Matrix: (Units=1/GPa)
#
#
# Indices 1 2 3 4 5 6 
#
# 1 0.008426 -0.002032 -0.002335 0.000000 0.000000 0.000000
# 2 -0.002032 0.019023 -0.002807 0.000000 0.000000 0.000000
# 3 -0.002335 -0.002807 0.011230 0.000000 0.000000 0.000000
# 4 0.000000 0.000000 0.000000 0.029551 0.000000 0.000000
# 5 0.000000 0.000000 0.000000 0.000000 0.053655 0.000000
# 6 0.000000 0.000000 0.000000 0.000000 0.000000 0.038576
#
#
# Mechanical properties :
#
#
# Convention : Reuss Voigt Hill
#
# Bulk Modulus (GPa) = 41.10051 47.59329 44.34690
# Shear Modulus (GPa) = 27.33410 30.37471 28.85441
#
# Velocity S-wave (km/s) = 3.74873 3.95174 3.85157
# Velocity P-wave (km/s) = 6.31411 6.72981 6.52527
#
# Compressibility (1/GPa) = 0.02433060
#
# Stress axis : x y z
#
# Youngs Moduli (GPa) = 118.67984 52.56715 89.04429
#
# Poissons Ratio (x) = 0.10684 0.20795
# Poissons Ratio (y) = 0.24120 0.24993
# Poissons Ratio (z) = 0.27716 0.14755
#
# Static dielectric constant tensor:
#      x y z
#    x 1.774550 0.000000 0.000000 
#    y 0.000000 1.705220 0.000000 
#    z 0.000000 0.000000 1.648860 
# 
# From -- ./inp_files/25391.got.cif
#   From: 2010.05.17/outbox.cif.g08.bks.cpg/sg59_13_cif.got.tgz:25391.got - 2010.06.03 14:40:33.
