data_PCOD9452750
_publ_section_title
;
Structure prediction by ZEFSAII (Michael W. Deem and Ramdas Pophale) SiO2 
 PCOD9452750
Probable space group: P M M N
;
_chemical_formula_sum "Si O2"
_cell_formula_units_Z 48
_cell_length_a 15.152677
_cell_length_b 9.041488
_cell_length_c 19.350846
_cell_angle_alpha 90.000000
_cell_angle_beta 90.000000
_cell_angle_gamma 90.000000
_cell_volume 2651.119064
_symmetry_space_group_name_H-M "P M M N"
_symmetry_group_IT_number 59
_space_group.IT_coordinate_system_code '2'
_symmetry_cell_setting 'orthorhombic'
loop_
_space_group_symop_operation_xyz
x,y,z
1/2-x,1/2-y,z
1/2+x,-y,-z
-x,1/2+y,-z
-x,-y,-z
1/2+x,1/2+y,-z
1/2-x,y,z
x,1/2-y,z
loop_
_atom_site_type_symbol
_atom_site_label
_atom_site_fract_x
_atom_site_fract_y
_atom_site_fract_z
Si Si1 0.003254 0.427947 0.396377
Si Si2 0.993443 0.073629 0.235970
Si Si3 0.853562 0.071551 0.506204
Si Si4 0.350675 0.575673 0.154932
Si Si5 0.095975 0.573563 0.998690
Si Si6 0.149702 0.420959 0.859934
O O1 0.013380 0.250000 0.400762
O O2 0.994419 0.469702 0.316375
O O3 0.088748 0.502182 0.431702
O O4 0.914058 0.466692 0.439149
O O5 0.984578 0.250000 0.231691
O O6 0.082426 0.021268 0.198591
O O7 0.914940 0.998029 0.193729
O O8 0.750000 0.025506 0.503145
O O9 0.853984 0.250000 0.512487
O O10 0.250000 0.550839 0.175800
O O11 0.371731 0.750000 0.164268
O O12 0.360697 0.544836 0.073147
O O13 0.089973 0.750000 0.989555
O O14 0.144221 0.502535 0.933478
O O15 0.000000 0.500000 0.000000
O O16 0.250000 0.425825 0.834828
O O17 0.123043 0.250000 0.869825
#
# Coordination Sequence:
#
# PCOD9452750 Si02
#       6
#     8   8   8   8   8   8
#     4   9  20  37  56  83 116 147 182 226 274 326
#     4  11  23  38  58  83 114 152 189 231 283 336
#     4   9  18  35  60  86 111 144 184 224 269 325
#     4  10  22  39  58  80 110 149 190 234 284 338
#     4  11  21  36  60  85 110 145 190 239 291 340
#     4  11  24  40  58  82 113 150 192 239 288 338
#
# _framework density 18.105561000000002
#
# number of rings (size 3 to 8) (size 9 to 14) (size 15 to 20)
#    0.000    1.833    1.667    2.000    0.000    6.000 
#    0.000    5.000    0.000    0.000    0.000    0.000 
#    0.000    0.000    0.000    0.000    0.000    0.000 
#
# Total GULP energy -267979.575127 kJ/mol
# GULP energy per Si atom -5582.907815 kJ/mol
# Density = 1.806435 g / cm^3
# Si number density = 18.105561 Si / 1000 Ang^3
#
#
#
# Elastic Constant Matrix: (Units=GPa)
#
#
# Indices 1 2 3 4 5 6 
#
# 1 123.1517 46.5455 56.0769 0.0000 0.0000 0.0000
# 2 46.5455 60.3601 59.3313 0.0000 0.0000 0.0000
# 3 56.0769 59.3313 135.9538 0.0000 0.0000 0.0000
# 4 0.0000 0.0000 0.0000 30.3217 0.0000 0.0000
# 5 0.0000 0.0000 0.0000 0.0000 -439.1453 0.0000
# 6 0.0000 0.0000 0.0000 0.0000 0.0000 18.6924
#
#
#
# Elastic Compliance Matrix: (Units=1/GPa)
#
#
# Indices 1 2 3 4 5 6 
#
# 1 0.011643 -0.007456 -0.001548 0.000000 0.000000 0.000000
# 2 -0.007456 0.033788 -0.011670 0.000000 0.000000 0.000000
# 3 -0.001548 -0.011670 0.013087 0.000000 0.000000 0.000000
# 4 0.000000 0.000000 0.000000 0.032980 0.000000 0.000000
# 5 0.000000 0.000000 0.000000 0.000000 -0.002277 0.000000
# 6 0.000000 0.000000 0.000000 0.000000 0.000000 0.053498
#
#
# Mechanical properties :
#
#
# Convention : Reuss Voigt Hill
#
# Bulk Modulus (GPa) = 58.24503 71.48588 64.86546
# Shear Modulus (GPa) = 26.34480 -67.52544 -20.59032
#
# Velocity S-wave (km/s) = 3.81867 -6.11362 -3.37595
# Velocity P-wave (km/s) = 7.18906 3.20416 4.55060
#
# Compressibility (1/GPa) = 0.01716885
#
# Stress axis : x y z
#
# Youngs Moduli (GPa) = 85.88592 29.59633 76.41212
#
# Poissons Ratio (x) = 0.22068 0.11832
# Poissons Ratio (y) = 0.64040 0.89171
# Poissons Ratio (z) = 0.13299 0.34538
#
# Static dielectric constant tensor:
#      x y z
#    x 1.628390 0.000000 0.000000 
#    y 0.000000 1.613040 0.000000 
#    z 0.000000 0.000000 1.607660 
# 
# From -- ./inp_files/25443.got.cif
#   From: 2010.05.17/outbox.cif.g08.bks.cpg/sg59_13_cif.got.tgz:25443.got - 2010.06.03 14:40:33.
