data_PCOD9452839
_publ_section_title
;
Structure prediction by ZEFSAII (Michael W. Deem and Ramdas Pophale) SiO2 
 PCOD9452839
Probable space group: P M M N
;
_chemical_formula_sum "Si O2"
_cell_formula_units_Z 40
_cell_length_a 18.190590
_cell_length_b 8.669727
_cell_length_c 12.492972
_cell_angle_alpha 90.000000
_cell_angle_beta 90.000000
_cell_angle_gamma 90.000000
_cell_volume 1970.234748
_symmetry_space_group_name_H-M "P M M N"
_symmetry_group_IT_number 59
_space_group.IT_coordinate_system_code '2'
_symmetry_cell_setting 'orthorhombic'
loop_
_space_group_symop_operation_xyz
x,y,z
1/2-x,1/2-y,z
1/2+x,-y,-z
-x,1/2+y,-z
-x,-y,-z
1/2+x,1/2+y,-z
1/2-x,y,z
x,1/2-y,z
loop_
_atom_site_type_symbol
_atom_site_label
_atom_site_fract_x
_atom_site_fract_y
_atom_site_fract_z
Si Si1 0.937990 0.069703 0.657900
Si Si2 0.166264 0.433017 0.519954
Si Si3 0.075246 0.432681 0.950983
Si Si4 0.335727 0.067548 0.162656
Si Si5 0.406834 0.931643 0.717130
O O1 0.956454 0.250000 0.654040
O O2 0.891887 0.020012 0.554390
O O3 0.886229 0.031123 0.758912
O O4 0.012356 0.973640 0.672135
O O5 0.250000 0.473322 0.489930
O O6 0.157059 0.250000 0.505659
O O7 0.150259 0.479185 0.641927
O O8 0.065746 0.250000 0.932458
O O9 0.094059 0.513364 0.839624
O O10 0.137266 0.454508 0.041309
O O11 0.000000 0.500000 0.000000
O O12 0.250000 0.031772 0.175359
O O13 0.346453 0.250000 0.188661
O O14 0.394214 0.750000 0.710192
#
# Coordination Sequence:
#
# PCOD9452839 Si02
#       5
#     8   8   8   8   8
#     4  12  24  40  65  95 128 165 211 264 317 379
#     4  11  25  45  67  92 127 168 210 260 321 384
#     4  11  22  39  64  93 127 168 211 259 314 374
#     4  10  22  40  63  92 127 167 210 258 317 381
#     4  12  25  42  66  94 128 168 214 266 316 375
#
# _framework density 20.302150000000001
#
# number of rings (size 3 to 8) (size 9 to 14) (size 15 to 20)
#    0.000    0.800    2.000    6.000    0.000    6.000 
#    0.000    2.000    0.000    0.000    0.000    0.000 
#    0.000    0.000    0.000    0.000    0.000    0.000 
#
# Total GULP energy -223950.624064 kJ/mol
# GULP energy per Si atom -5598.765602 kJ/mol
# Density = 2.025594 g / cm^3
# Si number density = 20.302150 Si / 1000 Ang^3
#
#
#
# Elastic Constant Matrix: (Units=GPa)
#
#
# Indices 1 2 3 4 5 6 
#
# 1 36.6352 1.4784 -8.9759 0.0000 0.0000 0.0000
# 2 1.4784 35.7865 3.5276 0.0000 0.0000 0.0000
# 3 -8.9759 3.5276 79.6485 0.0000 0.0000 0.0000
# 4 0.0000 0.0000 0.0000 41.6725 0.0000 0.0000
# 5 0.0000 0.0000 0.0000 0.0000 108.5379 0.0000
# 6 0.0000 0.0000 0.0000 0.0000 0.0000 26.5174
#
#
#
# Elastic Compliance Matrix: (Units=1/GPa)
#
#
# Indices 1 2 3 4 5 6 
#
# 1 0.028149 -0.001482 0.003238 0.000000 0.000000 0.000000
# 2 -0.001482 0.028144 -0.001414 0.000000 0.000000 0.000000
# 3 0.003238 -0.001414 0.012983 0.000000 0.000000 0.000000
# 4 0.000000 0.000000 0.000000 0.023997 0.000000 0.000000
# 5 0.000000 0.000000 0.000000 0.000000 0.009213 0.000000
# 6 0.000000 0.000000 0.000000 0.000000 0.000000 0.037711
#
#
# Mechanical properties :
#
#
# Convention : Reuss Voigt Hill
#
# Bulk Modulus (GPa) = 14.29376 16.01450 15.15413
# Shear Modulus (GPa) = 30.70637 45.74823 38.22730
#
# Velocity S-wave (km/s) = 3.89327 4.75212 4.34397
# Velocity P-wave (km/s) = 5.22167 6.16566 5.71319
#
# Compressibility (1/GPa) = 0.06996060
#
# Stress axis : x y z
#
# Youngs Moduli (GPa) = 35.52492 35.53144 77.02580
#
# Poissons Ratio (x) = 0.05266 -0.24940
# Poissons Ratio (y) = 0.05265 0.10888
# Poissons Ratio (z) = -0.11503 0.05022
#
# Static dielectric constant tensor:
#      x y z
#    x 1.693580 0.000000 0.000000 
#    y 0.000000 1.682900 0.000000 
#    z 0.000000 0.000000 1.718310 
# 
# From -- ./inp_files/13820.got.cif
#   From: 2010.05.17/outbox.cif.g08.bks.cpg/sg59_7_cif.got.tgz:13820.got - 2010.06.03 14:40:33.
