data_PCOD9452270
_publ_section_title
;
Structure prediction by ZEFSAII (Michael W. Deem and Ramdas Pophale) SiO2 
 PCOD9452270
Probable space group: P M M N
;
_chemical_formula_sum "Si O2"
_cell_formula_units_Z 64
_cell_length_a 8.206321
_cell_length_b 24.365134
_cell_length_c 15.899734
_cell_angle_alpha 90.000000
_cell_angle_beta 90.000000
_cell_angle_gamma 90.000000
_cell_volume 3179.121776
_symmetry_space_group_name_H-M "P M M N"
_symmetry_group_IT_number 59
_space_group.IT_coordinate_system_code '2'
_symmetry_cell_setting 'orthorhombic'
loop_
_space_group_symop_operation_xyz
x,y,z
1/2-x,1/2-y,z
1/2+x,-y,-z
-x,1/2+y,-z
-x,-y,-z
1/2+x,1/2+y,-z
1/2-x,y,z
x,1/2-y,z
loop_
_atom_site_type_symbol
_atom_site_label
_atom_site_fract_x
_atom_site_fract_y
_atom_site_fract_z
Si Si1 0.444793 0.688090 0.507888
Si Si2 0.943749 0.394233 0.347331
Si Si3 0.949229 0.686945 0.996102
Si Si4 0.558622 0.010142 0.595260
Si Si5 0.942281 0.873162 0.343815
Si Si6 0.554846 0.498932 0.903143
Si Si7 0.053918 0.118487 0.842309
Si Si8 0.947422 0.882965 0.834393
O O1 0.250000 0.690592 0.519180
O O2 0.509849 0.750000 0.516503
O O3 0.506164 0.645546 0.578493
O O4 0.479085 0.663338 0.416369
O O5 0.750000 0.401811 0.357798
O O6 0.024682 0.454015 0.355105
O O7 0.981479 0.369271 0.256377
O O8 0.750000 0.685800 0.997173
O O9 0.000727 0.750000 0.997943
O O10 0.998947 0.656492 0.910538
O O11 0.005837 0.653979 0.078535
O O12 0.750000 0.022211 0.594789
O O13 0.500000 0.000000 0.500000
O O14 0.470388 0.062961 0.633587
O O15 0.750000 0.861973 0.344901
O O16 0.006723 0.863510 0.249445
O O17 0.750000 0.497337 0.900774
O O18 0.488110 0.444785 0.858872
O O19 0.501591 0.555231 0.859057
O O20 0.500000 0.500000 0.000000
O O21 0.250000 0.123204 0.840903
O O22 0.750000 0.881595 0.829538
#
# Coordination Sequence:
#
# PCOD9452270 Si02
#       8
#     8   8   8   8   8   8   8   8
#     4  10  23  43  63  83 116 163 206 247 298 351
#     4  11  23  39  61  89 120 157 198 242 297 355
#     4   9  18  36  60  83 113 154 198 244 291 340
#     4  12  23  38  62  90 123 157 194 241 297 361
#     4  11  23  38  62  93 123 156 198 248 299 355
#     4  11  21  35  58  86 118 155 192 236 293 351
#     4  10  21  38  59  88 120 152 194 239 290 353
#     4  10  21  37  58  86 117 152 195 240 292 352
#
# _framework density 20.131347000000002
#
# number of rings (size 3 to 8) (size 9 to 14) (size 15 to 20)
#    0.000    1.500    2.500    3.000    0.000    5.750 
#    0.000    1.250    0.000    1.125    0.000    0.000 
#    0.000    0.000    0.000    0.000    0.000    0.000 
#
# Total GULP energy -357750.912285 kJ/mol
# GULP energy per Si atom -5589.858004 kJ/mol
# Density = 2.008553 g / cm^3
# Si number density = 20.131347 Si / 1000 Ang^3
#
#
#
# Elastic Constant Matrix: (Units=GPa)
#
#
# Indices 1 2 3 4 5 6 
#
# 1 9.0811 -9.2764 -5.5710 0.0000 0.0000 0.0000
# 2 -9.2764 94.7939 18.7176 0.0000 0.0000 0.0000
# 3 -5.5710 18.7176 115.0873 0.0000 0.0000 0.0000
# 4 0.0000 0.0000 0.0000 2.4654 0.0000 0.0000
# 5 0.0000 0.0000 0.0000 0.0000 21.7686 0.0000
# 6 0.0000 0.0000 0.0000 0.0000 0.0000 19.9884
#
#
#
# Elastic Compliance Matrix: (Units=1/GPa)
#
#
# Indices 1 2 3 4 5 6 
#
# 1 0.124258 0.011336 0.004171 0.000000 0.000000 0.000000
# 2 0.011336 0.011933 -0.001392 0.000000 0.000000 0.000000
# 3 0.004171 -0.001392 0.009117 0.000000 0.000000 0.000000
# 4 0.000000 0.000000 0.000000 0.405615 0.000000 0.000000
# 5 0.000000 0.000000 0.000000 0.000000 0.045938 0.000000
# 6 0.000000 0.000000 0.000000 0.000000 0.000000 0.050029
#
#
# Mechanical properties :
#
#
# Convention : Reuss Voigt Hill
#
# Bulk Modulus (GPa) = 5.76237 25.18917 15.47577
# Shear Modulus (GPa) = 7.39091 23.18395 15.28743
#
# Velocity S-wave (km/s) = 1.91815 3.39726 2.75868
# Velocity P-wave (km/s) = 2.78825 5.28470 4.22507
#
# Compressibility (1/GPa) = 0.17353968
#
# Stress axis : x y z
#
# Youngs Moduli (GPa) = 8.04776 83.79827 109.68062
#
# Poissons Ratio (x) = -0.94995 -0.45751
# Poissons Ratio (y) = -0.09123 0.15268
# Poissons Ratio (z) = -0.03357 0.11665
#
# Static dielectric constant tensor:
#      x y z
#    x 1.718060 0.000000 0.000000 
#    y 0.000000 1.645930 0.000000 
#    z 0.000000 0.000000 1.677900 
# 
# From -- ./inp_files/21423.got.cif
#   From: 2010.05.17/outbox.cif.g08.bks.cpg/sg59_11_cif.got.tgz:21423.got - 2010.06.03 14:40:33.
