data_PCOD9452301
_publ_section_title
;
Structure prediction by ZEFSAII (Michael W. Deem and Ramdas Pophale) SiO2 
 PCOD9452301
Probable space group: P M M N
;
_chemical_formula_sum "Si O2"
_cell_formula_units_Z 48
_cell_length_a 14.995188
_cell_length_b 8.657304
_cell_length_c 20.226415
_cell_angle_alpha 90.000000
_cell_angle_beta 90.000000
_cell_angle_gamma 90.000000
_cell_volume 2625.750741
_symmetry_space_group_name_H-M "P M M N"
_symmetry_group_IT_number 59
_space_group.IT_coordinate_system_code '2'
_symmetry_cell_setting 'orthorhombic'
loop_
_space_group_symop_operation_xyz
x,y,z
1/2-x,1/2-y,z
1/2+x,-y,-z
-x,1/2+y,-z
-x,-y,-z
1/2+x,1/2+y,-z
1/2-x,y,z
x,1/2-y,z
loop_
_atom_site_type_symbol
_atom_site_label
_atom_site_fract_x
_atom_site_fract_y
_atom_site_fract_z
Si Si1 0.750000 0.062096 0.869198
Si Si2 0.750000 0.437827 0.022373
Si Si3 0.986902 0.065116 0.666579
Si Si4 0.945812 0.064114 0.062961
Si Si5 0.645260 0.934110 0.557075
Si Si6 0.058086 0.937128 0.184246
Si Si7 0.853715 0.065404 0.413727
O O1 0.750000 0.250000 0.869394
O O2 0.658935 0.013342 0.833784
O O3 0.750000 0.011846 0.945679
O O4 0.750000 0.250000 0.021854
O O5 0.657537 0.485974 0.056100
O O6 0.982680 0.250000 0.663923
O O7 0.967803 0.015863 0.741696
O O8 0.913921 0.997631 0.616347
O O9 0.082106 0.008671 0.640156
O O10 0.948854 0.250000 0.061090
O O11 0.992042 0.003707 0.129222
O O12 0.000000 0.000000 0.000000
O O13 0.750000 0.969460 0.567985
O O14 0.634861 0.750000 0.552243
O O15 0.619259 0.008320 0.486850
O O16 0.055131 0.750000 0.180521
O O17 0.750000 0.022150 0.404300
O O18 0.861153 0.250000 0.411325
#
# Coordination Sequence:
#
# PCOD9452301 Si02
#       7
#     4   4   8   8   8   8   8
#     4   9  16  34  60  82 112 147 182 221 274 340
#     4   9  18  34  60  84 108 147 186 227 280 336
#     4  11  23  37  58  85 117 153 191 236 288 346
#     4  11  21  37  60  85 115 148 190 236 281 338
#     4  10  21  37  59  87 119 151 188 238 289 338
#     4  10  22  39  59  84 114 152 190 229 279 336
#     4  10  21  39  62  84 110 149 198 242 284 341
#
# _framework density 18.280484999999999
#
# number of rings (size 3 to 8) (size 9 to 14) (size 15 to 20)
#    0.000    1.833    1.667    2.500    1.167    3.333 
#    1.500    2.917    0.000    0.000    0.000    0.000 
#    0.000    0.000    0.000    0.000    0.000    0.000 
#
# Total GULP energy -268150.102504 kJ/mol
# GULP energy per Si atom -5586.460469 kJ/mol
# Density = 1.823888 g / cm^3
# Si number density = 18.280485 Si / 1000 Ang^3
#
#
#
# Elastic Constant Matrix: (Units=GPa)
#
#
# Indices 1 2 3 4 5 6 
#
# 1 141.4474 24.8363 88.1186 0.0000 0.0000 0.0000
# 2 24.8363 22.8935 21.1732 0.0000 0.0000 0.0000
# 3 88.1186 21.1732 142.7335 0.0000 0.0000 0.0000
# 4 0.0000 0.0000 0.0000 31.3682 0.0000 0.0000
# 5 0.0000 0.0000 0.0000 0.0000 -21.2738 0.0000
# 6 0.0000 0.0000 0.0000 0.0000 0.0000 25.1470
#
#
#
# Elastic Compliance Matrix: (Units=1/GPa)
#
#
# Indices 1 2 3 4 5 6 
#
# 1 0.012494 -0.007441 -0.006609 0.000000 0.000000 0.000000
# 2 -0.007441 0.055058 -0.003573 0.000000 0.000000 0.000000
# 3 -0.006609 -0.003573 0.011617 0.000000 0.000000 0.000000
# 4 0.000000 0.000000 0.000000 0.031879 0.000000 0.000000
# 5 0.000000 0.000000 0.000000 0.000000 -0.047006 0.000000
# 6 0.000000 0.000000 0.000000 0.000000 0.000000 0.039766
#
#
# Mechanical properties :
#
#
# Convention : Reuss Voigt Hill
#
# Bulk Modulus (GPa) = 22.76845 63.92562 43.34704
# Shear Modulus (GPa) = 32.53161 18.57802 25.55481
#
# Velocity S-wave (km/s) = 4.22308 3.19137 3.74294
# Velocity P-wave (km/s) = 6.02174 6.97316 6.51484
#
# Compressibility (1/GPa) = 0.04392042
#
# Stress axis : x y z
#
# Youngs Moduli (GPa) = 80.03886 18.16258 86.08392
#
# Poissons Ratio (x) = 0.13516 0.56897
# Poissons Ratio (y) = 0.59560 0.30760
# Poissons Ratio (z) = 0.52901 0.06490
#
# Static dielectric constant tensor:
#      x y z
#    x 1.631660 0.000000 0.000000 
#    y 0.000000 1.630560 0.000000 
#    z 0.000000 0.000000 1.588920 
# 
# From -- ./inp_files/25561.got.cif
#   From: 2010.05.17/outbox.cif.g08.bks.cpg/sg59_13_cif.got.tgz:25561.got - 2010.06.03 14:40:33.
