data_PCOD9452134
_publ_section_title
;
Structure prediction by ZEFSAII (Michael W. Deem and Ramdas Pophale) SiO2 
 PCOD9452134
Probable space group: P M M N
;
_chemical_formula_sum "Si O2"
_cell_formula_units_Z 56
_cell_length_a 9.115176
_cell_length_b 13.967541
_cell_length_c 24.139102
_cell_angle_alpha 90.000000
_cell_angle_beta 90.000000
_cell_angle_gamma 90.000000
_cell_volume 3073.308261
_symmetry_space_group_name_H-M "P M M N"
_symmetry_group_IT_number 59
_space_group.IT_coordinate_system_code '2'
_symmetry_cell_setting 'orthorhombic'
loop_
_space_group_symop_operation_xyz
x,y,z
1/2-x,1/2-y,z
1/2+x,-y,-z
-x,1/2+y,-z
-x,-y,-z
1/2+x,1/2+y,-z
1/2-x,y,z
x,1/2-y,z
loop_
_atom_site_type_symbol
_atom_site_label
_atom_site_fract_x
_atom_site_fract_y
_atom_site_fract_z
Si Si1 0.926412 0.444458 0.419795
Si Si2 0.082474 0.866576 0.026710
Si Si3 0.077499 0.363929 0.858651
Si Si4 0.073594 0.142523 0.527430
Si Si5 0.074527 0.472256 0.198476
Si Si6 0.426402 0.862900 0.700256
Si Si7 0.576113 0.863405 0.915036
O O1 0.750000 0.434889 0.424937
O O2 0.965126 0.555868 0.430970
O O3 0.967978 0.406436 0.359442
O O4 0.001327 0.384250 0.468733
O O5 0.250000 0.899852 0.031748
O O6 0.084048 0.750000 0.024560
O O7 0.992285 0.890163 0.081808
O O8 0.009406 0.898279 0.969326
O O9 0.250000 0.385873 0.858606
O O10 0.059336 0.250000 0.851382
O O11 0.994806 0.423826 0.811832
O O12 0.250000 0.140807 0.521348
O O13 0.030539 0.250000 0.544561
O O14 0.250000 0.476927 0.202855
O O15 0.036861 0.414191 0.142221
O O16 0.006359 0.418620 0.250695
O O17 0.250000 0.872871 0.706363
O O18 0.461208 0.750000 0.701895
O O19 0.750000 0.875296 0.924508
O O20 0.547881 0.750000 0.908835
#
# Coordination Sequence:
#
# PCOD9452134 Si02
#       7
#     8   8   8   8   8   8   8
#     4   9  18  33  53  78 110 148 187 223 263 313
#     4   9  17  30  51  78 104 131 166 210 261 316
#     4  10  21  38  58  77 100 133 172 215 265 323
#     4   9  17  30  51  81 114 145 179 223 271 315
#     4  11  23  37  55  78 104 136 176 223 270 315
#     4  10  21  37  56  78 107 143 181 220 262 314
#     4   9  18  33  51  73 103 136 169 208 259 318
#
# _framework density 18.221406000000002
#
# number of rings (size 3 to 8) (size 9 to 14) (size 15 to 20)
#    0.000    2.429    0.000    2.143    0.000    6.571 
#    0.000    2.143    0.000    2.571    0.000    0.000 
#    0.000    0.000    0.000    0.000    0.000    0.000 
#
# Total GULP energy -312674.520553 kJ/mol
# GULP energy per Si atom -5583.473581 kJ/mol
# Density = 1.817993 g / cm^3
# Si number density = 18.221406 Si / 1000 Ang^3
#
#
#
# Elastic Constant Matrix: (Units=GPa)
#
#
# Indices 1 2 3 4 5 6 
#
# 1 51.0496 43.2022 58.4476 0.0000 0.0000 0.0000
# 2 43.2022 93.1525 60.3599 0.0000 0.0000 0.0000
# 3 58.4476 60.3599 128.0182 0.0000 0.0000 0.0000
# 4 0.0000 0.0000 0.0000 27.2035 0.0000 0.0000
# 5 0.0000 0.0000 0.0000 0.0000 31.8768 0.0000
# 6 0.0000 0.0000 0.0000 0.0000 0.0000 20.5121
#
#
#
# Elastic Compliance Matrix: (Units=1/GPa)
#
#
# Indices 1 2 3 4 5 6 
#
# 1 0.048587 -0.011750 -0.016643 0.000000 0.000000 0.000000
# 2 -0.011750 0.018299 -0.003263 0.000000 0.000000 0.000000
# 3 -0.016643 -0.003263 0.016949 0.000000 0.000000 0.000000
# 4 0.000000 0.000000 0.000000 0.036760 0.000000 0.000000
# 5 0.000000 0.000000 0.000000 0.000000 0.031371 0.000000
# 6 0.000000 0.000000 0.000000 0.000000 0.000000 0.048752
#
#
# Mechanical properties :
#
#
# Convention : Reuss Voigt Hill
#
# Bulk Modulus (GPa) = 48.72689 66.24885 57.48787
# Shear Modulus (GPa) = 18.45906 23.26585 20.86245
#
# Velocity S-wave (km/s) = 3.18629 3.57717 3.38737
# Velocity P-wave (km/s) = 6.35108 7.31424 6.84961
#
# Compressibility (1/GPa) = 0.02052255
#
# Stress axis : x y z
#
# Youngs Moduli (GPa) = 20.58164 54.64798 59.00222
#
# Poissons Ratio (x) = 0.64209 0.98197
# Poissons Ratio (y) = 0.24183 0.19255
# Poissons Ratio (z) = 0.34254 0.17834
#
# Static dielectric constant tensor:
#      x y z
#    x 1.609190 0.000000 0.000000 
#    y 0.000000 1.672250 0.000000 
#    z 0.000000 0.000000 1.579810 
# 
# From -- ./inp_files/29142.got.cif
#   From: 2010.05.17/outbox.cif.g08.bks.cpg/sg59_15_cif.got.tgz:29142.got - 2010.06.03 14:40:33.
