data_PCOD9452923
_publ_section_title
;
Structure prediction by ZEFSAII (Michael W. Deem and Ramdas Pophale) SiO2 
 PCOD9452923
Probable space group: P M M N
;
_chemical_formula_sum "Si O2"
_cell_formula_units_Z 40
_cell_length_a 18.716131
_cell_length_b 18.828224
_cell_length_c 5.054782
_cell_angle_alpha 90.000000
_cell_angle_beta 90.000000
_cell_angle_gamma 90.000000
_cell_volume 1781.262246
_symmetry_space_group_name_H-M "P M M N"
_symmetry_group_IT_number 59
_space_group.IT_coordinate_system_code '2'
_symmetry_cell_setting 'orthorhombic'
loop_
_space_group_symop_operation_xyz
x,y,z
1/2-x,1/2-y,z
1/2+x,-y,-z
-x,1/2+y,-z
-x,-y,-z
1/2+x,1/2+y,-z
1/2-x,y,z
x,1/2-y,z
loop_
_atom_site_type_symbol
_atom_site_label
_atom_site_fract_x
_atom_site_fract_y
_atom_site_fract_z
Si Si1 0.663851 0.169112 0.636339
Si Si2 0.459774 0.407663 0.252538
Si Si3 0.592730 0.833190 0.267687
Si Si4 0.672169 0.541487 0.482658
Si Si5 0.618596 0.417560 0.141405
O O1 0.750000 0.166460 0.628034
O O2 0.642170 0.250000 0.698752
O O3 0.634804 0.144729 0.353223
O O4 0.637946 0.114427 0.859136
O O5 0.465701 0.361191 0.520447
O O6 0.396310 0.462829 0.322449
O O7 0.535505 0.438168 0.170707
O O8 0.431498 0.357234 0.020779
O O9 0.603828 0.750000 0.286100
O O10 0.660615 0.880494 0.355846
O O11 0.750000 0.534388 0.607260
O O12 0.663094 0.483772 0.252980
#
# Coordination Sequence:
#
# PCOD9452923 Si02
#       5
#     8   8   8   8   8
#     4  11  25  43  65  98 136 174 217 266 328 398
#     4  10  24  41  67  95 131 165 223 271 325 387
#     4  10  23  42  65  93 132 172 220 273 326 385
#     4  10  25  44  67  97 133 177 223 270 330 391
#     4  12  24  42  71  98 133 172 218 275 327 390
#
# _framework density 22.455984000000001
#
# number of rings (size 3 to 8) (size 9 to 14) (size 15 to 20)
#    1.200    0.200    0.000    4.800    2.800    8.400 
#    0.000    0.000    0.000    0.000    0.000    0.000 
#    0.000    0.000    0.000    0.000    0.000    0.000 
#
# Total GULP energy -223599.953441 kJ/mol
# GULP energy per Si atom -5589.998836 kJ/mol
# Density = 2.240487 g / cm^3
# Si number density = 22.455984 Si / 1000 Ang^3
#
#
#
# Elastic Constant Matrix: (Units=GPa)
#
#
# Indices 1 2 3 4 5 6 
#
# 1 109.0939 23.0733 -16.1876 0.0000 0.0000 0.0000
# 2 23.0733 105.0442 14.9623 0.0000 0.0000 0.0000
# 3 -16.1876 14.9623 66.0524 0.0000 0.0000 0.0000
# 4 0.0000 0.0000 0.0000 32.0954 0.0000 0.0000
# 5 0.0000 0.0000 0.0000 0.0000 18.8219 0.0000
# 6 0.0000 0.0000 0.0000 0.0000 0.0000 21.3489
#
#
#
# Elastic Compliance Matrix: (Units=1/GPa)
#
#
# Indices 1 2 3 4 5 6 
#
# 1 0.010194 -0.002682 0.003106 0.000000 0.000000 0.000000
# 2 -0.002682 0.010543 -0.003045 0.000000 0.000000 0.000000
# 3 0.003106 -0.003045 0.016590 0.000000 0.000000 0.000000
# 4 0.000000 0.000000 0.000000 0.031157 0.000000 0.000000
# 5 0.000000 0.000000 0.000000 0.000000 0.053129 0.000000
# 6 0.000000 0.000000 0.000000 0.000000 0.000000 0.046841
#
#
# Mechanical properties :
#
#
# Convention : Reuss Voigt Hill
#
# Bulk Modulus (GPa) = 31.16695 35.98737 33.57716
# Shear Modulus (GPa) = 27.11611 31.67608 29.39609
#
# Velocity S-wave (km/s) = 3.47871 3.75985 3.62201
# Velocity P-wave (km/s) = 5.48129 5.90840 5.69885
#
# Compressibility (1/GPa) = 0.03208527
#
# Stress axis : x y z
#
# Youngs Moduli (GPa) = 98.09279 94.85328 60.27553
#
# Poissons Ratio (x) = 0.25436 -0.18721
# Poissons Ratio (y) = 0.26305 0.18356
# Poissons Ratio (z) = -0.30466 0.28886
#
# Static dielectric constant tensor:
#      x y z
#    x 1.849630 0.000000 0.000000 
#    y 0.000000 1.806110 0.000000 
#    z 0.000000 0.000000 1.818070 
# 
# From -- ./inp_files/3268.got.cif
#   From: 2010.05.17/outbox.cif.g08.bks.cpg/sg59_2_cif.got.tgz:3268.got - 2010.06.03 14:40:33.
