data_PCOD9452918
_publ_section_title
;
Structure prediction by ZEFSAII (Michael W. Deem and Ramdas Pophale) SiO2 
 PCOD9452918
Probable space group: P M M N
;
_chemical_formula_sum "Si O2"
_cell_formula_units_Z 48
_cell_length_a 29.025440
_cell_length_b 7.389878
_cell_length_c 10.771967
_cell_angle_alpha 90.000000
_cell_angle_beta 90.000000
_cell_angle_gamma 90.000000
_cell_volume 2310.527250
_symmetry_space_group_name_H-M "P M M N"
_symmetry_group_IT_number 59
_space_group.IT_coordinate_system_code '2'
_symmetry_cell_setting 'orthorhombic'
loop_
_space_group_symop_operation_xyz
x,y,z
1/2-x,1/2-y,z
1/2+x,-y,-z
-x,1/2+y,-z
-x,-y,-z
1/2+x,1/2+y,-z
1/2-x,y,z
x,1/2-y,z
loop_
_atom_site_type_symbol
_atom_site_label
_atom_site_fract_x
_atom_site_fract_y
_atom_site_fract_z
Si Si1 0.305017 0.250000 0.233215
Si Si2 0.389502 0.531307 0.880351
Si Si3 0.194274 0.250000 0.520567
Si Si4 0.052023 0.537700 0.650056
Si Si5 0.875891 0.031550 0.844874
Si Si6 0.555346 0.031593 0.625160
Si Si7 0.803566 0.464621 0.277081
O O1 0.250000 0.250000 0.223560
O O2 0.319548 0.250000 0.378462
O O3 0.328175 0.426638 0.173254
O O4 0.393403 0.750000 0.882432
O O5 0.423392 0.462527 0.772472
O O6 0.337919 0.487650 0.834032
O O7 0.396694 0.475451 0.021853
O O8 0.250000 0.250000 0.517336
O O9 0.181133 0.424870 0.601444
O O10 0.064165 0.750000 0.646893
O O11 0.065708 0.463108 0.514338
O O12 0.996931 0.521342 0.657379
O O13 0.870037 0.250000 0.842866
O O14 0.909446 0.977783 0.732165
O O15 0.556077 0.250000 0.620316
O O16 0.750000 0.506734 0.250638
O O17 0.807137 0.250000 0.299899
#
# Coordination Sequence:
#
# PCOD9452918 Si02
#       7
#     4   8   4   8   8   8   8
#     4  11  26  43  61  93 125 159 211 255 304 378
#     4   9  19  36  57  87 118 155 207 248 299 363
#     4   9  20  37  55  85 117 147 195 247 299 354
#     4   9  18  34  58  85 118 157 201 256 302 361
#     4  10  23  42  63  87 123 165 202 252 307 364
#     4   9  19  36  56  87 121 156 204 246 305 369
#     4   9  18  34  57  83 115 152 193 245 299 354
#
# _framework density 20.774477999999998
#
# number of rings (size 3 to 8) (size 9 to 14) (size 15 to 20)
#    0.000    2.667    0.000    0.000    3.500    3.000 
#    3.000    4.167    0.000    0.000    0.000    0.000 
#    0.000    0.000    0.000    0.000    0.000    0.000 
#
# Total GULP energy -267886.961712 kJ/mol
# GULP energy per Si atom -5580.978369 kJ/mol
# Density = 2.072719 g / cm^3
# Si number density = 20.774478 Si / 1000 Ang^3
#
#
#
# Elastic Constant Matrix: (Units=GPa)
#
#
# Indices 1 2 3 4 5 6 
#
# 1 99.2208 15.7384 86.2095 0.0000 0.0000 0.0000
# 2 15.7384 73.6006 34.3894 0.0000 0.0000 0.0000
# 3 86.2095 34.3894 178.3992 0.0000 0.0000 0.0000
# 4 0.0000 0.0000 0.0000 -12.2231 0.0000 0.0000
# 5 0.0000 0.0000 0.0000 0.0000 22.7410 0.0000
# 6 0.0000 0.0000 0.0000 0.0000 0.0000 19.5751
#
#
#
# Elastic Compliance Matrix: (Units=1/GPa)
#
#
# Indices 1 2 3 4 5 6 
#
# 1 0.017376 0.000228 -0.008441 0.000000 0.000000 0.000000
# 2 0.000228 0.014935 -0.002989 0.000000 0.000000 0.000000
# 3 -0.008441 -0.002989 0.010261 0.000000 0.000000 0.000000
# 4 0.000000 0.000000 0.000000 -0.081812 0.000000 0.000000
# 5 0.000000 0.000000 0.000000 0.000000 0.043973 0.000000
# 6 0.000000 0.000000 0.000000 0.000000 0.000000 0.051085
#
#
# Mechanical properties :
#
#
# Convention : Reuss Voigt Hill
#
# Bulk Modulus (GPa) = 49.58360 69.32168 59.45264
# Shear Modulus (GPa) = 58.86180 20.34416 39.60298
#
# Velocity S-wave (km/s) = 5.32872 3.13275 4.37089
# Velocity P-wave (km/s) = 7.86000 6.82104 7.35888
#
# Compressibility (1/GPa) = 0.02016796
#
# Stress axis : x y z
#
# Youngs Moduli (GPa) = 57.54944 66.95800 97.45994
#
# Poissons Ratio (x) = -0.01529 0.82265
# Poissons Ratio (y) = -0.01314 0.29133
# Poissons Ratio (z) = 0.48577 0.20015
#
# Static dielectric constant tensor:
#      x y z
#    x 1.714880 0.000000 0.000000 
#    y 0.000000 1.751480 0.000000 
#    z 0.000000 0.000000 1.747540 
# 
# From -- ./inp_files/12987.got.cif
#   From: 2010.05.17/outbox.cif.g08.bks.cpg/sg59_7_cif.got.tgz:12987.got - 2010.06.03 14:40:33.
