data_PCOD9452784
_publ_section_title
;
Structure prediction by ZEFSAII (Michael W. Deem and Ramdas Pophale) SiO2 
 PCOD9452784
Probable space group: P M M N
;
_chemical_formula_sum "Si O2"
_cell_formula_units_Z 32
_cell_length_a 20.433413
_cell_length_b 13.879679
_cell_length_c 5.065481
_cell_angle_alpha 90.000000
_cell_angle_beta 90.000000
_cell_angle_gamma 90.000000
_cell_volume 1436.617081
_symmetry_space_group_name_H-M "P M M N"
_symmetry_group_IT_number 59
_space_group.IT_coordinate_system_code '2'
_symmetry_cell_setting 'orthorhombic'
loop_
_space_group_symop_operation_xyz
x,y,z
1/2-x,1/2-y,z
1/2+x,-y,-z
-x,1/2+y,-z
-x,-y,-z
1/2+x,1/2+y,-z
1/2-x,y,z
x,1/2-y,z
loop_
_atom_site_type_symbol
_atom_site_label
_atom_site_fract_x
_atom_site_fract_y
_atom_site_fract_z
Si Si1 0.947608 0.858795 0.853454
Si Si2 0.678647 0.858520 0.229636
Si Si3 0.882741 0.014853 0.552036
Si Si4 0.907507 0.137484 0.033378
O O1 0.950052 0.750000 0.742324
O O2 0.940368 0.940711 0.634680
O O3 0.883003 0.867932 0.034027
O O4 0.014250 0.870775 0.017305
O O5 0.750000 0.866936 0.098431
O O6 0.674885 0.750000 0.343263
O O7 0.671540 0.940623 0.448232
O O8 0.869726 0.078722 0.809518
O O9 0.897510 0.087199 0.314416
O O10 0.890480 0.250000 0.037599
#
# Coordination Sequence:
#
# PCOD9452784 Si02
#       4
#     8   8   8   8
#     4  10  22  39  64  98 133 169 207 259 323 390
#     4  10  23  42  65  96 131 167 209 257 314 386
#     4  12  22  42  65  94 129 167 212 259 322 378
#     4  11  25  40  64  96 130 166 215 266 317 373
#
# _framework density 22.274552
#
# number of rings (size 3 to 8) (size 9 to 14) (size 15 to 20)
#    0.000    1.250    2.500    3.000    3.500    1.000 
#    0.000    2.500    0.000    4.500    0.000    0.000 
#    0.000    0.000    0.000    0.000    0.000    0.000 
#
# Total GULP energy -178842.121826 kJ/mol
# GULP energy per Si atom -5588.816307 kJ/mol
# Density = 2.222385 g / cm^3
# Si number density = 22.274552 Si / 1000 Ang^3
#
#
#
# Elastic Constant Matrix: (Units=GPa)
#
#
# Indices 1 2 3 4 5 6 
#
# 1 43.5542 9.6975 -1.7097 0.0000 0.0000 0.0000
# 2 9.6975 194.7810 65.1229 0.0000 0.0000 0.0000
# 3 -1.7097 65.1229 94.7529 0.0000 0.0000 0.0000
# 4 0.0000 0.0000 0.0000 27.8640 0.0000 0.0000
# 5 0.0000 0.0000 0.0000 0.0000 16.7144 0.0000
# 6 0.0000 0.0000 0.0000 0.0000 0.0000 7.4571
#
#
#
# Elastic Compliance Matrix: (Units=1/GPa)
#
#
# Indices 1 2 3 4 5 6 
#
# 1 0.023400 -0.001696 0.001588 0.000000 0.000000 0.000000
# 2 -0.001696 0.006789 -0.004696 0.000000 0.000000 0.000000
# 3 0.001588 -0.004696 0.013810 0.000000 0.000000 0.000000
# 4 0.000000 0.000000 0.000000 0.035889 0.000000 0.000000
# 5 0.000000 0.000000 0.000000 0.000000 0.059829 0.000000
# 6 0.000000 0.000000 0.000000 0.000000 0.000000 0.134100
#
#
# Mechanical properties :
#
#
# Convention : Reuss Voigt Hill
#
# Bulk Modulus (GPa) = 29.07843 53.25659 41.16751
# Shear Modulus (GPa) = 16.95558 27.73893 22.34726
#
# Velocity S-wave (km/s) = 2.76199 3.53274 3.17087
# Velocity P-wave (km/s) = 4.82228 6.37192 5.65048
#
# Compressibility (1/GPa) = 0.03438975
#
# Stress axis : x y z
#
# Youngs Moduli (GPa) = 42.73535 147.30653 72.41041
#
# Poissons Ratio (x) = 0.24981 -0.11497
# Poissons Ratio (y) = 0.07247 0.34006
# Poissons Ratio (z) = -0.06785 0.69180
#
# Static dielectric constant tensor:
#      x y z
#    x 1.832700 0.000000 0.000000 
#    y 0.000000 1.827080 0.000000 
#    z 0.000000 0.000000 1.846200 
# 
# From -- ./inp_files/2489.got.cif
#   From: 2010.05.17/outbox.cif.g08.bks.cpg/sg59_2_cif.got.tgz:2489.got - 2010.06.03 14:40:33.
