data_PCOD9452265
_publ_section_title
;
Structure prediction by ZEFSAII (Michael W. Deem and Ramdas Pophale) SiO2 
 PCOD9452265
Probable space group: P M M N
;
_chemical_formula_sum "Si O2"
_cell_formula_units_Z 48
_cell_length_a 8.669491
_cell_length_b 19.666482
_cell_length_c 15.447638
_cell_angle_alpha 90.000000
_cell_angle_beta 90.000000
_cell_angle_gamma 90.000000
_cell_volume 2633.797388
_symmetry_space_group_name_H-M "P M M N"
_symmetry_group_IT_number 59
_space_group.IT_coordinate_system_code '2'
_symmetry_cell_setting 'orthorhombic'
loop_
_space_group_symop_operation_xyz
x,y,z
1/2-x,1/2-y,z
1/2+x,-y,-z
-x,1/2+y,-z
-x,-y,-z
1/2+x,1/2+y,-z
1/2-x,y,z
x,1/2-y,z
loop_
_atom_site_type_symbol
_atom_site_label
_atom_site_fract_x
_atom_site_fract_y
_atom_site_fract_z
Si Si1 0.434248 0.591878 0.767970
Si Si2 0.437852 0.327542 0.872678
Si Si3 0.436642 0.063883 0.729782
Si Si4 0.564341 0.829685 0.929682
Si Si5 0.433796 0.570315 0.461539
Si Si6 0.065245 0.170787 0.397014
O O1 0.250000 0.596702 0.759263
O O2 0.477952 0.512789 0.757709
O O3 0.486293 0.622943 0.859051
O O4 0.511073 0.634566 0.690883
O O5 0.250000 0.327423 0.872422
O O6 0.486991 0.250000 0.853727
O O7 0.488468 0.381666 0.801502
O O8 0.483233 0.344748 0.971292
O O9 0.250000 0.067147 0.723481
O O10 0.506228 0.078455 0.635941
O O11 0.750000 0.836852 0.923845
O O12 0.528971 0.750000 0.912783
O O13 0.500000 0.500000 0.500000
O O14 0.750000 0.433128 0.537002
O O15 0.491513 0.630739 0.522985
O O16 0.250000 0.166183 0.403142
O O17 0.021220 0.250000 0.396226
#
# Coordination Sequence:
#
# PCOD9452265 Si02
#       6
#     8   8   8   8   8   8
#     4  11  22  34  53  83 119 154 188 236 292 346
#     4   8  16  34  59  83 109 147 195 241 284 337
#     4  10  21  37  58  85 115 150 192 238 289 348
#     4   9  18  34  56  80 109 149 195 241 286 337
#     4  12  24  40  62  86 116 154 193 237 290 349
#     4  11  24  41  62  87 115 151 196 242 288 345
#
# _framework density 18.224634999999999
#
# number of rings (size 3 to 8) (size 9 to 14) (size 15 to 20)
#    0.000    1.833    1.667    4.000    0.000    5.667 
#    0.000    2.500    0.000    1.000    0.000    0.000 
#    0.000    0.000    0.000    0.000    0.000    0.000 
#
# Total GULP energy -268141.708931 kJ/mol
# GULP energy per Si atom -5586.285603 kJ/mol
# Density = 1.818315 g / cm^3
# Si number density = 18.224635 Si / 1000 Ang^3
#
#
#
# Elastic Constant Matrix: (Units=GPa)
#
#
# Indices 1 2 3 4 5 6 
#
# 1 41.6454 53.1932 45.0485 0.0000 0.0000 0.0000
# 2 53.1932 160.1748 120.9402 0.0000 0.0000 0.0000
# 3 45.0485 120.9402 178.9975 0.0000 0.0000 0.0000
# 4 0.0000 0.0000 0.0000 37.6475 0.0000 0.0000
# 5 0.0000 0.0000 0.0000 0.0000 27.5209 0.0000
# 6 0.0000 0.0000 0.0000 0.0000 0.0000 24.1384
#
#
#
# Elastic Compliance Matrix: (Units=1/GPa)
#
#
# Indices 1 2 3 4 5 6 
#
# 1 0.042180 -0.012233 -0.002350 0.000000 0.000000 0.000000
# 2 -0.012233 0.016293 -0.007930 0.000000 0.000000 0.000000
# 3 -0.002350 -0.007930 0.011536 0.000000 0.000000 0.000000
# 4 0.000000 0.000000 0.000000 0.026562 0.000000 0.000000
# 5 0.000000 0.000000 0.000000 0.000000 0.036336 0.000000
# 6 0.000000 0.000000 0.000000 0.000000 0.000000 0.041428
#
#
# Mechanical properties :
#
#
# Convention : Reuss Voigt Hill
#
# Bulk Modulus (GPa) = 40.02772 91.02017 65.52395
# Shear Modulus (GPa) = 21.95984 28.63709 25.29847
#
# Velocity S-wave (km/s) = 3.47501 3.96831 3.72983
# Velocity P-wave (km/s) = 6.17350 8.42903 7.38785
#
# Compressibility (1/GPa) = 0.02498269
#
# Stress axis : x y z
#
# Youngs Moduli (GPa) = 23.70808 61.37534 86.68638
#
# Poissons Ratio (x) = 0.75083 0.20370
# Poissons Ratio (y) = 0.29003 0.68740
# Poissons Ratio (z) = 0.05571 0.48669
#
# Static dielectric constant tensor:
#      x y z
#    x 1.619830 0.000000 0.000000 
#    y 0.000000 1.609690 0.000000 
#    z 0.000000 0.000000 1.598250 
# 
# From -- ./inp_files/20447.got.cif
#   From: 2010.05.17/outbox.cif.g08.bks.cpg/sg59_11_cif.got.tgz:20447.got - 2010.06.03 14:40:33.
