data_PCOD9452099
_publ_section_title
;
Structure prediction by ZEFSAII (Michael W. Deem and Ramdas Pophale) SiO2 
 PCOD9452099
Probable space group: P M M N
;
_chemical_formula_sum "Si O2"
_cell_formula_units_Z 48
_cell_length_a 14.286322
_cell_length_b 7.822491
_cell_length_c 21.632549
_cell_angle_alpha 90.000000
_cell_angle_beta 90.000000
_cell_angle_gamma 90.000000
_cell_volume 2417.537407
_symmetry_space_group_name_H-M "P M M N"
_symmetry_group_IT_number 59
_space_group.IT_coordinate_system_code '2'
_symmetry_cell_setting 'orthorhombic'
loop_
_space_group_symop_operation_xyz
x,y,z
1/2-x,1/2-y,z
1/2+x,-y,-z
-x,1/2+y,-z
-x,-y,-z
1/2+x,1/2+y,-z
1/2-x,y,z
x,1/2-y,z
loop_
_atom_site_type_symbol
_atom_site_label
_atom_site_fract_x
_atom_site_fract_y
_atom_site_fract_z
Si Si1 0.041399 0.044001 0.094124
Si Si2 0.142754 0.543361 0.602147
Si Si3 0.860283 0.043139 0.535311
Si Si4 0.644247 0.544304 0.030601
Si Si5 0.356069 0.046421 0.216460
Si Si6 0.041728 0.548590 0.341614
O O1 0.047127 0.250000 0.094075
O O2 0.085701 0.978708 0.157821
O O3 0.101546 0.981916 0.034927
O O4 0.933381 0.999443 0.081708
O O5 0.250000 0.488978 0.612391
O O6 0.142409 0.750000 0.601074
O O7 0.112579 0.481146 0.533283
O O8 0.068581 0.483354 0.652257
O O9 0.750000 0.008161 0.542548
O O10 0.870983 0.250000 0.534199
O O11 0.914041 0.974797 0.594930
O O12 0.750000 0.481234 0.040843
O O13 0.648480 0.750000 0.027046
O O14 0.250000 0.977144 0.219210
O O15 0.348538 0.250000 0.207330
O O16 0.410110 0.020321 0.280418
O O17 0.059719 0.750000 0.341639
#
# Coordination Sequence:
#
# PCOD9452099 Si02
#       6
#     8   8   8   8   8   8
#     4   9  18  33  53  77 104 135 171 208 246 290
#     4   9  18  34  54  72  94 129 171 211 252 302
#     4   8  15  29  49  73 100 129 161 201 252 305
#     4   9  17  31  53  80 108 135 164 203 251 297
#     4  10  21  37  55  74 100 136 174 207 242 293
#     4  11  21  32  50  76 105 133 163 206 257 304
#
# _framework density 19.854915999999999
#
# number of rings (size 3 to 8) (size 9 to 14) (size 15 to 20)
#    0.000    2.667    0.000    3.000    0.000    4.333 
#    0.000    1.667    0.000    6.000    0.000    0.000 
#    0.000    0.000    0.000    0.000    0.000    0.000 
#
# Total GULP energy -267794.371701 kJ/mol
# GULP energy per Si atom -5579.049410 kJ/mol
# Density = 1.980973 g / cm^3
# Si number density = 19.854916 Si / 1000 Ang^3
#
#
#
# Elastic Constant Matrix: (Units=GPa)
#
#
# Indices 1 2 3 4 5 6 
#
# 1 165.0900 2.7969 104.9347 0.0000 0.0000 0.0000
# 2 2.7969 23.9401 3.3675 0.0000 0.0000 0.0000
# 3 104.9347 3.3675 120.0665 0.0000 0.0000 0.0000
# 4 0.0000 0.0000 0.0000 15.8556 0.0000 0.0000
# 5 0.0000 0.0000 0.0000 0.0000 25.6643 0.0000
# 6 0.0000 0.0000 0.0000 0.0000 0.0000 18.2927
#
#
#
# Elastic Compliance Matrix: (Units=1/GPa)
#
#
# Indices 1 2 3 4 5 6 
#
# 1 0.013628 0.000084 -0.011913 0.000000 0.000000 0.000000
# 2 0.000084 0.041937 -0.001249 0.000000 0.000000 0.000000
# 3 -0.011913 -0.001249 0.018775 0.000000 0.000000 0.000000
# 4 0.000000 0.000000 0.000000 0.063069 0.000000 0.000000
# 5 0.000000 0.000000 0.000000 0.000000 0.038965 0.000000
# 6 0.000000 0.000000 0.000000 0.000000 0.000000 0.054667
#
#
# Mechanical properties :
#
#
# Convention : Reuss Voigt Hill
#
# Bulk Modulus (GPa) = 20.75413 59.03274 39.89344
# Shear Modulus (GPa) = 18.29773 25.16236 21.73005
#
# Velocity S-wave (km/s) = 3.03903 3.56379 3.31182
# Velocity P-wave (km/s) = 4.77388 6.83599 5.89579
#
# Compressibility (1/GPa) = 0.04818317
#
# Stress axis : x y z
#
# Youngs Moduli (GPa) = 73.37910 23.84531 53.26196
#
# Poissons Ratio (x) = -0.00199 0.63449
# Poissons Ratio (y) = -0.00613 0.06654
# Poissons Ratio (z) = 0.87414 0.02979
#
# Static dielectric constant tensor:
#      x y z
#    x 1.704650 0.000000 0.000000 
#    y 0.000000 1.729040 0.000000 
#    z 0.000000 0.000000 1.689830 
# 
# From -- ./inp_files/25469.got.cif
#   From: 2010.05.17/outbox.cif.g08.bks.cpg/sg59_13_cif.got.tgz:25469.got - 2010.06.03 14:40:33.
