data_PCOD9452121
_publ_section_title
;
Structure prediction by ZEFSAII (Michael W. Deem and Ramdas Pophale) SiO2 
 PCOD9452121
Probable space group: P M M N
;
_chemical_formula_sum "Si O2"
_cell_formula_units_Z 48
_cell_length_a 9.137793
_cell_length_b 13.645575
_cell_length_c 18.801698
_cell_angle_alpha 90.000000
_cell_angle_beta 90.000000
_cell_angle_gamma 90.000000
_cell_volume 2344.391991
_symmetry_space_group_name_H-M "P M M N"
_symmetry_group_IT_number 59
_space_group.IT_coordinate_system_code '2'
_symmetry_cell_setting 'orthorhombic'
loop_
_space_group_symop_operation_xyz
x,y,z
1/2-x,1/2-y,z
1/2+x,-y,-z
-x,1/2+y,-z
-x,-y,-z
1/2+x,1/2+y,-z
1/2-x,y,z
x,1/2-y,z
loop_
_atom_site_type_symbol
_atom_site_label
_atom_site_fract_x
_atom_site_fract_y
_atom_site_fract_z
Si Si1 0.417584 0.369520 0.471153
Si Si2 0.424493 0.935444 0.103823
Si Si3 0.915926 0.367789 0.612650
Si Si4 0.422942 0.443948 0.750902
Si Si5 0.076709 0.862573 0.675266
Si Si6 0.575245 0.641607 0.964128
O O1 0.250000 0.402141 0.478304
O O2 0.416722 0.250000 0.473261
O O3 0.514433 0.401733 0.538175
O O4 0.486697 0.392880 0.394664
O O5 0.250000 0.923876 0.105755
O O6 0.494867 0.908863 0.178931
O O7 0.492316 0.875629 0.038334
O O8 0.460403 0.049644 0.086096
O O9 0.750000 0.404122 0.622079
O O10 0.910034 0.250000 0.609087
O O11 0.014872 0.395237 0.679645
O O12 0.250000 0.427251 0.757285
O O13 0.449634 0.559986 0.737541
O O14 0.250000 0.866961 0.657638
O O15 0.040952 0.750000 0.693350
O O16 0.750000 0.636858 0.977207
O O17 0.540600 0.750000 0.935656
#
# Coordination Sequence:
#
# PCOD9452121 Si02
#       6
#     8   8   8   8   8   8
#     4   9  17  31  53  79 105 136 179 230 278 324
#     4  10  21  37  57  84 116 144 176 220 264 313
#     4  10  21  37  56  77 104 141 184 230 278 325
#     4  11  23  37  55  80 111 147 182 220 269 321
#     4   9  19  36  55  76 105 142 184 227 271 321
#     4   9  19  38  63  87 111 143 180 216 259 312
#
# _framework density 20.474392000000002
#
# number of rings (size 3 to 8) (size 9 to 14) (size 15 to 20)
#    0.000    2.333    0.000    2.000    0.000    7.333 
#    0.000    0.000    0.000    0.000    0.000    0.000 
#    0.000    0.000    0.000    0.000    0.000    0.000 
#
# Total GULP energy -268203.353100 kJ/mol
# GULP energy per Si atom -5587.569856 kJ/mol
# Density = 2.042779 g / cm^3
# Si number density = 20.474392 Si / 1000 Ang^3
#
#
#
# Elastic Constant Matrix: (Units=GPa)
#
#
# Indices 1 2 3 4 5 6 
#
# 1 34.9152 0.3511 15.6610 0.0000 0.0000 0.0000
# 2 0.3511 46.2574 -19.4451 0.0000 0.0000 0.0000
# 3 15.6610 -19.4451 66.6040 0.0000 0.0000 0.0000
# 4 0.0000 0.0000 0.0000 8.6006 0.0000 0.0000
# 5 0.0000 0.0000 0.0000 0.0000 29.7225 0.0000
# 6 0.0000 0.0000 0.0000 0.0000 0.0000 23.5356
#
#
#
# Elastic Compliance Matrix: (Units=1/GPa)
#
#
# Indices 1 2 3 4 5 6 
#
# 1 0.032642 -0.003960 -0.008832 0.000000 0.000000 0.000000
# 2 -0.003960 0.025123 0.008266 0.000000 0.000000 0.000000
# 3 -0.008832 0.008266 0.019504 0.000000 0.000000 0.000000
# 4 0.000000 0.000000 0.000000 0.116271 0.000000 0.000000
# 5 0.000000 0.000000 0.000000 0.000000 0.033645 0.000000
# 6 0.000000 0.000000 0.000000 0.000000 0.000000 0.042489
#
#
# Mechanical properties :
#
#
# Convention : Reuss Voigt Hill
#
# Bulk Modulus (GPa) = 14.65908 15.65673 15.15790
# Shear Modulus (GPa) = 16.58573 22.45238 19.51906
#
# Velocity S-wave (km/s) = 2.84926 3.31510 3.09097
# Velocity P-wave (km/s) = 4.24260 4.72406 4.48979
#
# Compressibility (1/GPa) = 0.06821711
#
# Stress axis : x y z
#
# Youngs Moduli (GPa) = 30.63536 39.80424 51.27162
#
# Poissons Ratio (x) = 0.15764 0.45281
# Poissons Ratio (y) = 0.12132 -0.42380
# Poissons Ratio (z) = 0.27056 -0.32902
#
# Static dielectric constant tensor:
#      x y z
#    x 1.691320 0.000000 0.000000 
#    y 0.000000 1.802050 0.000000 
#    z 0.000000 0.000000 1.656870 
# 
# From -- ./inp_files/25407.got.cif
#   From: 2010.05.17/outbox.cif.g08.bks.cpg/sg59_13_cif.got.tgz:25407.got - 2010.06.03 14:40:33.
