data_PCOD9452180
_publ_section_title
;
Structure prediction by ZEFSAII (Michael W. Deem and Ramdas Pophale) SiO2 
 PCOD9452180
Probable space group: P M M N
;
_chemical_formula_sum "Si O2"
_cell_formula_units_Z 56
_cell_length_a 7.938535
_cell_length_b 15.867874
_cell_length_c 21.928500
_cell_angle_alpha 90.000000
_cell_angle_beta 90.000000
_cell_angle_gamma 90.000000
_cell_volume 2762.282120
_symmetry_space_group_name_H-M "P M M N"
_symmetry_group_IT_number 59
_space_group.IT_coordinate_system_code '2'
_symmetry_cell_setting 'orthorhombic'
loop_
_space_group_symop_operation_xyz
x,y,z
1/2-x,1/2-y,z
1/2+x,-y,-z
-x,1/2+y,-z
-x,-y,-z
1/2+x,1/2+y,-z
1/2-x,y,z
x,1/2-y,z
loop_
_atom_site_type_symbol
_atom_site_label
_atom_site_fract_x
_atom_site_fract_y
_atom_site_fract_z
Si Si1 0.946432 0.843486 0.359910
Si Si2 0.047240 0.845073 0.073989
Si Si3 0.953906 0.656590 0.621480
Si Si4 0.046824 0.345446 0.065183
Si Si5 0.042856 0.003531 0.152401
Si Si6 0.050981 0.009133 0.290750
Si Si7 0.053175 0.596660 0.489806
O O1 0.750000 0.843435 0.343674
O O2 0.016864 0.750000 0.348191
O O3 0.029300 0.919076 0.322727
O O4 0.961559 0.863896 0.431722
O O5 0.250000 0.842774 0.078391
O O6 0.983841 0.750000 0.086497
O O7 0.986861 0.917507 0.119482
O O8 0.002956 0.866439 0.004144
O O9 0.750000 0.651268 0.618668
O O10 0.999177 0.750000 0.643679
O O11 0.018546 0.582115 0.665050
O O12 0.017757 0.643535 0.552934
O O13 0.250000 0.344152 0.067809
O O14 0.986473 0.250000 0.078231
O O15 0.988568 0.416188 0.112398
O O16 0.250000 0.002756 0.152466
O O17 0.983736 0.009052 0.222050
O O18 0.250000 0.026280 0.285654
O O19 0.250000 0.599025 0.475428
O O20 0.000000 0.500000 0.500000
#
# Coordination Sequence:
#
# PCOD9452180 Si02
#       7
#     8   8   8   8   8   8   8
#     4  11  24  41  60  83 113 147 183 228 280 329
#     4   9  17  30  49  73 102 135 173 220 269 314
#     4  10  21  37  57  83 114 146 182 227 278 329
#     4   9  17  30  50  76 105 135 171 217 265 316
#     4   9  18  32  51  76 104 137 179 219 262 315
#     4  10  21  37  57  80 108 147 189 228 270 327
#     4  12  23  37  61  88 114 144 181 228 280 330
#
# _framework density 20.273091000000001
#
# number of rings (size 3 to 8) (size 9 to 14) (size 15 to 20)
#    0.000    2.000    1.429    2.571    0.000    4.286 
#    0.000    5.714    0.000    1.714    0.000    2.000 
#    0.000    0.000    0.000    0.000    0.000    0.000 
#
# Total GULP energy -312779.383679 kJ/mol
# GULP energy per Si atom -5585.346137 kJ/mol
# Density = 2.022695 g / cm^3
# Si number density = 20.273091 Si / 1000 Ang^3
#
#
#
# Elastic Constant Matrix: (Units=GPa)
#
#
# Indices 1 2 3 4 5 6 
#
# 1 20.0901 -2.2916 -6.5852 0.0000 0.0000 0.0000
# 2 -2.2916 88.0228 32.2454 0.0000 0.0000 0.0000
# 3 -6.5852 32.2454 94.6423 0.0000 0.0000 0.0000
# 4 0.0000 0.0000 0.0000 -2.9087 0.0000 0.0000
# 5 0.0000 0.0000 0.0000 0.0000 78.3503 0.0000
# 6 0.0000 0.0000 0.0000 0.0000 0.0000 15.0539
#
#
#
# Elastic Compliance Matrix: (Units=1/GPa)
#
#
# Indices 1 2 3 4 5 6 
#
# 1 0.050938 0.000032 0.003533 0.000000 0.000000 0.000000
# 2 0.000032 0.012981 -0.004420 0.000000 0.000000 0.000000
# 3 0.003533 -0.004420 0.012318 0.000000 0.000000 0.000000
# 4 0.000000 0.000000 0.000000 -0.343793 0.000000 0.000000
# 5 0.000000 0.000000 0.000000 0.000000 0.012763 0.000000
# 6 0.000000 0.000000 0.000000 0.000000 0.000000 0.066428
#
#
# Mechanical properties :
#
#
# Convention : Reuss Voigt Hill
#
# Bulk Modulus (GPa) = 13.41815 27.72138 20.56976
# Shear Modulus (GPa) = -30.89997 30.05821 -0.42088
#
# Velocity S-wave (km/s) = -3.90832 3.85472 -0.45613
# Velocity P-wave (km/s) = 3.70588 5.78925 3.14499
#
# Compressibility (1/GPa) = 0.07452592
#
# Stress axis : x y z
#
# Youngs Moduli (GPa) = 19.63183 77.03646 81.18176
#
# Poissons Ratio (x) = -0.00244 -0.28685
# Poissons Ratio (y) = -0.00062 0.35886
# Poissons Ratio (z) = -0.06937 0.34054
#
# Static dielectric constant tensor:
#      x y z
#    x 1.729570 0.000000 0.000000 
#    y 0.000000 1.727810 0.000000 
#    z 0.000000 0.000000 1.674430 
# 
# From -- ./inp_files/29050.got.cif
#   From: 2010.05.17/outbox.cif.g08.bks.cpg/sg59_15_cif.got.tgz:29050.got - 2010.06.03 14:40:33.
