data_PCOD9452029
_publ_section_title
;
Structure prediction by ZEFSAII (Michael W. Deem and Ramdas Pophale) SiO2 
 PCOD9452029
Probable space group: P M M N
;
_chemical_formula_sum "Si O2"
_cell_formula_units_Z 64
_cell_length_a 15.054859
_cell_length_b 8.386945
_cell_length_c 24.887735
_cell_angle_alpha 90.000000
_cell_angle_beta 90.000000
_cell_angle_gamma 90.000000
_cell_volume 3142.431802
_symmetry_space_group_name_H-M "P M M N"
_symmetry_group_IT_number 59
_space_group.IT_coordinate_system_code '2'
_symmetry_cell_setting 'orthorhombic'
loop_
_space_group_symop_operation_xyz
x,y,z
1/2-x,1/2-y,z
1/2+x,-y,-z
-x,1/2+y,-z
-x,-y,-z
1/2+x,1/2+y,-z
1/2-x,y,z
x,1/2-y,z
loop_
_atom_site_type_symbol
_atom_site_label
_atom_site_fract_x
_atom_site_fract_y
_atom_site_fract_z
Si Si1 0.853936 0.938106 0.970574
Si Si2 0.153926 0.438056 0.629721
Si Si3 0.852295 0.442892 0.652231
Si Si4 0.034836 0.938408 0.129992
Si Si5 0.654369 0.437089 0.252597
Si Si6 0.515263 0.058540 0.560162
Si Si7 0.851079 0.438935 0.089904
Si Si8 0.043229 0.059383 0.242259
O O1 0.750000 0.961058 0.956590
O O2 0.869461 0.750000 0.979049
O O3 0.915381 0.999938 0.923058
O O4 0.869179 0.025669 0.027117
O O5 0.250000 0.452973 0.602412
O O6 0.143500 0.250000 0.644865
O O7 0.155615 0.541889 0.683175
O O8 0.073076 0.484812 0.592887
O O9 0.750000 0.497167 0.653788
O O10 0.852801 0.250000 0.651505
O O11 0.903227 0.498015 0.597957
O O12 0.904735 0.494216 0.706083
O O13 0.042648 0.750000 0.133518
O O14 0.078206 0.014674 0.183341
O O15 0.931192 0.985405 0.123047
O O16 0.750000 0.503803 0.233110
O O17 0.653606 0.250000 0.237708
O O18 0.558057 0.506657 0.239642
O O19 0.521626 0.250000 0.557956
O O20 0.500000 0.000000 0.500000
O O21 0.750000 0.496428 0.100996
O O22 0.852783 0.250000 0.099263
O O23 0.039846 0.250000 0.247796
#
# Coordination Sequence:
#
# PCOD9452029 Si02
#       8
#     8   8   8   8   8   8   8   8
#     4  10  21  39  63  89 119 156 202 255 308 364
#     4   9  17  31  53  79 107 139 176 222 274 330
#     4  10  22  42  64  85 115 157 201 244 294 351
#     4  12  25  39  59  87 122 161 204 252 302 360
#     4   9  18  33  55  82 109 139 176 221 277 340
#     4  10  21  36  56  84 117 150 189 235 287 346
#     4  10  21  39  63  90 123 162 202 248 304 363
#     4  11  23  39  60  86 117 153 197 246 297 353
#
# _framework density 20.366392999999999
#
# number of rings (size 3 to 8) (size 9 to 14) (size 15 to 20)
#    0.000    1.875    1.250    2.625    0.000    4.750 
#    0.000    1.250    0.000    0.000    0.000    0.000 
#    0.000    0.000    0.000    0.000    0.000    0.000 
#
# Total GULP energy -357197.600474 kJ/mol
# GULP energy per Si atom -5581.212507 kJ/mol
# Density = 2.032004 g / cm^3
# Si number density = 20.366393 Si / 1000 Ang^3
#
#
#
# Elastic Constant Matrix: (Units=GPa)
#
#
# Indices 1 2 3 4 5 6 
#
# 1 116.6909 21.1699 67.1928 0.0000 0.0000 0.0000
# 2 21.1699 23.1318 10.6376 0.0000 0.0000 0.0000
# 3 67.1928 10.6376 139.9368 0.0000 0.0000 0.0000
# 4 0.0000 0.0000 0.0000 24.5331 0.0000 0.0000
# 5 0.0000 0.0000 0.0000 0.0000 -2.7975 0.0000
# 6 0.0000 0.0000 0.0000 0.0000 0.0000 23.3896
#
#
#
# Elastic Compliance Matrix: (Units=1/GPa)
#
#
# Indices 1 2 3 4 5 6 
#
# 1 0.013723 -0.009874 -0.005839 0.000000 0.000000 0.000000
# 2 -0.009874 0.051901 0.000796 0.000000 0.000000 0.000000
# 3 -0.005839 0.000796 0.009889 0.000000 0.000000 0.000000
# 4 0.000000 0.000000 0.000000 0.040761 0.000000 0.000000
# 5 0.000000 0.000000 0.000000 0.000000 -0.357463 0.000000
# 6 0.000000 0.000000 0.000000 0.000000 0.000000 0.042754
#
#
# Mechanical properties :
#
#
# Convention : Reuss Voigt Hill
#
# Bulk Modulus (GPa) = 21.89176 53.08447 37.48811
# Shear Modulus (GPa) = -32.59996 21.07566 -5.76215
#
# Velocity S-wave (km/s) = -4.00518 3.22036 -1.68386
# Velocity P-wave (km/s) = 3.25828 6.32052 3.82966
#
# Compressibility (1/GPa) = 0.04567930
#
# Stress axis : x y z
#
# Youngs Moduli (GPa) = 72.87010 19.26742 101.12094
#
# Poissons Ratio (x) = 0.19025 0.59042
# Poissons Ratio (y) = 0.71952 -0.08047
# Poissons Ratio (z) = 0.42547 -0.01533
#
# Static dielectric constant tensor:
#      x y z
#    x 1.770670 0.000000 0.000000 
#    y 0.000000 1.719290 0.000000 
#    z 0.000000 0.000000 1.705330 
# 
# From -- ./inp_files/32207.got.cif
#   From: 2010.05.17/outbox.cif.g08.bks.cpg/sg59_17_cif.got.tgz:32207.got - 2010.06.03 14:40:33.
