data_PCOD9452880
_publ_section_title
;
Structure prediction by ZEFSAII (Michael W. Deem and Ramdas Pophale) SiO2 
 PCOD9452880
Probable space group: P M M N
;
_chemical_formula_sum "Si O2"
_cell_formula_units_Z 48
_cell_length_a 30.746002
_cell_length_b 14.922891
_cell_length_c 5.006456
_cell_angle_alpha 90.000000
_cell_angle_beta 90.000000
_cell_angle_gamma 90.000000
_cell_volume 2297.058320
_symmetry_space_group_name_H-M "P M M N"
_symmetry_group_IT_number 59
_space_group.IT_coordinate_system_code '2'
_symmetry_cell_setting 'orthorhombic'
loop_
_space_group_symop_operation_xyz
x,y,z
1/2-x,1/2-y,z
1/2+x,-y,-z
-x,1/2+y,-z
-x,-y,-z
1/2+x,1/2+y,-z
1/2-x,y,z
x,1/2-y,z
loop_
_atom_site_type_symbol
_atom_site_label
_atom_site_fract_x
_atom_site_fract_y
_atom_site_fract_z
Si Si1 0.750000 0.943361 0.915685
Si Si2 0.834750 0.851786 0.171466
Si Si3 0.898967 0.352616 0.920336
Si Si4 0.250000 0.548046 0.602040
Si Si5 0.660130 0.147801 0.403114
Si Si6 0.105674 0.146407 0.345598
Si Si7 0.032025 0.500339 0.250281
O O1 0.792718 0.896690 0.038333
O O2 0.750000 0.035735 0.077623
O O3 0.750000 0.961448 0.598961
O O4 0.822093 0.750000 0.244929
O O5 0.859786 0.889258 0.432051
O O6 0.869834 0.850776 0.935864
O O7 0.913500 0.250000 0.979161
O O8 0.864556 0.349909 0.681995
O O9 0.937373 0.414370 0.810664
O O10 0.873265 0.389729 0.179496
O O11 0.295056 0.597358 0.551621
O O12 0.669574 0.250000 0.315086
O O13 0.094418 0.250000 0.420832
O O14 0.064489 0.082995 0.302697
O O15 0.000000 0.500000 0.500000
O O16 0.000000 0.500000 0.000000
#
# Coordination Sequence:
#
# PCOD9452880 Si02
#       7
#     4   8   8   4   8   8   8
#     4  12  25  36  59 100 130 167 215 262 313 366
#     4  10  22  42  63  89 127 174 214 259 311 372
#     4  10  23  42  67  92 125 170 214 262 322 385
#     4  12  25  36  59 100 130 167 215 262 313 366
#     4  10  22  42  63  89 127 174 214 259 311 372
#     4  10  23  42  67  92 125 170 214 262 322 385
#     4  12  26  42  66  97 126 163 206 272 338 392
#
# _framework density 20.89629
#
# number of rings (size 3 to 8) (size 9 to 14) (size 15 to 20)
#    0.000    1.333    0.000    4.500    7.000    1.333 
#    0.000    6.667    0.000    0.000    0.000    0.000 
#    0.000    0.000    0.000    0.000    0.000    0.000 
#
# Total GULP energy -267983.036411 kJ/mol
# GULP energy per Si atom -5582.979925 kJ/mol
# Density = 2.084873 g / cm^3
# Si number density = 20.896290 Si / 1000 Ang^3
#
#
#
# Elastic Constant Matrix: (Units=GPa)
#
#
# Indices 1 2 3 4 5 6 
#
# 1 102.9440 48.4594 -1.2803 0.0000 0.0000 0.0000
# 2 48.4594 66.6847 -4.5013 0.0000 0.0000 0.0000
# 3 -1.2803 -4.5013 95.9852 0.0000 0.0000 0.0000
# 4 0.0000 0.0000 0.0000 22.6287 0.0000 0.0000
# 5 0.0000 0.0000 0.0000 0.0000 38.5637 0.0000
# 6 0.0000 0.0000 0.0000 0.0000 0.0000 9.7066
#
#
#
# Elastic Compliance Matrix: (Units=1/GPa)
#
#
# Indices 1 2 3 4 5 6 
#
# 1 0.014774 -0.010757 -0.000307 0.000000 0.000000 0.000000
# 2 -0.010757 0.022876 0.000929 0.000000 0.000000 0.000000
# 3 -0.000307 0.000929 0.010458 0.000000 0.000000 0.000000
# 4 0.000000 0.000000 0.000000 0.044192 0.000000 0.000000
# 5 0.000000 0.000000 0.000000 0.000000 0.025931 0.000000
# 6 0.000000 0.000000 0.000000 0.000000 0.000000 0.103022
#
#
# Mechanical properties :
#
#
# Convention : Reuss Voigt Hill
#
# Bulk Modulus (GPa) = 35.92294 38.99660 37.45977
# Shear Modulus (GPa) = 19.93612 29.04223 24.48917
#
# Velocity S-wave (km/s) = 3.09212 3.73208 3.42707
# Velocity P-wave (km/s) = 5.47510 6.10522 5.79872
#
# Compressibility (1/GPa) = 0.02783736
#
# Stress axis : x y z
#
# Youngs Moduli (GPa) = 67.68739 43.71472 95.62279
#
# Poissons Ratio (x) = 0.47023 0.02939
# Poissons Ratio (y) = 0.72810 -0.08886
# Poissons Ratio (z) = 0.02081 -0.04062
#
# Static dielectric constant tensor:
#      x y z
#    x 1.771110 0.000000 0.000000 
#    y 0.000000 1.835480 0.000000 
#    z 0.000000 0.000000 1.736840 
# 
# From -- ./inp_files/4200.got.cif
#   From: 2010.05.17/outbox.cif.g08.bks.cpg/sg59_3_cif.got.tgz:4200.got - 2010.06.03 14:40:33.
