data_PCOD9452502
_publ_section_title
;
Structure prediction by ZEFSAII (Michael W. Deem and Ramdas Pophale) SiO2 
 PCOD9452502
Probable space group: P M M N
;
_chemical_formula_sum "Si O2"
_cell_formula_units_Z 40
_cell_length_a 8.659194
_cell_length_b 26.400771
_cell_length_c 9.145007
_cell_angle_alpha 90.000000
_cell_angle_beta 90.000000
_cell_angle_gamma 90.000000
_cell_volume 2090.634543
_symmetry_space_group_name_H-M "P M M N"
_symmetry_group_IT_number 59
_space_group.IT_coordinate_system_code '2'
_symmetry_cell_setting 'orthorhombic'
loop_
_space_group_symop_operation_xyz
x,y,z
1/2-x,1/2-y,z
1/2+x,-y,-z
-x,1/2+y,-z
-x,-y,-z
1/2+x,1/2+y,-z
1/2-x,y,z
x,1/2-y,z
loop_
_atom_site_type_symbol
_atom_site_label
_atom_site_fract_x
_atom_site_fract_y
_atom_site_fract_z
Si Si1 0.562046 0.750000 0.084505
Si Si2 0.435074 0.848841 0.583296
Si Si3 0.936672 0.649567 0.910509
Si Si4 0.935451 0.951880 0.086765
Si Si5 0.564328 0.750000 0.422331
Si Si6 0.435434 0.951562 0.414339
O O1 0.750000 0.750000 0.085880
O O2 0.512097 0.750000 0.253071
O O3 0.513205 0.800398 0.998785
O O4 0.250000 0.845428 0.581593
O O5 0.493259 0.851164 0.749373
O O6 0.504272 0.799921 0.503476
O O7 0.481116 0.900045 0.498145
O O8 0.750000 0.650892 0.898054
O O9 0.978806 0.599345 0.000652
O O10 0.750000 0.954691 0.092647
O O11 0.000961 0.950912 0.250148
O O12 0.000000 0.000000 0.000000
O O13 0.750000 0.750000 0.425450
O O14 0.250000 0.954282 0.411251
O O15 0.500000 0.000000 0.500000
#
# Coordination Sequence:
#
# PCOD9452502 Si02
#       6
#     4   8   8   8   4   8
#     4   9  19  37  60  86 112 143 190 241 286 338
#     4  11  24  40  59  88 123 156 195 246 301 354
#     4  10  21  38  61  87 115 152 197 242 292 354
#     4  11  23  39  61  89 121 157 200 248 298 358
#     4  11  22  39  64  88 116 157 200 243 294 358
#     4  11  24  41  62  88 121 161 204 252 304 359
#
# _framework density 19.132947000000001
#
# number of rings (size 3 to 8) (size 9 to 14) (size 15 to 20)
#    0.000    1.400    0.000    5.100    0.000   10.400 
#    0.000    2.000    0.000    0.000    0.000    0.000 
#    0.000    0.000    0.000    0.000    0.000    0.000 
#
# Total GULP energy -223762.853077 kJ/mol
# GULP energy per Si atom -5594.071327 kJ/mol
# Density = 1.908940 g / cm^3
# Si number density = 19.132947 Si / 1000 Ang^3
#
#
#
# Elastic Constant Matrix: (Units=GPa)
#
#
# Indices 1 2 3 4 5 6 
#
# 1 43.8650 65.9657 58.9712 0.0000 0.0000 0.0000
# 2 65.9657 241.3719 147.5281 0.0000 0.0000 0.0000
# 3 58.9712 147.5281 241.5131 0.0000 0.0000 0.0000
# 4 0.0000 0.0000 0.0000 44.6558 0.0000 0.0000
# 5 0.0000 0.0000 0.0000 0.0000 35.5276 0.0000
# 6 0.0000 0.0000 0.0000 0.0000 0.0000 30.2487
#
#
#
# Elastic Compliance Matrix: (Units=1/GPa)
#
#
# Indices 1 2 3 4 5 6 
#
# 1 0.042484 -0.008410 -0.005236 0.000000 0.000000 0.000000
# 2 -0.008410 0.008276 -0.003002 0.000000 0.000000 0.000000
# 3 -0.005236 -0.003002 0.007253 0.000000 0.000000 0.000000
# 4 0.000000 0.000000 0.000000 0.022393 0.000000 0.000000
# 5 0.000000 0.000000 0.000000 0.000000 0.028147 0.000000
# 6 0.000000 0.000000 0.000000 0.000000 0.000000 0.033059
#
#
# Mechanical properties :
#
#
# Convention : Reuss Voigt Hill
#
# Bulk Modulus (GPa) = 40.45864 119.07553 79.76708
# Shear Modulus (GPa) = 27.30011 39.03876 33.16944
#
# Velocity S-wave (km/s) = 3.78148 4.52197 4.16820
# Velocity P-wave (km/s) = 6.34493 9.46759 8.05895
#
# Compressibility (1/GPa) = 0.02471660
#
# Stress axis : x y z
#
# Youngs Moduli (GPa) = 23.53803 120.82622 137.87707
#
# Poissons Ratio (x) = 1.01620 0.72193
# Poissons Ratio (y) = 0.19797 0.41391
# Poissons Ratio (z) = 0.12325 0.36272
#
# Static dielectric constant tensor:
#      x y z
#    x 1.652450 0.000000 0.000000 
#    y 0.000000 1.638140 0.000000 
#    z 0.000000 0.000000 1.618320 
# 
# From -- ./inp_files/5914.got.cif
#   From: 2010.05.17/outbox.cif.g08.bks.cpg/sg59_3_cif.got.tgz:5914.got - 2010.06.03 14:40:33.
