data_PCOD9452251
_publ_section_title
;
Structure prediction by ZEFSAII (Michael W. Deem and Ramdas Pophale) SiO2 
 PCOD9452251
Probable space group: P M M N
;
_chemical_formula_sum "Si O2"
_cell_formula_units_Z 48
_cell_length_a 9.010528
_cell_length_b 9.144303
_cell_length_c 31.536761
_cell_angle_alpha 90.000000
_cell_angle_beta 90.000000
_cell_angle_gamma 90.000000
_cell_volume 2598.471367
_symmetry_space_group_name_H-M "P M M N"
_symmetry_group_IT_number 59
_space_group.IT_coordinate_system_code '2'
_symmetry_cell_setting 'orthorhombic'
loop_
_space_group_symop_operation_xyz
x,y,z
1/2-x,1/2-y,z
1/2+x,-y,-z
-x,1/2+y,-z
-x,-y,-z
1/2+x,1/2+y,-z
1/2-x,y,z
x,1/2-y,z
loop_
_atom_site_type_symbol
_atom_site_label
_atom_site_fract_x
_atom_site_fract_y
_atom_site_fract_z
Si Si1 0.928269 0.577594 0.627877
Si Si2 0.926793 0.922906 0.291445
Si Si3 0.925939 0.075479 0.121121
Si Si4 0.926416 0.076086 0.959440
Si Si5 0.928765 0.420601 0.540127
Si Si6 0.925987 0.575719 0.789033
O O1 0.750000 0.561110 0.632948
O O2 0.961186 0.750000 0.625960
O O3 0.971533 0.499835 0.583919
O O4 0.008019 0.503502 0.667502
O O5 0.750000 0.944495 0.289198
O O6 0.957054 0.750000 0.294425
O O7 0.002124 0.989038 0.249631
O O8 0.750000 0.047461 0.121920
O O9 0.947819 0.250000 0.114681
O O10 0.998208 0.036935 0.166295
O O11 0.002210 0.989603 0.082984
O O12 0.750000 0.049138 0.959571
O O13 0.950880 0.250000 0.961391
O O14 0.000000 0.000000 0.000000
O O15 0.750000 0.429337 0.536749
O O16 0.970902 0.250000 0.541267
O O17 0.000000 0.500000 0.500000
O O18 0.750000 0.549049 0.791146
O O19 0.948517 0.750000 0.782251
#
# Coordination Sequence:
#
# PCOD9452251 Si02
#       6
#     8   8   8   8   8   8
#     4  10  21  38  60  84 110 144 187 233 282 336
#     4  11  24  39  56  82 115 150 188 231 280 333
#     4  10  21  38  61  88 117 150 189 233 282 336
#     4  11  24  40  59  85 116 151 192 236 284 338
#     4  10  21  37  58  84 114 149 188 230 279 334
#     4  10  21  38  61  87 114 148 189 231 279 335
#
# _framework density 18.472398999999999
#
# number of rings (size 3 to 8) (size 9 to 14) (size 15 to 20)
#    0.000    1.667    0.000    4.000    0.000   12.000 
#    0.000    0.000    0.000    0.000    0.000    0.000 
#    0.000    0.000    0.000    0.000    0.000    0.000 
#
# Total GULP energy -268385.306595 kJ/mol
# GULP energy per Si atom -5591.360554 kJ/mol
# Density = 1.843035 g / cm^3
# Si number density = 18.472399 Si / 1000 Ang^3
#
#
#
# Elastic Constant Matrix: (Units=GPa)
#
#
# Indices 1 2 3 4 5 6 
#
# 1 92.2459 98.3771 103.5353 0.0000 0.0000 0.0000
# 2 98.3771 134.1209 128.2329 0.0000 0.0000 0.0000
# 3 103.5353 128.2329 221.7456 0.0000 0.0000 0.0000
# 4 0.0000 0.0000 0.0000 43.4227 0.0000 0.0000
# 5 0.0000 0.0000 0.0000 0.0000 43.6597 0.0000
# 6 0.0000 0.0000 0.0000 0.0000 0.0000 31.5319
#
#
#
# Elastic Compliance Matrix: (Units=1/GPa)
#
#
# Indices 1 2 3 4 5 6 
#
# 1 0.052136 -0.033476 -0.004984 0.000000 0.000000 0.000000
# 2 -0.033476 0.038172 -0.006444 0.000000 0.000000 0.000000
# 3 -0.004984 -0.006444 0.010563 0.000000 0.000000 0.000000
# 4 0.000000 0.000000 0.000000 0.023029 0.000000 0.000000
# 5 0.000000 0.000000 0.000000 0.000000 0.022904 0.000000
# 6 0.000000 0.000000 0.000000 0.000000 0.000000 0.031714
#
#
# Mechanical properties :
#
#
# Convention : Reuss Voigt Hill
#
# Bulk Modulus (GPa) = 90.39459 123.15590 106.77525
# Shear Modulus (GPa) = 18.38147 31.58733 24.98440
#
# Velocity S-wave (km/s) = 3.15791 4.13967 3.68166
# Velocity P-wave (km/s) = 7.89542 9.46911 8.71785
#
# Compressibility (1/GPa) = 0.01106261
#
# Stress axis : x y z
#
# Youngs Moduli (GPa) = 19.18073 26.19749 94.67092
#
# Poissons Ratio (x) = 0.87700 0.47181
# Poissons Ratio (y) = 0.64210 0.61003
# Poissons Ratio (z) = 0.09559 0.16881
#
# Static dielectric constant tensor:
#      x y z
#    x 1.616540 0.000000 0.000000 
#    y 0.000000 1.617550 0.000000 
#    z 0.000000 0.000000 1.588940 
# 
# From -- ./inp_files/32820.got.cif
#   From: 2010.05.17/outbox.cif.g08.bks.cpg/sg59_17_cif.got.tgz:32820.got - 2010.06.03 14:40:33.
