data_PCOD9452744
_publ_section_title
;
Structure prediction by ZEFSAII (Michael W. Deem and Ramdas Pophale) SiO2 
 PCOD9452744
Probable space group: P M M N
;
_chemical_formula_sum "Si O2"
_cell_formula_units_Z 56
_cell_length_a 22.382902
_cell_length_b 7.862960
_cell_length_c 17.201627
_cell_angle_alpha 90.000000
_cell_angle_beta 90.000000
_cell_angle_gamma 90.000000
_cell_volume 3027.415191
_symmetry_space_group_name_H-M "P M M N"
_symmetry_group_IT_number 59
_space_group.IT_coordinate_system_code '2'
_symmetry_cell_setting 'orthorhombic'
loop_
_space_group_symop_operation_xyz
x,y,z
1/2-x,1/2-y,z
1/2+x,-y,-z
-x,1/2+y,-z
-x,-y,-z
1/2+x,1/2+y,-z
1/2-x,y,z
x,1/2-y,z
loop_
_atom_site_type_symbol
_atom_site_label
_atom_site_fract_x
_atom_site_fract_y
_atom_site_fract_z
Si Si1 0.522920 0.456470 0.877157
Si Si2 0.937653 0.948051 0.540799
Si Si3 0.682038 0.041618 0.145374
Si Si4 0.592873 0.453185 0.021657
Si Si5 0.375445 0.545944 0.693521
Si Si6 0.512781 0.047389 0.700926
Si Si7 0.816771 0.951827 0.464305
O O1 0.523163 0.250000 0.875652
O O2 0.462006 0.511886 0.919584
O O3 0.525590 0.516819 0.788383
O O4 0.574499 0.517294 0.936457
O O5 0.933232 0.750000 0.523666
O O6 0.875367 0.025330 0.508798
O O7 0.946310 0.976342 0.632417
O O8 0.000000 0.000000 0.500000
O O9 0.750000 0.987071 0.151753
O O10 0.681026 0.250000 0.145058
O O11 0.650690 0.981231 0.066449
O O12 0.645387 0.987485 0.221354
O O13 0.598857 0.250000 0.014303
O O14 0.372007 0.750000 0.690876
O O15 0.443931 0.493697 0.681163
O O16 0.333165 0.475386 0.626227
O O17 0.519659 0.250000 0.700832
O O18 0.750000 0.021933 0.480518
O O19 0.813785 0.750000 0.480914
#
# Coordination Sequence:
#
# PCOD9452744 Si02
#       7
#     8   8   8   8   8   8   8
#     4   9  18  30  47  70  97 127 161 205 252 291
#     4  11  22  36  56  80 105 135 171 214 262 312
#     4   9  17  28  44  70 102 132 164 204 248 299
#     4   9  16  29  48  69  94 127 165 202 244 295
#     4  11  20  31  50  76 105 137 173 210 254 307
#     4  11  21  33  50  74 107 139 171 214 260 307
#     4  10  22  39  56  75 103 138 173 211 260 318
#
# _framework density 18.497629
#
# number of rings (size 3 to 8) (size 9 to 14) (size 15 to 20)
#    0.000    2.000    2.857    1.714    0.000    2.000 
#    0.000    0.000    0.000    2.143    0.000    2.000 
#    0.000    0.000    0.000    0.000    0.000    0.000 
#
# Total GULP energy -312319.858890 kJ/mol
# GULP energy per Si atom -5577.140337 kJ/mol
# Density = 1.845553 g / cm^3
# Si number density = 18.497629 Si / 1000 Ang^3
#
#
#
# Elastic Constant Matrix: (Units=GPa)
#
#
# Indices 1 2 3 4 5 6 
#
# 1 112.8339 6.1123 48.5705 0.0000 0.0000 0.0000
# 2 6.1123 18.0651 -10.1266 0.0000 0.0000 0.0000
# 3 48.5705 -10.1266 87.3520 0.0000 0.0000 0.0000
# 4 0.0000 0.0000 0.0000 15.0652 0.0000 0.0000
# 5 0.0000 0.0000 0.0000 0.0000 70.0613 0.0000
# 6 0.0000 0.0000 0.0000 0.0000 0.0000 10.8083
#
#
#
# Elastic Compliance Matrix: (Units=1/GPa)
#
#
# Indices 1 2 3 4 5 6 
#
# 1 0.012876 -0.008952 -0.008197 0.000000 0.000000 0.000000
# 2 -0.008952 0.065426 0.012562 0.000000 0.000000 0.000000
# 3 -0.008197 0.012562 0.017462 0.000000 0.000000 0.000000
# 4 0.000000 0.000000 0.000000 0.066378 0.000000 0.000000
# 5 0.000000 0.000000 0.000000 0.000000 0.014273 0.000000
# 6 0.000000 0.000000 0.000000 0.000000 0.000000 0.092521
#
#
# Mechanical properties :
#
#
# Convention : Reuss Voigt Hill
#
# Bulk Modulus (GPa) = 11.54857 34.15147 22.85002
# Shear Modulus (GPa) = 16.28802 30.76661 23.52732
#
# Velocity S-wave (km/s) = 2.97062 4.08275 3.57025
# Velocity P-wave (km/s) = 4.24534 6.38184 5.41991
#
# Compressibility (1/GPa) = 0.08659082
#
# Stress axis : x y z
#
# Youngs Moduli (GPa) = 77.66326 15.28442 57.26657
#
# Poissons Ratio (x) = 0.13682 0.46943
# Poissons Ratio (y) = 0.69522 -0.71939
# Poissons Ratio (z) = 0.63663 -0.19201
#
# Static dielectric constant tensor:
#      x y z
#    x 1.653170 0.000000 0.000000 
#    y 0.000000 1.666190 0.000000 
#    z 0.000000 0.000000 1.652380 
# 
# From -- ./inp_files/28084.got.cif
#   From: 2010.05.17/outbox.cif.g08.bks.cpg/sg59_15_cif.got.tgz:28084.got - 2010.06.03 14:40:33.
