data_PCOD9452852
_publ_section_title
;
Structure prediction by ZEFSAII (Michael W. Deem and Ramdas Pophale) SiO2 
 PCOD9452852
Probable space group: P M M N
;
_chemical_formula_sum "Si O2"
_cell_formula_units_Z 32
_cell_length_a 32.018698
_cell_length_b 8.773684
_cell_length_c 5.477012
_cell_angle_alpha 90.000000
_cell_angle_beta 90.000000
_cell_angle_gamma 90.000000
_cell_volume 1538.612827
_symmetry_space_group_name_H-M "P M M N"
_symmetry_group_IT_number 59
_space_group.IT_coordinate_system_code '2'
_symmetry_cell_setting 'orthorhombic'
loop_
_space_group_symop_operation_xyz
x,y,z
1/2-x,1/2-y,z
1/2+x,-y,-z
-x,1/2+y,-z
-x,-y,-z
1/2+x,1/2+y,-z
1/2-x,y,z
x,1/2-y,z
loop_
_atom_site_type_symbol
_atom_site_label
_atom_site_fract_x
_atom_site_fract_y
_atom_site_fract_z
Si Si1 0.046823 0.565394 0.515635
Si Si2 0.587269 0.932825 0.983528
Si Si3 0.750000 0.410113 0.688040
Si Si4 0.324402 0.920201 0.937327
Si Si5 0.750000 0.587641 0.300640
O O1 0.047280 0.750000 0.518150
O O2 0.066180 0.502115 0.770321
O O3 0.000000 0.500000 0.500000
O O4 0.069933 0.505098 0.269575
O O5 0.581397 0.750000 0.979036
O O6 0.635853 0.978246 0.004910
O O7 0.750000 0.250000 0.536620
O O8 0.707583 0.403105 0.839780
O O9 0.750000 0.580497 0.588666
O O10 0.338048 0.750000 0.860560
O O11 0.292619 0.998325 0.750483
O O12 0.750000 0.750000 0.182563
#
# Coordination Sequence:
#
# PCOD9452852 Si02
#       5
#     8   8   4   8   4
#     4  12  26  48  74 103 139 181 226 278 344 412
#     4  12  26  45  71 105 141 179 229 285 340 404
#     4   9  20  38  61  85 121 169 219 267 326 395
#     4  10  22  41  62  89 125 171 223 273 331 396
#     4  11  22  36  59  89 127 169 215 273 332 391
#
# _framework density 20.797955999999999
#
# number of rings (size 3 to 8) (size 9 to 14) (size 15 to 20)
#    0.000    1.000    0.000    7.875    3.500    3.000 
#    0.000    0.000    0.000    0.000    0.000    0.000 
#    0.000    0.000    0.000    0.000    0.000    0.000 
#
# Total GULP energy -178296.130389 kJ/mol
# GULP energy per Si atom -5571.754075 kJ/mol
# Density = 2.075062 g / cm^3
# Si number density = 20.797956 Si / 1000 Ang^3
#
#
#
# Elastic Constant Matrix: (Units=GPa)
#
#
# Indices 1 2 3 4 5 6 
#
# 1 131.2565 43.1720 41.7692 0.0000 0.0000 0.0000
# 2 43.1720 200.3227 67.8251 0.0000 0.0000 0.0000
# 3 41.7692 67.8251 109.0979 0.0000 0.0000 0.0000
# 4 0.0000 0.0000 0.0000 26.6575 0.0000 0.0000
# 5 0.0000 0.0000 0.0000 0.0000 86.2780 0.0000
# 6 0.0000 0.0000 0.0000 0.0000 0.0000 39.1205
#
#
#
# Elastic Compliance Matrix: (Units=1/GPa)
#
#
# Indices 1 2 3 4 5 6 
#
# 1 0.008819 -0.000959 -0.002780 0.000000 0.000000 0.000000
# 2 -0.000959 0.006427 -0.003628 0.000000 0.000000 0.000000
# 3 -0.002780 -0.003628 0.012486 0.000000 0.000000 0.000000
# 4 0.000000 0.000000 0.000000 0.037513 0.000000 0.000000
# 5 0.000000 0.000000 0.000000 0.000000 0.011590 0.000000
# 6 0.000000 0.000000 0.000000 0.000000 0.000000 0.025562
#
#
# Mechanical properties :
#
#
# Convention : Reuss Voigt Hill
#
# Bulk Modulus (GPa) = 76.94228 82.91220 79.92724
# Shear Modulus (GPa) = 41.16396 49.60524 45.38460
#
# Velocity S-wave (km/s) = 4.45368 4.88905 4.67643
# Velocity P-wave (km/s) = 7.97010 8.47481 8.22633
#
# Compressibility (1/GPa) = 0.01299675
#
# Stress axis : x y z
#
# Youngs Moduli (GPa) = 113.39325 155.58851 80.08845
#
# Poissons Ratio (x) = 0.14926 0.22264
# Poissons Ratio (y) = 0.10878 0.29060
# Poissons Ratio (z) = 0.31523 0.56454
#
# Static dielectric constant tensor:
#      x y z
#    x 1.691710 0.000000 0.000000 
#    y 0.000000 1.819050 0.000000 
#    z 0.000000 0.000000 1.818490 
# 
# From -- ./inp_files/660.got.cif
#   From: 2010.05.17/outbox.cif.g08.bks.cpg/sg59_1_cif.got.tgz:660.got - 2010.06.03 14:40:33.
