data_PCOD9452496
_publ_section_title
;
Structure prediction by ZEFSAII (Michael W. Deem and Ramdas Pophale) SiO2 
 PCOD9452496
Probable space group: P M M N
;
_chemical_formula_sum "Si O2"
_cell_formula_units_Z 64
_cell_length_a 8.184825
_cell_length_b 23.505230
_cell_length_c 16.365832
_cell_angle_alpha 90.000000
_cell_angle_beta 90.000000
_cell_angle_gamma 90.000000
_cell_volume 3148.560132
_symmetry_space_group_name_H-M "P M M N"
_symmetry_group_IT_number 59
_space_group.IT_coordinate_system_code '2'
_symmetry_cell_setting 'orthorhombic'
loop_
_space_group_symop_operation_xyz
x,y,z
1/2-x,1/2-y,z
1/2+x,-y,-z
-x,1/2+y,-z
-x,-y,-z
1/2+x,1/2+y,-z
1/2-x,y,z
x,1/2-y,z
loop_
_atom_site_type_symbol
_atom_site_label
_atom_site_fract_x
_atom_site_fract_y
_atom_site_fract_z
Si Si1 0.940818 0.997985 0.093540
Si Si2 0.439447 0.681809 0.967447
Si Si3 0.560666 0.888217 0.821995
Si Si4 0.445395 0.184271 0.333466
Si Si5 0.943048 0.092407 0.455217
Si Si6 0.949786 0.185765 0.850319
Si Si7 0.940160 0.970866 0.393640
Si Si8 0.439235 0.922475 0.232020
O O1 0.750000 0.983491 0.094677
O O2 0.968564 0.056733 0.143221
O O3 0.042630 0.952341 0.144761
O O4 0.000000 0.000000 0.000000
O O5 0.250000 0.662337 0.958117
O O6 0.437930 0.750000 0.963055
O O7 0.546778 0.656166 0.896210
O O8 0.499599 0.667304 0.058406
O O9 0.750000 0.904222 0.807013
O O10 0.493799 0.855651 0.741686
O O11 0.250000 0.187677 0.322888
O O12 0.506942 0.250000 0.332665
O O13 0.480869 0.148719 0.415775
O O14 0.750000 0.096827 0.441646
O O15 0.976582 0.076801 0.549520
O O16 0.006392 0.034355 0.411248
O O17 0.750000 0.185710 0.852316
O O18 0.004038 0.250000 0.835911
O O19 0.000668 0.141387 0.782109
O O20 0.750000 0.971582 0.416307
O O21 0.962236 0.955922 0.299840
O O22 0.250000 0.922238 0.256882
#
# Coordination Sequence:
#
# PCOD9452496 Si02
#       8
#     8   8   8   8   8   8   8   8
#     4  12  25  40  57  81 116 155 196 243 297 352
#     4   9  17  31  52  76 104 143 190 235 278 324
#     4  11  22  36  55  80 112 151 195 240 288 346
#     4  10  22  39  58  83 119 160 196 236 293 359
#     4  10  21  38  61  87 111 142 188 238 287 342
#     4   8  16  32  53  76 103 137 176 219 265 312
#     4  10  21  38  61  87 116 149 185 231 287 345
#     4  11  21  35  58  86 114 145 185 229 275 333
#
# _framework density 20.326751000000002
#
# number of rings (size 3 to 8) (size 9 to 14) (size 15 to 20)
#    0.000    1.875    0.000    5.250    0.000    6.500 
#    0.000    1.250    0.000    5.250    0.000    0.000 
#    0.000    0.000    0.000    0.000    0.000    0.000 
#
# Total GULP energy -357289.070959 kJ/mol
# GULP energy per Si atom -5582.641734 kJ/mol
# Density = 2.028049 g / cm^3
# Si number density = 20.326751 Si / 1000 Ang^3
#
#
#
# Elastic Constant Matrix: (Units=GPa)
#
#
# Indices 1 2 3 4 5 6 
#
# 1 27.2816 -0.8552 -4.5613 0.0000 0.0000 0.0000
# 2 -0.8552 81.4462 34.6990 0.0000 0.0000 0.0000
# 3 -4.5613 34.6990 64.2984 0.0000 0.0000 0.0000
# 4 0.0000 0.0000 0.0000 28.1591 0.0000 0.0000
# 5 0.0000 0.0000 0.0000 0.0000 26.6883 0.0000
# 6 0.0000 0.0000 0.0000 0.0000 0.0000 20.0554
#
#
#
# Elastic Compliance Matrix: (Units=1/GPa)
#
#
# Indices 1 2 3 4 5 6 
#
# 1 0.037151 -0.000952 0.003149 0.000000 0.000000 0.000000
# 2 -0.000952 0.015968 -0.008685 0.000000 0.000000 0.000000
# 3 0.003149 -0.008685 0.020463 0.000000 0.000000 0.000000
# 4 0.000000 0.000000 0.000000 0.035512 0.000000 0.000000
# 5 0.000000 0.000000 0.000000 0.000000 0.037470 0.000000
# 6 0.000000 0.000000 0.000000 0.000000 0.000000 0.049862
#
#
# Mechanical properties :
#
#
# Convention : Reuss Voigt Hill
#
# Bulk Modulus (GPa) = 16.49960 25.73237 21.11599
# Shear Modulus (GPa) = 21.77671 24.56348 23.17010
#
# Velocity S-wave (km/s) = 3.27667 3.48002 3.37988
# Velocity P-wave (km/s) = 4.73817 5.36975 5.06382
#
# Compressibility (1/GPa) = 0.06060753
#
# Stress axis : x y z
#
# Youngs Moduli (GPa) = 26.91692 62.62500 48.86954
#
# Poissons Ratio (x) = 0.05959 -0.15389
# Poissons Ratio (y) = 0.02561 0.42442
# Poissons Ratio (z) = -0.08476 0.54388
#
# Static dielectric constant tensor:
#      x y z
#    x 1.613490 0.000000 0.000000 
#    y 0.000000 1.767330 0.000000 
#    z 0.000000 0.000000 1.706950 
# 
# From -- ./inp_files/21569.got.cif
#   From: 2010.05.17/outbox.cif.g08.bks.cpg/sg59_11_cif.got.tgz:21569.got - 2010.06.03 14:40:33.
