data_PCOD9452226
_publ_section_title
;
Structure prediction by ZEFSAII (Michael W. Deem and Ramdas Pophale) SiO2 
 PCOD9452226
Probable space group: P M M N
;
_chemical_formula_sum "Si O2"
_cell_formula_units_Z 64
_cell_length_a 7.580048
_cell_length_b 27.744106
_cell_length_c 12.613412
_cell_angle_alpha 90.000000
_cell_angle_beta 90.000000
_cell_angle_gamma 90.000000
_cell_volume 2652.621421
_symmetry_space_group_name_H-M "P M M N"
_symmetry_group_IT_number 59
_space_group.IT_coordinate_system_code '2'
_symmetry_cell_setting 'orthorhombic'
loop_
_space_group_symop_operation_xyz
x,y,z
1/2-x,1/2-y,z
1/2+x,-y,-z
-x,1/2+y,-z
-x,-y,-z
1/2+x,1/2+y,-z
1/2-x,y,z
x,1/2-y,z
loop_
_atom_site_type_symbol
_atom_site_label
_atom_site_fract_x
_atom_site_fract_y
_atom_site_fract_z
Si Si1 0.531397 0.095146 0.774369
Si Si2 0.456212 0.305248 0.510126
Si Si3 0.953956 0.455541 0.214644
Si Si4 0.460358 0.587457 0.997964
Si Si5 0.035224 0.350991 0.296782
Si Si6 0.555673 0.472622 0.605939
Si Si7 0.048503 0.801440 0.250482
Si Si8 0.961955 0.803928 0.919993
O O1 0.750000 0.095375 0.770600
O O2 0.464170 0.072336 0.664687
O O3 0.466147 0.149546 0.787518
O O4 0.479859 0.071144 0.885495
O O5 0.250000 0.316514 0.530379
O O6 0.463530 0.250000 0.472263
O O7 0.523750 0.336942 0.414003
O O8 0.551278 0.306895 0.622263
O O9 0.750000 0.471578 0.210294
O O10 0.031625 0.445061 0.098086
O O11 0.960711 0.402457 0.265506
O O12 0.053668 0.490165 0.295615
O O13 0.250000 0.581490 0.993754
O O14 0.488284 0.645158 0.976621
O O15 0.250000 0.353489 0.298070
O O16 0.988034 0.313660 0.203272
O O17 0.500000 0.500000 0.500000
O O18 0.750000 0.455289 0.579310
O O19 0.250000 0.800185 0.211609
O O20 0.963841 0.750000 0.225382
O O21 0.750000 0.802315 0.926258
O O22 0.025984 0.750000 0.953873
#
# Coordination Sequence:
#
# PCOD9452226 Si02
#       8
#     8   8   8   8   8   8   8   8
#     4   9  20  39  61  84 112 148 188 235 284 335
#     4   9  17  29  46  71 103 140 184 231 277 328
#     4  10  21  37  57  84 116 147 184 235 287 336
#     4   9  19  37  59  83 111 148 195 241 287 339
#     4   9  17  30  50  75 106 150 193 231 280 338
#     4  11  24  42  63  88 117 150 188 232 287 348
#     4   9  18  33  53  78 108 144 184 224 275 337
#     4   9  17  30  49  77 115 154 192 236 286 339
#
# _framework density 24.127078000000001
#
# number of rings (size 3 to 8) (size 9 to 14) (size 15 to 20)
#    0.000    2.625    0.000    1.125    1.750    3.750 
#    0.000    3.750    0.000    3.750    0.000    0.000 
#    0.000    0.000    0.000    0.000    0.000    0.000 
#
# Total GULP energy -357018.470893 kJ/mol
# GULP energy per Si atom -5578.413608 kJ/mol
# Density = 2.407216 g / cm^3
# Si number density = 24.127078 Si / 1000 Ang^3
#
#
#
# Elastic Constant Matrix: (Units=GPa)
#
#
# Indices 1 2 3 4 5 6 
#
# 1 59.8880 -3.3015 -5.2795 0.0000 0.0000 0.0000
# 2 -3.3015 70.6265 25.1206 0.0000 0.0000 0.0000
# 3 -5.2795 25.1206 80.8780 0.0000 0.0000 0.0000
# 4 0.0000 0.0000 0.0000 -5.7640 0.0000 0.0000
# 5 0.0000 0.0000 0.0000 0.0000 6.4038 0.0000
# 6 0.0000 0.0000 0.0000 0.0000 0.0000 28.9884
#
#
#
# Elastic Compliance Matrix: (Units=1/GPa)
#
#
# Indices 1 2 3 4 5 6 
#
# 1 0.016807 0.000445 0.000959 0.000000 0.000000 0.000000
# 2 0.000445 0.015929 -0.004919 0.000000 0.000000 0.000000
# 3 0.000959 -0.004919 0.013955 0.000000 0.000000 0.000000
# 4 0.000000 0.000000 0.000000 -0.173492 0.000000 0.000000
# 5 0.000000 0.000000 0.000000 0.000000 0.156157 0.000000
# 6 0.000000 0.000000 0.000000 0.000000 0.000000 0.034497
#
#
# Mechanical properties :
#
#
# Convention : Reuss Voigt Hill
#
# Bulk Modulus (GPa) = 25.21389 27.16354 26.18871
# Shear Modulus (GPa) = 59.45072 18.91584 39.18328
#
# Velocity S-wave (km/s) = 4.96932 2.80305 4.03431
# Velocity P-wave (km/s) = 6.58777 4.66467 5.70779
#
# Compressibility (1/GPa) = 0.03966068
#
# Stress axis : x y z
#
# Youngs Moduli (GPa) = 59.49946 62.77768 71.66086
#
# Poissons Ratio (x) = -0.02791 -0.06873
# Poissons Ratio (y) = -0.02645 0.35247
# Poissons Ratio (z) = -0.05706 0.30878
#
# Static dielectric constant tensor:
#      x y z
#    x 1.977580 0.000000 0.000000 
#    y 0.000000 1.983760 0.000000 
#    z 0.000000 0.000000 1.928340 
# 
# From -- ./inp_files/14987.got.cif
#   From: 2010.05.17/outbox.cif.g08.bks.cpg/sg59_8_cif.got.tgz:14987.got - 2010.06.03 14:40:33.
