data_PCOD9452624
_publ_section_title
;
Structure prediction by ZEFSAII (Michael W. Deem and Ramdas Pophale) SiO2 
 PCOD9452624
Probable space group: P M M N
;
_chemical_formula_sum "Si O2"
_cell_formula_units_Z 64
_cell_length_a 8.650696
_cell_length_b 14.917096
_cell_length_c 24.721411
_cell_angle_alpha 90.000000
_cell_angle_beta 90.000000
_cell_angle_gamma 90.000000
_cell_volume 3190.131534
_symmetry_space_group_name_H-M "P M M N"
_symmetry_group_IT_number 59
_space_group.IT_coordinate_system_code '2'
_symmetry_cell_setting 'orthorhombic'
loop_
_space_group_symop_operation_xyz
x,y,z
1/2-x,1/2-y,z
1/2+x,-y,-z
-x,1/2+y,-z
-x,-y,-z
1/2+x,1/2+y,-z
1/2-x,y,z
x,1/2-y,z
loop_
_atom_site_type_symbol
_atom_site_label
_atom_site_fract_x
_atom_site_fract_y
_atom_site_fract_z
Si Si1 0.930424 0.346408 0.241693
Si Si2 0.068378 0.144316 0.529782
Si Si3 0.437286 0.854516 0.152588
Si Si4 0.573637 0.350406 0.111492
Si Si5 0.429002 0.515574 0.058656
Si Si6 0.565374 0.147320 0.410207
Si Si7 0.063784 0.454371 0.741609
Si Si8 0.433730 0.965550 0.370198
O O1 0.750000 0.346300 0.259591
O O2 0.998135 0.250000 0.259227
O O3 0.929667 0.346887 0.176402
O O4 0.997059 0.442720 0.256242
O O5 0.250000 0.122404 0.523682
O O6 0.055417 0.250000 0.543263
O O7 0.984534 0.131471 0.472386
O O8 0.994788 0.085191 0.576694
O O9 0.250000 0.861152 0.154303
O O10 0.479343 0.750000 0.150577
O O11 0.502196 0.900721 0.206725
O O12 0.492891 0.907694 0.098986
O O13 0.750000 0.375500 0.095854
O O14 0.542998 0.250000 0.091139
O O15 0.456103 0.423114 0.090378
O O16 0.250000 0.535684 0.050876
O O17 0.500000 0.500000 0.000000
O O18 0.750000 0.140720 0.405206
O O19 0.519838 0.250000 0.396433
O O20 0.488752 0.068756 0.375756
O O21 0.250000 0.455366 0.743992
O O22 0.007123 0.421194 0.683350
O O23 0.250000 0.961341 0.367566
#
# Coordination Sequence:
#
# PCOD9452624 Si02
#       8
#     8   8   8   8   8   8   8   8
#     4   8  15  30  55  84 111 142 179 222 280 348
#     4  10  21  39  63  89 118 154 202 258 311 365
#     4  10  23  44  65  85 116 160 204 246 299 359
#     4   9  17  33  58  85 114 148 184 226 284 349
#     4  11  23  38  60  89 122 156 197 246 296 351
#     4  10  21  39  63  90 122 161 203 249 306 368
#     4  11  22  38  62  89 118 153 200 251 298 354
#     4  12  25  39  58  86 124 164 204 251 303 361
#
# _framework density 20.061869000000002
#
# number of rings (size 3 to 8) (size 9 to 14) (size 15 to 20)
#    0.000    1.875    1.250    3.750    0.000    4.000 
#    0.000    2.500    0.000    1.125    0.000    0.000 
#    0.000    0.000    0.000    0.000    0.000    0.000 
#
# Total GULP energy -357348.945195 kJ/mol
# GULP energy per Si atom -5583.577269 kJ/mol
# Density = 2.001621 g / cm^3
# Si number density = 20.061869 Si / 1000 Ang^3
#
#
#
# Elastic Constant Matrix: (Units=GPa)
#
#
# Indices 1 2 3 4 5 6 
#
# 1 47.0480 29.2367 31.8704 0.0000 0.0000 0.0000
# 2 29.2367 94.0880 61.9879 0.0000 0.0000 0.0000
# 3 31.8704 61.9879 128.9329 0.0000 0.0000 0.0000
# 4 0.0000 0.0000 0.0000 -5.5729 0.0000 0.0000
# 5 0.0000 0.0000 0.0000 0.0000 26.4715 0.0000
# 6 0.0000 0.0000 0.0000 0.0000 0.0000 27.7163
#
#
#
# Elastic Compliance Matrix: (Units=1/GPa)
#
#
# Indices 1 2 3 4 5 6 
#
# 1 0.027656 -0.005986 -0.003958 0.000000 0.000000 0.000000
# 2 -0.005986 0.016851 -0.006622 0.000000 0.000000 0.000000
# 3 -0.003958 -0.006622 0.011918 0.000000 0.000000 0.000000
# 4 0.000000 0.000000 0.000000 -0.179441 0.000000 0.000000
# 5 0.000000 0.000000 0.000000 0.000000 0.037777 0.000000
# 6 0.000000 0.000000 0.000000 0.000000 0.000000 0.036080
#
#
# Mechanical properties :
#
#
# Convention : Reuss Voigt Hill
#
# Bulk Modulus (GPa) = 42.93161 57.36209 50.14685
# Shear Modulus (GPa) = -605.12616 19.52125 -292.80246
#
# Velocity S-wave (km/s) = -17.38634 3.12276 -12.09407
# Velocity P-wave (km/s) = 19.53459 6.45421 13.03732
#
# Compressibility (1/GPa) = 0.02329286
#
# Stress axis : x y z
#
# Youngs Moduli (GPa) = 36.15850 59.34303 83.90592
#
# Poissons Ratio (x) = 0.35522 0.33212
# Poissons Ratio (y) = 0.21644 0.55563
# Poissons Ratio (z) = 0.14313 0.39297
#
# Static dielectric constant tensor:
#      x y z
#    x 2.321840 0.000000 0.000000 
#    y 0.000000 1.732190 0.000000 
#    z 0.000000 0.000000 1.708630 
# 
# From -- ./inp_files/31490.got.cif
#   From: 2010.05.17/outbox.cif.g08.bks.cpg/sg59_16_cif.got.tgz:31490.got - 2010.06.03 14:40:33.
