data_PCOD9452619
_publ_section_title
;
Structure prediction by ZEFSAII (Michael W. Deem and Ramdas Pophale) SiO2 
 PCOD9452619
Probable space group: P M M N
;
_chemical_formula_sum "Si O2"
_cell_formula_units_Z 56
_cell_length_a 9.019560
_cell_length_b 15.510222
_cell_length_c 20.695307
_cell_angle_alpha 90.000000
_cell_angle_beta 90.000000
_cell_angle_gamma 90.000000
_cell_volume 2895.177794
_symmetry_space_group_name_H-M "P M M N"
_symmetry_group_IT_number 59
_space_group.IT_coordinate_system_code '2'
_symmetry_cell_setting 'orthorhombic'
loop_
_space_group_symop_operation_xyz
x,y,z
1/2-x,1/2-y,z
1/2+x,-y,-z
-x,1/2+y,-z
-x,-y,-z
1/2+x,1/2+y,-z
1/2-x,y,z
x,1/2-y,z
loop_
_atom_site_type_symbol
_atom_site_label
_atom_site_fract_x
_atom_site_fract_y
_atom_site_fract_z
Si Si1 0.428279 0.503780 0.429638
Si Si2 0.926310 0.651002 0.345452
Si Si3 0.923675 0.604259 0.202053
Si Si4 0.070916 0.591967 0.932135
Si Si5 0.071892 0.155168 0.340104
Si Si6 0.423224 0.604363 0.791849
Si Si7 0.573556 0.401943 0.927668
O O1 0.500000 0.500000 0.500000
O O2 0.250000 0.503620 0.434429
O O3 0.484804 0.586973 0.390930
O O4 0.477341 0.421039 0.387294
O O5 0.750000 0.629230 0.347376
O O6 0.943079 0.750000 0.365282
O O7 0.975105 0.640786 0.270710
O O8 0.750000 0.624136 0.195203
O O9 0.938679 0.500036 0.206784
O O10 0.004427 0.635889 0.137455
O O11 0.250000 0.576341 0.930503
O O12 0.034040 0.635875 0.863825
O O13 0.988085 0.500000 0.931090
O O14 0.037361 0.635623 0.001092
O O15 0.250000 0.153019 0.339025
O O16 0.023751 0.250000 0.362403
O O17 0.014669 0.139764 0.267745
O O18 0.250000 0.624260 0.781496
O O19 0.750000 0.402496 0.921089
#
# Coordination Sequence:
#
# PCOD9452619 Si02
#       7
#     8   8   8   8   8   8   8
#     4  11  24  42  65  91 121 152 186 229 280 337
#     4  10  21  39  63  88 117 155 194 234 285 341
#     4   9  17  30  49  75 109 145 184 231 283 336
#     4   8  15  26  39  64 102 140 181 232 284 333
#     4  10  22  39  58  83 115 149 185 227 277 331
#     4   9  16  29  51  76 105 143 188 234 279 330
#     4   9  15  23  40  67 100 140 186 231 279 333
#
# _framework density 19.342507999999999
#
# number of rings (size 3 to 8) (size 9 to 14) (size 15 to 20)
#    0.000    2.571    1.429    1.714    0.000    5.143 
#    0.000    1.429    0.000    0.857    0.000    4.000 
#    0.000    0.000    0.000    0.000    0.000    0.000 
#
# Total GULP energy -312271.233861 kJ/mol
# GULP energy per Si atom -5576.272033 kJ/mol
# Density = 1.929848 g / cm^3
# Si number density = 19.342508 Si / 1000 Ang^3
#
#
#
# Elastic Constant Matrix: (Units=GPa)
#
#
# Indices 1 2 3 4 5 6 
#
# 1 32.8374 29.9527 52.8114 0.0000 0.0000 0.0000
# 2 29.9527 64.6347 60.3199 0.0000 0.0000 0.0000
# 3 52.8114 60.3199 179.7278 0.0000 0.0000 0.0000
# 4 0.0000 0.0000 0.0000 -12.6411 0.0000 0.0000
# 5 0.0000 0.0000 0.0000 0.0000 38.6855 0.0000
# 6 0.0000 0.0000 0.0000 0.0000 0.0000 14.3852
#
#
#
# Elastic Compliance Matrix: (Units=1/GPa)
#
#
# Indices 1 2 3 4 5 6 
#
# 1 0.071681 -0.019746 -0.014436 0.000000 0.000000 0.000000
# 2 -0.019746 0.027967 -0.003584 0.000000 0.000000 0.000000
# 3 -0.014436 -0.003584 0.011009 0.000000 0.000000 0.000000
# 4 0.000000 0.000000 0.000000 -0.079107 0.000000 0.000000
# 5 0.000000 0.000000 0.000000 0.000000 0.025849 0.000000
# 6 0.000000 0.000000 0.000000 0.000000 0.000000 0.069516
#
#
# Mechanical properties :
#
#
# Convention : Reuss Voigt Hill
#
# Bulk Modulus (GPa) = 28.46969 62.59641 45.53305
# Shear Modulus (GPa) = 23.34761 17.02700 20.18730
#
# Velocity S-wave (km/s) = 3.47805 2.97019 3.23410
# Velocity P-wave (km/s) = 5.55696 6.64793 6.12678
#
# Compressibility (1/GPa) = 0.03512507
#
# Stress axis : x y z
#
# Youngs Moduli (GPa) = 13.95066 35.75643 90.83791
#
# Poissons Ratio (x) = 0.70605 1.31131
# Poissons Ratio (y) = 0.27547 0.32556
# Poissons Ratio (z) = 0.20139 0.12815
#
# Static dielectric constant tensor:
#      x y z
#    x 1.649810 0.000000 0.000000 
#    y 0.000000 1.716170 0.000000 
#    z 0.000000 0.000000 1.693670 
# 
# From -- ./inp_files/29017.got.cif
#   From: 2010.05.17/outbox.cif.g08.bks.cpg/sg59_15_cif.got.tgz:29017.got - 2010.06.03 14:40:33.
