data_PCOD9452753
_publ_section_title
;
Structure prediction by ZEFSAII (Michael W. Deem and Ramdas Pophale) SiO2 
 PCOD9452753
Probable space group: P M M N
;
_chemical_formula_sum "Si O2"
_cell_formula_units_Z 56
_cell_length_a 8.392184
_cell_length_b 15.954894
_cell_length_c 21.742535
_cell_angle_alpha 90.000000
_cell_angle_beta 90.000000
_cell_angle_gamma 90.000000
_cell_volume 2911.247297
_symmetry_space_group_name_H-M "P M M N"
_symmetry_group_IT_number 59
_space_group.IT_coordinate_system_code '2'
_symmetry_cell_setting 'orthorhombic'
loop_
_space_group_symop_operation_xyz
x,y,z
1/2-x,1/2-y,z
1/2+x,-y,-z
-x,1/2+y,-z
-x,-y,-z
1/2+x,1/2+y,-z
1/2-x,y,z
x,1/2-y,z
loop_
_atom_site_type_symbol
_atom_site_label
_atom_site_fract_x
_atom_site_fract_y
_atom_site_fract_z
Si Si1 0.942095 0.985670 0.152814
Si Si2 0.057009 0.158977 0.094820
Si Si3 0.559511 0.157665 0.622229
Si Si4 0.559391 0.508976 0.290989
Si Si5 0.557969 0.586735 0.029887
Si Si6 0.941335 0.904640 0.506474
Si Si7 0.442614 0.155664 0.358040
O O1 0.750000 0.981253 0.154040
O O2 0.001098 0.972791 0.221947
O O3 0.998603 0.919596 0.100480
O O4 0.988809 0.078767 0.129970
O O5 0.250000 0.153797 0.097803
O O6 0.007966 0.250000 0.119336
O O7 0.009712 0.152515 0.022453
O O8 0.750000 0.154231 0.624663
O O9 0.505997 0.250000 0.643727
O O10 0.494280 0.081428 0.662537
O O11 0.506363 0.145030 0.551942
O O12 0.750000 0.507736 0.290068
O O13 0.501588 0.418501 0.314390
O O14 0.750000 0.589006 0.031892
O O15 0.500000 0.500000 0.000000
O O16 0.750000 0.903586 0.504731
O O17 0.992390 0.866858 0.572039
O O18 0.000000 0.000000 0.500000
O O19 0.250000 0.154741 0.356874
O O20 0.495535 0.250000 0.341987
#
# Coordination Sequence:
#
# PCOD9452753 Si02
#       7
#     8   8   8   8   8   8   8
#     4   9  19  34  51  73 102 139 179 216 264 319
#     4   9  17  29  49  78 105 132 170 214 263 319
#     4  11  24  41  61  84 111 146 188 234 285 337
#     4  11  23  38  57  81 111 149 191 234 278 331
#     4   8  14  28  48  69  96 127 163 207 251 301
#     4  11  21  36  61  89 115 144 182 229 284 338
#     4  10  22  39  58  81 112 149 186 226 276 333
#
# _framework density 19.235741000000001
#
# number of rings (size 3 to 8) (size 9 to 14) (size 15 to 20)
#    0.000    2.143    1.429    1.714    0.000    4.571 
#    0.000    3.571    0.000    2.571    0.000    0.000 
#    0.000    0.000    0.000    0.000    0.000    0.000 
#
# Total GULP energy -312280.010385 kJ/mol
# GULP energy per Si atom -5576.428757 kJ/mol
# Density = 1.919196 g / cm^3
# Si number density = 19.235741 Si / 1000 Ang^3
#
#
#
# Elastic Constant Matrix: (Units=GPa)
#
#
# Indices 1 2 3 4 5 6 
#
# 1 11.8513 9.3017 11.4261 0.0000 0.0000 0.0000
# 2 9.3017 70.2178 0.9385 0.0000 0.0000 0.0000
# 3 11.4261 0.9385 95.9778 0.0000 0.0000 0.0000
# 4 0.0000 0.0000 0.0000 9.4407 0.0000 0.0000
# 5 0.0000 0.0000 0.0000 0.0000 21.1319 0.0000
# 6 0.0000 0.0000 0.0000 0.0000 0.0000 12.1132
#
#
#
# Elastic Compliance Matrix: (Units=1/GPa)
#
#
# Indices 1 2 3 4 5 6 
#
# 1 0.107665 -0.014093 -0.012680 0.000000 0.000000 0.000000
# 2 -0.014093 0.016088 0.001520 0.000000 0.000000 0.000000
# 3 -0.012680 0.001520 0.011914 0.000000 0.000000 0.000000
# 4 0.000000 0.000000 0.000000 0.105925 0.000000 0.000000
# 5 0.000000 0.000000 0.000000 0.000000 0.047322 0.000000
# 6 0.000000 0.000000 0.000000 0.000000 0.000000 0.082555
#
#
# Mechanical properties :
#
#
# Convention : Reuss Voigt Hill
#
# Bulk Modulus (GPa) = 11.74228 24.59771 18.16999
# Shear Modulus (GPa) = 11.10225 18.96252 15.03239
#
# Velocity S-wave (km/s) = 2.40504 3.14315 2.79853
# Velocity P-wave (km/s) = 3.71886 5.09782 4.46193
#
# Compressibility (1/GPa) = 0.08516235
#
# Stress axis : x y z
#
# Youngs Moduli (GPa) = 9.28811 62.15835 83.93705
#
# Poissons Ratio (x) = 0.87598 1.06428
# Poissons Ratio (y) = 0.13090 -0.12762
# Poissons Ratio (z) = 0.11777 -0.09451
#
# Static dielectric constant tensor:
#      x y z
#    x 1.664290 0.000000 0.000000 
#    y 0.000000 1.660010 0.000000 
#    z 0.000000 0.000000 1.695100 
# 
# From -- ./inp_files/28974.got.cif
#   From: 2010.05.17/outbox.cif.g08.bks.cpg/sg59_15_cif.got.tgz:28974.got - 2010.06.03 14:40:33.
