data_PCOD9452984
_publ_section_title
;
Structure prediction by ZEFSAII (Michael W. Deem and Ramdas Pophale) SiO2 
 PCOD9452984
Probable space group: P M M N
;
_chemical_formula_sum "Si O2"
_cell_formula_units_Z 48
_cell_length_a 21.675435
_cell_length_b 7.654143
_cell_length_c 15.554180
_cell_angle_alpha 90.000000
_cell_angle_beta 90.000000
_cell_angle_gamma 90.000000
_cell_volume 2580.545460
_symmetry_space_group_name_H-M "P M M N"
_symmetry_group_IT_number 59
_space_group.IT_coordinate_system_code '2'
_symmetry_cell_setting 'orthorhombic'
loop_
_space_group_symop_operation_xyz
x,y,z
1/2-x,1/2-y,z
1/2+x,-y,-z
-x,1/2+y,-z
-x,-y,-z
1/2+x,1/2+y,-z
1/2-x,y,z
x,1/2-y,z
loop_
_atom_site_type_symbol
_atom_site_label
_atom_site_fract_x
_atom_site_fract_y
_atom_site_fract_z
Si Si1 0.182625 0.536637 0.113084
Si Si2 0.544872 0.040209 0.921316
Si Si3 0.183997 0.535685 0.494534
Si Si4 0.847948 0.462269 0.694437
Si Si5 0.514453 0.040164 0.732375
Si Si6 0.555417 0.454776 0.434548
O O1 0.250000 0.480214 0.078522
O O2 0.182438 0.750000 0.110119
O O3 0.116702 0.478950 0.072963
O O4 0.179019 0.483851 0.213757
O O5 0.548812 0.250000 0.915185
O O6 0.515307 0.976578 0.830913
O O7 0.500000 0.000000 0.000000
O O8 0.250000 0.481365 0.532084
O O9 0.183182 0.750000 0.495631
O O10 0.181480 0.481676 0.394460
O O11 0.121706 0.469037 0.538949
O O12 0.845202 0.250000 0.695316
O O13 0.919532 0.514887 0.693947
O O14 0.514631 0.250000 0.735651
O O15 0.463234 0.990633 0.663601
O O16 0.500000 0.500000 0.500000
O O17 0.562233 0.250000 0.444179
#
# Coordination Sequence:
#
# PCOD9452984 Si02
#       6
#     8   8   8   8   8   8
#     4   8  13  22  40  67  94 118 147 186 232 277
#     4   9  18  31  50  73  97 122 152 193 238 284
#     4   9  16  25  40  64  92 121 156 197 234 267
#     4   8  12  21  39  64  91 116 144 181 227 275
#     4   9  17  31  48  69  94 122 157 194 231 277
#     4  11  20  30  47  70  95 126 161 195 230 273
#
# _framework density 18.600719999999999
#
# number of rings (size 3 to 8) (size 9 to 14) (size 15 to 20)
#    0.000    3.000    1.667    3.000    0.000    2.667 
#    0.000    0.000    0.000    3.500    0.000    7.000 
#    0.000    0.000    0.000    0.000    0.000    0.000 
#
# Total GULP energy -267271.242994 kJ/mol
# GULP energy per Si atom -5568.150896 kJ/mol
# Density = 1.855838 g / cm^3
# Si number density = 18.600720 Si / 1000 Ang^3
#
#
#
# Elastic Constant Matrix: (Units=GPa)
#
#
# Indices 1 2 3 4 5 6 
#
# 1 190.5745 8.3226 90.4331 0.0000 0.0000 0.0000
# 2 8.3226 31.2116 2.8276 0.0000 0.0000 0.0000
# 3 90.4331 2.8276 90.1805 0.0000 0.0000 0.0000
# 4 0.0000 0.0000 0.0000 18.2048 0.0000 0.0000
# 5 0.0000 0.0000 0.0000 0.0000 21.6395 0.0000
# 6 0.0000 0.0000 0.0000 0.0000 0.0000 11.6140
#
#
#
# Elastic Compliance Matrix: (Units=1/GPa)
#
#
# Indices 1 2 3 4 5 6 
#
# 1 0.010109 -0.001782 -0.010082 0.000000 0.000000 0.000000
# 2 -0.001782 0.032445 0.000770 0.000000 0.000000 0.000000
# 3 -0.010082 0.000770 0.021175 0.000000 0.000000 0.000000
# 4 0.000000 0.000000 0.000000 0.054930 0.000000 0.000000
# 5 0.000000 0.000000 0.000000 0.000000 0.046212 0.000000
# 6 0.000000 0.000000 0.000000 0.000000 0.000000 0.086103
#
#
# Mechanical properties :
#
#
# Convention : Reuss Voigt Hill
#
# Bulk Modulus (GPa) = 24.07272 57.23701 40.65486
# Shear Modulus (GPa) = 17.42110 24.31722 20.86916
#
# Velocity S-wave (km/s) = 3.06368 3.61962 3.35319
# Velocity P-wave (km/s) = 5.04825 6.95033 6.07420
#
# Compressibility (1/GPa) = 0.04154080
#
# Stress axis : x y z
#
# Youngs Moduli (GPa) = 98.92066 30.82151 47.22657
#
# Poissons Ratio (x) = 0.05493 0.47612
# Poissons Ratio (y) = 0.17630 -0.03636
# Poissons Ratio (z) = 0.99727 -0.02373
#
# Static dielectric constant tensor:
#      x y z
#    x 1.703370 0.000000 0.000000 
#    y 0.000000 1.715830 0.000000 
#    z 0.000000 0.000000 1.604060 
# 
# From -- ./inp_files/24077.got.cif
#   From: 2010.05.17/outbox.cif.g08.bks.cpg/sg59_13_cif.got.tgz:24077.got - 2010.06.03 14:40:33.
