data_PCOD9452057
_publ_section_title
;
Structure prediction by ZEFSAII (Michael W. Deem and Ramdas Pophale) SiO2 
 PCOD9452057
Probable space group: P M M N
;
_chemical_formula_sum "Si O2"
_cell_formula_units_Z 64
_cell_length_a 22.526523
_cell_length_b 17.811430
_cell_length_c 8.369011
_cell_angle_alpha 90.000000
_cell_angle_beta 90.000000
_cell_angle_gamma 90.000000
_cell_volume 3357.894832
_symmetry_space_group_name_H-M "P M M N"
_symmetry_group_IT_number 59
_space_group.IT_coordinate_system_code '2'
_symmetry_cell_setting 'orthorhombic'
loop_
_space_group_symop_operation_xyz
x,y,z
1/2-x,1/2-y,z
1/2+x,-y,-z
-x,1/2+y,-z
-x,-y,-z
1/2+x,1/2+y,-z
1/2-x,y,z
x,1/2-y,z
loop_
_atom_site_type_symbol
_atom_site_label
_atom_site_fract_x
_atom_site_fract_y
_atom_site_fract_z
Si Si1 0.100515 0.549793 0.664718
Si Si2 0.929876 0.335669 0.585356
Si Si3 0.881961 0.164321 0.093546
Si Si4 0.407185 0.160401 0.406818
Si Si5 0.961796 0.599341 0.257088
Si Si6 0.180336 0.028777 0.396907
Si Si7 0.180545 0.876605 0.232409
Si Si8 0.975872 0.661554 0.918611
O O1 0.064764 0.613448 0.569307
O O2 0.137469 0.597157 0.791782
O O3 0.055356 0.487643 0.729941
O O4 0.144508 0.507847 0.544016
O O5 0.949503 0.250000 0.565018
O O6 0.861218 0.339001 0.634450
O O7 0.969690 0.377425 0.717072
O O8 0.874226 0.250000 0.153661
O O9 0.846332 0.154214 0.930874
O O10 0.952864 0.151549 0.075134
O O11 0.397661 0.250000 0.405886
O O12 0.431892 0.138048 0.584493
O O13 0.349374 0.109574 0.373969
O O14 0.449383 0.140694 0.254797
O O15 0.947069 0.624411 0.076586
O O16 0.250000 0.034730 0.429168
O O17 0.172707 0.966764 0.256158
O O18 0.250000 0.859917 0.249094
O O19 0.965283 0.750000 0.936629
#
# Coordination Sequence:
#
# PCOD9452057 Si02
#       8
#     8   8   8   8   8   8   8   8
#     4  10  23  36  56  86 113 150 198 247 294 358
#     4  11  20  36  58  80 114 154 195 244 297 350
#     4  11  22  37  56  85 119 154 196 246 300 351
#     4  10  21  37  63  94 123 155 195 242 295 359
#     4  11  21  37  59  86 124 160 193 238 301 361
#     4   9  21  42  61  82 116 155 198 244 297 352
#     4  10  22  38  57  80 111 154 202 243 287 348
#     4  10  21  36  57  89 126 157 193 242 300 357
#
# _framework density 19.059560999999999
#
# number of rings (size 3 to 8) (size 9 to 14) (size 15 to 20)
#    0.000    1.750    1.250    3.000    1.750    5.250 
#    0.000    0.000    0.000    2.250    0.000    1.750 
#    0.000    0.000    0.000    0.000    0.000    0.000 
#
# Total GULP energy -356826.602803 kJ/mol
# GULP energy per Si atom -5575.415669 kJ/mol
# Density = 1.901618 g / cm^3
# Si number density = 19.059561 Si / 1000 Ang^3
#
#
#
# Elastic Constant Matrix: (Units=GPa)
#
#
# Indices 1 2 3 4 5 6 
#
# 1 81.4690 55.5708 16.5800 0.0000 0.0000 0.0000
# 2 55.5708 110.7582 47.1127 0.0000 0.0000 0.0000
# 3 16.5800 47.1127 84.7304 0.0000 0.0000 0.0000
# 4 0.0000 0.0000 0.0000 25.2922 0.0000 0.0000
# 5 0.0000 0.0000 0.0000 0.0000 15.8198 0.0000
# 6 0.0000 0.0000 0.0000 0.0000 0.0000 18.8831
#
#
#
# Elastic Compliance Matrix: (Units=1/GPa)
#
#
# Indices 1 2 3 4 5 6 
#
# 1 0.018933 -0.010378 0.002066 0.000000 0.000000 0.000000
# 2 -0.010378 0.017514 -0.007708 0.000000 0.000000 0.000000
# 3 0.002066 -0.007708 0.015684 0.000000 0.000000 0.000000
# 4 0.000000 0.000000 0.000000 0.039538 0.000000 0.000000
# 5 0.000000 0.000000 0.000000 0.000000 0.063212 0.000000
# 6 0.000000 0.000000 0.000000 0.000000 0.000000 0.052957
#
#
# Mechanical properties :
#
#
# Convention : Reuss Voigt Hill
#
# Bulk Modulus (GPa) = 49.77364 57.27607 53.52486
# Shear Modulus (GPa) = 20.27776 22.51194 21.39485
#
# Velocity S-wave (km/s) = 3.26531 3.44049 3.35405
# Velocity P-wave (km/s) = 6.35514 6.77488 6.56836
#
# Compressibility (1/GPa) = 0.02009096
#
# Stress axis : x y z
#
# Youngs Moduli (GPa) = 52.81744 57.09650 63.76070
#
# Poissons Ratio (x) = 0.59255 -0.13171
# Poissons Ratio (y) = 0.54814 0.49145
# Poissons Ratio (z) = -0.10910 0.44008
#
# Static dielectric constant tensor:
#      x y z
#    x 1.656840 0.000000 0.000000 
#    y 0.000000 1.683120 0.000000 
#    z 0.000000 0.000000 1.749490 
# 
# From -- ./inp_files/11648.got.cif
#   From: 2010.05.17/outbox.cif.g08.bks.cpg/sg59_6_cif.got.tgz:11648.got - 2010.06.03 14:40:33.
