data_PCOD9452977
_publ_section_title
;
Structure prediction by ZEFSAII (Michael W. Deem and Ramdas Pophale) SiO2 
 PCOD9452977
Probable space group: P M M N
;
_chemical_formula_sum "Si O2"
_cell_formula_units_Z 48
_cell_length_a 8.725762
_cell_length_b 26.642086
_cell_length_c 12.318105
_cell_angle_alpha 90.000000
_cell_angle_beta 90.000000
_cell_angle_gamma 90.000000
_cell_volume 2863.620685
_symmetry_space_group_name_H-M "P M M N"
_symmetry_group_IT_number 59
_space_group.IT_coordinate_system_code '2'
_symmetry_cell_setting 'orthorhombic'
loop_
_space_group_symop_operation_xyz
x,y,z
1/2-x,1/2-y,z
1/2+x,-y,-z
-x,1/2+y,-z
-x,-y,-z
1/2+x,1/2+y,-z
1/2-x,y,z
x,1/2-y,z
loop_
_atom_site_type_symbol
_atom_site_label
_atom_site_fract_x
_atom_site_fract_y
_atom_site_fract_z
Si Si1 0.572405 0.886539 0.838719
Si Si2 0.068675 0.429122 0.733916
Si Si3 0.563220 0.886321 0.483788
Si Si4 0.069261 0.945694 0.032090
Si Si5 0.937376 0.692444 0.663480
Si Si6 0.571902 0.970206 0.649729
O O1 0.750000 0.878526 0.870439
O O2 0.516048 0.838147 0.771415
O O3 0.570885 0.931463 0.750501
O O4 0.479433 0.905362 0.941696
O O5 0.250000 0.423695 0.750008
O O6 0.015858 0.389742 0.641412
O O7 0.988407 0.428683 0.849923
O O8 0.031612 0.483148 0.681052
O O9 0.750000 0.886476 0.485466
O O10 0.513537 0.839479 0.557643
O O11 0.517829 0.937134 0.547689
O O12 0.250000 0.951829 0.034686
O O13 0.000000 0.000000 0.000000
O O14 0.750000 0.691551 0.663605
O O15 0.987063 0.750000 0.661718
O O16 0.750000 0.985794 0.633616
#
# Coordination Sequence:
#
# PCOD9452977 Si02
#       6
#     8   8   8   8   8   8
#     4   9  17  30  49  74 101 127 161 204 245 287
#     4  11  20  29  44  67  99 135 168 198 235 285
#     4   8  16  28  43  69 100 128 160 200 243 285
#     4  12  23  34  48  67  96 134 173 207 245 293
#     4   8  14  28  53  80 102 124 154 200 255 298
#     4   9  16  28  45  65  96 131 161 197 237 281
#
# _framework density 16.761997000000001
#
# number of rings (size 3 to 8) (size 9 to 14) (size 15 to 20)
#    0.000    2.500    1.667    4.500    0.000    0.000 
#    0.000    0.833    0.000    2.500    0.000    4.667 
#    0.000    0.000    0.000    0.000    0.000    0.000 
#
# Total GULP energy -267561.898743 kJ/mol
# GULP energy per Si atom -5574.206224 kJ/mol
# Density = 1.672385 g / cm^3
# Si number density = 16.761997 Si / 1000 Ang^3
#
#
#
# Elastic Constant Matrix: (Units=GPa)
#
#
# Indices 1 2 3 4 5 6 
#
# 1 52.8463 20.1912 46.9445 0.0000 0.0000 0.0000
# 2 20.1912 90.1627 60.4001 0.0000 0.0000 0.0000
# 3 46.9445 60.4001 160.2490 0.0000 0.0000 0.0000
# 4 0.0000 0.0000 0.0000 8.4270 0.0000 0.0000
# 5 0.0000 0.0000 0.0000 0.0000 18.6802 0.0000
# 6 0.0000 0.0000 0.0000 0.0000 0.0000 12.7772
#
#
#
# Elastic Compliance Matrix: (Units=1/GPa)
#
#
# Indices 1 2 3 4 5 6 
#
# 1 0.025640 -0.000950 -0.007153 0.000000 0.000000 0.000000
# 2 -0.000950 0.014873 -0.005327 0.000000 0.000000 0.000000
# 3 -0.007153 -0.005327 0.010344 0.000000 0.000000 0.000000
# 4 0.000000 0.000000 0.000000 0.118667 0.000000 0.000000
# 5 0.000000 0.000000 0.000000 0.000000 0.053533 0.000000
# 6 0.000000 0.000000 0.000000 0.000000 0.000000 0.078264
#
#
# Mechanical properties :
#
#
# Convention : Reuss Voigt Hill
#
# Bulk Modulus (GPa) = 41.67464 62.03659 51.85561
# Shear Modulus (GPa) = 14.87301 19.69170 17.28236
#
# Velocity S-wave (km/s) = 2.98200 3.43123 3.21447
# Velocity P-wave (km/s) = 6.06407 7.26556 6.69184
#
# Compressibility (1/GPa) = 0.02399541
#
# Stress axis : x y z
#
# Youngs Moduli (GPa) = 39.00150 67.23757 96.67681
#
# Poissons Ratio (x) = 0.06388 0.69154
# Poissons Ratio (y) = 0.03705 0.51504
# Poissons Ratio (z) = 0.27898 0.35820
#
# Static dielectric constant tensor:
#      x y z
#    x 1.585450 0.000000 0.000000 
#    y 0.000000 1.557850 0.000000 
#    z 0.000000 0.000000 1.592060 
# 
# From -- ./inp_files/14465.got.cif
#   From: 2010.05.17/outbox.cif.g08.bks.cpg/sg59_8_cif.got.tgz:14465.got - 2010.06.03 14:40:33.
