data_PCOD9452854
_publ_section_title
;
Structure prediction by ZEFSAII (Michael W. Deem and Ramdas Pophale) SiO2 
 PCOD9452854
Probable space group: P M M N
;
_chemical_formula_sum "Si O2"
_cell_formula_units_Z 40
_cell_length_a 8.715037
_cell_length_b 15.233351
_cell_length_c 15.518542
_cell_angle_alpha 90.000000
_cell_angle_beta 90.000000
_cell_angle_gamma 90.000000
_cell_volume 2060.229494
_symmetry_space_group_name_H-M "P M M N"
_symmetry_group_IT_number 59
_space_group.IT_coordinate_system_code '2'
_symmetry_cell_setting 'orthorhombic'
loop_
_space_group_symop_operation_xyz
x,y,z
1/2-x,1/2-y,z
1/2+x,-y,-z
-x,1/2+y,-z
-x,-y,-z
1/2+x,1/2+y,-z
1/2-x,y,z
x,1/2-y,z
loop_
_atom_site_type_symbol
_atom_site_label
_atom_site_fract_x
_atom_site_fract_y
_atom_site_fract_z
Si Si1 0.566364 0.431444 0.568185
Si Si2 0.064592 0.250000 0.303600
Si Si3 0.064290 0.111558 0.160164
Si Si4 0.064983 0.250000 0.501567
Si Si5 0.567107 0.250000 0.028851
Si Si6 0.067528 0.250000 0.837258
Si Si7 0.434697 0.929789 0.234156
O O1 0.500000 0.500000 0.500000
O O2 0.750000 0.429580 0.560524
O O3 0.497964 0.336468 0.547095
O O4 0.528747 0.454492 0.667090
O O5 0.250000 0.250000 0.307645
O O6 0.020739 0.165517 0.246792
O O7 0.011113 0.250000 0.401618
O O8 0.250000 0.116170 0.152582
O O9 0.991535 0.164951 0.081668
O O10 0.019181 0.010549 0.172538
O O11 0.250000 0.250000 0.503308
O O12 0.750000 0.250000 0.025625
O O13 0.499157 0.250000 0.933641
O O14 0.250000 0.250000 0.839767
O O15 0.009110 0.162187 0.790465
O O16 0.250000 0.920646 0.228258
#
# Coordination Sequence:
#
# PCOD9452854 Si02
#       7
#     8   4   8   4   4   4   8
#     4  11  23  39  59  86 120 159 202 245 292 348
#     4   8  15  31  56  84 114 150 190 232 287 348
#     4   9  18  37  63  86 111 147 192 239 287 344
#     4  11  21  35  56  83 117 158 201 247 300 351
#     4  11  23  40  62  90 121 149 181 230 291 354
#     4  12  26  42  62  87 118 155 196 241 286 343
#     4  10  22  41  63  85 115 157 198 240 293 347
#
# _framework density 19.415312
#
# number of rings (size 3 to 8) (size 9 to 14) (size 15 to 20)
#    0.000    1.800    0.000    5.100    0.000    8.800 
#    0.000    8.000    0.000    0.000    0.000    0.000 
#    0.000    0.000    0.000    0.000    0.000    0.000 
#
# Total GULP energy -223537.048694 kJ/mol
# GULP energy per Si atom -5588.426217 kJ/mol
# Density = 1.937112 g / cm^3
# Si number density = 19.415312 Si / 1000 Ang^3
#
#
#
# Elastic Constant Matrix: (Units=GPa)
#
#
# Indices 1 2 3 4 5 6 
#
# 1 60.8850 54.1939 50.1282 0.0000 0.0000 0.0000
# 2 54.1939 160.0920 48.0226 0.0000 0.0000 0.0000
# 3 50.1282 48.0226 103.5383 0.0000 0.0000 0.0000
# 4 0.0000 0.0000 0.0000 -0.0091 0.0000 0.0000
# 5 0.0000 0.0000 0.0000 0.0000 31.1577 0.0000
# 6 0.0000 0.0000 0.0000 0.0000 0.0000 25.1910
#
#
#
# Elastic Compliance Matrix: (Units=1/GPa)
#
#
# Indices 1 2 3 4 5 6 
#
# 1 0.033707 -0.007568 -0.012809 0.000000 0.000000 0.000000
# 2 -0.007568 0.008955 -0.000489 0.000000 0.000000 0.000000
# 3 -0.012809 -0.000489 0.016087 0.000000 0.000000 0.000000
# 4 0.000000 0.000000 0.000000********** 0.000000 0.000000
# 5 0.000000 0.000000 0.000000 0.000000 0.032095 0.000000
# 6 0.000000 0.000000 0.000000 0.000000 0.000000 0.039697
#
#
# Mechanical properties :
#
#
# Convention : Reuss Voigt Hill
#
# Bulk Modulus (GPa) = 58.76930 69.91164 64.34047
# Shear Modulus (GPa) = -0.04546 22.74595 11.35025
#
# Velocity S-wave (km/s) = -0.15319 3.42650 2.42048
# Velocity P-wave (km/s) = 5.50491 7.19314 6.40489
#
# Compressibility (1/GPa) = 0.01701569
#
# Stress axis : x y z
#
# Youngs Moduli (GPa) = 29.66768 111.66780 62.16285
#
# Poissons Ratio (x) = 0.84510 0.79624
# Poissons Ratio (y) = 0.22453 0.03043
# Poissons Ratio (z) = 0.38001 0.05466
#
# Static dielectric constant tensor:
#      x y z
#    x 1.649590 0.000000 0.000000 
#    y 0.000000 1.656880 0.000000 
#    z 0.000000 0.000000 1.663650 
# 
# From -- ./inp_files/20041.got.cif
#   From: 2010.05.17/outbox.cif.g08.bks.cpg/sg59_11_cif.got.tgz:20041.got - 2010.06.03 14:40:33.
