data_PCOD9452452
_publ_section_title
;
Structure prediction by ZEFSAII (Michael W. Deem and Ramdas Pophale) SiO2 
 PCOD9452452
Probable space group: P M M N
;
_chemical_formula_sum "Si O2"
_cell_formula_units_Z 64
_cell_length_a 7.797572
_cell_length_b 24.390204
_cell_length_c 15.812406
_cell_angle_alpha 90.000000
_cell_angle_beta 90.000000
_cell_angle_gamma 90.000000
_cell_volume 3007.272502
_symmetry_space_group_name_H-M "P M M N"
_symmetry_group_IT_number 59
_space_group.IT_coordinate_system_code '2'
_symmetry_cell_setting 'orthorhombic'
loop_
_space_group_symop_operation_xyz
x,y,z
1/2-x,1/2-y,z
1/2+x,-y,-z
-x,1/2+y,-z
-x,-y,-z
1/2+x,1/2+y,-z
1/2-x,y,z
x,1/2-y,z
loop_
_atom_site_type_symbol
_atom_site_label
_atom_site_fract_x
_atom_site_fract_y
_atom_site_fract_z
Si Si1 0.546726 0.005052 0.327441
Si Si2 0.948705 0.489240 0.863961
Si Si3 0.452243 0.688541 0.258633
Si Si4 0.053475 0.369795 0.911035
Si Si5 0.958272 0.391316 0.594174
Si Si6 0.543328 0.120316 0.405055
Si Si7 0.544626 0.688513 0.755275
Si Si8 0.460819 0.110368 0.093982
O O1 0.750000 0.010034 0.311589
O O2 0.459246 0.994125 0.237506
O O3 0.515057 0.953214 0.387226
O O4 0.483909 0.061481 0.368929
O O5 0.750000 0.482576 0.888773
O O6 0.015653 0.546977 0.899635
O O7 0.044972 0.434816 0.892416
O O8 0.250000 0.692761 0.276429
O O9 0.525182 0.750000 0.260717
O O10 0.468685 0.661611 0.166470
O O11 0.522962 0.647803 0.330395
O O12 0.250000 0.351558 0.911840
O O13 0.982598 0.363160 0.005606
O O14 0.750000 0.391399 0.595755
O O15 0.015520 0.372381 0.501339
O O16 0.750000 0.118669 0.407123
O O17 0.491555 0.166194 0.338145
O O18 0.750000 0.690387 0.765726
O O19 0.477237 0.750000 0.767548
O O20 0.480792 0.645133 0.825125
O O21 0.250000 0.109081 0.094142
#
# Coordination Sequence:
#
# PCOD9452452 Si02
#       8
#     8   8   8   8   8   8   8   8
#     4  11  21  34  56  88 120 149 183 235 286 335
#     4  11  20  35  59  84 115 155 188 225 283 350
#     4  10  22  40  59  80 110 151 197 237 278 337
#     4  11  22  37  59  88 117 146 187 240 290 339
#     4  10  21  38  60  84 114 155 191 228 284 347
#     4  10  22  38  58  87 119 150 188 233 288 342
#     4  10  21  39  61  83 111 151 197 240 281 332
#     4   9  20  37  58  85 115 151 190 230 286 345
#
# _framework density 21.281742000000001
#
# number of rings (size 3 to 8) (size 9 to 14) (size 15 to 20)
#    0.000    1.750    2.500    1.875    0.000    2.500 
#    0.000    5.625    0.000    0.000    0.000    0.000 
#    0.000    0.000    0.000    0.000    0.000    0.000 
#
# Total GULP energy -357661.532990 kJ/mol
# GULP energy per Si atom -5588.461453 kJ/mol
# Density = 2.123330 g / cm^3
# Si number density = 21.281742 Si / 1000 Ang^3
#
#
#
# Elastic Constant Matrix: (Units=GPa)
#
#
# Indices 1 2 3 4 5 6 
#
# 1 29.6146 -4.9021 -8.0470 0.0000 0.0000 0.0000
# 2 -4.9021 84.9117 2.9349 0.0000 0.0000 0.0000
# 3 -8.0470 2.9349 87.4200 0.0000 0.0000 0.0000
# 4 0.0000 0.0000 0.0000 1.3001 0.0000 0.0000
# 5 0.0000 0.0000 0.0000 0.0000 15.4485 0.0000
# 6 0.0000 0.0000 0.0000 0.0000 0.0000 -5.9540
#
#
#
# Elastic Compliance Matrix: (Units=1/GPa)
#
#
# Indices 1 2 3 4 5 6 
#
# 1 0.034939 0.001908 0.003152 0.000000 0.000000 0.000000
# 2 0.001908 0.011895 -0.000224 0.000000 0.000000 0.000000
# 3 0.003152 -0.000224 0.011737 0.000000 0.000000 0.000000
# 4 0.000000 0.000000 0.000000 0.769165 0.000000 0.000000
# 5 0.000000 0.000000 0.000000 0.000000 0.064731 0.000000
# 6 0.000000 0.000000 0.000000 0.000000 0.000000 -0.167954
#
#
# Mechanical properties :
#
#
# Convention : Reuss Voigt Hill
#
# Bulk Modulus (GPa) = 14.65327 20.21311 17.43319
# Shear Modulus (GPa) = 6.77886 16.28962 11.53424
#
# Velocity S-wave (km/s) = 1.78668 2.76964 2.33057
# Velocity P-wave (km/s) = 3.34015 4.44368 3.93084
#
# Compressibility (1/GPa) = 0.06824414
#
# Stress axis : x y z
#
# Youngs Moduli (GPa) = 28.62092 84.07014 85.20290
#
# Poissons Ratio (x) = -0.16042 -0.26857
# Poissons Ratio (y) = -0.05461 0.01906
# Poissons Ratio (z) = -0.09022 0.01881
#
# Static dielectric constant tensor:
#      x y z
#    x 1.787590 0.000000 0.000000 
#    y 0.000000 1.744320 0.000000 
#    z 0.000000 0.000000 1.760620 
# 
# From -- ./inp_files/21438.got.cif
#   From: 2010.05.17/outbox.cif.g08.bks.cpg/sg59_11_cif.got.tgz:21438.got - 2010.06.03 14:40:33.
