data_PCOD9452366
_publ_section_title
;
Structure prediction by ZEFSAII (Michael W. Deem and Ramdas Pophale) SiO2 
 PCOD9452366
Probable space group: P M M N
;
_chemical_formula_sum "Si O2"
_cell_formula_units_Z 56
_cell_length_a 20.622091
_cell_length_b 15.041973
_cell_length_c 8.965854
_cell_angle_alpha 90.000000
_cell_angle_beta 90.000000
_cell_angle_gamma 90.000000
_cell_volume 2781.180440
_symmetry_space_group_name_H-M "P M M N"
_symmetry_group_IT_number 59
_space_group.IT_coordinate_system_code '2'
_symmetry_cell_setting 'orthorhombic'
loop_
_space_group_symop_operation_xyz
x,y,z
1/2-x,1/2-y,z
1/2+x,-y,-z
-x,1/2+y,-z
-x,-y,-z
1/2+x,1/2+y,-z
1/2-x,y,z
x,1/2-y,z
loop_
_atom_site_type_symbol
_atom_site_label
_atom_site_fract_x
_atom_site_fract_y
_atom_site_fract_z
Si Si1 0.174386 0.567841 0.115708
Si Si2 0.325693 0.750000 0.610187
Si Si3 0.036139 0.146248 0.832984
Si Si4 0.827211 0.250000 0.031907
Si Si5 0.001287 0.855334 0.821309
Si Si6 0.437590 0.512957 0.329727
Si Si7 0.177147 0.437098 0.833095
Si Si8 0.886040 0.070922 0.369812
O O1 0.250000 0.578106 0.157525
O O2 0.148946 0.660672 0.046075
O O3 0.129144 0.541265 0.250750
O O4 0.171870 0.493397 0.986209
O O5 0.250000 0.750000 0.578120
O O6 0.358211 0.839985 0.556353
O O7 0.335192 0.750000 0.790420
O O8 0.025038 0.250000 0.795843
O O9 0.113038 0.123915 0.821936
O O10 0.992844 0.079480 0.734447
O O11 0.014400 0.131440 0.004941
O O12 0.750000 0.250000 0.011727
O O13 0.000870 0.750000 0.790820
O O14 0.068584 0.897943 0.766719
O O15 0.951495 0.912841 0.723854
O O16 0.427789 0.522184 0.505326
O O17 0.250000 0.397428 0.827411
O O18 0.168788 0.508818 0.700060
#
# Coordination Sequence:
#
# PCOD9452366 Si02
#       8
#     8   4   8   4   8   8   8   8
#     4  10  21  37  62  91 127 166 208 265 320 375
#     4  11  22  37  59  91 129 169 218 256 307 398
#     4  11  25  41  67  98 124 168 218 269 320 367
#     4   9  18  33  57  89 123 169 210 248 307 374
#     4  11  23  43  67  92 124 167 215 262 322 383
#     4  12  25  41  63  96 136 164 209 264 322 377
#     4  11  22  42  66  90 124 169 216 265 317 375
#     4  12  24  38  62  95 129 175 207 253 324 389
#
# _framework density 20.135334
#
# number of rings (size 3 to 8) (size 9 to 14) (size 15 to 20)
#    0.000    1.000    5.000    2.143    2.000    1.429 
#    0.000    0.714    0.000    0.429    0.000    0.000 
#    0.000    0.000    0.000    0.000    0.000    0.000 
#
# Total GULP energy -312991.759847 kJ/mol
# GULP energy per Si atom -5589.138569 kJ/mol
# Density = 2.008951 g / cm^3
# Si number density = 20.135334 Si / 1000 Ang^3
#
#
#
# Elastic Constant Matrix: (Units=GPa)
#
#
# Indices 1 2 3 4 5 6 
#
# 1 118.4164 22.8952 38.9376 0.0000 0.0000 0.0000
# 2 22.8952 62.5587 28.4683 0.0000 0.0000 0.0000
# 3 38.9376 28.4683 70.4738 0.0000 0.0000 0.0000
# 4 0.0000 0.0000 0.0000 14.6404 0.0000 0.0000
# 5 0.0000 0.0000 0.0000 0.0000 17.6883 0.0000
# 6 0.0000 0.0000 0.0000 0.0000 0.0000 19.6519
#
#
#
# Elastic Compliance Matrix: (Units=1/GPa)
#
#
# Indices 1 2 3 4 5 6 
#
# 1 0.010428 -0.001464 -0.005170 0.000000 0.000000 0.000000
# 2 -0.001464 0.019791 -0.007186 0.000000 0.000000 0.000000
# 3 -0.005170 -0.007186 0.019949 0.000000 0.000000 0.000000
# 4 0.000000 0.000000 0.000000 0.068304 0.000000 0.000000
# 5 0.000000 0.000000 0.000000 0.000000 0.056534 0.000000
# 6 0.000000 0.000000 0.000000 0.000000 0.000000 0.050886
#
#
# Mechanical properties :
#
#
# Convention : Reuss Voigt Hill
#
# Bulk Modulus (GPa) = 44.38904 48.00567 46.19736
# Shear Modulus (GPa) = 19.15408 21.13930 20.14669
#
# Velocity S-wave (km/s) = 3.08761 3.24367 3.16660
# Velocity P-wave (km/s) = 5.89952 6.15807 6.03018
#
# Compressibility (1/GPa) = 0.02252808
#
# Stress axis : x y z
#
# Youngs Moduli (GPa) = 95.89716 50.52881 50.12754
#
# Poissons Ratio (x) = 0.07395 0.25917
# Poissons Ratio (y) = 0.14035 0.36021
# Poissons Ratio (z) = 0.49582 0.36310
#
# Static dielectric constant tensor:
#      x y z
#    x 1.733830 0.000000 0.000000 
#    y 0.000000 1.725910 0.000000 
#    z 0.000000 0.000000 1.672080 
# 
# From -- ./inp_files/11471.got.cif
#   From: 2010.05.17/outbox.cif.g08.bks.cpg/sg59_6_cif.got.tgz:11471.got - 2010.06.03 14:40:33.
