data_PCOD9452470
_publ_section_title
;
Structure prediction by ZEFSAII (Michael W. Deem and Ramdas Pophale) SiO2 
 PCOD9452470
Probable space group: P M M N
;
_chemical_formula_sum "Si O2"
_cell_formula_units_Z 48
_cell_length_a 8.580815
_cell_length_b 9.953772
_cell_length_c 29.212957
_cell_angle_alpha 90.000000
_cell_angle_beta 90.000000
_cell_angle_gamma 90.000000
_cell_volume 2495.121778
_symmetry_space_group_name_H-M "P M M N"
_symmetry_group_IT_number 59
_space_group.IT_coordinate_system_code '2'
_symmetry_cell_setting 'orthorhombic'
loop_
_space_group_symop_operation_xyz
x,y,z
1/2-x,1/2-y,z
1/2+x,-y,-z
-x,1/2+y,-z
-x,-y,-z
1/2+x,1/2+y,-z
1/2-x,y,z
x,1/2-y,z
loop_
_atom_site_type_symbol
_atom_site_label
_atom_site_fract_x
_atom_site_fract_y
_atom_site_fract_z
Si Si1 0.564161 0.405092 0.119292
Si Si2 0.065726 0.250000 0.430692
Si Si3 0.936625 0.093361 0.959129
Si Si4 0.565615 0.404793 0.697265
Si Si5 0.435986 0.406059 0.220098
Si Si6 0.432044 0.750000 0.468975
Si Si7 0.933296 0.968108 0.401466
O O1 0.750000 0.409782 0.113331
O O2 0.513467 0.250000 0.108643
O O3 0.487657 0.515849 0.086806
O O4 0.519790 0.431363 0.171993
O O5 0.250000 0.250000 0.422140
O O6 0.031564 0.250000 0.484899
O O7 0.986528 0.380527 0.409413
O O8 0.750000 0.095756 0.961971
O O9 0.990411 0.250000 0.961184
O O10 0.000000 0.000000 0.000000
O O11 0.750000 0.431710 0.688706
O O12 0.550735 0.250000 0.711384
O O13 0.512297 0.500574 0.738226
O O14 0.476229 0.426387 0.649977
O O15 0.250000 0.426516 0.213427
O O16 0.460559 0.250000 0.232150
O O17 0.250000 0.750000 0.481106
O O18 0.473840 0.622925 0.437607
O O19 0.750000 0.950829 0.409579
#
# Coordination Sequence:
#
# PCOD9452470 Si02
#       7
#     8   4   8   8   8   4   8
#     4  10  21  38  60  88 122 160 202 250 303 360
#     4  12  26  44  66  92 122 160 202 250 303 364
#     4  11  24  40  60  88 121 159 204 253 304 362
#     4  10  21  38  60  86 119 160 203 247 300 361
#     4   9  19  36  59  87 119 160 205 250 301 360
#     4  12  24  44  68  92 124 162 202 246 301 364
#     4  12  25  42  63  93 126 160 202 251 304 363
#
# _framework density 19.237538000000001
#
# number of rings (size 3 to 8) (size 9 to 14) (size 15 to 20)
#    0.000    1.333    0.833    5.000    1.167    5.667 
#    0.000    1.667    0.000    0.000    0.000    0.000 
#    0.000    0.000    0.000    0.000    0.000    0.000 
#
# Total GULP energy -268362.162760 kJ/mol
# GULP energy per Si atom -5590.878391 kJ/mol
# Density = 1.919375 g / cm^3
# Si number density = 19.237538 Si / 1000 Ang^3
#
#
#
# Elastic Constant Matrix: (Units=GPa)
#
#
# Indices 1 2 3 4 5 6 
#
# 1 43.9561 14.5248 8.2560 0.0000 0.0000 0.0000
# 2 14.5248 98.6362 37.2977 0.0000 0.0000 0.0000
# 3 8.2560 37.2977 73.0795 0.0000 0.0000 0.0000
# 4 0.0000 0.0000 0.0000 42.4147 0.0000 0.0000
# 5 0.0000 0.0000 0.0000 0.0000 35.8391 0.0000
# 6 0.0000 0.0000 0.0000 0.0000 0.0000 22.9644
#
#
#
# Elastic Compliance Matrix: (Units=1/GPa)
#
#
# Indices 1 2 3 4 5 6 
#
# 1 0.023988 -0.003107 -0.001124 0.000000 0.000000 0.000000
# 2 -0.003107 0.012965 -0.006266 0.000000 0.000000 0.000000
# 3 -0.001124 -0.006266 0.017009 0.000000 0.000000 0.000000
# 4 0.000000 0.000000 0.000000 0.023577 0.000000 0.000000
# 5 0.000000 0.000000 0.000000 0.000000 0.027903 0.000000
# 6 0.000000 0.000000 0.000000 0.000000 0.000000 0.043546
#
#
# Mechanical properties :
#
#
# Convention : Reuss Voigt Hill
#
# Bulk Modulus (GPa) = 30.33341 37.31430 33.82386
# Shear Modulus (GPa) = 27.62879 30.61652 29.12265
#
# Velocity S-wave (km/s) = 3.79382 3.99369 3.89504
# Velocity P-wave (km/s) = 5.91548 6.38003 6.15214
#
# Compressibility (1/GPa) = 0.03296695
#
# Stress axis : x y z
#
# Youngs Moduli (GPa) = 41.68768 77.12929 58.79332
#
# Poissons Ratio (x) = 0.23967 0.06609
# Poissons Ratio (y) = 0.12954 0.36840
# Poissons Ratio (z) = 0.04686 0.48330
#
# Static dielectric constant tensor:
#      x y z
#    x 1.653850 0.000000 0.000000 
#    y 0.000000 1.644610 0.000000 
#    z 0.000000 0.000000 1.637350 
# 
# From -- ./inp_files/33059.got.cif
#   From: 2010.05.17/outbox.cif.g08.bks.cpg/sg59_17_cif.got.tgz:33059.got - 2010.06.03 14:40:33.
