data_PCOD9452719
_publ_section_title
;
Structure prediction by ZEFSAII (Michael W. Deem and Ramdas Pophale) SiO2 
 PCOD9452719
Probable space group: P M M N
;
_chemical_formula_sum "Si O2"
_cell_formula_units_Z 56
_cell_length_a 16.366265
_cell_length_b 26.986108
_cell_length_c 6.821937
_cell_angle_alpha 90.000000
_cell_angle_beta 90.000000
_cell_angle_gamma 90.000000
_cell_volume 3012.988940
_symmetry_space_group_name_H-M "P M M N"
_symmetry_group_IT_number 59
_space_group.IT_coordinate_system_code '2'
_symmetry_cell_setting 'orthorhombic'
loop_
_space_group_symop_operation_xyz
x,y,z
1/2-x,1/2-y,z
1/2+x,-y,-z
-x,1/2+y,-z
-x,-y,-z
1/2+x,1/2+y,-z
1/2-x,y,z
x,1/2-y,z
loop_
_atom_site_type_symbol
_atom_site_label
_atom_site_fract_x
_atom_site_fract_y
_atom_site_fract_z
Si Si1 0.657917 0.062058 0.176162
Si Si2 0.447611 0.108829 0.670780
Si Si3 0.550322 0.150434 0.323382
Si Si4 0.061691 0.522343 0.162343
Si Si5 0.504305 0.192620 0.925736
Si Si6 0.159271 0.809237 0.337251
Si Si7 0.156289 0.026253 0.506556
O O1 0.750000 0.081939 0.188840
O O2 0.590079 0.102895 0.220606
O O3 0.649512 0.018731 0.337831
O O4 0.639234 0.040559 0.962071
O O5 0.480546 0.134243 0.473808
O O6 0.515333 0.068504 0.738984
O O7 0.443330 0.152052 0.833187
O O8 0.369114 0.076220 0.618935
O O9 0.621439 0.173785 0.457190
O O10 0.515459 0.185758 0.156362
O O11 0.093192 0.485224 0.330294
O O12 0.000000 0.500000 0.000000
O O13 0.485968 0.250000 0.876153
O O14 0.592090 0.178905 0.827374
O O15 0.250000 0.830054 0.303029
O O16 0.164939 0.750000 0.339215
O O17 0.250000 0.028203 0.437783
#
# Coordination Sequence:
#
# PCOD9452719 Si02
#       7
#     8   8   8   8   8   8   8
#     4  11  22  34  52  82 119 158 192 233 278 333
#     4  11  22  38  61  84 114 153 192 243 294 348
#     4  11  20  35  54  79 110 154 196 233 288 344
#     4  12  21  37  59  85 118 157 198 233 282 351
#     4  10  22  38  57  82 109 147 200 250 290 342
#     4   9  19  34  50  73 108 147 192 244 290 337
#     4  11  24  40  58  88 122 153 191 238 294 355
#
# _framework density 18.586193999999999
#
# number of rings (size 3 to 8) (size 9 to 14) (size 15 to 20)
#    0.000    1.286    4.286    2.571    0.000    1.714 
#    0.000    1.429    0.000    0.429    0.000    0.000 
#    0.000    0.000    0.000    0.000    0.000    0.000 
#
# Total GULP energy -312664.307774 kJ/mol
# GULP energy per Si atom -5583.291210 kJ/mol
# Density = 1.854389 g / cm^3
# Si number density = 18.586194 Si / 1000 Ang^3
#
#
#
# Elastic Constant Matrix: (Units=GPa)
#
#
# Indices 1 2 3 4 5 6 
#
# 1 41.0464 19.2737 10.8191 0.0000 0.0000 0.0000
# 2 19.2737 61.1265 19.3497 0.0000 0.0000 0.0000
# 3 10.8191 19.3497 84.5878 0.0000 0.0000 0.0000
# 4 0.0000 0.0000 0.0000 32.5921 0.0000 0.0000
# 5 0.0000 0.0000 0.0000 0.0000 19.4355 0.0000
# 6 0.0000 0.0000 0.0000 0.0000 0.0000 22.7724
#
#
#
# Elastic Compliance Matrix: (Units=1/GPa)
#
#
# Indices 1 2 3 4 5 6 
#
# 1 0.028830 -0.008542 -0.001734 0.000000 0.000000 0.000000
# 2 -0.008542 0.020167 -0.003521 0.000000 0.000000 0.000000
# 3 -0.001734 -0.003521 0.012849 0.000000 0.000000 0.000000
# 4 0.000000 0.000000 0.000000 0.030682 0.000000 0.000000
# 5 0.000000 0.000000 0.000000 0.000000 0.051452 0.000000
# 6 0.000000 0.000000 0.000000 0.000000 0.000000 0.043913
#
#
# Mechanical properties :
#
#
# Convention : Reuss Voigt Hill
#
# Bulk Modulus (GPa) = 29.19305 31.73840 30.46573
# Shear Modulus (GPa) = 22.03569 24.11456 23.07513
#
# Velocity S-wave (km/s) = 3.44698 3.60591 3.52734
# Velocity P-wave (km/s) = 5.61989 5.86943 5.74602
#
# Compressibility (1/GPa) = 0.03425473
#
# Stress axis : x y z
#
# Youngs Moduli (GPa) = 34.68552 49.58517 77.82611
#
# Poissons Ratio (x) = 0.42354 0.13492
# Poissons Ratio (y) = 0.29627 0.27401
# Poissons Ratio (z) = 0.06013 0.17458
#
# Static dielectric constant tensor:
#      x y z
#    x 1.669920 0.000000 0.000000 
#    y 0.000000 1.659300 0.000000 
#    z 0.000000 0.000000 1.657590 
# 
# From -- ./inp_files/2331.got.cif
#   From: 2010.05.17/outbox.cif.g08.bks.cpg/sg59_2_cif.got.tgz:2331.got - 2010.06.03 14:40:33.
