data_PCOD9452064
_publ_section_title
;
Structure prediction by ZEFSAII (Michael W. Deem and Ramdas Pophale) SiO2 
 PCOD9452064
Probable space group: P M M N
;
_chemical_formula_sum "Si O2"
_cell_formula_units_Z 48
_cell_length_a 7.977681
_cell_length_b 10.095466
_cell_length_c 29.357405
_cell_angle_alpha 90.000000
_cell_angle_beta 90.000000
_cell_angle_gamma 90.000000
_cell_volume 2364.398641
_symmetry_space_group_name_H-M "P M M N"
_symmetry_group_IT_number 59
_space_group.IT_coordinate_system_code '2'
_symmetry_cell_setting 'orthorhombic'
loop_
_space_group_symop_operation_xyz
x,y,z
1/2-x,1/2-y,z
1/2+x,-y,-z
-x,1/2+y,-z
-x,-y,-z
1/2+x,1/2+y,-z
1/2-x,y,z
x,1/2-y,z
loop_
_atom_site_type_symbol
_atom_site_label
_atom_site_fract_x
_atom_site_fract_y
_atom_site_fract_z
Si Si1 0.951594 0.750000 0.071217
Si Si2 0.545881 0.750000 0.966874
Si Si3 0.454980 0.098095 0.357665
Si Si4 0.448971 0.465545 0.105414
Si Si5 0.951540 0.600878 0.539146
Si Si6 0.446762 0.604172 0.793940
Si Si7 0.449524 0.600030 0.280019
O O1 0.750000 0.750000 0.071177
O O2 0.012857 0.617875 0.095768
O O3 0.013178 0.750000 0.018753
O O4 0.750000 0.750000 0.968673
O O5 0.492790 0.877609 0.937560
O O6 0.250000 0.097557 0.356612
O O7 0.505975 0.250000 0.347239
O O8 0.507431 0.065997 0.409478
O O9 0.516380 0.991322 0.321194
O O10 0.250000 0.445660 0.109927
O O11 0.529056 0.417494 0.152340
O O12 0.750000 0.604958 0.540797
O O13 0.012196 0.750000 0.529115
O O14 0.000000 0.500000 0.500000
O O15 0.250000 0.604682 0.783769
O O16 0.517020 0.750000 0.781550
O O17 0.524049 0.483939 0.765782
O O18 0.250000 0.610650 0.286963
O O19 0.517459 0.750000 0.278148
#
# Coordination Sequence:
#
# PCOD9452064 Si02
#       7
#     4   4   8   8   8   8   8
#     4  11  23  39  59  89 125 155 183 229 286 333
#     4   9  20  39  63  89 117 149 193 237 276 325
#     4   8  15  31  54  78 107 145 189 234 279 329
#     4  11  22  40  63  88 115 151 194 234 275 330
#     4   9  18  32  51  78 111 147 189 235 281 333
#     4  11  24  41  60  83 111 147 188 231 283 339
#     4  10  21  36  58  87 113 140 180 230 283 340
#
# _framework density 20.301144000000001
#
# number of rings (size 3 to 8) (size 9 to 14) (size 15 to 20)
#    0.000    2.167    0.833    3.250    1.167    3.000 
#    0.000    5.000    0.000    1.000    0.000    0.000 
#    0.000    0.000    0.000    0.000    0.000    0.000 
#
# Total GULP energy -268045.596521 kJ/mol
# GULP energy per Si atom -5584.283261 kJ/mol
# Density = 2.025494 g / cm^3
# Si number density = 20.301144 Si / 1000 Ang^3
#
#
#
# Elastic Constant Matrix: (Units=GPa)
#
#
# Indices 1 2 3 4 5 6 
#
# 1 18.5649 1.7695 -3.3014 0.0000 0.0000 0.0000
# 2 1.7695 150.6404 61.3460 0.0000 0.0000 0.0000
# 3 -3.3014 61.3460 98.1234 0.0000 0.0000 0.0000
# 4 0.0000 0.0000 0.0000 36.5180 0.0000 0.0000
# 5 0.0000 0.0000 0.0000 0.0000 18.9992 0.0000
# 6 0.0000 0.0000 0.0000 0.0000 0.0000 10.4775
#
#
#
# Elastic Compliance Matrix: (Units=1/GPa)
#
#
# Indices 1 2 3 4 5 6 
#
# 1 0.054576 -0.001863 0.003001 0.000000 0.000000 0.000000
# 2 -0.001863 0.008969 -0.005670 0.000000 0.000000 0.000000
# 3 0.003001 -0.005670 0.013837 0.000000 0.000000 0.000000
# 4 0.000000 0.000000 0.000000 0.027384 0.000000 0.000000
# 5 0.000000 0.000000 0.000000 0.000000 0.052634 0.000000
# 6 0.000000 0.000000 0.000000 0.000000 0.000000 0.095442
#
#
# Mechanical properties :
#
#
# Convention : Reuss Voigt Hill
#
# Bulk Modulus (GPa) = 14.63738 42.99522 28.81630
# Shear Modulus (GPa) = 17.56356 27.03327 22.29842
#
# Velocity S-wave (km/s) = 2.94454 3.65309 3.31778
# Velocity P-wave (km/s) = 4.33430 6.24645 5.37607
#
# Compressibility (1/GPa) = 0.06831822
#
# Stress axis : x y z
#
# Youngs Moduli (GPa) = 18.32294 111.49103 72.26888
#
# Poissons Ratio (x) = 0.20774 -0.21689
# Poissons Ratio (y) = 0.03414 0.40978
# Poissons Ratio (z) = -0.05499 0.63218
#
# Static dielectric constant tensor:
#      x y z
#    x 1.737980 0.000000 0.000000 
#    y 0.000000 1.715340 0.000000 
#    z 0.000000 0.000000 1.699490 
# 
# From -- ./inp_files/32994.got.cif
#   From: 2010.05.17/outbox.cif.g08.bks.cpg/sg59_17_cif.got.tgz:32994.got - 2010.06.03 14:40:33.
