data_PCOD9452464
_publ_section_title
;
Structure prediction by ZEFSAII (Michael W. Deem and Ramdas Pophale) SiO2 
 PCOD9452464
Probable space group: P M M N
;
_chemical_formula_sum "Si O2"
_cell_formula_units_Z 64
_cell_length_a 23.548842
_cell_length_b 22.851322
_cell_length_c 5.426320
_cell_angle_alpha 90.000000
_cell_angle_beta 90.000000
_cell_angle_gamma 90.000000
_cell_volume 2920.023100
_symmetry_space_group_name_H-M "P M M N"
_symmetry_group_IT_number 59
_space_group.IT_coordinate_system_code '2'
_symmetry_cell_setting 'orthorhombic'
loop_
_space_group_symop_operation_xyz
x,y,z
1/2-x,1/2-y,z
1/2+x,-y,-z
-x,1/2+y,-z
-x,-y,-z
1/2+x,1/2+y,-z
1/2-x,y,z
x,1/2-y,z
loop_
_atom_site_type_symbol
_atom_site_label
_atom_site_fract_x
_atom_site_fract_y
_atom_site_fract_z
Si Si1 0.188957 0.499939 0.945623
Si Si2 0.574735 0.814936 0.560300
Si Si3 0.079305 0.992313 0.595576
Si Si4 0.029236 0.811878 0.905155
Si Si5 0.523229 0.593937 0.181061
Si Si6 0.684790 0.372812 0.914082
Si Si7 0.115762 0.862455 0.572047
Si Si8 0.124349 0.085206 0.208519
O O1 0.250000 0.502671 0.815535
O O2 0.186200 0.556782 0.119797
O O3 0.181337 0.440797 0.097992
O O4 0.134327 0.503438 0.773423
O O5 0.586402 0.750000 0.462294
O O6 0.533678 0.808243 0.795118
O O7 0.627774 0.854704 0.641020
O O8 0.539710 0.857878 0.383333
O O9 0.096919 0.033635 0.371489
O O10 0.079656 0.923297 0.540230
O O11 0.025464 0.026883 0.718943
O O12 0.040726 0.750000 0.040462
O O13 0.070805 0.816247 0.672981
O O14 0.029732 0.874810 0.044714
O O15 0.577652 0.593811 0.002538
O O16 0.750000 0.351475 0.908284
O O17 0.648245 0.349370 0.683065
O O18 0.658677 0.365566 0.190030
#
# Coordination Sequence:
#
# PCOD9452464 Si02
#       8
#     8   8   8   8   8   8   8   8
#     4   9  17  29  51  79 109 142 179 228 277 335
#     4   9  18  33  53  75 103 143 187 229 276 336
#     4   9  18  32  50  78 116 147 184 224 291 347
#     4  10  22  37  56  81 109 148 197 241 286 333
#     4   9  18  33  53  76 111 149 184 231 276 348
#     4  10  21  38  60  86 116 153 189 228 290 355
#     4  11  22  37  60  87 119 151 189 243 288 343
#     4   9  16  31  49  76 108 137 179 228 275 337
#
# _framework density 21.917634
#
# number of rings (size 3 to 8) (size 9 to 14) (size 15 to 20)
#    0.000    2.500    1.250    0.750    1.750    2.000 
#    0.000    5.625    0.000    2.625    0.000    0.000 
#    0.000    0.000    0.000    0.000    0.000    0.000 
#
# Total GULP energy -356464.207787 kJ/mol
# GULP energy per Si atom -5569.753247 kJ/mol
# Density = 2.186775 g / cm^3
# Si number density = 21.917634 Si / 1000 Ang^3
#
#
#
# Elastic Constant Matrix: (Units=GPa)
#
#
# Indices 1 2 3 4 5 6 
#
# 1 53.1430 10.6780 7.3672 0.0000 0.0000 0.0000
# 2 10.6780 68.8274 2.2324 0.0000 0.0000 0.0000
# 3 7.3672 2.2324 58.0588 0.0000 0.0000 0.0000
# 4 0.0000 0.0000 0.0000 17.1904 0.0000 0.0000
# 5 0.0000 0.0000 0.0000 0.0000 18.3839 0.0000
# 6 0.0000 0.0000 0.0000 0.0000 0.0000 -3.7381
#
#
#
# Elastic Compliance Matrix: (Units=1/GPa)
#
#
# Indices 1 2 3 4 5 6 
#
# 1 0.019749 -0.002986 -0.002391 0.000000 0.000000 0.000000
# 2 -0.002986 0.014999 -0.000198 0.000000 0.000000 0.000000
# 3 -0.002391 -0.000198 0.017535 0.000000 0.000000 0.000000
# 4 0.000000 0.000000 0.000000 0.058172 0.000000 0.000000
# 5 0.000000 0.000000 0.000000 0.000000 0.054396 0.000000
# 6 0.000000 0.000000 0.000000 0.000000 0.000000 -0.267515
#
#
# Mechanical properties :
#
#
# Convention : Reuss Voigt Hill
#
# Bulk Modulus (GPa) = 24.31192 24.50935 24.41064
# Shear Modulus (GPa) = -64.26418 17.01735 -23.62342
#
# Velocity S-wave (km/s) = -5.42074 2.78946 -3.28659
# Velocity P-wave (km/s) = 5.29743 4.64559 1.80017
#
# Compressibility (1/GPa) = 0.04113208
#
# Stress axis : x y z
#
# Youngs Moduli (GPa) = 50.63633 66.67193 57.02901
#
# Poissons Ratio (x) = 0.19910 0.13636
# Poissons Ratio (y) = 0.15121 0.01128
# Poissons Ratio (z) = 0.12108 0.01319
#
# Static dielectric constant tensor:
#      x y z
#    x 1.813120 0.000000 0.000000 
#    y 0.000000 1.891820 0.000000 
#    z 0.000000 0.000000 1.901470 
# 
# From -- ./inp_files/3932.got.cif
#   From: 2010.05.17/outbox.cif.g08.bks.cpg/sg59_2_cif.got.tgz:3932.got - 2010.06.03 14:40:33.
