data_PCOD9452649
_publ_section_title
;
Structure prediction by ZEFSAII (Michael W. Deem and Ramdas Pophale) SiO2 
 PCOD9452649
Probable space group: P M M N
;
_chemical_formula_sum "Si O2"
_cell_formula_units_Z 40
_cell_length_a 8.566671
_cell_length_b 25.976689
_cell_length_c 9.826670
_cell_angle_alpha 90.000000
_cell_angle_beta 90.000000
_cell_angle_gamma 90.000000
_cell_volume 2186.765709
_symmetry_space_group_name_H-M "P M M N"
_symmetry_group_IT_number 59
_space_group.IT_coordinate_system_code '2'
_symmetry_cell_setting 'orthorhombic'
loop_
_space_group_symop_operation_xyz
x,y,z
1/2-x,1/2-y,z
1/2+x,-y,-z
-x,1/2+y,-z
-x,-y,-z
1/2+x,1/2+y,-z
1/2-x,y,z
x,1/2-y,z
loop_
_atom_site_type_symbol
_atom_site_label
_atom_site_fract_x
_atom_site_fract_y
_atom_site_fract_z
Si Si1 0.936958 0.689733 0.237450
Si Si2 0.563393 0.118298 0.533329
Si Si3 0.436186 0.029731 0.727923
Si Si4 0.564094 0.585010 0.746285
Si Si5 0.935651 0.103113 0.955665
O O1 0.750000 0.682369 0.231274
O O2 0.971735 0.750000 0.225990
O O3 0.999138 0.665722 0.378225
O O4 0.015097 0.655713 0.119333
O O5 0.750000 0.117502 0.537456
O O6 0.499024 0.067421 0.610243
O O7 0.502411 0.117237 0.380017
O O8 0.250000 0.024886 0.717542
O O9 0.482011 0.057841 0.868932
O O10 0.514044 0.974123 0.721752
O O11 0.750000 0.588950 0.751358
O O12 0.491461 0.601704 0.889737
O O13 0.750000 0.096071 0.946897
#
# Coordination Sequence:
#
# PCOD9452649 Si02
#       5
#     8   8   8   8   8
#     4  10  21  40  64  86 109 142 183 226 276 333
#     4  11  22  37  57  84 114 146 187 230 275 326
#     4  11  21  36  56  81 114 153 192 225 268 326
#     4  12  23  37  55  80 116 152 186 228 278 326
#     4  11  22  37  57  84 114 146 187 230 275 326
#
# _framework density 18.291855000000002
#
# number of rings (size 3 to 8) (size 9 to 14) (size 15 to 20)
#    0.000    1.000    0.000   11.400    0.000    1.600 
#    0.000    1.000    0.000    6.000    0.000    0.000 
#    0.000    0.000    0.000    0.000    0.000    0.000 
#
# Total GULP energy -223797.922722 kJ/mol
# GULP energy per Si atom -5594.948068 kJ/mol
# Density = 1.825022 g / cm^3
# Si number density = 18.291855 Si / 1000 Ang^3
#
#
#
# Elastic Constant Matrix: (Units=GPa)
#
#
# Indices 1 2 3 4 5 6 
#
# 1 80.6313 -2.3104 -10.4547 0.0000 0.0000 0.0000
# 2 -2.3104 36.9070 -21.8539 0.0000 0.0000 0.0000
# 3 -10.4547 -21.8539 63.4382 0.0000 0.0000 0.0000
# 4 0.0000 0.0000 0.0000 2.1206 0.0000 0.0000
# 5 0.0000 0.0000 0.0000 0.0000 34.4093 0.0000
# 6 0.0000 0.0000 0.0000 0.0000 0.0000 28.4693
#
#
#
# Elastic Compliance Matrix: (Units=1/GPa)
#
#
# Indices 1 2 3 4 5 6 
#
# 1 0.012867 0.002589 0.003012 0.000000 0.000000 0.000000
# 2 0.002589 0.034560 0.012332 0.000000 0.000000 0.000000
# 3 0.003012 0.012332 0.020508 0.000000 0.000000 0.000000
# 4 0.000000 0.000000 0.000000 0.471561 0.000000 0.000000
# 5 0.000000 0.000000 0.000000 0.000000 0.029062 0.000000
# 6 0.000000 0.000000 0.000000 0.000000 0.000000 0.035126
#
#
# Mechanical properties :
#
#
# Convention : Reuss Voigt Hill
#
# Bulk Modulus (GPa) = 9.63368 12.41539 11.02453
# Shear Modulus (GPa) = 8.29991 27.37287 17.83639
#
# Velocity S-wave (km/s) = 2.13245 3.87260 3.12605
# Velocity P-wave (km/s) = 3.36767 5.17669 4.36688
#
# Compressibility (1/GPa) = 0.10380252
#
# Stress axis : x y z
#
# Youngs Moduli (GPa) = 77.71870 28.93553 48.76101
#
# Poissons Ratio (x) = -0.07492 -0.14689
# Poissons Ratio (y) = -0.20123 -0.60133
# Poissons Ratio (z) = -0.23412 -0.35684
#
# Static dielectric constant tensor:
#      x y z
#    x 1.606800 0.000000 0.000000 
#    y 0.000000 1.604370 0.000000 
#    z 0.000000 0.000000 1.625630 
# 
# From -- ./inp_files/5693.got.cif
#   From: 2010.05.17/outbox.cif.g08.bks.cpg/sg59_3_cif.got.tgz:5693.got - 2010.06.03 14:40:33.
