data_PCOD9452008
_publ_section_title
;
Structure prediction by ZEFSAII (Michael W. Deem and Ramdas Pophale) SiO2 
 PCOD9452008
Probable space group: P M M N
;
_chemical_formula_sum "Si O2"
_cell_formula_units_Z 56
_cell_length_a 8.591201
_cell_length_b 15.035821
_cell_length_c 21.944635
_cell_angle_alpha 90.000000
_cell_angle_beta 90.000000
_cell_angle_gamma 90.000000
_cell_volume 2834.714913
_symmetry_space_group_name_H-M "P M M N"
_symmetry_group_IT_number 59
_space_group.IT_coordinate_system_code '2'
_symmetry_cell_setting 'orthorhombic'
loop_
_space_group_symop_operation_xyz
x,y,z
1/2-x,1/2-y,z
1/2+x,-y,-z
-x,1/2+y,-z
-x,-y,-z
1/2+x,1/2+y,-z
1/2-x,y,z
x,1/2-y,z
loop_
_atom_site_type_symbol
_atom_site_label
_atom_site_fract_x
_atom_site_fract_y
_atom_site_fract_z
Si Si1 0.562138 0.647274 0.162353
Si Si2 0.938265 0.531011 0.410488
Si Si3 0.938612 0.647603 0.788337
Si Si4 0.062125 0.478638 0.727088
Si Si5 0.062273 0.852871 0.520368
Si Si6 0.067700 0.912666 0.032838
Si Si7 0.924057 0.648978 0.917939
O O1 0.750000 0.647053 0.163026
O O2 0.509918 0.750000 0.167467
O O3 0.507260 0.587399 0.219122
O O4 0.509879 0.609682 0.096883
O O5 0.750000 0.534940 0.414485
O O6 0.985539 0.548495 0.340921
O O7 0.985338 0.430454 0.431372
O O8 0.006506 0.603903 0.456685
O O9 0.750000 0.645522 0.789099
O O10 0.988853 0.750000 0.777142
O O11 0.990778 0.609612 0.855414
O O12 0.002789 0.577762 0.740502
O O13 0.250000 0.479201 0.728798
O O14 0.250000 0.850229 0.521100
O O15 0.008178 0.750000 0.529382
O O16 0.250000 0.916413 0.041933
O O17 0.024479 0.847145 0.978198
O O18 0.000000 0.000000 0.000000
O O19 0.750000 0.613361 0.931298
O O20 0.903644 0.750000 0.897916
#
# Coordination Sequence:
#
# PCOD9452008 Si02
#       7
#     8   8   8   8   8   8   8
#     4  10  22  40  58  78 110 149 187 230 280 332
#     4   9  19  35  55  82 114 145 181 225 270 318
#     4   9  19  35  54  78 109 145 183 225 278 337
#     4  10  21  36  56  82 110 145 187 227 270 322
#     4   9  18  34  56  82 113 147 181 219 266 319
#     4  12  24  36  53  77 103 133 176 228 281 334
#     4   9  18  34  54  74  99 131 166 210 268 325
#
# _framework density 19.755072999999999
#
# number of rings (size 3 to 8) (size 9 to 14) (size 15 to 20)
#    0.000    2.286    0.000    3.429    0.000    8.000 
#    0.000    4.286    0.000    0.000    0.000    0.000 
#    0.000    0.000    0.000    0.000    0.000    0.000 
#
# Total GULP energy -311992.342108 kJ/mol
# GULP energy per Si atom -5571.291823 kJ/mol
# Density = 1.971011 g / cm^3
# Si number density = 19.755073 Si / 1000 Ang^3
#
#
#
# Elastic Constant Matrix: (Units=GPa)
#
#
# Indices 1 2 3 4 5 6 
#
# 1 9.7108 9.3083 8.8841 0.0000 0.0000 0.0000
# 2 9.3083 96.1322 18.9710 0.0000 0.0000 0.0000
# 3 8.8841 18.9710 98.5394 0.0000 0.0000 0.0000
# 4 0.0000 0.0000 0.0000 17.6274 0.0000 0.0000
# 5 0.0000 0.0000 0.0000 0.0000 18.8030 0.0000
# 6 0.0000 0.0000 0.0000 0.0000 0.0000 23.0092
#
#
#
# Elastic Compliance Matrix: (Units=1/GPa)
#
#
# Indices 1 2 3 4 5 6 
#
# 1 0.120692 -0.009916 -0.008972 0.000000 0.000000 0.000000
# 2 -0.009916 0.011628 -0.001345 0.000000 0.000000 0.000000
# 3 -0.008972 -0.001345 0.011216 0.000000 0.000000 0.000000
# 4 0.000000 0.000000 0.000000 0.056730 0.000000 0.000000
# 5 0.000000 0.000000 0.000000 0.000000 0.053183 0.000000
# 6 0.000000 0.000000 0.000000 0.000000 0.000000 0.043461
#
#
# Mechanical properties :
#
#
# Convention : Reuss Voigt Hill
#
# Bulk Modulus (GPa) = 9.70211 30.96769 20.33490
# Shear Modulus (GPa) = 13.45056 23.03586 18.24321
#
# Velocity S-wave (km/s) = 2.61217 3.41849 3.04216
# Velocity P-wave (km/s) = 3.74430 5.59386 4.75978
#
# Compressibility (1/GPa) = 0.10307042
#
# Stress axis : x y z
#
# Youngs Moduli (GPa) = 8.28555 86.00058 89.15829
#
# Poissons Ratio (x) = 0.85277 0.79995
# Poissons Ratio (y) = 0.08216 0.11988
# Poissons Ratio (z) = 0.07434 0.11564
#
# Static dielectric constant tensor:
#      x y z
#    x 1.719900 0.000000 0.000000 
#    y 0.000000 1.723130 0.000000 
#    z 0.000000 0.000000 1.724010 
# 
# From -- ./inp_files/29059.got.cif
#   From: 2010.05.17/outbox.cif.g08.bks.cpg/sg59_15_cif.got.tgz:29059.got - 2010.06.03 14:40:33.
