data_PCOD9452087
_publ_section_title
;
Structure prediction by ZEFSAII (Michael W. Deem and Ramdas Pophale) SiO2 
 PCOD9452087
Probable space group: P M M N
;
_chemical_formula_sum "Si O2"
_cell_formula_units_Z 56
_cell_length_a 9.240511
_cell_length_b 14.009426
_cell_length_c 21.533414
_cell_angle_alpha 90.000000
_cell_angle_beta 90.000000
_cell_angle_gamma 90.000000
_cell_volume 2787.592068
_symmetry_space_group_name_H-M "P M M N"
_symmetry_group_IT_number 59
_space_group.IT_coordinate_system_code '2'
_symmetry_cell_setting 'orthorhombic'
loop_
_space_group_symop_operation_xyz
x,y,z
1/2-x,1/2-y,z
1/2+x,-y,-z
-x,1/2+y,-z
-x,-y,-z
1/2+x,1/2+y,-z
1/2-x,y,z
x,1/2-y,z
loop_
_atom_site_type_symbol
_atom_site_label
_atom_site_fract_x
_atom_site_fract_y
_atom_site_fract_z
Si Si1 0.422128 0.040325 0.713819
Si Si2 0.584979 0.134639 0.599890
Si Si3 0.415970 0.635221 0.031254
Si Si4 0.586088 0.633747 0.520223
Si Si5 0.076487 0.544796 0.162256
Si Si6 0.577817 0.862268 0.664090
Si Si7 0.923113 0.858484 0.906017
O O1 0.250000 0.042874 0.714861
O O2 0.485392 0.098051 0.655389
O O3 0.490657 0.078306 0.777746
O O4 0.483297 0.933172 0.704623
O O5 0.750000 0.101710 0.608849
O O6 0.584774 0.250000 0.600120
O O7 0.523434 0.102315 0.533141
O O8 0.250000 0.602732 0.022124
O O9 0.417203 0.750000 0.033514
O O10 0.463413 0.597833 0.098325
O O11 0.509477 0.608444 0.971373
O O12 0.750000 0.601587 0.506408
O O13 0.588285 0.750000 0.518339
O O14 0.550786 0.611561 0.591628
O O15 0.250000 0.555447 0.171766
O O16 0.042994 0.433969 0.147378
O O17 0.750000 0.875332 0.675885
O O18 0.546296 0.750000 0.672685
O O19 0.750000 0.857920 0.912772
O O20 0.971462 0.750000 0.893080
#
# Coordination Sequence:
#
# PCOD9452087 Si02
#       7
#     8   8   8   8   8   8   8
#     4  12  26  39  54  80 113 150 191 233 278 329
#     4  10  21  38  60  83 109 144 185 230 280 335
#     4   9  18  33  55  82 108 135 170 216 269 320
#     4   8  15  31  57  86 111 137 175 226 282 333
#     4  10  21  37  54  74 106 145 184 223 264 319
#     4   9  19  38  62  84 110 146 185 228 279 334
#     4   9  18  33  55  82 108 136 172 215 265 319
#
# _framework density 20.089023000000001
#
# number of rings (size 3 to 8) (size 9 to 14) (size 15 to 20)
#    0.000    2.429    0.000    3.000    0.000    4.571 
#    0.000    4.286    0.000    0.000    0.000    0.000 
#    0.000    0.000    0.000    0.000    0.000    0.000 
#
# Total GULP energy -312799.365901 kJ/mol
# GULP energy per Si atom -5585.702963 kJ/mol
# Density = 2.004330 g / cm^3
# Si number density = 20.089023 Si / 1000 Ang^3
#
#
#
# Elastic Constant Matrix: (Units=GPa)
#
#
# Indices 1 2 3 4 5 6 
#
# 1 64.6982 10.3491 47.4227 0.0000 0.0000 0.0000
# 2 10.3491 33.4360 -0.0231 0.0000 0.0000 0.0000
# 3 47.4227 -0.0231 83.2571 0.0000 0.0000 0.0000
# 4 0.0000 0.0000 0.0000 18.8963 0.0000 0.0000
# 5 0.0000 0.0000 0.0000 0.0000 36.4300 0.0000
# 6 0.0000 0.0000 0.0000 0.0000 0.0000 21.9160
#
#
#
# Elastic Compliance Matrix: (Units=1/GPa)
#
#
# Indices 1 2 3 4 5 6 
#
# 1 0.029006 -0.008989 -0.016524 0.000000 0.000000 0.000000
# 2 -0.008989 0.032694 0.005129 0.000000 0.000000 0.000000
# 3 -0.016524 0.005129 0.021425 0.000000 0.000000 0.000000
# 4 0.000000 0.000000 0.000000 0.052921 0.000000 0.000000
# 5 0.000000 0.000000 0.000000 0.000000 0.027450 0.000000
# 6 0.000000 0.000000 0.000000 0.000000 0.000000 0.045629
#
#
# Mechanical properties :
#
#
# Convention : Reuss Voigt Hill
#
# Bulk Modulus (GPa) = 23.60941 32.98764 28.29852
# Shear Modulus (GPa) = 18.93860 23.69131 21.31496
#
# Velocity S-wave (km/s) = 3.07373 3.43784 3.26087
# Velocity P-wave (km/s) = 4.93710 5.67580 5.31929
#
# Compressibility (1/GPa) = 0.04235599
#
# Stress axis : x y z
#
# Youngs Moduli (GPa) = 34.47524 30.58683 46.67545
#
# Poissons Ratio (x) = 0.27496 0.77128
# Poissons Ratio (y) = 0.30991 -0.23942
# Poissons Ratio (z) = 0.56968 -0.15689
#
# Static dielectric constant tensor:
#      x y z
#    x 1.677550 0.000000 0.000000 
#    y 0.000000 1.768590 0.000000 
#    z 0.000000 0.000000 1.682370 
# 
# From -- ./inp_files/29083.got.cif
#   From: 2010.05.17/outbox.cif.g08.bks.cpg/sg59_15_cif.got.tgz:29083.got - 2010.06.03 14:40:33.
