data_PCOD9452629
_publ_section_title
;
Structure prediction by ZEFSAII (Michael W. Deem and Ramdas Pophale) SiO2 
 PCOD9452629
Probable space group: P M M N
;
_chemical_formula_sum "Si O2"
_cell_formula_units_Z 64
_cell_length_a 14.996921
_cell_length_b 17.204559
_cell_length_c 12.395718
_cell_angle_alpha 90.000000
_cell_angle_beta 90.000000
_cell_angle_gamma 90.000000
_cell_volume 3198.286289
_symmetry_space_group_name_H-M "P M M N"
_symmetry_group_IT_number 59
_space_group.IT_coordinate_system_code '2'
_symmetry_cell_setting 'orthorhombic'
loop_
_space_group_symop_operation_xyz
x,y,z
1/2-x,1/2-y,z
1/2+x,-y,-z
-x,1/2+y,-z
-x,-y,-z
1/2+x,1/2+y,-z
1/2-x,y,z
x,1/2-y,z
loop_
_atom_site_type_symbol
_atom_site_label
_atom_site_fract_x
_atom_site_fract_y
_atom_site_fract_z
Si Si1 0.154904 0.156719 0.930353
Si Si2 0.468937 0.911855 0.013187
Si Si3 0.115524 0.339773 0.689747
Si Si4 0.587073 0.160900 0.767429
Si Si5 0.148933 0.072403 0.467054
Si Si6 0.652264 0.388018 0.546202
Si Si7 0.354253 0.655881 0.819642
Si Si8 0.515488 0.339096 0.375929
O O1 0.250000 0.130592 0.978143
O O2 0.154529 0.250000 0.926121
O O3 0.152052 0.130826 0.804821
O O4 0.063633 0.133292 0.987375
O O5 0.422333 0.891943 0.127194
O O6 0.401508 0.884001 0.921255
O O7 0.500000 0.000000 0.000000
O O8 0.143922 0.250000 0.671560
O O9 0.138593 0.390787 0.586399
O O10 0.010250 0.338787 0.712068
O O11 0.608657 0.250000 0.798423
O O12 0.649324 0.130212 0.672884
O O13 0.250000 0.088665 0.429195
O O14 0.071823 0.109097 0.393254
O O15 0.137807 0.979692 0.471468
O O16 0.750000 0.366068 0.503016
O O17 0.574661 0.343711 0.483999
O O18 0.250000 0.634032 0.807225
O O19 0.357165 0.750000 0.831263
O O20 0.416467 0.635179 0.717592
O O21 0.488649 0.250000 0.356236
#
# Coordination Sequence:
#
# PCOD9452629 Si02
#       8
#     8   8   8   8   8   8   8   8
#     4   9  18  35  60  89 122 160 206 256 305 371
#     4  11  24  39  64  94 126 161 199 258 327 376
#     4   9  17  32  57  90 124 161 203 249 305 372
#     4  10  21  39  63  90 120 159 206 259 312 371
#     4  11  23  36  56  89 131 172 205 252 316 382
#     4  11  24  39  60  92 128 167 209 262 325 376
#     4  10  23  44  67  90 120 165 220 265 306 370
#     4  11  23  40  64  90 124 169 215 263 310 374
#
# _framework density 20.010715999999999
#
# number of rings (size 3 to 8) (size 9 to 14) (size 15 to 20)
#    0.000    1.750    1.250    3.750    1.750    5.000 
#    0.000    0.625    0.000    0.750    0.000    0.000 
#    0.000    0.000    0.000    0.000    0.000    0.000 
#
# Total GULP energy -357325.995138 kJ/mol
# GULP energy per Si atom -5583.218674 kJ/mol
# Density = 1.996517 g / cm^3
# Si number density = 20.010716 Si / 1000 Ang^3
#
#
#
# Elastic Constant Matrix: (Units=GPa)
#
#
# Indices 1 2 3 4 5 6 
#
# 1 120.4588 19.8323 30.4308 0.0000 0.0000 0.0000
# 2 19.8323 59.0466 28.2178 0.0000 0.0000 0.0000
# 3 30.4308 28.2178 94.8055 0.0000 0.0000 0.0000
# 4 0.0000 0.0000 0.0000 -42.8197 0.0000 0.0000
# 5 0.0000 0.0000 0.0000 0.0000 3.3625 0.0000
# 6 0.0000 0.0000 0.0000 0.0000 0.0000 17.9983
#
#
#
# Elastic Compliance Matrix: (Units=1/GPa)
#
#
# Indices 1 2 3 4 5 6 
#
# 1 0.009225 -0.001963 -0.002377 0.000000 0.000000 0.000000
# 2 -0.001963 0.020162 -0.005371 0.000000 0.000000 0.000000
# 3 -0.002377 -0.005371 0.012909 0.000000 0.000000 0.000000
# 4 0.000000 0.000000 0.000000 -0.023354 0.000000 0.000000
# 5 0.000000 0.000000 0.000000 0.000000 0.297401 0.000000
# 6 0.000000 0.000000 0.000000 0.000000 0.000000 0.055561
#
#
# Mechanical properties :
#
#
# Convention : Reuss Voigt Hill
#
# Bulk Modulus (GPa) = 43.71517 47.91916 45.81717
# Shear Modulus (GPa) = 12.53290 8.76356 10.64823
#
# Velocity S-wave (km/s) = 2.50533 2.09498 2.30929
# Velocity P-wave (km/s) = 5.50111 5.46358 5.48238
#
# Compressibility (1/GPa) = 0.02287535
#
# Stress axis : x y z
#
# Youngs Moduli (GPa) = 108.39883 49.59908 77.46252
#
# Poissons Ratio (x) = 0.09734 0.18413
# Poissons Ratio (y) = 0.21274 0.41605
# Poissons Ratio (z) = 0.25766 0.26639
#
# Static dielectric constant tensor:
#      x y z
#    x 1.744740 0.000000 0.000000 
#    y 0.000000 1.715750 0.000000 
#    z 0.000000 0.000000 1.710300 
# 
# From -- ./inp_files/17224.got.cif
#   From: 2010.05.17/outbox.cif.g08.bks.cpg/sg59_9_cif.got.tgz:17224.got - 2010.06.03 14:40:33.
