data_PCOD9452804
_publ_section_title
;
Structure prediction by ZEFSAII (Michael W. Deem and Ramdas Pophale) SiO2 
 PCOD9452804
Probable space group: P M M N
;
_chemical_formula_sum "Si O2"
_cell_formula_units_Z 40
_cell_length_a 7.637428
_cell_length_b 16.549113
_cell_length_c 15.975775
_cell_angle_alpha 90.000000
_cell_angle_beta 90.000000
_cell_angle_gamma 90.000000
_cell_volume 2019.220682
_symmetry_space_group_name_H-M "P M M N"
_symmetry_group_IT_number 59
_space_group.IT_coordinate_system_code '2'
_symmetry_cell_setting 'orthorhombic'
loop_
_space_group_symop_operation_xyz
x,y,z
1/2-x,1/2-y,z
1/2+x,-y,-z
-x,1/2+y,-z
-x,-y,-z
1/2+x,1/2+y,-z
1/2-x,y,z
x,1/2-y,z
loop_
_atom_site_type_symbol
_atom_site_label
_atom_site_fract_x
_atom_site_fract_y
_atom_site_fract_z
Si Si1 0.454618 0.930591 0.754072
Si Si2 0.548531 0.097776 0.668052
Si Si3 0.250000 0.348013 0.543224
Si Si4 0.750000 0.845664 0.649110
Si Si5 0.957575 0.750000 0.223297
Si Si6 0.961995 0.250000 0.972533
Si Si7 0.959766 0.080709 0.052929
O O1 0.250000 0.907177 0.750485
O O2 0.579477 0.875485 0.698336
O O3 0.515342 0.928887 0.850674
O O4 0.477574 0.019776 0.716404
O O5 0.750000 0.084894 0.642555
O O6 0.420766 0.119717 0.591709
O O7 0.537814 0.171783 0.732862
O O8 0.250000 0.250000 0.547340
O O9 0.250000 0.374832 0.446889
O O10 0.750000 0.750000 0.646534
O O11 0.750000 0.750000 0.240236
O O12 0.988097 0.750000 0.124614
O O13 0.750000 0.250000 0.978112
O O14 0.025165 0.165848 0.014382
O O15 0.750000 0.086490 0.053951
O O16 0.000000 0.000000 0.000000
#
# Coordination Sequence:
#
# PCOD9452804 Si02
#       7
#     8   8   4   4   4   4   8
#     4  11  24  45  68  99 133 177 222 274 332 392
#     4  12  22  40  68  99 134 175 215 273 337 396
#     4  11  24  46  68 100 138 165 222 278 330 401
#     4  11  28  48  70  97 131 178 221 280 334 401
#     4  12  22  38  62  97 140 174 219 270 338 404
#     4  10  22  40  60  92 125 177 223 269 329 400
#     4  10  23  40  63  93 132 172 224 277 326 393
#
# _framework density 19.809622999999998
#
# number of rings (size 3 to 8) (size 9 to 14) (size 15 to 20)
#    0.000    1.000    4.000    2.100    2.800    6.000 
#    0.000    2.000    0.000    0.000    0.000    0.000 
#    0.000    0.000    0.000    0.000    0.000    0.000 
#
# Total GULP energy -223645.708680 kJ/mol
# GULP energy per Si atom -5591.142717 kJ/mol
# Density = 1.976454 g / cm^3
# Si number density = 19.809623 Si / 1000 Ang^3
#
#
#
# Elastic Constant Matrix: (Units=GPa)
#
#
# Indices 1 2 3 4 5 6 
#
# 1 113.4466 20.2662 61.0150 0.0000 0.0000 0.0000
# 2 20.2662 114.0951 72.3145 0.0000 0.0000 0.0000
# 3 61.0150 72.3145 201.1005 0.0000 0.0000 0.0000
# 4 0.0000 0.0000 0.0000 30.1128 0.0000 0.0000
# 5 0.0000 0.0000 0.0000 0.0000 33.0878 0.0000
# 6 0.0000 0.0000 0.0000 0.0000 0.0000 18.1433
#
#
#
# Elastic Compliance Matrix: (Units=1/GPa)
#
#
# Indices 1 2 3 4 5 6 
#
# 1 0.010537 0.000200 -0.003269 0.000000 0.000000 0.000000
# 2 0.000200 0.011356 -0.004144 0.000000 0.000000 0.000000
# 3 -0.003269 -0.004144 0.007455 0.000000 0.000000 0.000000
# 4 0.000000 0.000000 0.000000 0.033209 0.000000 0.000000
# 5 0.000000 0.000000 0.000000 0.000000 0.030223 0.000000
# 6 0.000000 0.000000 0.000000 0.000000 0.000000 0.055117
#
#
# Mechanical properties :
#
#
# Convention : Reuss Voigt Hill
#
# Bulk Modulus (GPa) = 67.01692 81.75929 74.38811
# Shear Modulus (GPa) = 29.88728 34.60519 32.24623
#
# Velocity S-wave (km/s) = 3.88844 4.18411 4.03899
# Velocity P-wave (km/s) = 7.35282 8.04391 7.70612
#
# Compressibility (1/GPa) = 0.01492160
#
# Stress axis : x y z
#
# Youngs Moduli (GPa) = 94.90245 88.06172 134.14329
#
# Poissons Ratio (x) = -0.01764 0.43852
# Poissons Ratio (y) = -0.01901 0.55592
# Poissons Ratio (z) = 0.31024 0.36495
#
# Static dielectric constant tensor:
#      x y z
#    x 1.704360 0.000000 0.000000 
#    y 0.000000 1.666920 0.000000 
#    z 0.000000 0.000000 1.668780 
# 
# From -- ./inp_files/20053.got.cif
#   From: 2010.05.17/outbox.cif.g08.bks.cpg/sg59_11_cif.got.tgz:20053.got - 2010.06.03 14:40:33.
