data_PCOD9452076
_publ_section_title
;
Structure prediction by ZEFSAII (Michael W. Deem and Ramdas Pophale) SiO2 
 PCOD9452076
Probable space group: P M M N
;
_chemical_formula_sum "Si O2"
_cell_formula_units_Z 48
_cell_length_a 9.654762
_cell_length_b 7.912431
_cell_length_c 29.353002
_cell_angle_alpha 90.000000
_cell_angle_beta 90.000000
_cell_angle_gamma 90.000000
_cell_volume 2242.353260
_symmetry_space_group_name_H-M "P M M N"
_symmetry_group_IT_number 59
_space_group.IT_coordinate_system_code '2'
_symmetry_cell_setting 'orthorhombic'
loop_
_space_group_symop_operation_xyz
x,y,z
1/2-x,1/2-y,z
1/2+x,-y,-z
-x,1/2+y,-z
-x,-y,-z
1/2+x,1/2+y,-z
1/2-x,y,z
x,1/2-y,z
loop_
_atom_site_type_symbol
_atom_site_label
_atom_site_fract_x
_atom_site_fract_y
_atom_site_fract_z
Si Si1 0.409539 0.046388 0.130448
Si Si2 0.750000 0.057446 0.425481
Si Si3 0.750000 0.562248 0.523945
Si Si4 0.597147 0.043891 0.701518
Si Si5 0.589715 0.453934 0.044223
Si Si6 0.453532 0.945893 0.400718
Si Si7 0.592389 0.545795 0.217454
O O1 0.250000 0.983995 0.129525
O O2 0.403159 0.250000 0.127093
O O3 0.503558 0.984538 0.088227
O O4 0.490696 0.002276 0.176461
O O5 0.750000 0.250000 0.409310
O O6 0.750000 0.056212 0.480410
O O7 0.615255 0.964538 0.407719
O O8 0.750000 0.750000 0.504619
O O9 0.620980 0.536830 0.557479
O O10 0.750000 0.997323 0.719039
O O11 0.590639 0.250000 0.700158
O O12 0.583827 0.986753 0.649294
O O13 0.477380 0.985788 0.735416
O O14 0.750000 0.515014 0.042626
O O15 0.596127 0.250000 0.046779
O O16 0.500000 0.500000 0.000000
O O17 0.411369 0.750000 0.402831
O O18 0.750000 0.484158 0.211079
O O19 0.597500 0.750000 0.219101
#
# Coordination Sequence:
#
# PCOD9452076 Si02
#       7
#     8   4   4   8   8   8   8
#     4  10  21  38  59  83 115 156 199 242 295 353
#     4  12  26  42  60  88 124 158 198 246 297 354
#     4  12  24  42  64  90 122 158 196 244 297 354
#     4   9  18  35  60  87 114 148 191 237 285 343
#     4  10  21  37  58  84 115 154 199 248 301 357
#     4  11  22  40  65  91 118 156 200 244 297 357
#     4  10  21  36  59  90 120 151 193 241 288 344
#
# _framework density 21.406082999999999
#
# number of rings (size 3 to 8) (size 9 to 14) (size 15 to 20)
#    0.000    1.667    0.833    4.000    1.167    3.667 
#    0.000    1.667    0.000    0.000    0.000    0.000 
#    0.000    0.000    0.000    0.000    0.000    0.000 
#
# Total GULP energy -268263.544872 kJ/mol
# GULP energy per Si atom -5588.823852 kJ/mol
# Density = 2.135736 g / cm^3
# Si number density = 21.406083 Si / 1000 Ang^3
#
#
#
# Elastic Constant Matrix: (Units=GPa)
#
#
# Indices 1 2 3 4 5 6 
#
# 1 202.7444 5.0727 58.3199 0.0000 0.0000 0.0000
# 2 5.0727 34.9601 -2.2847 0.0000 0.0000 0.0000
# 3 58.3199 -2.2847 109.5556 0.0000 0.0000 0.0000
# 4 0.0000 0.0000 0.0000 21.9901 0.0000 0.0000
# 5 0.0000 0.0000 0.0000 0.0000 43.4550 0.0000
# 6 0.0000 0.0000 0.0000 0.0000 0.0000 23.7224
#
#
#
# Elastic Compliance Matrix: (Units=1/GPa)
#
#
# Indices 1 2 3 4 5 6 
#
# 1 0.005863 -0.001056 -0.003143 0.000000 0.000000 0.000000
# 2 -0.001056 0.028833 0.001163 0.000000 0.000000 0.000000
# 3 -0.003143 0.001163 0.010825 0.000000 0.000000 0.000000
# 4 0.000000 0.000000 0.000000 0.045475 0.000000 0.000000
# 5 0.000000 0.000000 0.000000 0.000000 0.023012 0.000000
# 6 0.000000 0.000000 0.000000 0.000000 0.000000 0.042154
#
#
# Mechanical properties :
#
#
# Convention : Reuss Voigt Hill
#
# Bulk Modulus (GPa) = 25.34850 52.16401 38.75625
# Shear Modulus (GPa) = 28.50884 36.91031 32.70957
#
# Velocity S-wave (km/s) = 3.65336 4.15696 3.91327
# Velocity P-wave (km/s) = 5.44642 6.88928 6.20989
#
# Compressibility (1/GPa) = 0.03945007
#
# Stress axis : x y z
#
# Youngs Moduli (GPa) = 170.56599 34.68213 92.37737
#
# Poissons Ratio (x) = 0.03663 0.29034
# Poissons Ratio (y) = 0.18013 -0.10748
# Poissons Ratio (z) = 0.53609 -0.04035
#
# Static dielectric constant tensor:
#      x y z
#    x 1.794030 0.000000 0.000000 
#    y 0.000000 1.777510 0.000000 
#    z 0.000000 0.000000 1.738790 
# 
# From -- ./inp_files/32937.got.cif
#   From: 2010.05.17/outbox.cif.g08.bks.cpg/sg59_17_cif.got.tgz:32937.got - 2010.06.03 14:40:33.
