data_PCOD9452759
_publ_section_title
;
Structure prediction by ZEFSAII (Michael W. Deem and Ramdas Pophale) SiO2 
 PCOD9452759
Probable space group: P M M N
;
_chemical_formula_sum "Si O2"
_cell_formula_units_Z 48
_cell_length_a 29.614724
_cell_length_b 8.746031
_cell_length_c 10.198706
_cell_angle_alpha 90.000000
_cell_angle_beta 90.000000
_cell_angle_gamma 90.000000
_cell_volume 2641.580040
_symmetry_space_group_name_H-M "P M M N"
_symmetry_group_IT_number 59
_space_group.IT_coordinate_system_code '2'
_symmetry_cell_setting 'orthorhombic'
loop_
_space_group_symop_operation_xyz
x,y,z
1/2-x,1/2-y,z
1/2+x,-y,-z
-x,1/2+y,-z
-x,-y,-z
1/2+x,1/2+y,-z
1/2-x,y,z
x,1/2-y,z
loop_
_atom_site_type_symbol
_atom_site_label
_atom_site_fract_x
_atom_site_fract_y
_atom_site_fract_z
Si Si1 0.802682 0.565215 0.981600
Si Si2 0.529539 0.066237 0.382393
Si Si3 0.371959 0.566148 0.516257
Si Si4 0.979484 0.433750 0.867257
Si Si5 0.122345 0.565114 0.212827
Si Si6 0.697638 0.933828 0.279695
O O1 0.750000 0.521499 0.958435
O O2 0.804397 0.750000 0.976193
O O3 0.837684 0.497834 0.877928
O O4 0.815153 0.518380 0.131029
O O5 0.526196 0.250000 0.378557
O O6 0.581024 0.024005 0.414211
O O7 0.500000 0.000000 0.500000
O O8 0.510204 0.995305 0.250382
O O9 0.369393 0.750000 0.513813
O O10 0.372228 0.514536 0.364490
O O11 0.332260 0.502464 0.605733
O O12 0.980614 0.250000 0.869712
O O13 0.927330 0.480415 0.840209
O O14 0.000000 0.500000 0.000000
O O15 0.123869 0.750000 0.210977
O O16 0.750000 0.975308 0.297653
O O17 0.694314 0.750000 0.283686
#
# Coordination Sequence:
#
# PCOD9452759 Si02
#       6
#     8   8   8   8   8   8
#     4   9  20  39  60  84 115 149 189 238 288 341
#     4  11  22  40  62  86 119 159 198 240 290 346
#     4  10  22  39  58  84 117 152 190 235 287 343
#     4  11  24  42  60  86 121 157 198 245 293 348
#     4  10  22  40  58  82 118 153 189 236 288 343
#     4   9  20  39  60  85 116 148 188 238 288 341
#
# _framework density 18.170943000000001
#
# number of rings (size 3 to 8) (size 9 to 14) (size 15 to 20)
#    0.000    2.000    1.667    2.000    2.333    5.333 
#    0.000    5.000    0.000    0.000    0.000    0.000 
#    0.000    0.000    0.000    0.000    0.000    0.000 
#
# Total GULP energy -267983.703873 kJ/mol
# GULP energy per Si atom -5582.993831 kJ/mol
# Density = 1.812959 g / cm^3
# Si number density = 18.170943 Si / 1000 Ang^3
#
#
#
# Elastic Constant Matrix: (Units=GPa)
#
#
# Indices 1 2 3 4 5 6 
#
# 1 140.5074 38.5216 123.0796 0.0000 0.0000 0.0000
# 2 38.5216 23.3127 42.9294 0.0000 0.0000 0.0000
# 3 123.0796 42.9294 205.6997 0.0000 0.0000 0.0000
# 4 0.0000 0.0000 0.0000 37.8481 0.0000 0.0000
# 5 0.0000 0.0000 0.0000 0.0000 41.9359 0.0000
# 6 0.0000 0.0000 0.0000 0.0000 0.0000 37.0013
#
#
#
# Elastic Compliance Matrix: (Units=1/GPa)
#
#
# Indices 1 2 3 4 5 6 
#
# 1 0.018055 -0.016145 -0.007434 0.000000 0.000000 0.000000
# 2 -0.016145 0.084107 -0.007893 0.000000 0.000000 0.000000
# 3 -0.007434 -0.007893 0.010957 0.000000 0.000000 0.000000
# 4 0.000000 0.000000 0.000000 0.026421 0.000000 0.000000
# 5 0.000000 0.000000 0.000000 0.000000 0.023846 0.000000
# 6 0.000000 0.000000 0.000000 0.000000 0.000000 0.027026
#
#
# Mechanical properties :
#
#
# Convention : Reuss Voigt Hill
#
# Bulk Modulus (GPa) = 19.92995 86.50900 53.21948
# Shear Modulus (GPa) = 18.51299 34.35634 26.43466
#
# Velocity S-wave (km/s) = 3.19536 4.35297 3.81829
# Velocity P-wave (km/s) = 4.96041 8.54261 6.98505
#
# Compressibility (1/GPa) = 0.05017574
#
# Stress axis : x y z
#
# Youngs Moduli (GPa) = 55.38601 11.88959 91.26903
#
# Poissons Ratio (x) = 0.19196 0.67847
# Poissons Ratio (y) = 0.89421 0.72037
# Poissons Ratio (z) = 0.41172 0.09384
#
# Static dielectric constant tensor:
#      x y z
#    x 1.603220 0.000000 0.000000 
#    y 0.000000 1.616260 0.000000 
#    z 0.000000 0.000000 1.590040 
# 
# From -- ./inp_files/6223.got.cif
#   From: 2010.05.17/outbox.cif.g08.bks.cpg/sg59_4_cif.got.tgz:6223.got - 2010.06.03 14:40:33.
