data_PCOD9452014
_publ_section_title
;
Structure prediction by ZEFSAII (Michael W. Deem and Ramdas Pophale) SiO2 
 PCOD9452014
Probable space group: P M M N
;
_chemical_formula_sum "Si O2"
_cell_formula_units_Z 56
_cell_length_a 19.814107
_cell_length_b 9.972642
_cell_length_c 14.201027
_cell_angle_alpha 90.000000
_cell_angle_beta 90.000000
_cell_angle_gamma 90.000000
_cell_volume 2806.108673
_symmetry_space_group_name_H-M "P M M N"
_symmetry_group_IT_number 59
_space_group.IT_coordinate_system_code '2'
_symmetry_cell_setting 'orthorhombic'
loop_
_space_group_symop_operation_xyz
x,y,z
1/2-x,1/2-y,z
1/2+x,-y,-z
-x,1/2+y,-z
-x,-y,-z
1/2+x,1/2+y,-z
1/2-x,y,z
x,1/2-y,z
loop_
_atom_site_type_symbol
_atom_site_label
_atom_site_fract_x
_atom_site_fract_y
_atom_site_fract_z
Si Si1 0.447703 0.592936 0.804790
Si Si2 0.948262 0.609672 0.522130
Si Si3 0.250000 0.593983 0.415112
Si Si4 0.852603 0.900507 0.683780
Si Si5 0.750000 0.091168 0.357087
Si Si6 0.670014 0.093170 0.041907
Si Si7 0.876224 0.593622 0.331680
Si Si8 0.094308 0.406803 0.108666
O O1 0.453397 0.750000 0.772823
O O2 0.436549 0.482340 0.723350
O O3 0.515411 0.564041 0.866352
O O4 0.379756 0.583716 0.868129
O O5 0.983764 0.750000 0.506263
O O6 0.922164 0.602503 0.627224
O O7 0.889904 0.600444 0.443951
O O8 0.000000 0.500000 0.500000
O O9 0.250000 0.750000 0.390654
O O10 0.188449 0.515764 0.367356
O O11 0.250000 0.585033 0.528477
O O12 0.823929 0.750000 0.669892
O O13 0.865683 0.920969 0.792938
O O14 0.750000 0.250000 0.330382
O O15 0.686379 0.006769 0.320685
O O16 0.750000 0.058263 0.056967
O O17 0.668938 0.250000 0.012633
O O18 0.632558 0.000168 0.965441
O O19 0.867166 0.750000 0.301053
O O20 0.097145 0.250000 0.079558
#
# Coordination Sequence:
#
# PCOD9452014 Si02
#       8
#     8   8   4   8   4   8   8   8
#     4  10  22  42  66  91 124 164 206 252 310 378
#     4  10  21  36  56  82 118 159 199 245 296 353
#     4  11  23  37  57  86 115 156 209 253 298 356
#     4  10  21  38  58  82 119 160 197 245 305 358
#     4  11  23  39  59  84 119 166 211 255 308 366
#     4  10  23  42  64  92 126 161 198 251 315 373
#     4  11  23  38  60  91 123 159 205 256 307 360
#     4  10  22  40  65  93 120 161 210 254 306 370
#
# _framework density 19.956461000000001
#
# number of rings (size 3 to 8) (size 9 to 14) (size 15 to 20)
#    0.000    1.714    1.429    2.143    2.000    5.429 
#    0.000    0.000    0.000    0.000    0.000    0.000 
#    0.000    0.000    0.000    0.000    0.000    0.000 
#
# Total GULP energy -312219.624625 kJ/mol
# GULP energy per Si atom -5575.350440 kJ/mol
# Density = 1.991104 g / cm^3
# Si number density = 19.956461 Si / 1000 Ang^3
#
#
#
# Elastic Constant Matrix: (Units=GPa)
#
#
# Indices 1 2 3 4 5 6 
#
# 1 82.0055 50.3965 3.4797 0.0000 0.0000 0.0000
# 2 50.3965 140.2094 37.2944 0.0000 0.0000 0.0000
# 3 3.4797 37.2944 59.0383 0.0000 0.0000 0.0000
# 4 0.0000 0.0000 0.0000 29.8646 0.0000 0.0000
# 5 0.0000 0.0000 0.0000 0.0000 21.3478 0.0000
# 6 0.0000 0.0000 0.0000 0.0000 0.0000 42.2916
#
#
#
# Elastic Compliance Matrix: (Units=1/GPa)
#
#
# Indices 1 2 3 4 5 6 
#
# 1 0.016159 -0.006677 0.003265 0.000000 0.000000 0.000000
# 2 -0.006677 0.011331 -0.006764 0.000000 0.000000 0.000000
# 3 0.003265 -0.006764 0.021019 0.000000 0.000000 0.000000
# 4 0.000000 0.000000 0.000000 0.033484 0.000000 0.000000
# 5 0.000000 0.000000 0.000000 0.000000 0.046843 0.000000
# 6 0.000000 0.000000 0.000000 0.000000 0.000000 0.023645
#
#
# Mechanical properties :
#
#
# Convention : Reuss Voigt Hill
#
# Bulk Modulus (GPa) = 35.51485 51.51049 43.51267
# Shear Modulus (GPa) = 27.43945 31.37297 29.40621
#
# Velocity S-wave (km/s) = 3.71208 3.96924 3.84281
# Velocity P-wave (km/s) = 6.01726 6.84645 6.44521
#
# Compressibility (1/GPa) = 0.02815724
#
# Stress axis : x y z
#
# Youngs Moduli (GPa) = 61.88557 88.25129 47.57652
#
# Poissons Ratio (x) = 0.58922 -0.15535
# Poissons Ratio (y) = 0.41319 0.32183
# Poissons Ratio (z) = -0.20207 0.59697
#
# Static dielectric constant tensor:
#      x y z
#    x 1.935850 0.000000 0.000000 
#    y 0.000000 1.686500 0.000000 
#    z 0.000000 0.000000 1.718500 
# 
# From -- ./inp_files/24359.got.cif
#   From: 2010.05.17/outbox.cif.g08.bks.cpg/sg59_13_cif.got.tgz:24359.got - 2010.06.03 14:40:33.
