data_PCOD9452221
_publ_section_title
;
Structure prediction by ZEFSAII (Michael W. Deem and Ramdas Pophale) SiO2 
 PCOD9452221
Probable space group: P M M N
;
_chemical_formula_sum "Si O2"
_cell_formula_units_Z 48
_cell_length_a 8.756228
_cell_length_b 31.345583
_cell_length_c 9.331595
_cell_angle_alpha 90.000000
_cell_angle_beta 90.000000
_cell_angle_gamma 90.000000
_cell_volume 2561.234216
_symmetry_space_group_name_H-M "P M M N"
_symmetry_group_IT_number 59
_space_group.IT_coordinate_system_code '2'
_symmetry_cell_setting 'orthorhombic'
loop_
_space_group_symop_operation_xyz
x,y,z
1/2-x,1/2-y,z
1/2+x,-y,-z
-x,1/2+y,-z
-x,-y,-z
1/2+x,1/2+y,-z
1/2-x,y,z
x,1/2-y,z
loop_
_atom_site_type_symbol
_atom_site_label
_atom_site_fract_x
_atom_site_fract_y
_atom_site_fract_z
Si Si1 0.432515 0.299309 0.583934
Si Si2 0.567022 0.959582 0.083382
Si Si3 0.066533 0.459186 0.582166
Si Si4 0.565848 0.379380 0.084501
Si Si5 0.066458 0.798599 0.101508
Si Si6 0.066798 0.878082 0.582807
O O1 0.250000 0.303756 0.576159
O O2 0.472762 0.250000 0.550611
O O3 0.487322 0.307607 0.746574
O O4 0.511212 0.333230 0.480837
O O5 0.750000 0.961044 0.076796
O O6 0.521628 0.960409 0.250524
O O7 0.507494 0.916958 0.007543
O O8 0.500000 0.000000 0.000000
O O9 0.250000 0.460013 0.574238
O O10 0.000000 0.500000 0.500000
O O11 0.005073 0.416362 0.508451
O O12 0.750000 0.383502 0.077321
O O13 0.521450 0.382186 0.250734
O O14 0.523992 0.333935 0.014886
O O15 0.250000 0.800664 0.122204
O O16 0.028090 0.750000 0.058720
O O17 0.250000 0.880628 0.573918
#
# Coordination Sequence:
#
# PCOD9452221 Si02
#       6
#     8   8   8   8   8   8
#     4  10  21  37  57  83 115 150 190 236 284 336
#     4  11  24  40  60  85 113 146 186 231 279 333
#     4  11  24  41  61  87 117 149 188 232 279 334
#     4  10  22  38  57  84 116 148 187 233 279 331
#     4   9  18  35  59  84 111 147 189 232 280 332
#     4  11  23  38  58  85 116 151 191 234 281 335
#
# _framework density 18.740964999999999
#
# number of rings (size 3 to 8) (size 9 to 14) (size 15 to 20)
#    0.000    1.667    0.000    4.000    0.000   13.000 
#    0.000    1.667    0.000    2.000    0.000    0.000 
#    0.000    0.000    0.000    0.000    0.000    0.000 
#
# Total GULP energy -268325.428529 kJ/mol
# GULP energy per Si atom -5590.113094 kJ/mol
# Density = 1.869831 g / cm^3
# Si number density = 18.740965 Si / 1000 Ang^3
#
#
#
# Elastic Constant Matrix: (Units=GPa)
#
#
# Indices 1 2 3 4 5 6 
#
# 1 40.5761 47.8747 60.4621 0.0000 0.0000 0.0000
# 2 47.8747 138.6864 116.4890 0.0000 0.0000 0.0000
# 3 60.4621 116.4890 191.1342 0.0000 0.0000 0.0000
# 4 0.0000 0.0000 0.0000 42.8638 0.0000 0.0000
# 5 0.0000 0.0000 0.0000 0.0000 26.8075 0.0000
# 6 0.0000 0.0000 0.0000 0.0000 0.0000 36.9560
#
#
#
# Elastic Compliance Matrix: (Units=1/GPa)
#
#
# Indices 1 2 3 4 5 6 
#
# 1 0.050880 -0.008287 -0.011044 0.000000 0.000000 0.000000
# 2 -0.008287 0.016123 -0.007205 0.000000 0.000000 0.000000
# 3 -0.011044 -0.007205 0.013117 0.000000 0.000000 0.000000
# 4 0.000000 0.000000 0.000000 0.023330 0.000000 0.000000
# 5 0.000000 0.000000 0.000000 0.000000 0.037303 0.000000
# 6 0.000000 0.000000 0.000000 0.000000 0.000000 0.027059
#
#
# Mechanical properties :
#
#
# Convention : Reuss Voigt Hill
#
# Bulk Modulus (GPa) = 36.97282 91.11648 64.04465
# Shear Modulus (GPa) = 21.74867 31.03019 26.38943
#
# Velocity S-wave (km/s) = 3.41029 4.07349 3.75656
# Velocity P-wave (km/s) = 5.93952 8.41718 7.28446
#
# Compressibility (1/GPa) = 0.02704689
#
# Stress axis : x y z
#
# Youngs Moduli (GPa) = 19.65417 62.02374 76.23921
#
# Poissons Ratio (x) = 0.51400 0.84200
# Poissons Ratio (y) = 0.16288 0.54928
# Poissons Ratio (z) = 0.21707 0.44687
#
# Static dielectric constant tensor:
#      x y z
#    x 1.644700 0.000000 0.000000 
#    y 0.000000 1.624880 0.000000 
#    z 0.000000 0.000000 1.618940 
# 
# From -- ./inp_files/6180.got.cif
#   From: 2010.05.17/outbox.cif.g08.bks.cpg/sg59_4_cif.got.tgz:6180.got - 2010.06.03 14:40:33.
