data_PCOD9452492
_publ_section_title
;
Structure prediction by ZEFSAII (Michael W. Deem and Ramdas Pophale) SiO2 
 PCOD9452492
Probable space group: P M M N
;
_chemical_formula_sum "Si O2"
_cell_formula_units_Z 56
_cell_length_a 14.521169
_cell_length_b 7.871532
_cell_length_c 22.071702
_cell_angle_alpha 90.000000
_cell_angle_beta 90.000000
_cell_angle_gamma 90.000000
_cell_volume 2522.880437
_symmetry_space_group_name_H-M "P M M N"
_symmetry_group_IT_number 59
_space_group.IT_coordinate_system_code '2'
_symmetry_cell_setting 'orthorhombic'
loop_
_space_group_symop_operation_xyz
x,y,z
1/2-x,1/2-y,z
1/2+x,-y,-z
-x,1/2+y,-z
-x,-y,-z
1/2+x,1/2+y,-z
1/2-x,y,z
x,1/2-y,z
loop_
_atom_site_type_symbol
_atom_site_label
_atom_site_fract_x
_atom_site_fract_y
_atom_site_fract_z
Si Si1 0.642084 0.457881 0.896704
Si Si2 0.355595 0.554480 0.602309
Si Si3 0.965000 0.046803 0.778793
Si Si4 0.355535 0.446014 0.470993
Si Si5 0.644791 0.044116 0.159726
Si Si6 0.958176 0.444959 0.647320
Si Si7 0.862509 0.051506 0.027427
O O1 0.750000 0.500879 0.891394
O O2 0.636894 0.250000 0.898279
O O3 0.588441 0.519959 0.837746
O O4 0.606744 0.520803 0.962562
O O5 0.250000 0.492880 0.606672
O O6 0.358053 0.750000 0.622389
O O7 0.382455 0.547874 0.531020
O O8 0.431864 0.454119 0.639039
O O9 0.951084 0.250000 0.777036
O O10 0.934779 0.980289 0.713177
O O11 0.072095 0.012330 0.790880
O O12 0.250000 0.491974 0.456381
O O13 0.358915 0.250000 0.490017
O O14 0.414534 0.468041 0.411003
O O15 0.750000 0.989776 0.170498
O O16 0.645277 0.250000 0.157024
O O17 0.612970 0.977806 0.093049
O O18 0.927544 0.250000 0.645165
O O19 0.750000 0.047429 0.026129
O O20 0.888915 0.250000 0.028118
#
# Coordination Sequence:
#
# PCOD9452492 Si02
#       7
#     8   8   8   8   8   8   8
#     4   8  14  28  50  73  99 131 169 214 260 310
#     4  10  21  38  61  86 109 136 174 219 265 312
#     4  10  22  35  49  75 105 137 177 215 256 303
#     4  10  21  38  61  87 112 138 171 213 261 311
#     4   9  18  33  52  73  99 133 172 214 262 316
#     4  11  23  37  53  76 111 149 181 217 259 307
#     4   7  11  23  46  73  96 123 164 212 261 311
#
# _framework density 22.196850999999999
#
# number of rings (size 3 to 8) (size 9 to 14) (size 15 to 20)
#    0.000    2.714    0.000    3.429    0.000    4.857 
#    0.000    4.286    0.000    0.429    0.000    2.000 
#    0.000    0.000    0.000    0.000    0.000    0.000 
#
# Total GULP energy -312568.984548 kJ/mol
# GULP energy per Si atom -5581.589010 kJ/mol
# Density = 2.214633 g / cm^3
# Si number density = 22.196851 Si / 1000 Ang^3
#
#
#
# Elastic Constant Matrix: (Units=GPa)
#
#
# Indices 1 2 3 4 5 6 
#
# 1 36.2290 -4.1509 15.4219 0.0000 0.0000 0.0000
# 2 -4.1509 29.2468 0.7973 0.0000 0.0000 0.0000
# 3 15.4219 0.7973 50.8720 0.0000 0.0000 0.0000
# 4 0.0000 0.0000 0.0000 10.2827 0.0000 0.0000
# 5 0.0000 0.0000 0.0000 0.0000 17.2826 0.0000
# 6 0.0000 0.0000 0.0000 0.0000 0.0000 14.3883
#
#
#
# Elastic Compliance Matrix: (Units=1/GPa)
#
#
# Indices 1 2 3 4 5 6 
#
# 1 0.032369 0.004864 -0.009889 0.000000 0.000000 0.000000
# 2 0.004864 0.034937 -0.002022 0.000000 0.000000 0.000000
# 3 -0.009889 -0.002022 0.022687 0.000000 0.000000 0.000000
# 4 0.000000 0.000000 0.000000 0.097251 0.000000 0.000000
# 5 0.000000 0.000000 0.000000 0.000000 0.057862 0.000000
# 6 0.000000 0.000000 0.000000 0.000000 0.000000 0.069501
#
#
# Mechanical properties :
#
#
# Convention : Reuss Voigt Hill
#
# Bulk Modulus (GPa) = 13.17553 15.60937 14.39245
# Shear Modulus (GPa) = 14.12428 15.34268 14.73348
#
# Velocity S-wave (km/s) = 2.52527 2.63194 2.57916
# Velocity P-wave (km/s) = 3.80149 4.03530 3.92014
#
# Compressibility (1/GPa) = 0.07589830
#
# Stress axis : x y z
#
# Youngs Moduli (GPa) = 30.89385 28.62282 44.07870
#
# Poissons Ratio (x) = -0.13921 0.43589
# Poissons Ratio (y) = -0.15026 0.08913
# Poissons Ratio (z) = 0.30551 0.05787
#
# Static dielectric constant tensor:
#      x y z
#    x 1.816880 0.000000 0.000000 
#    y 0.000000 1.833510 0.000000 
#    z 0.000000 0.000000 1.837320 
# 
# From -- ./inp_files/30292.got.cif
#   From: 2010.05.17/outbox.cif.g08.bks.cpg/sg59_16_cif.got.tgz:30292.got - 2010.06.03 14:40:33.
