data_PCOD9452716
_publ_section_title
;
Structure prediction by ZEFSAII (Michael W. Deem and Ramdas Pophale) SiO2 
 PCOD9452716
Probable space group: P M M N
;
_chemical_formula_sum "Si O2"
_cell_formula_units_Z 48
_cell_length_a 29.127633
_cell_length_b 8.425886
_cell_length_c 10.540733
_cell_angle_alpha 90.000000
_cell_angle_beta 90.000000
_cell_angle_gamma 90.000000
_cell_volume 2586.971151
_symmetry_space_group_name_H-M "P M M N"
_symmetry_group_IT_number 59
_space_group.IT_coordinate_system_code '2'
_symmetry_cell_setting 'orthorhombic'
loop_
_space_group_symop_operation_xyz
x,y,z
1/2-x,1/2-y,z
1/2+x,-y,-z
-x,1/2+y,-z
-x,-y,-z
1/2+x,1/2+y,-z
1/2-x,y,z
x,1/2-y,z
loop_
_atom_site_type_symbol
_atom_site_label
_atom_site_fract_x
_atom_site_fract_y
_atom_site_fract_z
Si Si1 0.552007 0.439769 0.010766
Si Si2 0.698576 0.556701 0.648250
Si Si3 0.051782 0.558916 0.484853
Si Si4 0.104162 0.440239 0.236485
Si Si5 0.801674 0.558676 0.353980
Si Si6 0.895110 0.058975 0.261298
O O1 0.550343 0.250000 0.016452
O O2 0.576945 0.498947 0.138898
O O3 0.500000 0.500000 0.000000
O O4 0.581431 0.490625 0.889169
O O5 0.750000 0.505413 0.685616
O O6 0.698511 0.750000 0.648792
O O7 0.656273 0.504109 0.734729
O O8 0.690825 0.508715 0.501238
O O9 0.052668 0.750000 0.478439
O O10 0.074364 0.489487 0.358451
O O11 0.080323 0.506212 0.608735
O O12 0.000000 0.500000 0.500000
O O13 0.104291 0.250000 0.226671
O O14 0.750000 0.508952 0.317817
O O15 0.802946 0.750000 0.352246
O O16 0.842521 0.494907 0.268279
O O17 0.896208 0.250000 0.259770
#
# Coordination Sequence:
#
# PCOD9452716 Si02
#       6
#     8   8   8   8   8   8
#     4  11  24  42  60  81 113 154 196 239 285 342
#     4   8  15  30  54  84 115 146 183 230 280 332
#     4  11  22  36  56  83 112 144 190 243 290 342
#     4  11  21  36  59  86 115 151 190 233 288 343
#     4   9  17  32  57  87 115 146 187 232 279 334
#     4  10  22  38  56  81 114 149 188 233 286 339
#
# _framework density 18.554517000000001
#
# number of rings (size 3 to 8) (size 9 to 14) (size 15 to 20)
#    0.000    2.000    1.667    3.500    0.000    3.667 
#    0.000    0.833    0.000    5.000    0.000    0.000 
#    0.000    0.000    0.000    0.000    0.000    0.000 
#
# Total GULP energy -267989.350353 kJ/mol
# GULP energy per Si atom -5583.111466 kJ/mol
# Density = 1.851229 g / cm^3
# Si number density = 18.554517 Si / 1000 Ang^3
#
#
#
# Elastic Constant Matrix: (Units=GPa)
#
#
# Indices 1 2 3 4 5 6 
#
# 1 150.3996 10.7626 47.0168 0.0000 0.0000 0.0000
# 2 10.7626 21.9675 11.2219 0.0000 0.0000 0.0000
# 3 47.0168 11.2219 93.0143 0.0000 0.0000 0.0000
# 4 0.0000 0.0000 0.0000 18.7815 0.0000 0.0000
# 5 0.0000 0.0000 0.0000 0.0000 34.3686 0.0000
# 6 0.0000 0.0000 0.0000 0.0000 0.0000 28.2342
#
#
#
# Elastic Compliance Matrix: (Units=1/GPa)
#
#
# Indices 1 2 3 4 5 6 
#
# 1 0.007976 -0.001970 -0.003794 0.000000 0.000000 0.000000
# 2 -0.001970 0.048998 -0.004916 0.000000 0.000000 0.000000
# 3 -0.003794 -0.004916 0.013262 0.000000 0.000000 0.000000
# 4 0.000000 0.000000 0.000000 0.053244 0.000000 0.000000
# 5 0.000000 0.000000 0.000000 0.000000 0.029096 0.000000
# 6 0.000000 0.000000 0.000000 0.000000 0.000000 0.035418
#
#
# Mechanical properties :
#
#
# Convention : Reuss Voigt Hill
#
# Bulk Modulus (GPa) = 20.45955 44.82045 32.64000
# Shear Modulus (GPa) = 22.15863 29.36885 25.76374
#
# Velocity S-wave (km/s) = 3.45953 3.98281 3.73036
# Velocity P-wave (km/s) = 5.19697 6.73490 6.01529
#
# Compressibility (1/GPa) = 0.04887692
#
# Stress axis : x y z
#
# Youngs Moduli (GPa) = 125.37661 20.40898 75.40367
#
# Poissons Ratio (x) = 0.04020 0.28609
# Poissons Ratio (y) = 0.24693 0.37068
# Poissons Ratio (z) = 0.47569 0.10033
#
# Static dielectric constant tensor:
#      x y z
#    x 1.596710 0.000000 0.000000 
#    y 0.000000 1.642720 0.000000 
#    z 0.000000 0.000000 1.619120 
# 
# From -- ./inp_files/12940.got.cif
#   From: 2010.05.17/outbox.cif.g08.bks.cpg/sg59_7_cif.got.tgz:12940.got - 2010.06.03 14:40:33.
