data_PCOD9452341
_publ_section_title
;
Structure prediction by ZEFSAII (Michael W. Deem and Ramdas Pophale) SiO2 
 PCOD9452341
Probable space group: P M M N
;
_chemical_formula_sum "Si O2"
_cell_formula_units_Z 32
_cell_length_a 16.002051
_cell_length_b 8.955188
_cell_length_c 11.331017
_cell_angle_alpha 90.000000
_cell_angle_beta 90.000000
_cell_angle_gamma 90.000000
_cell_volume 1623.750317
_symmetry_space_group_name_H-M "P M M N"
_symmetry_group_IT_number 59
_space_group.IT_coordinate_system_code '2'
_symmetry_cell_setting 'orthorhombic'
loop_
_space_group_symop_operation_xyz
x,y,z
1/2-x,1/2-y,z
1/2+x,-y,-z
-x,1/2+y,-z
-x,-y,-z
1/2+x,1/2+y,-z
1/2-x,y,z
x,1/2-y,z
loop_
_atom_site_type_symbol
_atom_site_label
_atom_site_fract_x
_atom_site_fract_y
_atom_site_fract_z
Si Si1 0.074418 0.070328 0.919918
Si Si2 0.118399 0.080013 0.441757
Si Si3 0.250000 0.923444 0.282048
Si Si4 0.067225 0.920646 0.666820
Si Si5 0.250000 0.926689 0.000613
O O1 0.072408 0.250000 0.930367
O O2 0.062602 0.018091 0.784738
O O3 0.165092 0.005740 0.957036
O O4 0.000000 0.000000 0.000000
O O5 0.145635 0.250000 0.458987
O O6 0.023847 0.082777 0.393867
O O7 0.171163 0.000999 0.341203
O O8 0.124291 0.992833 0.565253
O O9 0.250000 0.750000 0.312788
O O10 0.250000 0.937670 0.142156
O O11 0.091653 0.750000 0.694907
O O12 0.250000 0.750000 0.968455
#
# Coordination Sequence:
#
# PCOD9452341 Si02
#       5
#     8   8   4   8   4
#     4  12  25  42  65  93 127 167 210 256 310 370
#     4  10  21  37  60  88 118 153 194 243 298 359
#     4  11  23  38  59  86 117 153 195 245 298 355
#     4  10  21  39  62  88 119 155 198 247 301 360
#     4  11  25  44  65  92 125 163 211 261 310 369
#
# _framework density 19.707464000000002
#
# number of rings (size 3 to 8) (size 9 to 14) (size 15 to 20)
#    0.000    1.250    0.000    6.000    0.000   10.000 
#    0.000    5.000    0.000    0.000    0.000    0.000 
#    0.000    0.000    0.000    0.000    0.000    0.000 
#
# Total GULP energy -178841.955724 kJ/mol
# GULP energy per Si atom -5588.811116 kJ/mol
# Density = 1.966261 g / cm^3
# Si number density = 19.707464 Si / 1000 Ang^3
#
#
#
# Elastic Constant Matrix: (Units=GPa)
#
#
# Indices 1 2 3 4 5 6 
#
# 1 80.6644 56.2938 29.1103 0.0000 0.0000 0.0000
# 2 56.2938 193.6597 68.8015 0.0000 0.0000 0.0000
# 3 29.1103 68.8015 95.1985 0.0000 0.0000 0.0000
# 4 0.0000 0.0000 0.0000 39.1082 0.0000 0.0000
# 5 0.0000 0.0000 0.0000 0.0000 22.6268 0.0000
# 6 0.0000 0.0000 0.0000 0.0000 0.0000 32.2766
#
#
#
# Elastic Compliance Matrix: (Units=1/GPa)
#
#
# Indices 1 2 3 4 5 6 
#
# 1 0.015841 -0.003880 -0.002040 0.000000 0.000000 0.000000
# 2 -0.003880 0.007898 -0.004521 0.000000 0.000000 0.000000
# 3 -0.002040 -0.004521 0.014396 0.000000 0.000000 0.000000
# 4 0.000000 0.000000 0.000000 0.025570 0.000000 0.000000
# 5 0.000000 0.000000 0.000000 0.000000 0.044195 0.000000
# 6 0.000000 0.000000 0.000000 0.000000 0.000000 0.030982
#
#
# Mechanical properties :
#
#
# Convention : Reuss Voigt Hill
#
# Bulk Modulus (GPa) = 57.96389 75.32597 66.64493
# Shear Modulus (GPa) = 30.20864 33.15681 31.68273
#
# Velocity S-wave (km/s) = 3.91941 4.10622 4.01390
# Velocity P-wave (km/s) = 7.06813 7.79656 7.44126
#
# Compressibility (1/GPa) = 0.01725212
#
# Stress axis : x y z
#
# Youngs Moduli (GPa) = 63.12756 126.61583 69.46452
#
# Poissons Ratio (x) = 0.49127 0.14169
# Poissons Ratio (y) = 0.24494 0.31408
# Poissons Ratio (z) = 0.12877 0.57249
#
# Static dielectric constant tensor:
#      x y z
#    x 1.723730 0.000000 0.000000 
#    y 0.000000 1.693470 0.000000 
#    z 0.000000 0.000000 1.649670 
# 
# From -- ./inp_files/13765.got.cif
#   From: 2010.05.17/outbox.cif.g08.bks.cpg/sg59_7_cif.got.tgz:13765.got - 2010.06.03 14:40:33.
