data_PCOD9452687
_publ_section_title
;
Structure prediction by ZEFSAII (Michael W. Deem and Ramdas Pophale) SiO2 
 PCOD9452687
Probable space group: P M M N
;
_chemical_formula_sum "Si O2"
_cell_formula_units_Z 40
_cell_length_a 11.771268
_cell_length_b 18.948963
_cell_length_c 8.654889
_cell_angle_alpha 90.000000
_cell_angle_beta 90.000000
_cell_angle_gamma 90.000000
_cell_volume 1930.501741
_symmetry_space_group_name_H-M "P M M N"
_symmetry_group_IT_number 59
_space_group.IT_coordinate_system_code '2'
_symmetry_cell_setting 'orthorhombic'
loop_
_space_group_symop_operation_xyz
x,y,z
1/2-x,1/2-y,z
1/2+x,-y,-z
-x,1/2+y,-z
-x,-y,-z
1/2+x,1/2+y,-z
1/2-x,y,z
x,1/2-y,z
loop_
_atom_site_type_symbol
_atom_site_label
_atom_site_fract_x
_atom_site_fract_y
_atom_site_fract_z
Si Si1 0.458146 0.435887 0.103624
Si Si2 0.126227 0.171021 0.856853
Si Si3 0.616037 0.328300 0.261867
Si Si4 0.122780 0.988936 0.408015
Si Si5 0.428016 0.829366 0.389321
O O1 0.565377 0.389760 0.159875
O O2 0.393323 0.465482 0.252862
O O3 0.500000 0.500000 0.000000
O O4 0.388738 0.384587 0.992357
O O5 0.250000 0.163011 0.785835
O O6 0.116400 0.250000 0.923017
O O7 0.035456 0.165013 0.721617
O O8 0.750000 0.338187 0.293868
O O9 0.602739 0.250000 0.191892
O O10 0.552670 0.328763 0.426456
O O11 0.250000 0.005859 0.478111
O O12 0.129304 0.905544 0.366656
O O13 0.000000 0.000000 0.500000
O O14 0.377879 0.750000 0.357916
#
# Coordination Sequence:
#
# PCOD9452687 Si02
#       5
#     8   8   8   8   8
#     4  12  24  42  63  95 131 178 220 276 332 404
#     4  10  22  42  65  92 132 176 219 272 335 404
#     4  10  22  42  68  96 128 170 223 280 334 393
#     4  12  26  45  68 100 135 177 225 279 337 396
#     4  10  21  42  69  97 127 169 221 270 328 395
#
# _framework density 20.720002000000001
#
# number of rings (size 3 to 8) (size 9 to 14) (size 15 to 20)
#    0.000    1.200    4.000    1.800    0.000    3.600 
#    0.000    0.000    0.000    0.000    0.000    0.000 
#    0.000    0.000    0.000    0.000    0.000    0.000 
#
# Total GULP energy -222855.795063 kJ/mol
# GULP energy per Si atom -5571.394877 kJ/mol
# Density = 2.067284 g / cm^3
# Si number density = 20.720002 Si / 1000 Ang^3
#
#
#
# Elastic Constant Matrix: (Units=GPa)
#
#
# Indices 1 2 3 4 5 6 
#
# 1 124.6648 56.2610 59.4198 0.0000 0.0000 0.0000
# 2 56.2610 159.0990 46.6937 0.0000 0.0000 0.0000
# 3 59.4198 46.6937 74.9726 0.0000 0.0000 0.0000
# 4 0.0000 0.0000 0.0000 27.7233 0.0000 0.0000
# 5 0.0000 0.0000 0.0000 0.0000 -5.8318 0.0000
# 6 0.0000 0.0000 0.0000 0.0000 0.0000 -7.9068
#
#
#
# Elastic Compliance Matrix: (Units=1/GPa)
#
#
# Indices 1 2 3 4 5 6 
#
# 1 0.013383 -0.001982 -0.009373 0.000000 0.000000 0.000000
# 2 -0.001982 0.007985 -0.003402 0.000000 0.000000 0.000000
# 3 -0.009373 -0.003402 0.022885 0.000000 0.000000 0.000000
# 4 0.000000 0.000000 0.000000 0.036071 0.000000 0.000000
# 5 0.000000 0.000000 0.000000 0.000000 -0.171474 0.000000
# 6 0.000000 0.000000 0.000000 0.000000 0.000000 -0.126473
#
#
# Mechanical properties :
#
#
# Convention : Reuss Voigt Hill
#
# Bulk Modulus (GPa) = 67.84260 75.94282 71.89271
# Shear Modulus (GPa) = -27.29313 15.88773 -5.70270
#
# Velocity S-wave (km/s) = -3.63331 2.77209 -1.66080
# Velocity P-wave (km/s) = 3.90030 6.85401 5.57628
#
# Compressibility (1/GPa) = 0.01474000
#
# Stress axis : x y z
#
# Youngs Moduli (GPa) = 74.72016 125.23883 43.69584
#
# Poissons Ratio (x) = 0.24821 0.40955
# Poissons Ratio (y) = 0.14809 0.14866
# Poissons Ratio (z) = 0.70032 0.42609
#
# Static dielectric constant tensor:
#      x y z
#    x 1.777890 0.000000 0.000000 
#    y 0.000000 1.776860 0.000000 
#    z 0.000000 0.000000 1.714430 
# 
# From -- ./inp_files/7126.got.cif
#   From: 2010.05.17/outbox.cif.g08.bks.cpg/sg59_4_cif.got.tgz:7126.got - 2010.06.03 14:40:33.
