data_PCOD9452361
_publ_section_title
;
Structure prediction by ZEFSAII (Michael W. Deem and Ramdas Pophale) SiO2 
 PCOD9452361
Probable space group: P M M N
;
_chemical_formula_sum "Si O2"
_cell_formula_units_Z 32
_cell_length_a 9.921143
_cell_length_b 8.029663
_cell_length_c 18.855243
_cell_angle_alpha 90.000000
_cell_angle_beta 90.000000
_cell_angle_gamma 90.000000
_cell_volume 1502.073423
_symmetry_space_group_name_H-M "P M M N"
_symmetry_group_IT_number 59
_space_group.IT_coordinate_system_code '2'
_symmetry_cell_setting 'orthorhombic'
loop_
_space_group_symop_operation_xyz
x,y,z
1/2-x,1/2-y,z
1/2+x,-y,-z
-x,1/2+y,-z
-x,-y,-z
1/2+x,1/2+y,-z
1/2-x,y,z
x,1/2-y,z
loop_
_atom_site_type_symbol
_atom_site_label
_atom_site_fract_x
_atom_site_fract_y
_atom_site_fract_z
Si Si1 0.541542 0.054899 0.152613
Si Si2 0.595603 0.548754 0.565184
Si Si3 0.750000 0.937255 0.039417
Si Si4 0.750000 0.059186 0.885533
Si Si5 0.100489 0.546811 0.687930
O O1 0.576573 0.250000 0.148381
O O2 0.582081 0.993313 0.230731
O O3 0.622193 0.965782 0.089993
O O4 0.383870 0.029304 0.141724
O O5 0.500000 0.500000 0.500000
O O6 0.750000 0.487971 0.559021
O O7 0.600925 0.750000 0.567630
O O8 0.518431 0.490216 0.636236
O O9 0.750000 0.750000 0.011336
O O10 0.750000 0.052701 0.970998
O O11 0.750000 0.250000 0.861760
O O12 0.250000 0.497015 0.662414
O O13 0.096973 0.750000 0.688389
#
# Coordination Sequence:
#
# PCOD9452361 Si02
#       5
#     8   8   4   4   8
#     4  11  22  40  65  92 120 159 208 256 309 371
#     4  10  21  37  61  92 125 161 204 248 295 354
#     4  12  24  42  64  90 123 162 203 254 313 370
#     4  12  26  42  60  88 125 162 205 258 313 370
#     4   9  18  35  61  89 117 155 202 250 299 361
#
# _framework density 21.303887
#
# number of rings (size 3 to 8) (size 9 to 14) (size 15 to 20)
#    0.000    1.500    1.250    4.500    1.750    1.500 
#    0.000    2.500    0.000    0.000    0.000    0.000 
#    0.000    0.000    0.000    0.000    0.000    0.000 
#
# Total GULP energy -178928.748500 kJ/mol
# GULP energy per Si atom -5591.523391 kJ/mol
# Density = 2.125540 g / cm^3
# Si number density = 21.303887 Si / 1000 Ang^3
#
#
#
# Elastic Constant Matrix: (Units=GPa)
#
#
# Indices 1 2 3 4 5 6 
#
# 1 181.7459 -4.1945 44.5109 0.0000 0.0000 0.0000
# 2 -4.1945 36.5544 -5.2014 0.0000 0.0000 0.0000
# 3 44.5109 -5.2014 85.1342 0.0000 0.0000 0.0000
# 4 0.0000 0.0000 0.0000 23.1593 0.0000 0.0000
# 5 0.0000 0.0000 0.0000 0.0000 33.0457 0.0000
# 6 0.0000 0.0000 0.0000 0.0000 0.0000 27.6978
#
#
#
# Elastic Compliance Matrix: (Units=1/GPa)
#
#
# Indices 1 2 3 4 5 6 
#
# 1 0.006313 0.000257 -0.003285 0.000000 0.000000 0.000000
# 2 0.000257 0.027607 0.001552 0.000000 0.000000 0.000000
# 3 -0.003285 0.001552 0.013558 0.000000 0.000000 0.000000
# 4 0.000000 0.000000 0.000000 0.043179 0.000000 0.000000
# 5 0.000000 0.000000 0.000000 0.000000 0.030261 0.000000
# 6 0.000000 0.000000 0.000000 0.000000 0.000000 0.036104
#
#
# Mechanical properties :
#
#
# Convention : Reuss Voigt Hill
#
# Bulk Modulus (GPa) = 22.45829 41.51825 31.98827
# Shear Modulus (GPa) = 28.60163 34.66853 31.63508
#
# Velocity S-wave (km/s) = 3.66806 4.03840 3.85768
# Velocity P-wave (km/s) = 5.33895 6.42462 5.90678
#
# Compressibility (1/GPa) = 0.04452699
#
# Stress axis : x y z
#
# Youngs Moduli (GPa) = 158.41416 36.22287 73.75527
#
# Poissons Ratio (x) = -0.00931 0.24226
# Poissons Ratio (y) = -0.04071 -0.11449
# Poissons Ratio (z) = 0.52034 -0.05623
#
# Static dielectric constant tensor:
#      x y z
#    x 1.762830 0.000000 0.000000 
#    y 0.000000 1.758000 0.000000 
#    z 0.000000 0.000000 1.738110 
# 
# From -- ./inp_files/28580.got.cif
#   From: 2010.05.17/outbox.cif.g08.bks.cpg/sg59_15_cif.got.tgz:28580.got - 2010.06.03 14:40:33.
