data_PCOD9452910
_publ_section_title
;
Structure prediction by ZEFSAII (Michael W. Deem and Ramdas Pophale) SiO2 
 PCOD9452910
Probable space group: P M M N
;
_chemical_formula_sum "Si O2"
_cell_formula_units_Z 48
_cell_length_a 8.526393
_cell_length_b 31.675824
_cell_length_c 9.346430
_cell_angle_alpha 90.000000
_cell_angle_beta 90.000000
_cell_angle_gamma 90.000000
_cell_volume 2524.288712
_symmetry_space_group_name_H-M "P M M N"
_symmetry_group_IT_number 59
_space_group.IT_coordinate_system_code '2'
_symmetry_cell_setting 'orthorhombic'
loop_
_space_group_symop_operation_xyz
x,y,z
1/2-x,1/2-y,z
1/2+x,-y,-z
-x,1/2+y,-z
-x,-y,-z
1/2+x,1/2+y,-z
1/2-x,y,z
x,1/2-y,z
loop_
_atom_site_type_symbol
_atom_site_label
_atom_site_fract_x
_atom_site_fract_y
_atom_site_fract_z
Si Si1 0.561694 0.459343 0.415709
Si Si2 0.062401 0.877378 0.093257
Si Si3 0.059108 0.297367 0.410694
Si Si4 0.560654 0.701759 0.920520
Si Si5 0.439537 0.959441 0.914838
Si Si6 0.438318 0.121460 0.585776
O O1 0.500000 0.500000 0.500000
O O2 0.750000 0.459787 0.417565
O O3 0.508528 0.460171 0.250318
O O4 0.502273 0.417453 0.494094
O O5 0.250000 0.878843 0.102316
O O6 0.993102 0.881622 0.251283
O O7 0.009326 0.916597 0.994384
O O8 0.010690 0.833673 0.021033
O O9 0.250000 0.296995 0.413295
O O10 0.006992 0.250000 0.450504
O O11 0.014331 0.305464 0.245455
O O12 0.006284 0.334637 0.514090
O O13 0.750000 0.699222 0.927796
O O14 0.516476 0.750000 0.958095
O O15 0.250000 0.960275 0.915707
O O16 0.500000 0.000000 0.000000
O O17 0.250000 0.120604 0.581415
#
# Coordination Sequence:
#
# PCOD9452910 Si02
#       6
#     8   8   8   8   8   8
#     4  11  23  40  60  84 113 145 184 230 281 335
#     4  11  23  38  55  80 115 151 186 227 276 329
#     4   8  16  33  57  83 110 142 184 232 278 326
#     4   9  18  35  59  84 109 142 186 232 277 328
#     4  10  23  40  59  82 110 145 184 227 275 331
#     4  11  22  36  57  85 114 148 189 232 280 332
#
# _framework density 19.015256999999998
#
# number of rings (size 3 to 8) (size 9 to 14) (size 15 to 20)
#    0.000    2.000    0.000    4.500    0.000    6.333 
#    0.000    2.500    0.000    3.500    0.000    0.000 
#    0.000    0.000    0.000    0.000    0.000    0.000 
#
# Total GULP energy -268171.109494 kJ/mol
# GULP energy per Si atom -5586.898114 kJ/mol
# Density = 1.897198 g / cm^3
# Si number density = 19.015257 Si / 1000 Ang^3
#
#
#
# Elastic Constant Matrix: (Units=GPa)
#
#
# Indices 1 2 3 4 5 6 
#
# 1 33.2518 36.3740 38.2627 0.0000 0.0000 0.0000
# 2 36.3740 177.7784 128.8594 0.0000 0.0000 0.0000
# 3 38.2627 128.8594 189.9751 0.0000 0.0000 0.0000
# 4 0.0000 0.0000 0.0000 42.2301 0.0000 0.0000
# 5 0.0000 0.0000 0.0000 0.0000 28.6245 0.0000
# 6 0.0000 0.0000 0.0000 0.0000 0.0000 32.7398
#
#
#
# Elastic Compliance Matrix: (Units=1/GPa)
#
#
# Indices 1 2 3 4 5 6 
#
# 1 0.041078 -0.004737 -0.005061 0.000000 0.000000 0.000000
# 2 -0.004737 0.011611 -0.006922 0.000000 0.000000 0.000000
# 3 -0.005061 -0.006922 0.010978 0.000000 0.000000 0.000000
# 4 0.000000 0.000000 0.000000 0.023680 0.000000 0.000000
# 5 0.000000 0.000000 0.000000 0.000000 0.034935 0.000000
# 6 0.000000 0.000000 0.000000 0.000000 0.000000 0.030544
#
#
# Mechanical properties :
#
#
# Convention : Reuss Voigt Hill
#
# Bulk Modulus (GPa) = 33.08039 89.77749 61.42894
# Shear Modulus (GPa) = 25.46582 33.88617 29.67600
#
# Velocity S-wave (km/s) = 3.66352 4.22601 3.95478
# Velocity P-wave (km/s) = 5.94388 8.43375 7.29582
#
# Compressibility (1/GPa) = 0.03022939
#
# Stress axis : x y z
#
# Youngs Moduli (GPa) = 24.34376 86.12268 91.08915
#
# Poissons Ratio (x) = 0.40793 0.46098
# Poissons Ratio (y) = 0.11531 0.63051
# Poissons Ratio (z) = 0.12320 0.59614
#
# Static dielectric constant tensor:
#      x y z
#    x 1.656810 0.000000 0.000000 
#    y 0.000000 1.639240 0.000000 
#    z 0.000000 0.000000 1.633550 
# 
# From -- ./inp_files/6221.got.cif
#   From: 2010.05.17/outbox.cif.g08.bks.cpg/sg59_4_cif.got.tgz:6221.got - 2010.06.03 14:40:33.
