data_PCOD9452453
_publ_section_title
;
Structure prediction by ZEFSAII (Michael W. Deem and Ramdas Pophale) SiO2 
 PCOD9452453
Probable space group: P M M N
;
_chemical_formula_sum "Si O2"
_cell_formula_units_Z 32
_cell_length_a 8.078172
_cell_length_b 14.042670
_cell_length_c 14.162455
_cell_angle_alpha 90.000000
_cell_angle_beta 90.000000
_cell_angle_gamma 90.000000
_cell_volume 1606.576200
_symmetry_space_group_name_H-M "P M M N"
_symmetry_group_IT_number 59
_space_group.IT_coordinate_system_code '2'
_symmetry_cell_setting 'orthorhombic'
loop_
_space_group_symop_operation_xyz
x,y,z
1/2-x,1/2-y,z
1/2+x,-y,-z
-x,1/2+y,-z
-x,-y,-z
1/2+x,1/2+y,-z
1/2-x,y,z
x,1/2-y,z
loop_
_atom_site_type_symbol
_atom_site_label
_atom_site_fract_x
_atom_site_fract_y
_atom_site_fract_z
Si Si1 0.057051 0.013922 0.606456
Si Si2 0.250000 0.133845 0.105430
Si Si3 0.437886 0.636408 0.767478
Si Si4 0.750000 0.633447 0.110102
Si Si5 0.568013 0.364181 0.769271
O O1 0.250000 0.041130 0.607285
O O2 0.957173 0.092027 0.665840
O O3 0.039472 0.918321 0.668938
O O4 0.000000 0.000000 0.500000
O O5 0.250000 0.250000 0.102125
O O6 0.416047 0.106817 0.161792
O O7 0.250000 0.099949 0.997668
O O8 0.250000 0.616276 0.801794
O O9 0.450327 0.750000 0.753965
O O10 0.750000 0.750000 0.108904
O O11 0.585515 0.603554 0.166378
O O12 0.750000 0.390762 0.806330
O O13 0.560780 0.250000 0.764419
#
# Coordination Sequence:
#
# PCOD9452453 Si02
#       5
#     8   4   8   4   8
#     4  11  23  38  60  86 116 153 193 242 292 344
#     4   9  18  34  61  87 112 151 191 235 289 339
#     4   9  20  38  58  83 117 151 189 236 284 343
#     4   9  18  36  59  87 116 147 193 239 285 341
#     4  10  21  38  60  84 117 155 191 237 287 340
#
# _framework density 19.918134999999999
#
# number of rings (size 3 to 8) (size 9 to 14) (size 15 to 20)
#    0.000    2.250    1.250    0.750    3.500    2.000 
#    0.000    8.750    0.000    0.000    0.000    0.000 
#    0.000    0.000    0.000    0.000    0.000    0.000 
#
# Total GULP energy -178727.099823 kJ/mol
# GULP energy per Si atom -5585.221869 kJ/mol
# Density = 1.987280 g / cm^3
# Si number density = 19.918135 Si / 1000 Ang^3
#
#
#
# Elastic Constant Matrix: (Units=GPa)
#
#
# Indices 1 2 3 4 5 6 
#
# 1 190.7291 46.2009 104.8310 0.0000 0.0000 0.0000
# 2 46.2009 53.5925 16.6075 0.0000 0.0000 0.0000
# 3 104.8310 16.6075 153.9188 0.0000 0.0000 0.0000
# 4 0.0000 0.0000 0.0000 29.0498 0.0000 0.0000
# 5 0.0000 0.0000 0.0000 0.0000 26.0822 0.0000
# 6 0.0000 0.0000 0.0000 0.0000 0.0000 25.6610
#
#
#
# Elastic Compliance Matrix: (Units=1/GPa)
#
#
# Indices 1 2 3 4 5 6 
#
# 1 0.010435 -0.007028 -0.006349 0.000000 0.000000 0.000000
# 2 -0.007028 0.024039 0.002193 0.000000 0.000000 0.000000
# 3 -0.006349 0.002193 0.010584 0.000000 0.000000 0.000000
# 4 0.000000 0.000000 0.000000 0.034424 0.000000 0.000000
# 5 0.000000 0.000000 0.000000 0.000000 0.038340 0.000000
# 6 0.000000 0.000000 0.000000 0.000000 0.000000 0.038970
#
#
# Mechanical properties :
#
#
# Convention : Reuss Voigt Hill
#
# Bulk Modulus (GPa) = 44.07205 81.50213 62.78709
# Shear Modulus (GPa) = 26.77764 31.53200 29.15482
#
# Velocity S-wave (km/s) = 3.67056 3.98311 3.83003
# Velocity P-wave (km/s) = 6.33551 7.88422 7.15191
#
# Compressibility (1/GPa) = 0.02269012
#
# Stress axis : x y z
#
# Youngs Moduli (GPa) = 95.83108 41.59949 94.47972
#
# Poissons Ratio (x) = 0.29238 0.59983
# Poissons Ratio (y) = 0.67354 -0.20721
# Poissons Ratio (z) = 0.60841 -0.09124
#
# Static dielectric constant tensor:
#      x y z
#    x 1.724640 0.000000 0.000000 
#    y 0.000000 1.724270 0.000000 
#    z 0.000000 0.000000 1.641750 
# 
# From -- ./inp_files/13632.got.cif
#   From: 2010.05.17/outbox.cif.g08.bks.cpg/sg59_7_cif.got.tgz:13632.got - 2010.06.03 14:40:33.
