data_PCOD9452886
_publ_section_title
;
Structure prediction by ZEFSAII (Michael W. Deem and Ramdas Pophale) SiO2 
 PCOD9452886
Probable space group: P M M N
;
_chemical_formula_sum "Si O2"
_cell_formula_units_Z 48
_cell_length_a 20.485781
_cell_length_b 8.892787
_cell_length_c 13.681045
_cell_angle_alpha 90.000000
_cell_angle_beta 90.000000
_cell_angle_gamma 90.000000
_cell_volume 2492.353771
_symmetry_space_group_name_H-M "P M M N"
_symmetry_group_IT_number 59
_space_group.IT_coordinate_system_code '2'
_symmetry_cell_setting 'orthorhombic'
loop_
_space_group_symop_operation_xyz
x,y,z
1/2-x,1/2-y,z
1/2+x,-y,-z
-x,1/2+y,-z
-x,-y,-z
1/2+x,1/2+y,-z
1/2-x,y,z
x,1/2-y,z
loop_
_atom_site_type_symbol
_atom_site_label
_atom_site_fract_x
_atom_site_fract_y
_atom_site_fract_z
Si Si1 0.174865 0.071579 0.099547
Si Si2 0.250000 0.929922 0.456595
Si Si3 0.932824 0.071751 0.037551
Si Si4 0.003476 0.929889 0.392606
Si Si5 0.250000 0.068638 0.672012
Si Si6 0.636988 0.929037 0.674959
Si Si7 0.110320 0.070161 0.759046
O O1 0.250000 0.033920 0.077684
O O2 0.165587 0.250000 0.080304
O O3 0.161583 0.047579 0.214479
O O4 0.124676 0.979247 0.034946
O O5 0.250000 0.750000 0.454232
O O6 0.250000 0.989742 0.567058
O O7 0.186988 0.994132 0.399886
O O8 0.939487 0.250000 0.038451
O O9 0.915017 0.012366 0.144997
O O10 0.000000 0.000000 0.000000
O O11 0.010827 0.750000 0.399041
O O12 0.938100 0.962179 0.331135
O O13 0.000000 0.000000 0.500000
O O14 0.065720 0.000907 0.338696
O O15 0.250000 0.250000 0.657105
O O16 0.184201 0.029422 0.730349
O O17 0.635332 0.750000 0.656287
O O18 0.108289 0.250000 0.776753
#
# Coordination Sequence:
#
# PCOD9452886 Si02
#       7
#     8   4   8   8   4   8   8
#     4  10  22  42  67  95 127 167 211 259 318 382
#     4  12  24  38  61  94 131 168 209 264 322 378
#     4  12  26  43  66  95 129 168 211 263 318 377
#     4  11  23  39  62  94 129 169 215 266 320 377
#     4  10  22  42  67  92 125 170 213 256 312 382
#     4  11  22  40  64  91 125 167 214 262 316 379
#     4  10  23  43  66  94 127 169 215 260 315 377
#
# _framework density 19.258904999999999
#
# number of rings (size 3 to 8) (size 9 to 14) (size 15 to 20)
#    0.000    1.167    0.833    5.250    1.167    7.667 
#    0.000    0.000    0.000    0.000    0.000    0.000 
#    0.000    0.000    0.000    0.000    0.000    0.000 
#
# Total GULP energy -268605.891458 kJ/mol
# GULP energy per Si atom -5595.956072 kJ/mol
# Density = 1.921507 g / cm^3
# Si number density = 19.258905 Si / 1000 Ang^3
#
#
#
# Elastic Constant Matrix: (Units=GPa)
#
#
# Indices 1 2 3 4 5 6 
#
# 1 186.1542 89.6707 85.9913 0.0000 0.0000 0.0000
# 2 89.6707 105.6378 93.3385 0.0000 0.0000 0.0000
# 3 85.9913 93.3385 136.4213 0.0000 0.0000 0.0000
# 4 0.0000 0.0000 0.0000 35.6058 0.0000 0.0000
# 5 0.0000 0.0000 0.0000 0.0000 34.8742 0.0000
# 6 0.0000 0.0000 0.0000 0.0000 0.0000 33.8321
#
#
#
# Elastic Compliance Matrix: (Units=1/GPa)
#
#
# Indices 1 2 3 4 5 6 
#
# 1 0.009158 -0.006760 -0.001148 0.000000 0.000000 0.000000
# 2 -0.006760 0.028927 -0.015530 0.000000 0.000000 0.000000
# 3 -0.001148 -0.015530 0.018679 0.000000 0.000000 0.000000
# 4 0.000000 0.000000 0.000000 0.028085 0.000000 0.000000
# 5 0.000000 0.000000 0.000000 0.000000 0.028675 0.000000
# 6 0.000000 0.000000 0.000000 0.000000 0.000000 0.029558
#
#
# Mechanical properties :
#
#
# Convention : Reuss Voigt Hill
#
# Bulk Modulus (GPa) = 101.12901 107.35715 104.24308
# Shear Modulus (GPa) = 25.87261 31.47659 28.67460
#
# Velocity S-wave (km/s) = 3.66923 4.04715 3.86281
# Velocity P-wave (km/s) = 8.40091 8.81501 8.61045
#
# Compressibility (1/GPa) = 0.00988836
#
# Stress axis : x y z
#
# Youngs Moduli (GPa) = 109.18992 34.57006 53.53471
#
# Poissons Ratio (x) = 0.23369 0.06144
# Poissons Ratio (y) = 0.73812 0.83142
# Poissons Ratio (z) = 0.12532 0.53689
#
# Static dielectric constant tensor:
#      x y z
#    x 1.650650 0.000000 0.000000 
#    y 0.000000 1.649200 0.000000 
#    z 0.000000 0.000000 1.639100 
# 
# From -- ./inp_files/23718.got.cif
#   From: 2010.05.17/outbox.cif.g08.bks.cpg/sg59_12_cif.got.tgz:23718.got - 2010.06.03 14:40:33.
