data_PCOD9452721
_publ_section_title
;
Structure prediction by ZEFSAII (Michael W. Deem and Ramdas Pophale) SiO2 
 PCOD9452721
Probable space group: P M M N
;
_chemical_formula_sum "Si O2"
_cell_formula_units_Z 64
_cell_length_a 9.017983
_cell_length_b 20.157867
_cell_length_c 18.889637
_cell_angle_alpha 90.000000
_cell_angle_beta 90.000000
_cell_angle_gamma 90.000000
_cell_volume 3433.820586
_symmetry_space_group_name_H-M "P M M N"
_symmetry_group_IT_number 59
_space_group.IT_coordinate_system_code '2'
_symmetry_cell_setting 'orthorhombic'
loop_
_space_group_symop_operation_xyz
x,y,z
1/2-x,1/2-y,z
1/2+x,-y,-z
-x,1/2+y,-z
-x,-y,-z
1/2+x,1/2+y,-z
1/2-x,y,z
x,1/2-y,z
loop_
_atom_site_type_symbol
_atom_site_label
_atom_site_fract_x
_atom_site_fract_y
_atom_site_fract_z
Si Si1 0.924075 0.436959 0.175508
Si Si2 0.428618 0.826100 0.244702
Si Si3 0.928689 0.541817 0.292966
Si Si4 0.073738 0.067955 0.025332
Si Si5 0.927069 0.038057 0.435071
Si Si6 0.920877 0.676265 0.578213
Si Si7 0.074159 0.827836 0.078596
Si Si8 0.083242 0.174901 0.251489
O O1 0.750000 0.442459 0.158720
O O2 0.969356 0.501153 0.221655
O O3 0.017374 0.424630 0.105315
O O4 0.958288 0.374187 0.224899
O O5 0.250000 0.829472 0.250517
O O6 0.472773 0.750000 0.262742
O O7 0.501143 0.885202 0.289310
O O8 0.465711 0.837267 0.161418
O O9 0.750000 0.547133 0.294249
O O10 0.973620 0.497551 0.361076
O O11 0.250000 0.063936 0.022343
O O12 0.016164 0.126037 0.974140
O O13 0.000000 0.000000 0.000000
O O14 0.750000 0.034557 0.438344
O O15 0.979582 0.113974 0.440721
O O16 0.000000 0.000000 0.500000
O O17 0.750000 0.666142 0.554704
O O18 0.969028 0.750000 0.554409
O O19 0.918654 0.677247 0.663662
O O20 0.250000 0.842298 0.071474
O O21 0.052379 0.750000 0.062580
O O22 0.250000 0.152581 0.230332
O O23 0.062206 0.250000 0.225185
#
# Coordination Sequence:
#
# PCOD9452721 Si02
#       8
#     8   8   8   8   8   8   8   8
#     4  11  22  37  56  81 112 147 189 238 288 341
#     4   9  19  36  60  88 113 142 185 233 282 340
#     4  10  22  38  57  84 115 145 184 233 284 341
#     4  12  25  39  55  79 111 149 193 240 290 347
#     4  11  23  40  60  88 121 156 197 241 291 348
#     4   9  18  35  60  88 118 153 192 233 280 336
#     4   9  19  38  61  84 113 150 192 238 289 344
#     4   9  18  33  54  82 114 147 186 229 275 331
#
# _framework density 18.638131000000001
#
# number of rings (size 3 to 8) (size 9 to 14) (size 15 to 20)
#    0.000    2.000    1.250    4.125    0.000    6.000 
#    0.000    3.125    0.000    0.750    0.000    0.000 
#    0.000    0.000    0.000    0.000    0.000    0.000 
#
# Total GULP energy -357163.101025 kJ/mol
# GULP energy per Si atom -5580.673454 kJ/mol
# Density = 1.859571 g / cm^3
# Si number density = 18.638131 Si / 1000 Ang^3
#
#
#
# Elastic Constant Matrix: (Units=GPa)
#
#
# Indices 1 2 3 4 5 6 
#
# 1 61.4113 52.7107 26.3387 0.0000 0.0000 0.0000
# 2 52.7107 127.0619 38.9501 0.0000 0.0000 0.0000
# 3 26.3387 38.9501 37.5624 0.0000 0.0000 0.0000
# 4 0.0000 0.0000 0.0000 25.2177 0.0000 0.0000
# 5 0.0000 0.0000 0.0000 0.0000 24.7077 0.0000
# 6 0.0000 0.0000 0.0000 0.0000 0.0000 36.3642
#
#
#
# Elastic Compliance Matrix: (Units=1/GPa)
#
#
# Indices 1 2 3 4 5 6 
#
# 1 0.028169 -0.008255 -0.011193 0.000000 0.000000 0.000000
# 2 -0.008255 0.013957 -0.008684 0.000000 0.000000 0.000000
# 3 -0.011193 -0.008684 0.043475 0.000000 0.000000 0.000000
# 4 0.000000 0.000000 0.000000 0.039655 0.000000 0.000000
# 5 0.000000 0.000000 0.000000 0.000000 0.040473 0.000000
# 6 0.000000 0.000000 0.000000 0.000000 0.000000 0.027500
#
#
# Mechanical properties :
#
#
# Convention : Reuss Voigt Hill
#
# Bulk Modulus (GPa) = 34.08471 51.33717 42.71094
# Shear Modulus (GPa) = 19.28483 24.46031 21.87257
#
# Velocity S-wave (km/s) = 3.22016 3.62661 3.42941
# Velocity P-wave (km/s) = 5.67038 6.71866 6.21665
#
# Compressibility (1/GPa) = 0.02933867
#
# Stress axis : x y z
#
# Youngs Moduli (GPa) = 35.49960 71.65033 23.00154
#
# Poissons Ratio (x) = 0.59146 0.25745
# Poissons Ratio (y) = 0.29304 0.19975
# Poissons Ratio (z) = 0.39733 0.62221
#
# Static dielectric constant tensor:
#      x y z
#    x 1.628410 0.000000 0.000000 
#    y 0.000000 1.653460 0.000000 
#    z 0.000000 0.000000 1.626010 
# 
# From -- ./inp_files/29389.got.cif
#   From: 2010.05.17/outbox.cif.g08.bks.cpg/sg59_15_cif.got.tgz:29389.got - 2010.06.03 14:40:33.
