data_PCOD9452406
_publ_section_title
;
Structure prediction by ZEFSAII (Michael W. Deem and Ramdas Pophale) SiO2 
 PCOD9452406
Probable space group: P M M N
;
_chemical_formula_sum "Si O2"
_cell_formula_units_Z 40
_cell_length_a 14.562022
_cell_length_b 9.105275
_cell_length_c 15.300993
_cell_angle_alpha 90.000000
_cell_angle_beta 90.000000
_cell_angle_gamma 90.000000
_cell_volume 2028.777251
_symmetry_space_group_name_H-M "P M M N"
_symmetry_group_IT_number 59
_space_group.IT_coordinate_system_code '2'
_symmetry_cell_setting 'orthorhombic'
loop_
_space_group_symop_operation_xyz
x,y,z
1/2-x,1/2-y,z
1/2+x,-y,-z
-x,1/2+y,-z
-x,-y,-z
1/2+x,1/2+y,-z
1/2-x,y,z
x,1/2-y,z
loop_
_atom_site_type_symbol
_atom_site_label
_atom_site_fract_x
_atom_site_fract_y
_atom_site_fract_z
Si Si1 0.644698 0.428604 0.764051
Si Si2 0.493859 0.426039 0.905877
Si Si3 0.139651 0.919155 0.779820
Si Si4 0.362041 0.580216 0.429497
Si Si5 0.361801 0.416670 0.603462
O O1 0.750000 0.477457 0.776860
O O2 0.645909 0.250000 0.761079
O O3 0.578393 0.471411 0.842613
O O4 0.611166 0.473593 0.667208
O O5 0.494208 0.250000 0.913712
O O6 0.404587 0.482362 0.854731
O O7 0.500000 0.500000 0.000000
O O8 0.250000 0.924262 0.784676
O O9 0.110620 0.750000 0.788932
O O10 0.112275 0.983610 0.685542
O O11 0.250000 0.580116 0.428469
O O12 0.389851 0.750000 0.441923
O O13 0.391955 0.482613 0.510984
O O14 0.250000 0.414603 0.601646
O O15 0.393630 0.250000 0.616408
#
# Coordination Sequence:
#
# PCOD9452406 Si02
#       5
#     8   8   8   8   8
#     4   8  16  33  57  82 108 142 182 221 265 322
#     4  11  23  39  59  83 111 142 181 231 283 333
#     4  10  21  38  59  81 108 146 189 230 274 325
#     4   8  13  25  48  76 105 139 178 215 254 310
#     4   9  16  27  47  78 113 144 175 216 267 321
#
# _framework density 19.71631
#
# number of rings (size 3 to 8) (size 9 to 14) (size 15 to 20)
#    0.000    2.800    0.000    3.000    0.000    4.400 
#    0.000    5.000    0.000    4.200    0.000    0.000 
#    0.000    0.000    0.000    0.000    0.000    0.000 
#
# Total GULP energy -223321.766737 kJ/mol
# GULP energy per Si atom -5583.044168 kJ/mol
# Density = 1.967144 g / cm^3
# Si number density = 19.716310 Si / 1000 Ang^3
#
#
#
# Elastic Constant Matrix: (Units=GPa)
#
#
# Indices 1 2 3 4 5 6 
#
# 1 51.8036 20.1681 25.4752 0.0000 0.0000 0.0000
# 2 20.1681 81.4352 58.0810 0.0000 0.0000 0.0000
# 3 25.4752 58.0810 170.4748 0.0000 0.0000 0.0000
# 4 0.0000 0.0000 0.0000 33.6917 0.0000 0.0000
# 5 0.0000 0.0000 0.0000 0.0000 30.4583 0.0000
# 6 0.0000 0.0000 0.0000 0.0000 0.0000 12.6724
#
#
#
# Elastic Compliance Matrix: (Units=1/GPa)
#
#
# Indices 1 2 3 4 5 6 
#
# 1 0.021808 -0.004064 -0.001874 0.000000 0.000000 0.000000
# 2 -0.004064 0.016979 -0.005177 0.000000 0.000000 0.000000
# 3 -0.001874 -0.005177 0.007910 0.000000 0.000000 0.000000
# 4 0.000000 0.000000 0.000000 0.029681 0.000000 0.000000
# 5 0.000000 0.000000 0.000000 0.000000 0.032832 0.000000
# 6 0.000000 0.000000 0.000000 0.000000 0.000000 0.078911
#
#
# Mechanical properties :
#
#
# Convention : Reuss Voigt Hill
#
# Bulk Modulus (GPa) = 40.87474 56.79580 48.83527
# Shear Modulus (GPa) = 22.88259 28.69712 25.78986
#
# Velocity S-wave (km/s) = 3.41044 3.81924 3.62062
# Velocity P-wave (km/s) = 6.02367 6.95111 6.50394
#
# Compressibility (1/GPa) = 0.02446499
#
# Stress axis : x y z
#
# Youngs Moduli (GPa) = 45.85564 58.89695 126.42253
#
# Poissons Ratio (x) = 0.23936 0.23694
# Poissons Ratio (y) = 0.18636 0.65454
# Poissons Ratio (z) = 0.08594 0.30493
#
# Static dielectric constant tensor:
#      x y z
#    x 1.750560 0.000000 0.000000 
#    y 0.000000 1.672610 0.000000 
#    z 0.000000 0.000000 1.661620 
# 
# From -- ./inp_files/19839.got.cif
#   From: 2010.05.17/outbox.cif.g08.bks.cpg/sg59_10_cif.got.tgz:19839.got - 2010.06.03 14:40:33.
