data_PCOD9452377
_publ_section_title
;
Structure prediction by ZEFSAII (Michael W. Deem and Ramdas Pophale) SiO2 
 PCOD9452377
Probable space group: P M M N
;
_chemical_formula_sum "Si O2"
_cell_formula_units_Z 56
_cell_length_a 7.932931
_cell_length_b 15.562055
_cell_length_c 22.546688
_cell_angle_alpha 90.000000
_cell_angle_beta 90.000000
_cell_angle_gamma 90.000000
_cell_volume 2783.449702
_symmetry_space_group_name_H-M "P M M N"
_symmetry_group_IT_number 59
_space_group.IT_coordinate_system_code '2'
_symmetry_cell_setting 'orthorhombic'
loop_
_space_group_symop_operation_xyz
x,y,z
1/2-x,1/2-y,z
1/2+x,-y,-z
-x,1/2+y,-z
-x,-y,-z
1/2+x,1/2+y,-z
1/2-x,y,z
x,1/2-y,z
loop_
_atom_site_type_symbol
_atom_site_label
_atom_site_fract_x
_atom_site_fract_y
_atom_site_fract_z
Si Si1 0.453961 0.488327 0.706146
Si Si2 0.047031 0.564631 0.161630
Si Si3 0.549197 0.344268 0.357725
Si Si4 0.955665 0.656998 0.384182
Si Si5 0.956614 0.250000 0.885407
Si Si6 0.049084 0.058163 0.056769
Si Si7 0.049675 0.750000 0.978118
Si Si8 0.451534 0.098330 0.488347
O O1 0.250000 0.489097 0.702891
O O2 0.502147 0.461847 0.771988
O O3 0.517950 0.580940 0.684620
O O4 0.515208 0.418954 0.657929
O O5 0.250000 0.566565 0.156675
O O6 0.987660 0.661049 0.145141
O O7 0.983597 0.493711 0.114371
O O8 0.750000 0.340369 0.347888
O O9 0.476357 0.250000 0.347050
O O10 0.524064 0.369553 0.426380
O O11 0.750000 0.653406 0.384977
O O12 0.006303 0.750000 0.360816
O O13 0.009907 0.646785 0.452310
O O14 0.750000 0.250000 0.885089
O O15 0.014315 0.250000 0.953862
O O16 0.250000 0.058130 0.059683
O O17 0.997858 0.158261 0.050966
O O18 0.000000 0.000000 0.000000
O O19 0.250000 0.750000 0.981327
O O20 0.250000 0.106540 0.484430
O O21 0.500000 0.000000 0.500000
#
# Coordination Sequence:
#
# PCOD9452377 Si02
#       8
#     8   8   8   8   4   8   4   8
#     4  10  21  38  57  80 112 150 193 236 284 345
#     4  10  22  40  60  84 120 158 192 240 294 348
#     4  10  21  39  60  81 110 148 193 246 298 346
#     4   9  18  33  53  78 110 142 175 225 286 341
#     4   9  18  37  61  87 121 157 186 225 294 357
#     4  11  22  39  63  91 124 159 200 249 301 354
#     4  11  21  39  65  93 125 161 198 245 304 361
#     4  11  20  34  57  83 113 146 186 235 292 349
#
# _framework density 20.118919000000002
#
# number of rings (size 3 to 8) (size 9 to 14) (size 15 to 20)
#    0.000    1.857    2.857    1.500    1.000    2.571 
#    1.286    0.000    0.000    1.714    0.000    0.000 
#    0.000    0.000    0.000    0.000    0.000    0.000 
#
# Total GULP energy -312646.603242 kJ/mol
# GULP energy per Si atom -5582.975058 kJ/mol
# Density = 2.007313 g / cm^3
# Si number density = 20.118919 Si / 1000 Ang^3
#
#
#
# Elastic Constant Matrix: (Units=GPa)
#
#
# Indices 1 2 3 4 5 6 
#
# 1 21.6166 12.9550 1.0177 0.0000 0.0000 0.0000
# 2 12.9550 225.4733 96.2852 0.0000 0.0000 0.0000
# 3 1.0177 96.2852 136.9875 0.0000 0.0000 0.0000
# 4 0.0000 0.0000 0.0000 3.3453 0.0000 0.0000
# 5 0.0000 0.0000 0.0000 0.0000 28.6244 0.0000
# 6 0.0000 0.0000 0.0000 0.0000 0.0000 14.4606
#
#
#
# Elastic Compliance Matrix: (Units=1/GPa)
#
#
# Indices 1 2 3 4 5 6 
#
# 1 0.048404 -0.003754 0.002279 0.000000 0.000000 0.000000
# 2 -0.003754 0.006628 -0.004631 0.000000 0.000000 0.000000
# 3 0.002279 -0.004631 0.010538 0.000000 0.000000 0.000000
# 4 0.000000 0.000000 0.000000 0.298927 0.000000 0.000000
# 5 0.000000 0.000000 0.000000 0.000000 0.034935 0.000000
# 6 0.000000 0.000000 0.000000 0.000000 0.000000 0.069154
#
#
# Mechanical properties :
#
#
# Convention : Reuss Voigt Hill
#
# Bulk Modulus (GPa) = 18.74145 67.17702 42.95924
# Shear Modulus (GPa) = 10.02840 27.54068 18.78454
#
# Velocity S-wave (km/s) = 2.23504 3.70387 3.05893
# Velocity P-wave (km/s) = 3.99951 7.19403 5.82023
#
# Compressibility (1/GPa) = 0.05335765
#
# Stress axis : x y z
#
# Youngs Moduli (GPa) = 20.65963 150.86403 94.89381
#
# Poissons Ratio (x) = 0.56642 -0.21630
# Poissons Ratio (y) = 0.07757 0.43946
# Poissons Ratio (z) = -0.04709 0.69867
#
# Static dielectric constant tensor:
#      x y z
#    x 1.728890 0.000000 0.000000 
#    y 0.000000 1.722340 0.000000 
#    z 0.000000 0.000000 1.678920 
# 
# From -- ./inp_files/29232.got.cif
#   From: 2010.05.17/outbox.cif.g08.bks.cpg/sg59_15_cif.got.tgz:29232.got - 2010.06.03 14:40:33.
