data_PCOD9452737
_publ_section_title
;
Structure prediction by ZEFSAII (Michael W. Deem and Ramdas Pophale) SiO2 
 PCOD9452737
Probable space group: P M M N
;
_chemical_formula_sum "Si O2"
_cell_formula_units_Z 40
_cell_length_a 7.489483
_cell_length_b 16.620280
_cell_length_c 16.133664
_cell_angle_alpha 90.000000
_cell_angle_beta 90.000000
_cell_angle_gamma 90.000000
_cell_volume 2008.275007
_symmetry_space_group_name_H-M "P M M N"
_symmetry_group_IT_number 59
_space_group.IT_coordinate_system_code '2'
_symmetry_cell_setting 'orthorhombic'
loop_
_space_group_symop_operation_xyz
x,y,z
1/2-x,1/2-y,z
1/2+x,-y,-z
-x,1/2+y,-z
-x,-y,-z
1/2+x,1/2+y,-z
1/2-x,y,z
x,1/2-y,z
loop_
_atom_site_type_symbol
_atom_site_label
_atom_site_fract_x
_atom_site_fract_y
_atom_site_fract_z
Si Si1 0.460284 0.934252 0.753477
Si Si2 0.537369 0.105260 0.670545
Si Si3 0.250000 0.347578 0.539007
Si Si4 0.750000 0.844791 0.650187
Si Si5 0.034015 0.750000 0.209425
Si Si6 0.969050 0.250000 0.980589
Si Si7 0.963360 0.078629 0.056209
O O1 0.250000 0.915278 0.751381
O O2 0.577781 0.873366 0.700594
O O3 0.522437 0.935232 0.849198
O O4 0.493396 0.020202 0.711320
O O5 0.750000 0.111669 0.655508
O O6 0.422664 0.121046 0.588610
O O7 0.482114 0.172386 0.737826
O O8 0.250000 0.250000 0.541681
O O9 0.250000 0.376383 0.444124
O O10 0.750000 0.750000 0.644481
O O11 0.250000 0.750000 0.205692
O O12 0.972110 0.750000 0.115140
O O13 0.750000 0.250000 0.982514
O O14 0.028086 0.165437 0.021944
O O15 0.750000 0.085294 0.058307
O O16 0.000000 0.000000 0.000000
#
# Coordination Sequence:
#
# PCOD9452737 Si02
#       7
#     8   8   4   4   4   4   8
#     4  11  24  43  66  97 130 175 219 268 326 387
#     4  11  21  39  66  98 132 170 211 266 329 391
#     4  11  24  44  68  98 132 163 214 272 332 393
#     4  11  28  48  68  93 127 174 217 276 332 393
#     4   9  18  31  61  95 129 170 211 255 331 388
#     4   9  18  36  58  88 123 170 209 258 318 386
#     4  10  22  38  62  93 129 169 218 268 320 381
#
# _framework density 19.917593
#
# number of rings (size 3 to 8) (size 9 to 14) (size 15 to 20)
#    0.000    1.600    3.000    1.200    2.800    3.600 
#    0.000    2.500    0.000    0.000    0.000    0.000 
#    0.000    0.000    0.000    0.000    0.000    0.000 
#
# Total GULP energy -223497.874189 kJ/mol
# GULP energy per Si atom -5587.446855 kJ/mol
# Density = 1.987226 g / cm^3
# Si number density = 19.917593 Si / 1000 Ang^3
#
#
#
# Elastic Constant Matrix: (Units=GPa)
#
#
# Indices 1 2 3 4 5 6 
#
# 1 109.4968 28.0346 63.3081 0.0000 0.0000 0.0000
# 2 28.0346 119.0270 72.0641 0.0000 0.0000 0.0000
# 3 63.3081 72.0641 200.0770 0.0000 0.0000 0.0000
# 4 0.0000 0.0000 0.0000 27.6088 0.0000 0.0000
# 5 0.0000 0.0000 0.0000 0.0000 41.1831 0.0000
# 6 0.0000 0.0000 0.0000 0.0000 0.0000 -43.8999
#
#
#
# Elastic Compliance Matrix: (Units=1/GPa)
#
#
# Indices 1 2 3 4 5 6 
#
# 1 0.011214 -0.000630 -0.003321 0.000000 0.000000 0.000000
# 2 -0.000630 0.010780 -0.003683 0.000000 0.000000 0.000000
# 3 -0.003321 -0.003683 0.007376 0.000000 0.000000 0.000000
# 4 0.000000 0.000000 0.000000 0.036220 0.000000 0.000000
# 5 0.000000 0.000000 0.000000 0.000000 0.024282 0.000000
# 6 0.000000 0.000000 0.000000 0.000000 0.000000 -0.022779
#
#
# Mechanical properties :
#
#
# Convention : Reuss Voigt Hill
#
# Bulk Modulus (GPa) = 70.92259 83.93495 77.42877
# Shear Modulus (GPa) = 57.42949 22.65798 40.04374
#
# Velocity S-wave (km/s) = 5.37551 3.37647 4.48869
# Velocity P-wave (km/s) = 8.61473 7.57848 8.11316
#
# Compressibility (1/GPa) = 0.01409988
#
# Stress axis : x y z
#
# Youngs Moduli (GPa) = 89.17072 92.76479 135.58088
#
# Poissons Ratio (x) = 0.05848 0.45032
# Poissons Ratio (y) = 0.05622 0.49938
# Poissons Ratio (z) = 0.29617 0.34168
#
# Static dielectric constant tensor:
#      x y z
#    x 1.723720 0.000000 0.000000 
#    y 0.000000 1.661300 0.000000 
#    z 0.000000 0.000000 1.677170 
# 
# From -- ./inp_files/20052.got.cif
#   From: 2010.05.17/outbox.cif.g08.bks.cpg/sg59_11_cif.got.tgz:20052.got - 2010.06.03 14:40:33.
