data_PCOD9452881
_publ_section_title
;
Structure prediction by ZEFSAII (Michael W. Deem and Ramdas Pophale) SiO2 
 PCOD9452881
Probable space group: P M M N
;
_chemical_formula_sum "Si O2"
_cell_formula_units_Z 40
_cell_length_a 15.809099
_cell_length_b 8.769638
_cell_length_c 15.709123
_cell_angle_alpha 90.000000
_cell_angle_beta 90.000000
_cell_angle_gamma 90.000000
_cell_volume 2177.913996
_symmetry_space_group_name_H-M "P M M N"
_symmetry_group_IT_number 59
_space_group.IT_coordinate_system_code '2'
_symmetry_cell_setting 'orthorhombic'
loop_
_space_group_symop_operation_xyz
x,y,z
1/2-x,1/2-y,z
1/2+x,-y,-z
-x,1/2+y,-z
-x,-y,-z
1/2+x,1/2+y,-z
1/2-x,y,z
x,1/2-y,z
loop_
_atom_site_type_symbol
_atom_site_label
_atom_site_fract_x
_atom_site_fract_y
_atom_site_fract_z
Si Si1 0.007885 0.577497 0.090991
Si Si2 0.750000 0.931026 0.660557
Si Si3 0.406028 0.572901 0.644702
Si Si4 0.750000 0.929920 0.457642
Si Si5 0.842760 0.918820 0.195696
Si Si6 0.573378 0.065691 0.725501
O O1 0.039562 0.750000 0.078522
O O2 0.055720 0.515168 0.175835
O O3 0.912332 0.579944 0.124578
O O4 0.000000 0.500000 0.000000
O O5 0.750000 0.750000 0.678906
O O6 0.750000 0.951099 0.558767
O O7 0.664435 0.006030 0.696693
O O8 0.418602 0.750000 0.624473
O O9 0.337104 0.500796 0.580278
O O10 0.360306 0.546957 0.735349
O O11 0.497698 0.495239 0.663560
O O12 0.750000 0.750000 0.437940
O O13 0.750000 0.932858 0.159784
O O14 0.849482 0.750000 0.238847
O O15 0.569606 0.250000 0.724458
#
# Coordination Sequence:
#
# PCOD9452881 Si02
#       6
#     8   4   8   4   8   8
#     4   9  19  35  56  83 112 148 189 233 285 343
#     4  11  25  43  63  88 115 154 205 249 286 341
#     4  11  21  34  58  91 119 148 194 245 289 338
#     4  11  23  39  59  86 123 158 193 239 298 357
#     4   9  17  32  54  78 111 149 185 228 289 349
#     4  10  22  42  64  84 118 162 196 236 299 357
#
# _framework density 18.366197
#
# number of rings (size 3 to 8) (size 9 to 14) (size 15 to 20)
#    0.000    2.000    1.000    4.200    0.000    6.400 
#    1.800    0.000    0.000    0.000    0.000    0.000 
#    0.000    0.000    0.000    0.000    0.000    0.000 
#
# Total GULP energy -222740.065512 kJ/mol
# GULP energy per Si atom -5568.501638 kJ/mol
# Density = 1.832439 g / cm^3
# Si number density = 18.366197 Si / 1000 Ang^3
#
#
#
# Elastic Constant Matrix: (Units=GPa)
#
#
# Indices 1 2 3 4 5 6 
#
# 1 156.4142 55.6096 70.9411 0.0000 0.0000 0.0000
# 2 55.6096 92.8360 52.1448 0.0000 0.0000 0.0000
# 3 70.9411 52.1448 96.1148 0.0000 0.0000 0.0000
# 4 0.0000 0.0000 0.0000 26.3711 0.0000 0.0000
# 5 0.0000 0.0000 0.0000 0.0000 -5.9461 0.0000
# 6 0.0000 0.0000 0.0000 0.0000 0.0000 29.9600
#
#
#
# Elastic Compliance Matrix: (Units=1/GPa)
#
#
# Indices 1 2 3 4 5 6 
#
# 1 0.010049 -0.002666 -0.005971 0.000000 0.000000 0.000000
# 2 -0.002666 0.016200 -0.006821 0.000000 0.000000 0.000000
# 3 -0.005971 -0.006821 0.018512 0.000000 0.000000 0.000000
# 4 0.000000 0.000000 0.000000 0.037920 0.000000 0.000000
# 5 0.000000 0.000000 0.000000 0.000000 -0.168178 0.000000
# 6 0.000000 0.000000 0.000000 0.000000 0.000000 0.033378
#
#
# Mechanical properties :
#
#
# Convention : Reuss Voigt Hill
#
# Bulk Modulus (GPa) = 72.22757 78.08400 75.15578
# Shear Modulus (GPa) = -301.43334 21.18829 -140.12253
#
# Velocity S-wave (km/s) = -12.82499 3.40024 -8.74410
# Velocity P-wave (km/s) = 13.41251 7.61727 7.80617
#
# Compressibility (1/GPa) = 0.01384513
#
# Stress axis : x y z
#
# Youngs Moduli (GPa) = 99.51139 61.72863 54.01889
#
# Poissons Ratio (x) = 0.16455 0.32254
# Poissons Ratio (y) = 0.26527 0.36848
# Poissons Ratio (z) = 0.59417 0.42107
#
# Static dielectric constant tensor:
#      x y z
#    x 1.651880 0.000000 0.000000 
#    y 0.000000 1.406980 0.000000 
#    z 0.000000 0.000000 1.626430 
# 
# From -- ./inp_files/22987.got.cif
#   From: 2010.05.17/outbox.cif.g08.bks.cpg/sg59_12_cif.got.tgz:22987.got - 2010.06.03 14:40:33.
