data_PCOD9452994
_publ_section_title
;
Structure prediction by ZEFSAII (Michael W. Deem and Ramdas Pophale) SiO2 
 PCOD9452994
Probable space group: P M M N
;
_chemical_formula_sum "Si O2"
_cell_formula_units_Z 56
_cell_length_a 25.100601
_cell_length_b 8.415800
_cell_length_c 15.380027
_cell_angle_alpha 90.000000
_cell_angle_beta 90.000000
_cell_angle_gamma 90.000000
_cell_volume 3248.902094
_symmetry_space_group_name_H-M "P M M N"
_symmetry_group_IT_number 59
_space_group.IT_coordinate_system_code '2'
_symmetry_cell_setting 'orthorhombic'
loop_
_space_group_symop_operation_xyz
x,y,z
1/2-x,1/2-y,z
1/2+x,-y,-z
-x,1/2+y,-z
-x,-y,-z
1/2+x,1/2+y,-z
1/2-x,y,z
x,1/2-y,z
loop_
_atom_site_type_symbol
_atom_site_label
_atom_site_fract_x
_atom_site_fract_y
_atom_site_fract_z
Si Si1 0.423917 0.441707 0.446941
Si Si2 0.750000 0.439844 0.991717
Si Si3 0.430809 0.559639 0.129255
Si Si4 0.640119 0.559278 0.713418
Si Si5 0.963419 0.557883 0.372750
Si Si6 0.450985 0.444062 0.824585
Si Si7 0.750000 0.440431 0.790867
Si Si8 0.865075 0.560047 0.036813
O O1 0.425420 0.250000 0.447378
O O2 0.376067 0.491117 0.384012
O O3 0.425357 0.494093 0.547498
O O4 0.478061 0.501447 0.401479
O O5 0.750000 0.250000 0.990393
O O6 0.750000 0.497211 0.891138
O O7 0.805013 0.496246 0.034422
O O8 0.429363 0.750000 0.122224
O O9 0.402863 0.509423 0.218966
O O10 0.492527 0.507253 0.132812
O O11 0.396699 0.489419 0.050331
O O12 0.638359 0.750000 0.718569
O O13 0.697408 0.500463 0.743362
O O14 0.963755 0.750000 0.370464
O O15 0.949631 0.502425 0.275793
O O16 0.450973 0.250000 0.824291
O O17 0.401162 0.496812 0.882387
O O18 0.750000 0.250000 0.792301
O O19 0.862527 0.750000 0.039541
#
# Coordination Sequence:
#
# PCOD9452994 Si02
#       8
#     8   4   8   8   8   8   4   8
#     4   9  18  30  49  78 106 133 167 206 250 298
#     4  11  23  39  55  74  98 131 177 220 260 308
#     4  11  20  33  51  76 108 142 172 204 253 311
#     4  11  21  33  51  78 108 136 170 214 258 304
#     4   9  16  31  52  74 105 139 167 202 247 300
#     4   9  19  33  52  78 107 140 176 209 251 307
#     4  11  23  37  55  74  98 135 179 216 258 316
#     4  11  22  36  54  76 102 136 176 218 259 303
#
# _framework density 17.236592000000002
#
# number of rings (size 3 to 8) (size 9 to 14) (size 15 to 20)
#    0.000    1.857    2.857    2.143    0.000    1.143 
#    0.000    3.571    0.000    0.857    0.000    6.000 
#    0.000    0.000    0.000    0.000    0.000    0.000 
#
# Total GULP energy -312466.826947 kJ/mol
# GULP energy per Si atom -5579.764767 kJ/mol
# Density = 1.719736 g / cm^3
# Si number density = 17.236592 Si / 1000 Ang^3
#
#
#
# Elastic Constant Matrix: (Units=GPa)
#
#
# Indices 1 2 3 4 5 6 
#
# 1 147.1775 21.8336 71.6212 0.0000 0.0000 0.0000
# 2 21.8336 20.9590 12.9099 0.0000 0.0000 0.0000
# 3 71.6212 12.9099 104.9921 0.0000 0.0000 0.0000
# 4 0.0000 0.0000 0.0000 14.5606 0.0000 0.0000
# 5 0.0000 0.0000 0.0000 0.0000 21.7855 0.0000
# 6 0.0000 0.0000 0.0000 0.0000 0.0000 14.5875
#
#
#
# Elastic Compliance Matrix: (Units=1/GPa)
#
#
# Indices 1 2 3 4 5 6 
#
# 1 0.011166 -0.007509 -0.006693 0.000000 0.000000 0.000000
# 2 -0.007509 0.056671 -0.001846 0.000000 0.000000 0.000000
# 3 -0.006693 -0.001846 0.014318 0.000000 0.000000 0.000000
# 4 0.000000 0.000000 0.000000 0.068678 0.000000 0.000000
# 5 0.000000 0.000000 0.000000 0.000000 0.045902 0.000000
# 6 0.000000 0.000000 0.000000 0.000000 0.000000 0.068552
#
#
# Mechanical properties :
#
#
# Convention : Reuss Voigt Hill
#
# Bulk Modulus (GPa) = 19.97691 53.98423 36.98057
# Shear Modulus (GPa) = 15.92003 21.30432 18.61217
#
# Velocity S-wave (km/s) = 3.04241 3.51948 3.28960
# Velocity P-wave (km/s) = 4.89455 6.92122 5.99416
#
# Compressibility (1/GPa) = 0.05005780
#
# Stress axis : x y z
#
# Youngs Moduli (GPa) = 89.56010 17.64560 69.84430
#
# Poissons Ratio (x) = 0.13250 0.46750
# Poissons Ratio (y) = 0.67248 0.12895
# Poissons Ratio (z) = 0.59947 0.03258
#
# Static dielectric constant tensor:
#      x y z
#    x 1.564560 0.000000 0.000000 
#    y 0.000000 1.589360 0.000000 
#    z 0.000000 0.000000 1.604840 
# 
# From -- ./inp_files/24321.got.cif
#   From: 2010.05.17/outbox.cif.g08.bks.cpg/sg59_13_cif.got.tgz:24321.got - 2010.06.03 14:40:33.
