data_PCOD9452554
_publ_section_title
;
Structure prediction by ZEFSAII (Michael W. Deem and Ramdas Pophale) SiO2 
 PCOD9452554
Probable space group: P M M N
;
_chemical_formula_sum "Si O2"
_cell_formula_units_Z 40
_cell_length_a 8.944765
_cell_length_b 16.954493
_cell_length_c 12.876747
_cell_angle_alpha 90.000000
_cell_angle_beta 90.000000
_cell_angle_gamma 90.000000
_cell_volume 1952.809618
_symmetry_space_group_name_H-M "P M M N"
_symmetry_group_IT_number 59
_space_group.IT_coordinate_system_code '2'
_symmetry_cell_setting 'orthorhombic'
loop_
_space_group_symop_operation_xyz
x,y,z
1/2-x,1/2-y,z
1/2+x,-y,-z
-x,1/2+y,-z
-x,-y,-z
1/2+x,1/2+y,-z
1/2-x,y,z
x,1/2-y,z
loop_
_atom_site_type_symbol
_atom_site_label
_atom_site_fract_x
_atom_site_fract_y
_atom_site_fract_z
Si Si1 0.416400 0.156124 0.829017
Si Si2 0.429836 0.844091 0.750157
Si Si3 0.926074 0.920630 0.545560
Si Si4 0.914690 0.156320 0.633815
Si Si5 0.928454 0.580238 0.955930
O O1 0.250000 0.123372 0.808419
O O2 0.410610 0.250000 0.815010
O O3 0.531143 0.123066 0.744497
O O4 0.452688 0.139594 0.947887
O O5 0.250000 0.850456 0.748924
O O6 0.467485 0.750000 0.748564
O O7 0.497045 0.888095 0.649738
O O8 0.495171 0.885901 0.852856
O O9 0.750000 0.929592 0.561482
O O10 0.963929 0.860018 0.453438
O O11 0.000000 0.000000 0.500000
O O12 0.750000 0.125488 0.604856
O O13 0.901688 0.250000 0.643981
O O14 0.750000 0.571157 0.939361
O O15 0.000000 0.500000 0.000000
#
# Coordination Sequence:
#
# PCOD9452554 Si02
#       5
#     8   8   8   8   8
#     4   9  19  37  61  88 120 162 211 260 312 376
#     4  11  25  46  71  99 134 176 224 276 333 400
#     4  12  26  43  66  94 129 170 215 269 327 388
#     4  10  21  38  62  92 126 163 206 257 314 379
#     4  11  24  41  64  94 132 174 219 273 328 387
#
# _framework density 20.483307
#
# number of rings (size 3 to 8) (size 9 to 14) (size 15 to 20)
#    0.000    1.400    0.000    4.800    2.800    7.600 
#    0.000    2.000    0.000    0.000    0.000    0.000 
#    0.000    0.000    0.000    0.000    0.000    0.000 
#
# Total GULP energy -223408.129981 kJ/mol
# GULP energy per Si atom -5585.203250 kJ/mol
# Density = 2.043669 g / cm^3
# Si number density = 20.483307 Si / 1000 Ang^3
#
#
#
# Elastic Constant Matrix: (Units=GPa)
#
#
# Indices 1 2 3 4 5 6 
#
# 1 124.4745 62.6235 80.7457 0.0000 0.0000 0.0000
# 2 62.6235 82.0993 59.8536 0.0000 0.0000 0.0000
# 3 80.7457 59.8536 163.0848 0.0000 0.0000 0.0000
# 4 0.0000 0.0000 0.0000 33.8402 0.0000 0.0000
# 5 0.0000 0.0000 0.0000 0.0000 38.2037 0.0000
# 6 0.0000 0.0000 0.0000 0.0000 0.0000 27.1082
#
#
#
# Elastic Compliance Matrix: (Units=1/GPa)
#
#
# Indices 1 2 3 4 5 6 
#
# 1 0.015061 -0.008262 -0.004424 0.000000 0.000000 0.000000
# 2 -0.008262 0.021163 -0.003676 0.000000 0.000000 0.000000
# 3 -0.004424 -0.003676 0.009672 0.000000 0.000000 0.000000
# 4 0.000000 0.000000 0.000000 0.029551 0.000000 0.000000
# 5 0.000000 0.000000 0.000000 0.000000 0.026175 0.000000
# 6 0.000000 0.000000 0.000000 0.000000 0.000000 0.036889
#
#
# Mechanical properties :
#
#
# Convention : Reuss Voigt Hill
#
# Bulk Modulus (GPa) = 75.93470 86.23377 81.08424
# Shear Modulus (GPa) = 28.46963 30.92615 29.69789
#
# Velocity S-wave (km/s) = 3.73217 3.88986 3.81183
# Velocity P-wave (km/s) = 7.46486 7.89719 7.68407
#
# Compressibility (1/GPa) = 0.01316921
#
# Stress axis : x y z
#
# Youngs Moduli (GPa) = 66.39807 47.25283 103.39647
#
# Poissons Ratio (x) = 0.39042 0.45747
# Poissons Ratio (y) = 0.54861 0.38009
# Poissons Ratio (z) = 0.29377 0.17371
#
# Static dielectric constant tensor:
#      x y z
#    x 1.740020 0.000000 0.000000 
#    y 0.000000 1.561540 0.000000 
#    z 0.000000 0.000000 1.715230 
# 
# From -- ./inp_files/13854.got.cif
#   From: 2010.05.17/outbox.cif.g08.bks.cpg/sg59_7_cif.got.tgz:13854.got - 2010.06.03 14:40:33.
