data_PCOD9452637
_publ_section_title
;
Structure prediction by ZEFSAII (Michael W. Deem and Ramdas Pophale) SiO2 
 PCOD9452637
Probable space group: P M M N
;
_chemical_formula_sum "Si O2"
_cell_formula_units_Z 40
_cell_length_a 18.997058
_cell_length_b 8.767426
_cell_length_c 12.770640
_cell_angle_alpha 90.000000
_cell_angle_beta 90.000000
_cell_angle_gamma 90.000000
_cell_volume 2127.017779
_symmetry_space_group_name_H-M "P M M N"
_symmetry_group_IT_number 59
_space_group.IT_coordinate_system_code '2'
_symmetry_cell_setting 'orthorhombic'
loop_
_space_group_symop_operation_xyz
x,y,z
1/2-x,1/2-y,z
1/2+x,-y,-z
-x,1/2+y,-z
-x,-y,-z
1/2+x,1/2+y,-z
1/2-x,y,z
x,1/2-y,z
loop_
_atom_site_type_symbol
_atom_site_label
_atom_site_fract_x
_atom_site_fract_y
_atom_site_fract_z
Si Si1 0.428754 0.931878 0.049948
Si Si2 0.427718 0.432464 0.281258
Si Si3 0.832647 0.931712 0.125006
Si Si4 0.911460 0.066398 0.325719
Si Si5 0.667926 0.065988 0.538759
O O1 0.433553 0.750000 0.050369
O O2 0.420250 0.993932 0.167101
O O3 0.500000 0.000000 0.000000
O O4 0.365662 0.986772 0.975708
O O5 0.423317 0.250000 0.271799
O O6 0.505826 0.471363 0.324212
O O7 0.369893 0.493016 0.361689
O O8 0.750000 0.965213 0.135932
O O9 0.841812 0.750000 0.114263
O O10 0.874001 0.989457 0.227001
O O11 0.904973 0.250000 0.314726
O O12 0.873442 0.020784 0.433231
O O13 0.750000 0.023640 0.531586
O O14 0.663830 0.250000 0.547107
#
# Coordination Sequence:
#
# PCOD9452637 Si02
#       5
#     8   8   8   8   8
#     4  12  24  41  65  91 123 163 205 253 309 367
#     4  11  23  39  63  93 123 161 208 256 310 368
#     4  11  24  40  62  94 128 163 206 256 309 366
#     4  10  21  39  64  91 122 163 208 256 309 369
#     4  10  22  40  61  88 124 166 210 255 308 369
#
# _framework density 18.805672999999999
#
# number of rings (size 3 to 8) (size 9 to 14) (size 15 to 20)
#    0.000    1.200    2.000    4.200    0.000    5.200 
#    0.000    0.000    0.000    0.000    0.000    0.000 
#    0.000    0.000    0.000    0.000    0.000    0.000 
#
# Total GULP energy -223744.999369 kJ/mol
# GULP energy per Si atom -5593.624984 kJ/mol
# Density = 1.876287 g / cm^3
# Si number density = 18.805673 Si / 1000 Ang^3
#
#
#
# Elastic Constant Matrix: (Units=GPa)
#
#
# Indices 1 2 3 4 5 6 
#
# 1 60.4161 24.0885 47.2841 0.0000 0.0000 0.0000
# 2 24.0885 39.8367 39.1318 0.0000 0.0000 0.0000
# 3 47.2841 39.1318 152.7705 0.0000 0.0000 0.0000
# 4 0.0000 0.0000 0.0000 36.3362 0.0000 0.0000
# 5 0.0000 0.0000 0.0000 0.0000 29.2053 0.0000
# 6 0.0000 0.0000 0.0000 0.0000 0.0000 23.3834
#
#
#
# Elastic Compliance Matrix: (Units=1/GPa)
#
#
# Indices 1 2 3 4 5 6 
#
# 1 0.024408 -0.009805 -0.005043 0.000000 0.000000 0.000000
# 2 -0.009805 0.037481 -0.006566 0.000000 0.000000 0.000000
# 3 -0.005043 -0.006566 0.009788 0.000000 0.000000 0.000000
# 4 0.000000 0.000000 0.000000 0.027521 0.000000 0.000000
# 5 0.000000 0.000000 0.000000 0.000000 0.034240 0.000000
# 6 0.000000 0.000000 0.000000 0.000000 0.000000 0.042765
#
#
# Mechanical properties :
#
#
# Convention : Reuss Voigt Hill
#
# Bulk Modulus (GPa) = 34.66271 52.67024 43.66648
# Shear Modulus (GPa) = 21.86753 27.28623 24.57688
#
# Velocity S-wave (km/s) = 3.41371 3.81328 3.61901
# Velocity P-wave (km/s) = 5.83180 6.88887 6.38226
#
# Compressibility (1/GPa) = 0.02884945
#
# Stress axis : x y z
#
# Youngs Moduli (GPa) = 40.96977 26.67998 102.16118
#
# Poissons Ratio (x) = 0.26161 0.51520
# Poissons Ratio (y) = 0.40173 0.67078
# Poissons Ratio (z) = 0.20661 0.17518
#
# Static dielectric constant tensor:
#      x y z
#    x 1.634420 0.000000 0.000000 
#    y 0.000000 1.633950 0.000000 
#    z 0.000000 0.000000 1.608550 
# 
# From -- ./inp_files/13808.got.cif
#   From: 2010.05.17/outbox.cif.g08.bks.cpg/sg59_7_cif.got.tgz:13808.got - 2010.06.03 14:40:33.
