data_PCOD9452945
_publ_section_title
;
Structure prediction by ZEFSAII (Michael W. Deem and Ramdas Pophale) SiO2 
 PCOD9452945
Probable space group: P M M N
;
_chemical_formula_sum "Si O2"
_cell_formula_units_Z 64
_cell_length_a 31.400451
_cell_length_b 8.828556
_cell_length_c 12.095758
_cell_angle_alpha 90.000000
_cell_angle_beta 90.000000
_cell_angle_gamma 90.000000
_cell_volume 3353.193775
_symmetry_space_group_name_H-M "P M M N"
_symmetry_group_IT_number 59
_space_group.IT_coordinate_system_code '2'
_symmetry_cell_setting 'orthorhombic'
loop_
_space_group_symop_operation_xyz
x,y,z
1/2-x,1/2-y,z
1/2+x,-y,-z
-x,1/2+y,-z
-x,-y,-z
1/2+x,1/2+y,-z
1/2-x,y,z
x,1/2-y,z
loop_
_atom_site_type_symbol
_atom_site_label
_atom_site_fract_x
_atom_site_fract_y
_atom_site_fract_z
Si Si1 0.297938 0.568832 0.002788
Si Si2 0.086643 0.927446 0.246857
Si Si3 0.546484 0.072984 0.996200
Si Si4 0.179365 0.070046 0.237443
Si Si5 0.126084 0.068335 0.609185
Si Si6 0.797192 0.430074 0.530226
Si Si7 0.455714 0.068021 0.459149
Si Si8 0.376573 0.068268 0.866902
O O1 0.250000 0.534438 0.962093
O O2 0.303378 0.750000 0.005140
O O3 0.335355 0.497612 0.929528
O O4 0.302339 0.506105 0.127165
O O5 0.096619 0.750000 0.267657
O O6 0.064181 0.938510 0.128470
O O7 0.129835 0.023399 0.243649
O O8 0.057363 0.993021 0.343394
O O9 0.543890 0.250000 0.025592
O O10 0.500000 0.000000 0.000000
O O11 0.580778 0.992866 0.075078
O O12 0.184303 0.250000 0.231227
O O13 0.199442 0.006841 0.349761
O O14 0.131705 0.250000 0.602719
O O15 0.082289 0.032316 0.545412
O O16 0.124120 0.025250 0.737749
O O17 0.165332 0.991579 0.546604
O O18 0.750000 0.461131 0.483734
O O19 0.801861 0.250000 0.543880
O O20 0.458414 0.250000 0.448723
O O21 0.500000 0.000000 0.500000
O O22 0.375885 0.250000 0.875274
#
# Coordination Sequence:
#
# PCOD9452945 Si02
#       8
#     8   8   8   8   8   8   8   8
#     4  11  24  42  64  92 127 166 210 261 316 376
#     4  11  23  41  66  95 129 166 206 260 318 372
#     4  11  25  43  66  95 130 167 210 261 315 375
#     4  12  23  38  64  96 129 165 207 258 316 378
#     4  10  24  44  64  90 126 167 211 261 312 370
#     4  11  24  41  64  94 127 166 211 259 314 375
#     4  11  24  42  65  95 128 165 212 259 312 374
#     4  11  24  43  66  92 127 167 212 263 316 375
#
# _framework density 19.086281
#
# number of rings (size 3 to 8) (size 9 to 14) (size 15 to 20)
#    0.000    1.000    2.500    3.750    1.750    7.000 
#    0.000    2.500    0.000    0.000    0.000    0.000 
#    0.000    0.000    0.000    0.000    0.000    0.000 
#
# Total GULP energy -358032.204430 kJ/mol
# GULP energy per Si atom -5594.253194 kJ/mol
# Density = 1.904284 g / cm^3
# Si number density = 19.086281 Si / 1000 Ang^3
#
#
#
# Elastic Constant Matrix: (Units=GPa)
#
#
# Indices 1 2 3 4 5 6 
#
# 1 147.2891 62.5829 51.7669 0.0000 0.0000 0.0000
# 2 62.5829 85.0259 58.5776 0.0000 0.0000 0.0000
# 3 51.7669 58.5776 113.9263 0.0000 0.0000 0.0000
# 4 0.0000 0.0000 0.0000 29.6640 0.0000 0.0000
# 5 0.0000 0.0000 0.0000 0.0000 29.8301 0.0000
# 6 0.0000 0.0000 0.0000 0.0000 0.0000 36.5357
#
#
#
# Elastic Compliance Matrix: (Units=1/GPa)
#
#
# Indices 1 2 3 4 5 6 
#
# 1 0.009979 -0.006537 -0.001173 0.000000 0.000000 0.000000
# 2 -0.006537 0.022494 -0.008596 0.000000 0.000000 0.000000
# 3 -0.001173 -0.008596 0.013730 0.000000 0.000000 0.000000
# 4 0.000000 0.000000 0.000000 0.033711 0.000000 0.000000
# 5 0.000000 0.000000 0.000000 0.000000 0.033523 0.000000
# 6 0.000000 0.000000 0.000000 0.000000 0.000000 0.027370
#
#
# Mechanical properties :
#
#
# Convention : Reuss Voigt Hill
#
# Bulk Modulus (GPa) = 73.57131 76.89957 75.23544
# Shear Modulus (GPa) = 28.09757 30.76022 29.42889
#
# Velocity S-wave (km/s) = 3.84100 4.01888 3.93095
# Velocity P-wave (km/s) = 7.63554 7.86849 7.75289
#
# Compressibility (1/GPa) = 0.01359225
#
# Stress axis : x y z
#
# Youngs Moduli (GPa) = 100.20789 44.45552 72.83060
#
# Poissons Ratio (x) = 0.29059 0.08546
# Poissons Ratio (y) = 0.65503 0.62603
# Poissons Ratio (z) = 0.11759 0.38213
#
# Static dielectric constant tensor:
#      x y z
#    x 1.654320 0.000000 0.000000 
#    y 0.000000 1.637690 0.000000 
#    z 0.000000 0.000000 1.637940 
# 
# From -- ./inp_files/19371.got.cif
#   From: 2010.05.17/outbox.cif.g08.bks.cpg/sg59_10_cif.got.tgz:19371.got - 2010.06.03 14:40:33.
