data_PCOD9452036
_publ_section_title
;
Structure prediction by ZEFSAII (Michael W. Deem and Ramdas Pophale) SiO2 
 PCOD9452036
Probable space group: P M M N
;
_chemical_formula_sum "Si O2"
_cell_formula_units_Z 56
_cell_length_a 9.010034
_cell_length_b 21.888342
_cell_length_c 13.905145
_cell_angle_alpha 90.000000
_cell_angle_beta 90.000000
_cell_angle_gamma 90.000000
_cell_volume 2742.299078
_symmetry_space_group_name_H-M "P M M N"
_symmetry_group_IT_number 59
_space_group.IT_coordinate_system_code '2'
_symmetry_cell_setting 'orthorhombic'
loop_
_space_group_symop_operation_xyz
x,y,z
1/2-x,1/2-y,z
1/2+x,-y,-z
-x,1/2+y,-z
-x,-y,-z
1/2+x,1/2+y,-z
1/2-x,y,z
x,1/2-y,z
loop_
_atom_site_type_symbol
_atom_site_label
_atom_site_fract_x
_atom_site_fract_y
_atom_site_fract_z
Si Si1 0.572782 0.317043 0.193367
Si Si2 0.570391 0.316813 0.805293
Si Si3 0.572880 0.126016 0.389506
Si Si4 0.918692 0.938360 0.883080
Si Si5 0.928737 0.366011 0.608067
Si Si6 0.918981 0.937377 0.115154
Si Si7 0.072566 0.497595 0.394200
O O1 0.750000 0.321153 0.176893
O O2 0.521752 0.250000 0.160392
O O3 0.548820 0.323671 0.308304
O O4 0.496372 0.375293 0.145909
O O5 0.750000 0.321155 0.809557
O O6 0.527506 0.250000 0.843952
O O7 0.523692 0.321640 0.692927
O O8 0.502319 0.375319 0.856936
O O9 0.750000 0.114510 0.395677
O O10 0.518663 0.141427 0.497804
O O11 0.495899 0.063956 0.352397
O O12 0.750000 0.939821 0.846385
O O13 0.915327 0.940123 0.999110
O O14 0.001228 0.000348 0.851533
O O15 0.750000 0.360929 0.602208
O O16 0.962673 0.434923 0.644524
O O17 0.750000 0.936103 0.151113
O O18 0.250000 0.492361 0.399785
O O19 0.000000 0.500000 0.500000
#
# Coordination Sequence:
#
# PCOD9452036 Si02
#       7
#     8   8   8   8   8   8   8
#     4  10  22  38  57  86 122 157 194 237 288 343
#     4  10  21  36  56  85 119 156 196 236 282 338
#     4   9  18  33  52  77 111 151 194 236 280 333
#     4  10  22  41  65  89 114 146 188 237 290 351
#     4   8  16  31  50  75 109 149 192 235 277 328
#     4  10  22  41  64  89 115 146 186 237 295 350
#     4   9  16  28  47  72 102 138 185 239 288 333
#
# _framework density 20.420822000000001
#
# number of rings (size 3 to 8) (size 9 to 14) (size 15 to 20)
#    0.000    2.571    0.000    2.143    2.000    4.000 
#    0.000    8.571    0.000    0.000    0.000    2.000 
#    0.000    0.000    0.000    0.000    0.000    0.000 
#
# Total GULP energy -312318.228031 kJ/mol
# GULP energy per Si atom -5577.111215 kJ/mol
# Density = 2.037434 g / cm^3
# Si number density = 20.420822 Si / 1000 Ang^3
#
#
#
# Elastic Constant Matrix: (Units=GPa)
#
#
# Indices 1 2 3 4 5 6 
#
# 1 63.2706 73.6855 17.9402 0.0000 0.0000 0.0000
# 2 73.6855 180.3865 26.4826 0.0000 0.0000 0.0000
# 3 17.9402 26.4826 36.3231 0.0000 0.0000 0.0000
# 4 0.0000 0.0000 0.0000 17.0092 0.0000 0.0000
# 5 0.0000 0.0000 0.0000 0.0000 18.6015 0.0000
# 6 0.0000 0.0000 0.0000 0.0000 0.0000 27.6823
#
#
#
# Elastic Compliance Matrix: (Units=1/GPa)
#
#
# Indices 1 2 3 4 5 6 
#
# 1 0.031639 -0.011904 -0.006947 0.000000 0.000000 0.000000
# 2 -0.011904 0.010687 -0.001912 0.000000 0.000000 0.000000
# 3 -0.006947 -0.001912 0.032356 0.000000 0.000000 0.000000
# 4 0.000000 0.000000 0.000000 0.058792 0.000000 0.000000
# 5 0.000000 0.000000 0.000000 0.000000 0.053759 0.000000
# 6 0.000000 0.000000 0.000000 0.000000 0.000000 0.036124
#
#
# Mechanical properties :
#
#
# Convention : Reuss Voigt Hill
#
# Bulk Modulus (GPa) = 30.16188 57.35518 43.75853
# Shear Modulus (GPa) = 18.12017 23.45006 20.78511
#
# Velocity S-wave (km/s) = 2.98205 3.39239 3.19382
# Velocity P-wave (km/s) = 5.16324 6.59485 5.92246
#
# Compressibility (1/GPa) = 0.03315443
#
# Stress axis : x y z
#
# Youngs Moduli (GPa) = 31.60702 93.57151 30.90588
#
# Poissons Ratio (x) = 1.11387 0.21472
# Poissons Ratio (y) = 0.37625 0.05910
# Poissons Ratio (z) = 0.21959 0.17894
#
# Static dielectric constant tensor:
#      x y z
#    x 1.706150 0.000000 0.000000 
#    y 0.000000 1.703420 0.000000 
#    z 0.000000 0.000000 1.826640 
# 
# From -- ./inp_files/21041.got.cif
#   From: 2010.05.17/outbox.cif.g08.bks.cpg/sg59_11_cif.got.tgz:21041.got - 2010.06.03 14:40:33.
