data_PCOD9452816
_publ_section_title
;
Structure prediction by ZEFSAII (Michael W. Deem and Ramdas Pophale) SiO2 
 PCOD9452816
Probable space group: P M M N
;
_chemical_formula_sum "Si O2"
_cell_formula_units_Z 64
_cell_length_a 8.221661
_cell_length_b 31.662521
_cell_length_c 12.187058
_cell_angle_alpha 90.000000
_cell_angle_beta 90.000000
_cell_angle_gamma 90.000000
_cell_volume 3172.516829
_symmetry_space_group_name_H-M "P M M N"
_symmetry_group_IT_number 59
_space_group.IT_coordinate_system_code '2'
_symmetry_cell_setting 'orthorhombic'
loop_
_space_group_symop_operation_xyz
x,y,z
1/2-x,1/2-y,z
1/2+x,-y,-z
-x,1/2+y,-z
-x,-y,-z
1/2+x,1/2+y,-z
1/2-x,y,z
x,1/2-y,z
loop_
_atom_site_type_symbol
_atom_site_label
_atom_site_fract_x
_atom_site_fract_y
_atom_site_fract_z
Si Si1 0.443387 0.204009 0.992943
Si Si2 0.940891 0.046222 0.966745
Si Si3 0.563351 0.910650 0.250116
Si Si4 0.555824 0.620598 0.881500
Si Si5 0.561478 0.318271 0.755078
Si Si6 0.948412 0.203430 0.511421
Si Si7 0.054905 0.546946 0.470422
Si Si8 0.052962 0.876987 0.631705
O O1 0.250000 0.204761 0.012107
O O2 0.510574 0.250000 0.026053
O O3 0.472909 0.197656 0.863607
O O4 0.506516 0.163205 0.058203
O O5 0.750000 0.045146 0.942576
O O6 0.032750 0.062704 0.859095
O O7 0.975444 0.079955 0.062496
O O8 0.000000 0.000000 0.000000
O O9 0.750000 0.896320 0.253057
O O10 0.453468 0.868919 0.247915
O O11 0.522607 0.937896 0.356690
O O12 0.750000 0.617483 0.899225
O O13 0.518364 0.622647 0.753087
O O14 0.750000 0.305767 0.764514
O O15 0.498199 0.302279 0.637696
O O16 0.750000 0.201800 0.513582
O O17 0.996555 0.250000 0.471389
O O18 0.001467 0.164332 0.436657
O O19 0.250000 0.548207 0.459420
O O20 0.008392 0.581086 0.563473
O O21 0.000000 0.500000 0.500000
O O22 0.250000 0.875860 0.639260
#
# Coordination Sequence:
#
# PCOD9452816 Si02
#       8
#     8   8   8   8   8   8   8   8
#     4  10  22  40  61  88 126 168 209 259 316 374
#     4  12  26  45  69  96 127 164 209 258 313 374
#     4  12  24  41  66  96 130 167 206 255 316 375
#     4  11  24  42  63  90 126 168 212 258 313 374
#     4  11  20  36  62  94 127 163 207 259 312 372
#     4   9  18  35  60  90 123 159 202 255 311 365
#     4  11  24  43  65  93 126 165 212 260 313 371
#     4  10  22  41  62  87 123 163 208 260 311 367
#
# _framework density 20.173258000000001
#
# number of rings (size 3 to 8) (size 9 to 14) (size 15 to 20)
#    0.000    1.250    2.500    3.750    1.750    2.750 
#    0.000    0.000    0.000    1.500    0.000    0.000 
#    0.000    0.000    0.000    0.000    0.000    0.000 
#
# Total GULP energy -357873.835311 kJ/mol
# GULP energy per Si atom -5591.778677 kJ/mol
# Density = 2.012734 g / cm^3
# Si number density = 20.173258 Si / 1000 Ang^3
#
#
#
# Elastic Constant Matrix: (Units=GPa)
#
#
# Indices 1 2 3 4 5 6 
#
# 1 32.9401 1.1876 -0.4084 0.0000 0.0000 0.0000
# 2 1.1876 168.6323 54.2006 0.0000 0.0000 0.0000
# 3 -0.4084 54.2006 113.1653 0.0000 0.0000 0.0000
# 4 0.0000 0.0000 0.0000 33.1371 0.0000 0.0000
# 5 0.0000 0.0000 0.0000 0.0000 13.7465 0.0000
# 6 0.0000 0.0000 0.0000 0.0000 0.0000 7.5318
#
#
#
# Elastic Compliance Matrix: (Units=1/GPa)
#
#
# Indices 1 2 3 4 5 6 
#
# 1 0.030372 -0.000294 0.000251 0.000000 0.000000 0.000000
# 2 -0.000294 0.007012 -0.003359 0.000000 0.000000 0.000000
# 3 0.000251 -0.003359 0.010447 0.000000 0.000000 0.000000
# 4 0.000000 0.000000 0.000000 0.030178 0.000000 0.000000
# 5 0.000000 0.000000 0.000000 0.000000 0.072746 0.000000
# 6 0.000000 0.000000 0.000000 0.000000 0.000000 0.132770
#
#
# Mechanical properties :
#
#
# Convention : Reuss Voigt Hill
#
# Bulk Modulus (GPa) = 24.37606 47.18857 35.78231
# Shear Modulus (GPa) = 16.44711 28.20030 22.32370
#
# Velocity S-wave (km/s) = 2.85843 3.74291 3.33017
# Velocity P-wave (km/s) = 4.79622 6.49012 5.70637
#
# Compressibility (1/GPa) = 0.04102386
#
# Stress axis : x y z
#
# Youngs Moduli (GPa) = 32.92521 142.61483 95.72563
#
# Poissons Ratio (x) = 0.04199 -0.02399
# Poissons Ratio (y) = 0.00969 0.32158
# Poissons Ratio (z) = -0.00825 0.47910
#
# Static dielectric constant tensor:
#      x y z
#    x 1.708320 0.000000 0.000000 
#    y 0.000000 1.712660 0.000000 
#    z 0.000000 0.000000 1.674690 
# 
# From -- ./inp_files/14949.got.cif
#   From: 2010.05.17/outbox.cif.g08.bks.cpg/sg59_8_cif.got.tgz:14949.got - 2010.06.03 14:40:33.
