data_PCOD9452273
_publ_section_title
;
Structure prediction by ZEFSAII (Michael W. Deem and Ramdas Pophale) SiO2 
 PCOD9452273
Probable space group: P M M N
;
_chemical_formula_sum "Si O2"
_cell_formula_units_Z 64
_cell_length_a 13.656988
_cell_length_b 27.469028
_cell_length_c 8.935094
_cell_angle_alpha 90.000000
_cell_angle_beta 90.000000
_cell_angle_gamma 90.000000
_cell_volume 3351.948563
_symmetry_space_group_name_H-M "P M M N"
_symmetry_group_IT_number 59
_space_group.IT_coordinate_system_code '2'
_symmetry_cell_setting 'orthorhombic'
loop_
_space_group_symop_operation_xyz
x,y,z
1/2-x,1/2-y,z
1/2+x,-y,-z
-x,1/2+y,-z
-x,-y,-z
1/2+x,1/2+y,-z
1/2-x,y,z
x,1/2-y,z
loop_
_atom_site_type_symbol
_atom_site_label
_atom_site_fract_x
_atom_site_fract_y
_atom_site_fract_z
Si Si1 0.049959 0.807781 0.092717
Si Si2 0.360152 0.191152 0.716247
Si Si3 0.448020 0.926779 0.556122
Si Si4 0.984614 0.628834 0.837557
Si Si5 0.135463 0.033604 0.611060
Si Si6 0.632818 0.805802 0.617396
Si Si7 0.138924 0.891886 0.256923
Si Si8 0.028467 0.449520 0.919566
O O1 0.063086 0.750000 0.090286
O O2 0.124135 0.837310 0.196514
O O3 0.942307 0.819749 0.162736
O O4 0.049023 0.833004 0.931651
O O5 0.250000 0.172654 0.746967
O O6 0.353600 0.250000 0.709479
O O7 0.393830 0.176219 0.549906
O O8 0.454275 0.899800 0.713151
O O9 0.558121 0.938297 0.495584
O O10 0.394829 0.896440 0.427517
O O11 0.390132 0.977306 0.577567
O O12 0.905762 0.659908 0.746555
O O13 0.941877 0.589037 0.952689
O O14 0.250000 0.044334 0.584956
O O15 0.105082 0.043942 0.783780
O O16 0.750000 0.804389 0.618148
O O17 0.597468 0.750000 0.636972
O O18 0.250000 0.907748 0.239883
O O19 0.067231 0.926350 0.160374
O O20 0.000000 0.500000 0.000000
#
# Coordination Sequence:
#
# PCOD9452273 Si02
#       8
#     8   8   8   8   8   8   8   8
#     4  10  21  37  58  86 119 157 198 242 291 347
#     4   8  15  31  55  79 108 151 195 232 282 345
#     4  10  21  39  60  87 119 147 201 255 293 359
#     4  11  21  35  56  82 120 153 189 242 298 344
#     4  10  21  39  63  84 114 160 198 243 306 363
#     4   9  18  32  51  79 115 155 195 235 285 345
#     4  10  22  40  63  86 111 153 198 241 295 352
#     4  10  21  40  58  86 120 150 190 244 295 360
#
# _framework density 19.093371999999999
#
# number of rings (size 3 to 8) (size 9 to 14) (size 15 to 20)
#    0.000    2.250    1.250    2.250    0.000    2.250 
#    0.000   10.000    0.000    0.000    0.000    0.000 
#    0.000    0.000    0.000    0.000    0.000    0.000 
#
# Total GULP energy -357198.537422 kJ/mol
# GULP energy per Si atom -5581.227147 kJ/mol
# Density = 1.904991 g / cm^3
# Si number density = 19.093372 Si / 1000 Ang^3
#
#
#
# Elastic Constant Matrix: (Units=GPa)
#
#
# Indices 1 2 3 4 5 6 
#
# 1 79.3703 10.3263 18.0243 0.0000 0.0000 0.0000
# 2 10.3263 93.1917 36.4676 0.0000 0.0000 0.0000
# 3 18.0243 36.4676 103.2068 0.0000 0.0000 0.0000
# 4 0.0000 0.0000 0.0000 31.1406 0.0000 0.0000
# 5 0.0000 0.0000 0.0000 0.0000 12.1383 0.0000
# 6 0.0000 0.0000 0.0000 0.0000 0.0000 16.3468
#
#
#
# Elastic Compliance Matrix: (Units=1/GPa)
#
#
# Indices 1 2 3 4 5 6 
#
# 1 0.013153 -0.000648 -0.002068 0.000000 0.000000 0.000000
# 2 -0.000648 0.012484 -0.004298 0.000000 0.000000 0.000000
# 3 -0.002068 -0.004298 0.011569 0.000000 0.000000 0.000000
# 4 0.000000 0.000000 0.000000 0.032112 0.000000 0.000000
# 5 0.000000 0.000000 0.000000 0.000000 0.082384 0.000000
# 6 0.000000 0.000000 0.000000 0.000000 0.000000 0.061174
#
#
# Mechanical properties :
#
#
# Convention : Reuss Voigt Hill
#
# Bulk Modulus (GPa) = 43.14441 45.04501 44.09471
# Shear Modulus (GPa) = 21.30998 25.98851 23.64925
#
# Velocity S-wave (km/s) = 3.34442 3.69335 3.52321
# Velocity P-wave (km/s) = 6.12855 6.46768 6.30040
#
# Compressibility (1/GPa) = 0.02317797
#
# Stress axis : x y z
#
# Youngs Moduli (GPa) = 76.02746 80.10063 86.43671
#
# Poissons Ratio (x) = 0.05192 0.17876
# Poissons Ratio (y) = 0.04928 0.37151
# Poissons Ratio (z) = 0.15723 0.34428
#
# Static dielectric constant tensor:
#      x y z
#    x 1.640650 0.000000 0.000000 
#    y 0.000000 1.689490 0.000000 
#    z 0.000000 0.000000 1.671650 
# 
# From -- ./inp_files/8029.got.cif
#   From: 2010.05.17/outbox.cif.g08.bks.cpg/sg59_5_cif.got.tgz:8029.got - 2010.06.03 14:40:33.
