data_PCOD9452468
_publ_section_title
;
Structure prediction by ZEFSAII (Michael W. Deem and Ramdas Pophale) SiO2 
 PCOD9452468
Probable space group: P M M N
;
_chemical_formula_sum "Si O2"
_cell_formula_units_Z 56
_cell_length_a 22.550693
_cell_length_b 8.887272
_cell_length_c 14.993802
_cell_angle_alpha 90.000000
_cell_angle_beta 90.000000
_cell_angle_gamma 90.000000
_cell_volume 3004.969970
_symmetry_space_group_name_H-M "P M M N"
_symmetry_group_IT_number 59
_space_group.IT_coordinate_system_code '2'
_symmetry_cell_setting 'orthorhombic'
loop_
_space_group_symop_operation_xyz
x,y,z
1/2-x,1/2-y,z
1/2+x,-y,-z
-x,1/2+y,-z
-x,-y,-z
1/2+x,1/2+y,-z
1/2-x,y,z
x,1/2-y,z
loop_
_atom_site_type_symbol
_atom_site_label
_atom_site_fract_x
_atom_site_fract_y
_atom_site_fract_z
Si Si1 0.647488 0.430088 0.315437
Si Si2 0.013647 0.423470 0.092988
Si Si3 0.750000 0.070580 0.972771
Si Si4 0.398380 0.432107 0.334429
Si Si5 0.750000 0.433064 0.178681
Si Si6 0.349413 0.422990 0.146895
Si Si7 0.316979 0.428413 0.500174
Si Si8 0.521210 0.570836 0.275669
O O1 0.641769 0.250000 0.311253
O O2 0.691744 0.478597 0.235288
O O3 0.675229 0.479887 0.409292
O O4 0.583071 0.504929 0.309717
O O5 0.993164 0.250000 0.096125
O O6 0.084185 0.423946 0.108232
O O7 0.985392 0.515950 0.173760
O O8 0.000000 0.500000 0.000000
O O9 0.750000 0.250000 0.976255
O O10 0.693533 0.014881 0.916656
O O11 0.750000 0.015017 0.075811
O O12 0.404686 0.250000 0.328455
O O13 0.358574 0.477954 0.248648
O O14 0.364703 0.470433 0.425187
O O15 0.463290 0.503913 0.325144
O O16 0.750000 0.250000 0.177700
O O17 0.328275 0.250000 0.150207
O O18 0.250000 0.448812 0.465442
O O19 0.324467 0.250000 0.519530
O O20 0.520729 0.750000 0.281982
#
# Coordination Sequence:
#
# PCOD9452468 Si02
#       8
#     8   8   4   8   4   8   8   8
#     4  11  22  41  64  86 118 159 201 247 301 361
#     4  10  21  38  60  86 117 156 199 244 296 354
#     4  11  23  37  56  85 116 154 199 243 292 345
#     4   9  20  40  64  88 120 159 197 239 299 364
#     4   9  22  41  58  81 114 156 199 243 296 353
#     4   9  20  38  58  84 117 153 194 236 285 350
#     4  10  21  38  63  93 120 153 197 247 301 359
#     4  11  23  39  60  89 121 155 200 251 300 351
#
# _framework density 18.635795000000002
#
# number of rings (size 3 to 8) (size 9 to 14) (size 15 to 20)
#    0.000    2.000    0.714    3.214    3.000    4.000 
#    0.000    2.143    0.000    0.000    0.000    0.000 
#    0.000    0.000    0.000    0.000    0.000    0.000 
#
# Total GULP energy -312650.509056 kJ/mol
# GULP energy per Si atom -5583.044805 kJ/mol
# Density = 1.859338 g / cm^3
# Si number density = 18.635795 Si / 1000 Ang^3
#
#
#
# Elastic Constant Matrix: (Units=GPa)
#
#
# Indices 1 2 3 4 5 6 
#
# 1 91.7073 40.1590 59.3928 0.0000 0.0000 0.0000
# 2 40.1590 65.6881 33.4358 0.0000 0.0000 0.0000
# 3 59.3928 33.4358 80.9785 0.0000 0.0000 0.0000
# 4 0.0000 0.0000 0.0000 30.6887 0.0000 0.0000
# 5 0.0000 0.0000 0.0000 0.0000 18.6056 0.0000
# 6 0.0000 0.0000 0.0000 0.0000 0.0000 29.4494
#
#
#
# Elastic Compliance Matrix: (Units=1/GPa)
#
#
# Indices 1 2 3 4 5 6 
#
# 1 0.023023 -0.006939 -0.014021 0.000000 0.000000 0.000000
# 2 -0.006939 0.021365 -0.003733 0.000000 0.000000 0.000000
# 3 -0.014021 -0.003733 0.024174 0.000000 0.000000 0.000000
# 4 0.000000 0.000000 0.000000 0.032585 0.000000 0.000000
# 5 0.000000 0.000000 0.000000 0.000000 0.053747 0.000000
# 6 0.000000 0.000000 0.000000 0.000000 0.000000 0.033957
#
#
# Mechanical properties :
#
#
# Convention : Reuss Voigt Hill
#
# Bulk Modulus (GPa) = 52.14430 56.03879 54.09154
# Shear Modulus (GPa) = 20.43907 22.77449 21.60678
#
# Velocity S-wave (km/s) = 3.31534 3.49962 3.40873
# Velocity P-wave (km/s) = 6.53427 6.81657 6.67691
#
# Compressibility (1/GPa) = 0.01917755
#
# Stress axis : x y z
#
# Youngs Moduli (GPa) = 43.43408 46.80469 41.36684
#
# Poissons Ratio (x) = 0.32476 0.58002
# Poissons Ratio (y) = 0.30137 0.15441
# Poissons Ratio (z) = 0.60900 0.17471
#
# Static dielectric constant tensor:
#      x y z
#    x 1.658550 0.000000 0.000000 
#    y 0.000000 1.633000 0.000000 
#    z 0.000000 0.000000 1.649110 
# 
# From -- ./inp_files/24343.got.cif
#   From: 2010.05.17/outbox.cif.g08.bks.cpg/sg59_13_cif.got.tgz:24343.got - 2010.06.03 14:40:33.
