data_PCOD9452282
_publ_section_title
;
Structure prediction by ZEFSAII (Michael W. Deem and Ramdas Pophale) SiO2 
 PCOD9452282
Probable space group: P M M N
;
_chemical_formula_sum "Si O2"
_cell_formula_units_Z 48
_cell_length_a 13.926998
_cell_length_b 8.907421
_cell_length_c 20.568327
_cell_angle_alpha 90.000000
_cell_angle_beta 90.000000
_cell_angle_gamma 90.000000
_cell_volume 2551.575719
_symmetry_space_group_name_H-M "P M M N"
_symmetry_group_IT_number 59
_space_group.IT_coordinate_system_code '2'
_symmetry_cell_setting 'orthorhombic'
loop_
_space_group_symop_operation_xyz
x,y,z
1/2-x,1/2-y,z
1/2+x,-y,-z
-x,1/2+y,-z
-x,-y,-z
1/2+x,1/2+y,-z
1/2-x,y,z
x,1/2-y,z
loop_
_atom_site_type_symbol
_atom_site_label
_atom_site_fract_x
_atom_site_fract_y
_atom_site_fract_z
Si Si1 0.028679 0.428332 0.606265
Si Si2 0.549157 0.430293 0.252928
Si Si3 0.750000 0.086587 0.074023
Si Si4 0.250000 0.426020 0.796336
Si Si5 0.141103 0.431064 0.170076
Si Si6 0.140260 0.572259 0.492241
Si Si7 0.911979 0.421072 0.965988
O O1 0.033489 0.250000 0.618094
O O2 0.930863 0.463742 0.566936
O O3 0.035085 0.516958 0.673138
O O4 0.110433 0.479579 0.555699
O O5 0.556313 0.250000 0.248443
O O6 0.650218 0.500801 0.228936
O O7 0.452782 0.477113 0.212482
O O8 0.750000 0.250000 0.108667
O O9 0.750000 0.957332 0.126631
O O10 0.662840 0.081442 0.024612
O O11 0.250000 0.250000 0.780673
O O12 0.250000 0.476729 0.192110
O O13 0.140170 0.250000 0.168706
O O14 0.125469 0.493301 0.097452
O O15 0.250000 0.545212 0.474621
O O16 0.127787 0.750000 0.506718
O O17 0.933738 0.250000 0.946526
O O18 0.000000 0.500000 0.000000
#
# Coordination Sequence:
#
# PCOD9452282 Si02
#       7
#     8   8   4   4   8   8   8
#     4  10  21  37  58  89 122 155 202 254 297 352
#     4  11  24  42  63  87 123 168 204 248 313 374
#     4  10  22  40  58  82 118 153 190 237 300 364
#     4  12  26  42  62  90 120 157 210 263 304 360
#     4  10  22  41  63  89 121 158 204 253 304 368
#     4   9  19  37  61  87 120 160 201 246 301 357
#     4  11  22  37  59  87 117 153 194 242 300 360
#
# _framework density 18.811906
#
# number of rings (size 3 to 8) (size 9 to 14) (size 15 to 20)
#    0.000    1.667    0.833    3.250    1.167    8.333 
#    0.000    0.000    0.000    0.000    0.000    0.000 
#    0.000    0.000    0.000    0.000    0.000    0.000 
#
# Total GULP energy -267842.828035 kJ/mol
# GULP energy per Si atom -5580.058917 kJ/mol
# Density = 1.876909 g / cm^3
# Si number density = 18.811906 Si / 1000 Ang^3
#
#
#
# Elastic Constant Matrix: (Units=GPa)
#
#
# Indices 1 2 3 4 5 6 
#
# 1 151.3094 52.2424 48.7123 0.0000 0.0000 0.0000
# 2 52.2424 52.9105 34.2473 0.0000 0.0000 0.0000
# 3 48.7123 34.2473 99.2063 0.0000 0.0000 0.0000
# 4 0.0000 0.0000 0.0000 30.8989 0.0000 0.0000
# 5 0.0000 0.0000 0.0000 0.0000 2.5952 0.0000
# 6 0.0000 0.0000 0.0000 0.0000 0.0000 21.9679
#
#
#
# Elastic Compliance Matrix: (Units=1/GPa)
#
#
# Indices 1 2 3 4 5 6 
#
# 1 0.010326 -0.008903 -0.001997 0.000000 0.000000 0.000000
# 2 -0.008903 0.032014 -0.006680 0.000000 0.000000 0.000000
# 3 -0.001997 -0.006680 0.013367 0.000000 0.000000 0.000000
# 4 0.000000 0.000000 0.000000 0.032364 0.000000 0.000000
# 5 0.000000 0.000000 0.000000 0.000000 0.385323 0.000000
# 6 0.000000 0.000000 0.000000 0.000000 0.000000 0.045521
#
#
# Mechanical properties :
#
#
# Convention : Reuss Voigt Hill
#
# Bulk Modulus (GPa) = 48.66949 63.75892 56.21420
# Shear Modulus (GPa) = 8.91388 22.30735 15.61062
#
# Velocity S-wave (km/s) = 2.17915 3.44730 2.88380
# Velocity P-wave (km/s) = 5.67974 7.05773 6.40590
#
# Compressibility (1/GPa) = 0.02054676
#
# Stress axis : x y z
#
# Youngs Moduli (GPa) = 96.84587 31.23613 74.81362
#
# Poissons Ratio (x) = 0.27809 0.14938
# Poissons Ratio (y) = 0.86221 0.49977
# Poissons Ratio (z) = 0.19338 0.20866
#
# Static dielectric constant tensor:
#      x y z
#    x 1.650260 0.000000 0.000000 
#    y 0.000000 1.644330 0.000000 
#    z 0.000000 0.000000 1.595170 
# 
# From -- ./inp_files/27407.got.cif
#   From: 2010.05.17/outbox.cif.g08.bks.cpg/sg59_14_cif.got.tgz:27407.got - 2010.06.03 14:40:33.
