data_PCOD9452957
_publ_section_title
;
Structure prediction by ZEFSAII (Michael W. Deem and Ramdas Pophale) SiO2 
 PCOD9452957
Probable space group: P M M N
;
_chemical_formula_sum "Si O2"
_cell_formula_units_Z 40
_cell_length_a 8.872135
_cell_length_b 25.843860
_cell_length_c 8.322667
_cell_angle_alpha 90.000000
_cell_angle_beta 90.000000
_cell_angle_gamma 90.000000
_cell_volume 1908.306104
_symmetry_space_group_name_H-M "P M M N"
_symmetry_group_IT_number 59
_space_group.IT_coordinate_system_code '2'
_symmetry_cell_setting 'orthorhombic'
loop_
_space_group_symop_operation_xyz
x,y,z
1/2-x,1/2-y,z
1/2+x,-y,-z
-x,1/2+y,-z
-x,-y,-z
1/2+x,1/2+y,-z
1/2-x,y,z
x,1/2-y,z
loop_
_atom_site_type_symbol
_atom_site_label
_atom_site_fract_x
_atom_site_fract_y
_atom_site_fract_z
Si Si1 0.928809 0.156948 0.973430
Si Si2 0.580785 0.549437 0.072659
Si Si3 0.928780 0.310250 0.615697
Si Si4 0.581843 0.474566 0.353651
Si Si5 0.430159 0.134626 0.305383
O O1 0.750000 0.165306 0.992667
O O2 0.007055 0.165712 0.147814
O O3 0.977573 0.183278 0.803902
O O4 0.971448 0.097581 0.938182
O O5 0.750000 0.561098 0.010250
O O6 0.598003 0.525998 0.247471
O O7 0.500000 0.500000 0.000000
O O8 0.750000 0.323040 0.613027
O O9 0.947513 0.250000 0.574010
O O10 0.009606 0.343419 0.476418
O O11 0.500000 0.500000 0.500000
O O12 0.750000 0.454472 0.386698
O O13 0.489405 0.424862 0.289851
O O14 0.250000 0.136212 0.305468
#
# Coordination Sequence:
#
# PCOD9452957 Si02
#       5
#     8   8   8   8   8
#     4  11  23  41  67  97 131 172 221 271 324 386
#     4  11  22  36  58  88 125 167 210 255 310 375
#     4  10  24  47  72  96 125 165 216 274 332 391
#     4  11  23  38  59  89 127 170 215 261 313 376
#     4  12  25  41  65  96 132 172 214 264 323 388
#
# _framework density 20.960998
#
# number of rings (size 3 to 8) (size 9 to 14) (size 15 to 20)
#    0.000    1.000    2.000    4.800    0.000    8.400 
#    0.000    2.000    0.000    0.000    0.000    0.000 
#    0.000    0.000    0.000    0.000    0.000    0.000 
#
# Total GULP energy -222886.502098 kJ/mol
# GULP energy per Si atom -5572.162552 kJ/mol
# Density = 2.091329 g / cm^3
# Si number density = 20.960998 Si / 1000 Ang^3
#
#
#
# Elastic Constant Matrix: (Units=GPa)
#
#
# Indices 1 2 3 4 5 6 
#
# 1 88.3570 -4.5286 51.3557 0.0000 0.0000 0.0000
# 2 -4.5286 38.5997 13.5061 0.0000 0.0000 0.0000
# 3 51.3557 13.5061 135.5711 0.0000 0.0000 0.0000
# 4 0.0000 0.0000 0.0000 33.3956 0.0000 0.0000
# 5 0.0000 0.0000 0.0000 0.0000 33.7154 0.0000
# 6 0.0000 0.0000 0.0000 0.0000 0.0000 16.1585
#
#
#
# Elastic Compliance Matrix: (Units=1/GPa)
#
#
# Indices 1 2 3 4 5 6 
#
# 1 0.015059 0.003899 -0.006093 0.000000 0.000000 0.000000
# 2 0.003899 0.027852 -0.004252 0.000000 0.000000 0.000000
# 3 -0.006093 -0.004252 0.010108 0.000000 0.000000 0.000000
# 4 0.000000 0.000000 0.000000 0.029944 0.000000 0.000000
# 5 0.000000 0.000000 0.000000 0.000000 0.029660 0.000000
# 6 0.000000 0.000000 0.000000 0.000000 0.000000 0.061887
#
#
# Mechanical properties :
#
#
# Convention : Reuss Voigt Hill
#
# Bulk Modulus (GPa) = 24.92081 42.57715 33.74898
# Shear Modulus (GPa) = 24.90324 30.13352 27.51838
#
# Velocity S-wave (km/s) = 3.45059 3.79568 3.62724
# Velocity P-wave (km/s) = 5.27165 6.29017 5.80330
#
# Compressibility (1/GPa) = 0.04012710
#
# Stress axis : x y z
#
# Youngs Moduli (GPa) = 66.40591 35.90409 98.93343
#
# Poissons Ratio (x) = -0.13998 0.60279
# Poissons Ratio (y) = -0.25889 0.42062
# Poissons Ratio (z) = 0.40460 0.15265
#
# Static dielectric constant tensor:
#      x y z
#    x 1.767390 0.000000 0.000000 
#    y 0.000000 1.707880 0.000000 
#    z 0.000000 0.000000 2.146220 
# 
# From -- ./inp_files/5653.got.cif
#   From: 2010.05.17/outbox.cif.g08.bks.cpg/sg59_3_cif.got.tgz:5653.got - 2010.06.03 14:40:33.
