data_PCOD9452905
_publ_section_title
;
Structure prediction by ZEFSAII (Michael W. Deem and Ramdas Pophale) SiO2 
 PCOD9452905
Probable space group: P M M N
;
_chemical_formula_sum "Si O2"
_cell_formula_units_Z 48
_cell_length_a 34.539629
_cell_length_b 14.955776
_cell_length_c 5.078317
_cell_angle_alpha 90.000000
_cell_angle_beta 90.000000
_cell_angle_gamma 90.000000
_cell_volume 2623.290746
_symmetry_space_group_name_H-M "P M M N"
_symmetry_group_IT_number 59
_space_group.IT_coordinate_system_code '2'
_symmetry_cell_setting 'orthorhombic'
loop_
_space_group_symop_operation_xyz
x,y,z
1/2-x,1/2-y,z
1/2+x,-y,-z
-x,1/2+y,-z
-x,-y,-z
1/2+x,1/2+y,-z
1/2-x,y,z
x,1/2-y,z
loop_
_atom_site_type_symbol
_atom_site_label
_atom_site_fract_x
_atom_site_fract_y
_atom_site_fract_z
Si Si1 0.104828 0.750000 0.565042
Si Si2 0.911042 0.539815 0.205587
Si Si3 0.795351 0.143545 0.743432
Si Si4 0.560250 0.644900 0.692611
Si Si5 0.980593 0.083832 0.138802
Si Si6 0.658957 0.412982 0.264588
Si Si7 0.553577 0.250000 0.934197
O O1 0.130277 0.664096 0.630608
O O2 0.069118 0.750000 0.766509
O O3 0.088442 0.750000 0.270722
O O4 0.919522 0.612779 0.427098
O O5 0.941227 0.457425 0.255792
O O6 0.868092 0.499037 0.220072
O O7 0.921721 0.584858 0.927179
O O8 0.750000 0.130309 0.799891
O O9 0.800546 0.250000 0.686228
O O10 0.808940 0.085426 0.493647
O O11 0.821171 0.117659 0.994119
O O12 0.565134 0.750000 0.742957
O O13 0.514119 0.623966 0.677794
O O14 0.970510 0.159334 0.923356
O O15 0.000000 0.000000 0.000000
#
# Coordination Sequence:
#
# PCOD9452905 Si02
#       7
#     4   8   8   8   8   8   4
#     4  12  24  34  55  80 114 152 194 238 274 326
#     4  11  24  37  60  83 113 147 195 248 287 341
#     4  11  22  37  57  85 121 161 192 219 267 340
#     4  11  23  42  58  80 111 152 195 244 306 351
#     4  10  23  39  55  80 113 151 201 252 294 341
#     4  12  22  38  57  84 119 152 195 233 277 325
#     4  12  24  38  54  78 109 158 204 246 287 344
#
# _framework density 18.297628
#
# number of rings (size 3 to 8) (size 9 to 14) (size 15 to 20)
#    0.000    0.833    4.167    3.500    4.667    4.000 
#    0.000    0.000    0.000    0.000    0.000    0.000 
#    0.000   46.667    0.000    0.000    0.000    0.000 
#
# Total GULP energy -268232.502178 kJ/mol
# GULP energy per Si atom -5588.177129 kJ/mol
# Density = 1.825598 g / cm^3
# Si number density = 18.297628 Si / 1000 Ang^3
#
#
#
# Elastic Constant Matrix: (Units=GPa)
#
#
# Indices 1 2 3 4 5 6 
#
# 1 89.9079 31.0462 10.9048 0.0000 0.0000 0.0000
# 2 31.0462 82.3907 -0.1367 0.0000 0.0000 0.0000
# 3 10.9048 -0.1367 39.7591 0.0000 0.0000 0.0000
# 4 0.0000 0.0000 0.0000 18.7968 0.0000 0.0000
# 5 0.0000 0.0000 0.0000 0.0000 27.7365 0.0000
# 6 0.0000 0.0000 0.0000 0.0000 0.0000 25.7504
#
#
#
# Elastic Compliance Matrix: (Units=1/GPa)
#
#
# Indices 1 2 3 4 5 6 
#
# 1 0.013300 -0.005018 -0.003665 0.000000 0.000000 0.000000
# 2 -0.005018 0.014030 0.001424 0.000000 0.000000 0.000000
# 3 -0.003665 0.001424 0.026162 0.000000 0.000000 0.000000
# 4 0.000000 0.000000 0.000000 0.053201 0.000000 0.000000
# 5 0.000000 0.000000 0.000000 0.000000 0.036054 0.000000
# 6 0.000000 0.000000 0.000000 0.000000 0.000000 0.038834
#
#
# Mechanical properties :
#
#
# Convention : Reuss Voigt Hill
#
# Bulk Modulus (GPa) = 25.65728 32.85404 29.25566
# Shear Modulus (GPa) = 23.91335 25.80629 24.85982
#
# Velocity S-wave (km/s) = 3.61904 3.75955 3.68997
# Velocity P-wave (km/s) = 5.61390 6.06960 5.84619
#
# Compressibility (1/GPa) = 0.03897529
#
# Stress axis : x y z
#
# Youngs Moduli (GPa) = 75.18998 71.27393 38.22397
#
# Poissons Ratio (x) = 0.35762 0.14009
# Poissons Ratio (y) = 0.37727 -0.05445
# Poissons Ratio (z) = 0.27557 -0.10152
#
# Static dielectric constant tensor:
#      x y z
#    x 1.655130 0.000000 0.000000 
#    y 0.000000 1.637940 0.000000 
#    z 0.000000 0.000000 1.649880 
# 
# From -- ./inp_files/4548.got.cif
#   From: 2010.05.17/outbox.cif.g08.bks.cpg/sg59_3_cif.got.tgz:4548.got - 2010.06.03 14:40:33.
