data_PCOD9452608
_publ_section_title
;
Structure prediction by ZEFSAII (Michael W. Deem and Ramdas Pophale) SiO2 
 PCOD9452608
Probable space group: P M M N
;
_chemical_formula_sum "Si O2"
_cell_formula_units_Z 32
_cell_length_a 13.422265
_cell_length_b 22.228410
_cell_length_c 5.258681
_cell_angle_alpha 90.000000
_cell_angle_beta 90.000000
_cell_angle_gamma 90.000000
_cell_volume 1568.956975
_symmetry_space_group_name_H-M "P M M N"
_symmetry_group_IT_number 59
_space_group.IT_coordinate_system_code '2'
_symmetry_cell_setting 'orthorhombic'
loop_
_space_group_symop_operation_xyz
x,y,z
1/2-x,1/2-y,z
1/2+x,-y,-z
-x,1/2+y,-z
-x,-y,-z
1/2+x,1/2+y,-z
1/2-x,y,z
x,1/2-y,z
loop_
_atom_site_type_symbol
_atom_site_label
_atom_site_fract_x
_atom_site_fract_y
_atom_site_fract_z
Si Si1 0.369569 0.996757 0.066764
Si Si2 0.370591 0.430056 0.564209
Si Si3 0.869418 0.143859 0.002806
Si Si4 0.485560 0.681960 0.491601
O O1 0.250000 0.998277 0.073176
O O2 0.398626 0.037405 0.827224
O O3 0.393264 0.927124 0.025012
O O4 0.400748 0.026500 0.331446
O O5 0.250000 0.422345 0.559625
O O6 0.427352 0.367267 0.534122
O O7 0.750000 0.151275 0.016834
O O8 0.921825 0.167994 0.256107
O O9 0.914469 0.174831 0.753329
O O10 0.524184 0.750000 0.503782
#
# Coordination Sequence:
#
# PCOD9452608 Si02
#       4
#     8   8   8   8
#     4   9  19  37  62  91 117 148 192 240 303 359
#     4  10  21  39  62  89 122 152 188 246 298 346
#     4  11  24  42  63  88 120 153 193 250 298 343
#     4  12  26  40  59  88 118 161 209 233 278 355
#
# _framework density 20.395716
#
# number of rings (size 3 to 8) (size 9 to 14) (size 15 to 20)
#    0.000    1.500    0.000    4.500    0.000   13.500 
#    0.000    0.000    0.000    7.500    0.000    0.000 
#    0.000    0.000    0.000    0.000    0.000    0.000 
#
# Total GULP energy -179078.196075 kJ/mol
# GULP energy per Si atom -5596.193627 kJ/mol
# Density = 2.034929 g / cm^3
# Si number density = 20.395716 Si / 1000 Ang^3
#
#
#
# Elastic Constant Matrix: (Units=GPa)
#
#
# Indices 1 2 3 4 5 6 
#
# 1 62.8836 -17.8525 2.5736 0.0000 0.0000 0.0000
# 2 -17.8525 95.0763 18.4845 0.0000 0.0000 0.0000
# 3 2.5736 18.4845 153.1276 0.0000 0.0000 0.0000
# 4 0.0000 0.0000 0.0000 -493.5992 0.0000 0.0000
# 5 0.0000 0.0000 0.0000 0.0000 24.0799 0.0000
# 6 0.0000 0.0000 0.0000 0.0000 0.0000 9.6022
#
#
#
# Elastic Compliance Matrix: (Units=1/GPa)
#
#
# Indices 1 2 3 4 5 6 
#
# 1 0.016867 0.003300 -0.000682 0.000000 0.000000 0.000000
# 2 0.003300 0.011416 -0.001434 0.000000 0.000000 0.000000
# 3 -0.000682 -0.001434 0.006715 0.000000 0.000000 0.000000
# 4 0.000000 0.000000 0.000000 -0.002026 0.000000 0.000000
# 5 0.000000 0.000000 0.000000 0.000000 0.041528 0.000000
# 6 0.000000 0.000000 0.000000 0.000000 0.000000 0.104142
#
#
# Mechanical properties :
#
#
# Convention : Reuss Voigt Hill
#
# Bulk Modulus (GPa) = 26.76162 35.27764 31.01963
# Shear Modulus (GPa) = 26.49286 -71.45797 -22.48255
#
# Velocity S-wave (km/s) = 3.60799 -5.92552 -3.32372
# Velocity P-wave (km/s) = 5.52327 5.42970 0.71585
#
# Compressibility (1/GPa) = 0.03736694
#
# Stress axis : x y z
#
# Youngs Moduli (GPa) = 59.28707 87.59516 148.92013
#
# Poissons Ratio (x) = -0.28904 0.10153
# Poissons Ratio (y) = -0.19563 0.21348
# Poissons Ratio (z) = 0.04042 0.12557
#
# Static dielectric constant tensor:
#      x y z
#    x 1.739770 0.000000 0.000000 
#    y 0.000000 1.684040 0.000000 
#    z 0.000000 0.000000 1.691010 
# 
# From -- ./inp_files/1766.got.cif
#   From: 2010.05.17/outbox.cif.g08.bks.cpg/sg59_1_cif.got.tgz:1766.got - 2010.06.03 14:40:33.
