data_PCOD9452885
_publ_section_title
;
Structure prediction by ZEFSAII (Michael W. Deem and Ramdas Pophale) SiO2 
 PCOD9452885
Probable space group: P M M N
;
_chemical_formula_sum "Si O2"
_cell_formula_units_Z 56
_cell_length_a 19.995396
_cell_length_b 8.749416
_cell_length_c 15.977491
_cell_angle_alpha 90.000000
_cell_angle_beta 90.000000
_cell_angle_gamma 90.000000
_cell_volume 2795.230698
_symmetry_space_group_name_H-M "P M M N"
_symmetry_group_IT_number 59
_space_group.IT_coordinate_system_code '2'
_symmetry_cell_setting 'orthorhombic'
loop_
_space_group_symop_operation_xyz
x,y,z
1/2-x,1/2-y,z
1/2+x,-y,-z
-x,1/2+y,-z
-x,-y,-z
1/2+x,1/2+y,-z
1/2-x,y,z
x,1/2-y,z
loop_
_atom_site_type_symbol
_atom_site_label
_atom_site_fract_x
_atom_site_fract_y
_atom_site_fract_z
Si Si1 0.329714 0.431088 0.692948
Si Si2 0.081990 0.567847 0.839805
Si Si3 0.326422 0.932563 0.994261
Si Si4 0.460208 0.066533 0.421602
Si Si5 0.175131 0.435767 0.501737
Si Si6 0.540130 0.430872 0.754695
Si Si7 0.325726 0.067759 0.178427
O O1 0.250000 0.447765 0.706826
O O2 0.345755 0.250000 0.698935
O O3 0.371573 0.519919 0.761725
O O4 0.342408 0.481809 0.597088
O O5 0.074360 0.750000 0.841146
O O6 0.010266 0.491737 0.825433
O O7 0.120533 0.520486 0.924170
O O8 0.250000 0.957295 0.963637
O O9 0.333620 0.750000 0.009672
O O10 0.333799 0.020329 0.081361
O O11 0.465209 0.250000 0.420065
O O12 0.382886 0.021134 0.438253
O O13 0.500000 0.000000 0.500000
O O14 0.483537 0.998478 0.333995
O O15 0.250000 0.489431 0.481409
O O16 0.177158 0.250000 0.503349
O O17 0.537963 0.250000 0.752137
O O18 0.614837 0.488964 0.771694
O O19 0.250000 0.022578 0.203542
O O20 0.331295 0.250000 0.187616
#
# Coordination Sequence:
#
# PCOD9452885 Si02
#       7
#     8   8   8   8   8   8   8
#     4   9  17  31  53  82 117 155 193 234 286 349
#     4  11  22  36  56  84 119 156 198 245 290 343
#     4   9  19  37  61  89 121 156 191 232 288 349
#     4  11  22  38  61  87 117 153 195 243 295 352
#     4   8  16  32  54  79 106 140 183 231 283 338
#     4  12  26  42  60  84 117 157 198 243 298 353
#     4  10  22  42  67  92 117 148 192 244 294 349
#
# _framework density 20.034123999999998
#
# number of rings (size 3 to 8) (size 9 to 14) (size 15 to 20)
#    0.000    2.000    0.000    4.714    0.000    5.143 
#    0.000    3.571    0.000    3.000    0.000    0.000 
#    0.000    0.000    0.000    0.000    0.000    0.000 
#
# Total GULP energy -312932.149187 kJ/mol
# GULP energy per Si atom -5588.074093 kJ/mol
# Density = 1.998853 g / cm^3
# Si number density = 20.034124 Si / 1000 Ang^3
#
#
#
# Elastic Constant Matrix: (Units=GPa)
#
#
# Indices 1 2 3 4 5 6 
#
# 1 80.0740 39.0916 34.2150 0.0000 0.0000 0.0000
# 2 39.0916 67.1419 24.5538 0.0000 0.0000 0.0000
# 3 34.2150 24.5538 48.1115 0.0000 0.0000 0.0000
# 4 0.0000 0.0000 0.0000 28.8968 0.0000 0.0000
# 5 0.0000 0.0000 0.0000 0.0000 37.1646 0.0000
# 6 0.0000 0.0000 0.0000 0.0000 0.0000 29.7907
#
#
#
# Elastic Compliance Matrix: (Units=1/GPa)
#
#
# Indices 1 2 3 4 5 6 
#
# 1 0.021198 -0.008396 -0.010790 0.000000 0.000000 0.000000
# 2 -0.008396 0.021637 -0.005072 0.000000 0.000000 0.000000
# 3 -0.010790 -0.005072 0.031047 0.000000 0.000000 0.000000
# 4 0.000000 0.000000 0.000000 0.034606 0.000000 0.000000
# 5 0.000000 0.000000 0.000000 0.000000 0.026907 0.000000
# 6 0.000000 0.000000 0.000000 0.000000 0.000000 0.033567
#
#
# Mechanical properties :
#
#
# Convention : Reuss Voigt Hill
#
# Bulk Modulus (GPa) = 39.42252 43.44982 41.43617
# Shear Modulus (GPa) = 22.13047 25.66823 23.89935
#
# Velocity S-wave (km/s) = 3.32722 3.58330 3.45763
# Velocity P-wave (km/s) = 5.87204 6.23338 6.05541
#
# Compressibility (1/GPa) = 0.02536621
#
# Stress axis : x y z
#
# Youngs Moduli (GPa) = 47.17460 46.21757 32.20940
#
# Poissons Ratio (x) = 0.38804 0.34755
# Poissons Ratio (y) = 0.39607 0.16335
# Poissons Ratio (z) = 0.50902 0.23439
#
# Static dielectric constant tensor:
#      x y z
#    x 1.733150 0.000000 0.000000 
#    y 0.000000 1.663080 0.000000 
#    z 0.000000 0.000000 1.684380 
# 
# From -- ./inp_files/24273.got.cif
#   From: 2010.05.17/outbox.cif.g08.bks.cpg/sg59_13_cif.got.tgz:24273.got - 2010.06.03 14:40:33.
