data_PCOD9452513
_publ_section_title
;
Structure prediction by ZEFSAII (Michael W. Deem and Ramdas Pophale) SiO2 
 PCOD9452513
Probable space group: P M M N
;
_chemical_formula_sum "Si O2"
_cell_formula_units_Z 40
_cell_length_a 8.783211
_cell_length_b 18.064856
_cell_length_c 12.874456
_cell_angle_alpha 90.000000
_cell_angle_beta 90.000000
_cell_angle_gamma 90.000000
_cell_volume 2042.757000
_symmetry_space_group_name_H-M "P M M N"
_symmetry_group_IT_number 59
_space_group.IT_coordinate_system_code '2'
_symmetry_cell_setting 'orthorhombic'
loop_
_space_group_symop_operation_xyz
x,y,z
1/2-x,1/2-y,z
1/2+x,-y,-z
-x,1/2+y,-z
-x,-y,-z
1/2+x,1/2+y,-z
1/2-x,y,z
x,1/2-y,z
loop_
_atom_site_type_symbol
_atom_site_label
_atom_site_fract_x
_atom_site_fract_y
_atom_site_fract_z
Si Si1 0.929836 0.661621 0.089052
Si Si2 0.569517 0.402079 0.705262
Si Si3 0.432108 0.937070 0.669446
Si Si4 0.932400 0.335928 0.132459
Si Si5 0.568461 0.834321 0.493728
O O1 0.750000 0.647922 0.099124
O O2 0.956753 0.750000 0.100442
O O3 0.018040 0.619180 0.179101
O O4 0.986389 0.641097 0.973998
O O5 0.750000 0.395787 0.694495
O O6 0.514299 0.484560 0.678352
O O7 0.487434 0.348508 0.623033
O O8 0.250000 0.947959 0.665852
O O9 0.470203 0.887597 0.770492
O O10 0.486267 0.892086 0.568963
O O11 0.750000 0.338944 0.116850
O O12 0.972976 0.250000 0.154310
O O13 0.750000 0.844641 0.499368
O O14 0.532391 0.750000 0.525045
#
# Coordination Sequence:
#
# PCOD9452513 Si02
#       5
#     8   8   8   8   8
#     4  10  21  38  61  88 118 153 195 243 293 346
#     4  12  25  40  60  86 119 157 197 242 293 349
#     4  11  23  40  62  88 121 157 195 241 292 347
#     4   9  19  37  61  88 117 152 195 240 287 343
#     4  11  24  42  64  89 118 152 193 241 292 349
#
# _framework density 19.581378999999998
#
# number of rings (size 3 to 8) (size 9 to 14) (size 15 to 20)
#    0.000    1.400    0.000    5.400    0.000    8.400 
#    0.000    2.000    0.000    0.000    0.000    0.000 
#    0.000    0.000    0.000    0.000    0.000    0.000 
#
# Total GULP energy -223776.640472 kJ/mol
# GULP energy per Si atom -5594.416012 kJ/mol
# Density = 1.953681 g / cm^3
# Si number density = 19.581379 Si / 1000 Ang^3
#
#
#
# Elastic Constant Matrix: (Units=GPa)
#
#
# Indices 1 2 3 4 5 6 
#
# 1 30.8812 11.3491 3.9404 0.0000 0.0000 0.0000
# 2 11.3491 35.9137 0.9603 0.0000 0.0000 0.0000
# 3 3.9404 0.9603 57.7043 0.0000 0.0000 0.0000
# 4 0.0000 0.0000 0.0000 4.2015 0.0000 0.0000
# 5 0.0000 0.0000 0.0000 0.0000 34.3128 0.0000
# 6 0.0000 0.0000 0.0000 0.0000 0.0000 6.0217
#
#
#
# Elastic Compliance Matrix: (Units=1/GPa)
#
#
# Indices 1 2 3 4 5 6 
#
# 1 0.036947 -0.011613 -0.002330 0.000000 0.000000 0.000000
# 2 -0.011613 0.031507 0.000269 0.000000 0.000000 0.000000
# 3 -0.002330 0.000269 0.017484 0.000000 0.000000 0.000000
# 4 0.000000 0.000000 0.000000 0.238008 0.000000 0.000000
# 5 0.000000 0.000000 0.000000 0.000000 0.029144 0.000000
# 6 0.000000 0.000000 0.000000 0.000000 0.000000 0.166066
#
#
# Mechanical properties :
#
#
# Convention : Reuss Voigt Hill
#
# Bulk Modulus (GPa) = 17.06773 17.44431 17.25602
# Shear Modulus (GPa) = 8.83336 16.12383 12.47860
#
# Velocity S-wave (km/s) = 2.12624 2.87265 2.52716
# Velocity P-wave (km/s) = 3.84228 4.46440 4.16497
#
# Compressibility (1/GPa) = 0.05859010
#
# Stress axis : x y z
#
# Youngs Moduli (GPa) = 27.06546 31.73868 57.19405
#
# Poissons Ratio (x) = 0.36860 0.13325
# Poissons Ratio (y) = 0.31432 -0.01537
# Poissons Ratio (z) = 0.06306 -0.00853
#
# Static dielectric constant tensor:
#      x y z
#    x 1.649540 0.000000 0.000000 
#    y 0.000000 1.671410 0.000000 
#    z 0.000000 0.000000 1.651760 
# 
# From -- ./inp_files/13833.got.cif
#   From: 2010.05.17/outbox.cif.g08.bks.cpg/sg59_7_cif.got.tgz:13833.got - 2010.06.03 14:40:33.
