data_PCOD9452652
_publ_section_title
;
Structure prediction by ZEFSAII (Michael W. Deem and Ramdas Pophale) SiO2 
 PCOD9452652
Probable space group: P M M N
;
_chemical_formula_sum "Si O2"
_cell_formula_units_Z 32
_cell_length_a 12.230252
_cell_length_b 17.070607
_cell_length_c 7.706517
_cell_angle_alpha 90.000000
_cell_angle_beta 90.000000
_cell_angle_gamma 90.000000
_cell_volume 1608.949861
_symmetry_space_group_name_H-M "P M M N"
_symmetry_group_IT_number 59
_space_group.IT_coordinate_system_code '2'
_symmetry_cell_setting 'orthorhombic'
loop_
_space_group_symop_operation_xyz
x,y,z
1/2-x,1/2-y,z
1/2+x,-y,-z
-x,1/2+y,-z
-x,-y,-z
1/2+x,1/2+y,-z
1/2-x,y,z
x,1/2-y,z
loop_
_atom_site_type_symbol
_atom_site_label
_atom_site_fract_x
_atom_site_fract_y
_atom_site_fract_z
Si Si1 0.527353 0.392354 0.650935
Si Si2 0.922579 0.162278 0.012557
Si Si3 0.124370 0.250000 0.105543
Si Si4 0.372863 0.961114 0.692291
Si Si5 0.622554 0.750000 0.475469
O O1 0.599163 0.414948 0.484651
O O2 0.460093 0.469365 0.706467
O O3 0.441806 0.325411 0.594474
O O4 0.595410 0.362490 0.815371
O O5 0.879003 0.250000 0.047908
O O6 0.054009 0.176282 0.036977
O O7 0.883337 0.098872 0.148629
O O8 0.250000 0.250000 0.051995
O O9 0.118040 0.250000 0.314511
O O10 0.250000 0.992775 0.684015
O O11 0.750000 0.750000 0.424846
#
# Coordination Sequence:
#
# PCOD9452652 Si02
#       5
#     8   8   4   8   4
#     4  11  22  42  65  91 121 161 210 254 305 361
#     4  10  21  40  64  91 123 159 203 251 297 366
#     4   9  19  35  61  93 121 154 199 258 308 350
#     4  11  25  42  60  90 129 163 198 252 310 364
#     4  11  19  37  67  93 119 160 211 262 310 352
#
# _framework density 19.888748
#
# number of rings (size 3 to 8) (size 9 to 14) (size 15 to 20)
#    0.750    0.750    3.750    1.500    0.000    4.500 
#    0.000    0.000    0.000    0.000    0.000    0.000 
#    0.000    0.000    0.000    0.000    0.000    0.000 
#
# Total GULP energy -178679.850884 kJ/mol
# GULP energy per Si atom -5583.745340 kJ/mol
# Density = 1.984348 g / cm^3
# Si number density = 19.888748 Si / 1000 Ang^3
#
#
#
# Elastic Constant Matrix: (Units=GPa)
#
#
# Indices 1 2 3 4 5 6 
#
# 1 48.3600 -20.8590 -15.0609 0.0000 0.0000 0.0000
# 2 -20.8590 60.4510 10.6314 0.0000 0.0000 0.0000
# 3 -15.0609 10.6314 70.7992 0.0000 0.0000 0.0000
# 4 0.0000 0.0000 0.0000 36.2555 0.0000 0.0000
# 5 0.0000 0.0000 0.0000 0.0000 -9.3002 0.0000
# 6 0.0000 0.0000 0.0000 0.0000 0.0000 5.0783
#
#
#
# Elastic Compliance Matrix: (Units=1/GPa)
#
#
# Indices 1 2 3 4 5 6 
#
# 1 0.025459 0.008045 0.004208 0.000000 0.000000 0.000000
# 2 0.008045 0.019533 -0.001222 0.000000 0.000000 0.000000
# 3 0.004208 -0.001222 0.015203 0.000000 0.000000 0.000000
# 4 0.000000 0.000000 0.000000 0.027582 0.000000 0.000000
# 5 0.000000 0.000000 0.000000 0.000000 -0.107525 0.000000
# 6 0.000000 0.000000 0.000000 0.000000 0.000000 0.196916
#
#
# Mechanical properties :
#
#
# Convention : Reuss Voigt Hill
#
# Bulk Modulus (GPa) = 12.15721 14.33702 13.24712
# Shear Modulus (GPa) = 27.39341 20.06664 23.73002
#
# Velocity S-wave (km/s) = 3.71527 3.17983 3.45793
# Velocity P-wave (km/s) = 4.95279 4.55039 4.75585
#
# Compressibility (1/GPa) = 0.08225569
#
# Stress axis : x y z
#
# Youngs Moduli (GPa) = 39.27953 51.19525 65.77643
#
# Poissons Ratio (x) = -0.41185 -0.27677
# Poissons Ratio (y) = -0.31599 0.08037
# Poissons Ratio (z) = -0.16528 0.06255
#
# Static dielectric constant tensor:
#      x y z
#    x 1.696440 0.000000 0.000000 
#    y 0.000000 1.669710 0.000000 
#    z 0.000000 0.000000 1.688220 
# 
# From -- ./inp_files/7051.got.cif
#   From: 2010.05.17/outbox.cif.g08.bks.cpg/sg59_4_cif.got.tgz:7051.got - 2010.06.03 14:40:33.
