data_PCOD9452250
_publ_section_title
;
Structure prediction by ZEFSAII (Michael W. Deem and Ramdas Pophale) SiO2 
 PCOD9452250
Probable space group: P M M N
;
_chemical_formula_sum "Si O2"
_cell_formula_units_Z 40
_cell_length_a 7.744557
_cell_length_b 19.227769
_cell_length_c 12.743518
_cell_angle_alpha 90.000000
_cell_angle_beta 90.000000
_cell_angle_gamma 90.000000
_cell_volume 1897.644313
_symmetry_space_group_name_H-M "P M M N"
_symmetry_group_IT_number 59
_space_group.IT_coordinate_system_code '2'
_symmetry_cell_setting 'orthorhombic'
loop_
_space_group_symop_operation_xyz
x,y,z
1/2-x,1/2-y,z
1/2+x,-y,-z
-x,1/2+y,-z
-x,-y,-z
1/2+x,1/2+y,-z
1/2-x,y,z
x,1/2-y,z
loop_
_atom_site_type_symbol
_atom_site_label
_atom_site_fract_x
_atom_site_fract_y
_atom_site_fract_z
Si Si1 0.538392 0.421937 0.839034
Si Si2 0.548173 0.576153 0.791330
Si Si3 0.039035 0.670373 0.360929
Si Si4 0.456172 0.925243 0.549712
Si Si5 0.452969 0.672275 0.971229
O O1 0.750000 0.424701 0.838724
O O2 0.476980 0.501179 0.828422
O O3 0.486714 0.377031 0.737486
O O4 0.477399 0.382032 0.942900
O O5 0.750000 0.577447 0.816422
O O6 0.527300 0.581175 0.666623
O O7 0.468350 0.638850 0.856768
O O8 0.250000 0.670700 0.360976
O O9 0.981975 0.750000 0.351204
O O10 0.982365 0.633563 0.468404
O O11 0.250000 0.920102 0.557016
O O12 0.500000 0.000000 0.500000
O O13 0.250000 0.678095 0.995834
O O14 0.527384 0.750000 0.977781
#
# Coordination Sequence:
#
# PCOD9452250 Si02
#       5
#     8   8   8   8   8
#     4   9  17  33  57  85 112 142 186 237 286 338
#     4  11  22  37  58  84 115 151 192 236 289 345
#     4   9  17  31  55  85 112 141 183 235 285 332
#     4  11  21  36  58  85 116 152 192 235 284 340
#     4  10  21  37  58  84 113 148 192 238 285 341
#
# _framework density 21.078764
#
# number of rings (size 3 to 8) (size 9 to 14) (size 15 to 20)
#    0.000    2.000    2.000    2.400    0.000    3.600 
#    0.000    3.000    0.000    1.800    0.000    0.000 
#    0.000    0.000    0.000    0.000    0.000    0.000 
#
# Total GULP energy -223489.989072 kJ/mol
# GULP energy per Si atom -5587.249727 kJ/mol
# Density = 2.103079 g / cm^3
# Si number density = 21.078764 Si / 1000 Ang^3
#
#
#
# Elastic Constant Matrix: (Units=GPa)
#
#
# Indices 1 2 3 4 5 6 
#
# 1 32.5432 0.8699 -11.7957 0.0000 0.0000 0.0000
# 2 0.8699 55.5442 7.8918 0.0000 0.0000 0.0000
# 3 -11.7957 7.8918 98.0237 0.0000 0.0000 0.0000
# 4 0.0000 0.0000 0.0000 26.3273 0.0000 0.0000
# 5 0.0000 0.0000 0.0000 0.0000 18.1014 0.0000
# 6 0.0000 0.0000 0.0000 0.0000 0.0000 16.6776
#
#
#
# Elastic Compliance Matrix: (Units=1/GPa)
#
#
# Indices 1 2 3 4 5 6 
#
# 1 0.032192 -0.001067 0.003960 0.000000 0.000000 0.000000
# 2 -0.001067 0.018247 -0.001597 0.000000 0.000000 0.000000
# 3 0.003960 -0.001597 0.010807 0.000000 0.000000 0.000000
# 4 0.000000 0.000000 0.000000 0.037983 0.000000 0.000000
# 5 0.000000 0.000000 0.000000 0.000000 0.055244 0.000000
# 6 0.000000 0.000000 0.000000 0.000000 0.000000 0.059961
#
#
# Mechanical properties :
#
#
# Convention : Reuss Voigt Hill
#
# Bulk Modulus (GPa) = 15.66482 20.00477 17.83479
# Shear Modulus (GPa) = 21.44793 24.83094 23.13944
#
# Velocity S-wave (km/s) = 3.19331 3.43593 3.31684
# Velocity P-wave (km/s) = 4.58737 5.02513 4.81123
#
# Compressibility (1/GPa) = 0.06383733
#
# Stress axis : x y z
#
# Youngs Moduli (GPa) = 31.06343 54.80245 92.53497
#
# Poissons Ratio (x) = 0.05846 -0.36642
# Poissons Ratio (y) = 0.03314 0.14782
# Poissons Ratio (z) = -0.12300 0.08754
#
# Static dielectric constant tensor:
#      x y z
#    x 1.806230 0.000000 0.000000 
#    y 0.000000 1.737840 0.000000 
#    z 0.000000 0.000000 1.706910 
# 
# From -- ./inp_files/13838.got.cif
#   From: 2010.05.17/outbox.cif.g08.bks.cpg/sg59_7_cif.got.tgz:13838.got - 2010.06.03 14:40:33.
