data_PCOD9452378
_publ_section_title
;
Structure prediction by ZEFSAII (Michael W. Deem and Ramdas Pophale) SiO2 
 PCOD9452378
Probable space group: P M M N
;
_chemical_formula_sum "Si O2"
_cell_formula_units_Z 48
_cell_length_a 19.045740
_cell_length_b 7.842445
_cell_length_c 17.206656
_cell_angle_alpha 90.000000
_cell_angle_beta 90.000000
_cell_angle_gamma 90.000000
_cell_volume 2570.075072
_symmetry_space_group_name_H-M "P M M N"
_symmetry_group_IT_number 59
_space_group.IT_coordinate_system_code '2'
_symmetry_cell_setting 'orthorhombic'
loop_
_space_group_symop_operation_xyz
x,y,z
1/2-x,1/2-y,z
1/2+x,-y,-z
-x,1/2+y,-z
-x,-y,-z
1/2+x,1/2+y,-z
1/2-x,y,z
x,1/2-y,z
loop_
_atom_site_type_symbol
_atom_site_label
_atom_site_fract_x
_atom_site_fract_y
_atom_site_fract_z
Si Si1 0.069507 0.549369 0.952651
Si Si2 0.432612 0.954887 0.777258
Si Si3 0.670880 0.545177 0.912503
Si Si4 0.833073 0.557434 0.360250
Si Si5 0.834858 0.250000 0.650862
Si Si6 0.903611 0.545888 0.751381
Si Si7 0.664993 0.250000 0.471292
O O1 0.064488 0.750000 0.941704
O O2 0.074027 0.477294 0.865568
O O3 0.134736 0.509252 0.007817
O O4 0.000000 0.500000 0.000000
O O5 0.420433 0.750000 0.776513
O O6 0.512828 0.981783 0.750447
O O7 0.377874 0.034870 0.717682
O O8 0.750000 0.479053 0.904426
O O9 0.673264 0.750000 0.913046
O O10 0.624510 0.499389 0.837610
O O11 0.750000 0.530054 0.344234
O O12 0.841300 0.750000 0.390018
O O13 0.856513 0.416913 0.422871
O O14 0.750000 0.250000 0.655998
O O15 0.864941 0.419259 0.692472
O O16 0.857285 0.250000 0.560589
O O17 0.890084 0.750000 0.738834
O O18 0.750000 0.250000 0.472894
#
# Coordination Sequence:
#
# PCOD9452378 Si02
#       7
#     8   8   8   8   4   8   4
#     4  11  22  36  56  83 115 158 202 244 291 350
#     4  10  21  38  61  85 122 165 202 248 305 356
#     4  10  21  38  57  80 118 159 196 249 302 344
#     4  10  21  38  65  93 118 159 204 244 303 365
#     4  11  24  40  66  95 118 158 203 243 306 368
#     4  10  22  40  60  87 124 161 202 247 300 362
#     4   9  20  42  64  89 127 154 191 255 303 360
#
# _framework density 18.676496
#
# number of rings (size 3 to 8) (size 9 to 14) (size 15 to 20)
#    0.000    1.833    2.500    1.000    2.333    4.000 
#    0.000    5.833    0.000    0.000    0.000    0.000 
#    0.000    0.000    0.000    0.000    0.000    0.000 
#
# Total GULP energy -267942.478267 kJ/mol
# GULP energy per Si atom -5582.134964 kJ/mol
# Density = 1.863399 g / cm^3
# Si number density = 18.676496 Si / 1000 Ang^3
#
#
#
# Elastic Constant Matrix: (Units=GPa)
#
#
# Indices 1 2 3 4 5 6 
#
# 1 64.2464 48.1054 39.9724 0.0000 0.0000 0.0000
# 2 48.1054 86.9066 68.8321 0.0000 0.0000 0.0000
# 3 39.9724 68.8321 150.1074 0.0000 0.0000 0.0000
# 4 0.0000 0.0000 0.0000 20.2649 0.0000 0.0000
# 5 0.0000 0.0000 0.0000 0.0000 -7.1170 0.0000
# 6 0.0000 0.0000 0.0000 0.0000 0.0000 27.4472
#
#
#
# Elastic Compliance Matrix: (Units=1/GPa)
#
#
# Indices 1 2 3 4 5 6 
#
# 1 0.026608 -0.014316 -0.000521 0.000000 0.000000 0.000000
# 2 -0.014316 0.025771 -0.008005 0.000000 0.000000 0.000000
# 3 -0.000521 -0.008005 0.010471 0.000000 0.000000 0.000000
# 4 0.000000 0.000000 0.000000 0.049346 0.000000 0.000000
# 5 0.000000 0.000000 0.000000 0.000000 -0.140509 0.000000
# 6 0.000000 0.000000 0.000000 0.000000 0.000000 0.036434
#
#
# Mechanical properties :
#
#
# Convention : Reuss Voigt Hill
#
# Bulk Modulus (GPa) = 58.25198 68.34224 63.29711
# Shear Modulus (GPa) = 83.99243 17.74238 50.86741
#
# Velocity S-wave (km/s) = 6.71341 3.08553 5.22448
# Velocity P-wave (km/s) = 9.55777 7.02610 8.38800
#
# Compressibility (1/GPa) = 0.01716680
#
# Stress axis : x y z
#
# Youngs Moduli (GPa) = 37.58204 38.80299 95.49757
#
# Poissons Ratio (x) = 0.55550 0.04976
# Poissons Ratio (y) = 0.53802 0.76448
# Poissons Ratio (z) = 0.01958 0.31063
#
# Static dielectric constant tensor:
#      x y z
#    x 1.629620 0.000000 0.000000 
#    y 0.000000 1.667340 0.000000 
#    z 0.000000 0.000000 1.635130 
# 
# From -- ./inp_files/20592.got.cif
#   From: 2010.05.17/outbox.cif.g08.bks.cpg/sg59_11_cif.got.tgz:20592.got - 2010.06.03 14:40:33.
