data_PCOD9452300
_publ_section_title
;
Structure prediction by ZEFSAII (Michael W. Deem and Ramdas Pophale) SiO2 
 PCOD9452300
Probable space group: P M M N
;
_chemical_formula_sum "Si O2"
_cell_formula_units_Z 64
_cell_length_a 8.891536
_cell_length_b 25.841994
_cell_length_c 14.712150
_cell_angle_alpha 90.000000
_cell_angle_beta 90.000000
_cell_angle_gamma 90.000000
_cell_volume 3380.484560
_symmetry_space_group_name_H-M "P M M N"
_symmetry_group_IT_number 59
_space_group.IT_coordinate_system_code '2'
_symmetry_cell_setting 'orthorhombic'
loop_
_space_group_symop_operation_xyz
x,y,z
1/2-x,1/2-y,z
1/2+x,-y,-z
-x,1/2+y,-z
-x,-y,-z
1/2+x,1/2+y,-z
1/2-x,y,z
x,1/2-y,z
loop_
_atom_site_type_symbol
_atom_site_label
_atom_site_fract_x
_atom_site_fract_y
_atom_site_fract_z
Si Si1 0.070907 0.188994 0.213059
Si Si2 0.431068 0.009339 0.211723
Si Si3 0.569856 0.398384 0.095200
Si Si4 0.427363 0.687977 0.593001
Si Si5 0.930840 0.691377 0.228489
Si Si6 0.430396 0.975991 0.409449
Si Si7 0.430908 0.901733 0.115586
Si Si8 0.930016 0.863151 0.416253
O O1 0.250000 0.181309 0.215778
O O2 0.040917 0.250000 0.199091
O O3 0.998257 0.154154 0.135542
O O4 0.000501 0.173924 0.310380
O O5 0.250000 0.014449 0.203487
O O6 0.468993 0.008142 0.318574
O O7 0.475052 0.953881 0.168917
O O8 0.508423 0.054933 0.156459
O O9 0.750000 0.396820 0.100203
O O10 0.525689 0.405735 0.990040
O O11 0.250000 0.676187 0.593747
O O12 0.445484 0.750000 0.582010
O O13 0.507487 0.659657 0.509933
O O14 0.750000 0.690113 0.219424
O O15 0.982423 0.750000 0.210686
O O16 0.966003 0.674587 0.331981
O O17 0.000016 0.648671 0.162383
O O18 0.250000 0.974132 0.416556
O O19 0.494342 0.918354 0.397968
O O20 0.500000 0.000000 0.500000
O O21 0.250000 0.898024 0.120710
O O22 0.750000 0.868968 0.421501
#
# Coordination Sequence:
#
# PCOD9452300 Si02
#       8
#     8   8   8   8   8   8   8   8
#     4  10  22  41  63  87 120 161 202 247 300 358
#     4  10  22  42  65  88 121 160 202 249 301 364
#     4  11  24  39  63  93 121 156 201 251 307 367
#     4  10  21  37  59  87 118 154 197 244 294 351
#     4  10  22  39  61  91 125 163 206 252 304 365
#     4  11  24  41  62  89 124 162 201 247 302 362
#     4  10  22  42  63  89 121 157 202 255 308 358
#     4  11  22  38  61  88 123 161 201 248 300 363
#
# _framework density 18.932196999999999
#
# number of rings (size 3 to 8) (size 9 to 14) (size 15 to 20)
#    0.000    1.625    1.250    2.625    1.750    5.750 
#    0.000    2.500    0.000    0.000    0.000    0.000 
#    0.000    0.000    0.000    0.000    0.000    0.000 
#
# Total GULP energy -357776.523941 kJ/mol
# GULP energy per Si atom -5590.258187 kJ/mol
# Density = 1.888911 g / cm^3
# Si number density = 18.932197 Si / 1000 Ang^3
#
#
#
# Elastic Constant Matrix: (Units=GPa)
#
#
# Indices 1 2 3 4 5 6 
#
# 1 48.8473 38.2891 52.7355 0.0000 0.0000 0.0000
# 2 38.2891 81.5436 53.7751 0.0000 0.0000 0.0000
# 3 52.7355 53.7751 147.1777 0.0000 0.0000 0.0000
# 4 0.0000 0.0000 0.0000 327.9518 0.0000 0.0000
# 5 0.0000 0.0000 0.0000 0.0000 32.9443 0.0000
# 6 0.0000 0.0000 0.0000 0.0000 0.0000 35.7828
#
#
#
# Elastic Compliance Matrix: (Units=1/GPa)
#
#
# Indices 1 2 3 4 5 6 
#
# 1 0.041483 -0.012748 -0.010206 0.000000 0.000000 0.000000
# 2 -0.012748 0.020074 -0.002767 0.000000 0.000000 0.000000
# 3 -0.010206 -0.002767 0.011462 0.000000 0.000000 0.000000
# 4 0.000000 0.000000 0.000000 0.003049 0.000000 0.000000
# 5 0.000000 0.000000 0.000000 0.000000 0.030354 0.000000
# 6 0.000000 0.000000 0.000000 0.000000 0.000000 0.027946
#
#
# Mechanical properties :
#
#
# Convention : Reuss Voigt Hill
#
# Bulk Modulus (GPa) = 46.34427 63.01867 54.68147
# Shear Modulus (GPa) = 25.90637 88.18705 57.04671
#
# Velocity S-wave (km/s) = 3.70317 6.83239 5.49523
# Velocity P-wave (km/s) = 6.54346 9.77757 8.31919
#
# Compressibility (1/GPa) = 0.02157764
#
# Stress axis : x y z
#
# Youngs Moduli (GPa) = 24.10633 49.81628 87.24219
#
# Poissons Ratio (x) = 0.63505 0.89040
# Poissons Ratio (y) = 0.30731 0.24138
# Poissons Ratio (z) = 0.24603 0.13783
#
# Static dielectric constant tensor:
#      x y z
#    x 1.632250 0.000000 0.000000 
#    y 0.000000 1.638280 0.000000 
#    z 0.000000 0.000000 1.636640 
# 
# From -- ./inp_files/21472.got.cif
#   From: 2010.05.17/outbox.cif.g08.bks.cpg/sg59_11_cif.got.tgz:21472.got - 2010.06.03 14:40:33.
