data_PCOD9452191
_publ_section_title
;
Structure prediction by ZEFSAII (Michael W. Deem and Ramdas Pophale) SiO2 
 PCOD9452191
Probable space group: P M M N
;
_chemical_formula_sum "Si O2"
_cell_formula_units_Z 56
_cell_length_a 14.102276
_cell_length_b 7.796926
_cell_length_c 22.029521
_cell_angle_alpha 90.000000
_cell_angle_beta 90.000000
_cell_angle_gamma 90.000000
_cell_volume 2422.242817
_symmetry_space_group_name_H-M "P M M N"
_symmetry_group_IT_number 59
_space_group.IT_coordinate_system_code '2'
_symmetry_cell_setting 'orthorhombic'
loop_
_space_group_symop_operation_xyz
x,y,z
1/2-x,1/2-y,z
1/2+x,-y,-z
-x,1/2+y,-z
-x,-y,-z
1/2+x,1/2+y,-z
1/2-x,y,z
x,1/2-y,z
loop_
_atom_site_type_symbol
_atom_site_label
_atom_site_fract_x
_atom_site_fract_y
_atom_site_fract_z
Si Si1 0.498573 0.500674 0.228544
Si Si2 0.991912 0.952816 0.430024
Si Si3 0.359934 0.549354 0.674216
Si Si4 0.364969 0.554337 0.999019
Si Si5 0.139369 0.542090 0.328907
Si Si6 0.638621 0.550302 0.134559
Si Si7 0.638328 0.550244 0.867244
O O1 0.574815 0.559255 0.279828
O O2 0.418660 0.443035 0.276998
O O3 0.576000 0.436889 0.179326
O O4 0.424401 0.564729 0.177103
O O5 0.978908 0.750000 0.425720
O O6 0.087179 0.996109 0.392273
O O7 0.905193 0.034189 0.392526
O O8 0.000000 0.000000 0.500000
O O9 0.250000 0.501027 0.675868
O O10 0.368944 0.750000 0.692957
O O11 0.250000 0.554924 0.998994
O O12 0.398306 0.750000 0.998912
O O13 0.390795 0.468009 0.935579
O O14 0.390721 0.468400 0.062510
O O15 0.250000 0.502095 0.329185
O O16 0.129219 0.750000 0.317194
O O17 0.750000 0.507730 0.139289
O O18 0.626179 0.750000 0.152716
O O19 0.750000 0.509033 0.862353
O O20 0.624899 0.750000 0.849404
#
# Coordination Sequence:
#
# PCOD9452191 Si02
#       7
#     8   8   8   8   8   8   8
#     4  11  21  35  57  85 113 147 193 241 285 342
#     4  10  21  38  63  94 125 157 195 239 285 337
#     4  10  22  40  61  86 120 161 200 240 287 338
#     4   9  19  36  57  80 106 140 186 238 290 349
#     4   9  19  36  57  83 117 154 189 228 277 333
#     4  10  21  37  57  81 111 146 185 235 296 356
#     4  10  21  37  57  81 111 146 184 233 295 355
#
# _framework density 23.119067999999999
#
# number of rings (size 3 to 8) (size 9 to 14) (size 15 to 20)
#    0.000    2.143    0.000    2.571    0.000    6.000 
#    0.000    4.286    0.000    8.143    0.000    0.000 
#    0.000    0.000    0.000    0.000    0.000    0.000 
#
# Total GULP energy -311948.035923 kJ/mol
# GULP energy per Si atom -5570.500641 kJ/mol
# Density = 2.306645 g / cm^3
# Si number density = 23.119068 Si / 1000 Ang^3
#
#
#
# Elastic Constant Matrix: (Units=GPa)
#
#
# Indices 1 2 3 4 5 6 
#
# 1 200.5868 35.5307 80.2859 0.0000 0.0000 0.0000
# 2 35.5307 82.0500 33.0120 0.0000 0.0000 0.0000
# 3 80.2859 33.0120 212.1658 0.0000 0.0000 0.0000
# 4 0.0000 0.0000 0.0000 -43.1906 0.0000 0.0000
# 5 0.0000 0.0000 0.0000 0.0000 38.3293 0.0000
# 6 0.0000 0.0000 0.0000 0.0000 0.0000 -0.8681
#
#
#
# Elastic Compliance Matrix: (Units=1/GPa)
#
#
# Indices 1 2 3 4 5 6 
#
# 1 0.006124 -0.001834 -0.002032 0.000000 0.000000 0.000000
# 2 -0.001834 0.013551 -0.001414 0.000000 0.000000 0.000000
# 3 -0.002032 -0.001414 0.005702 0.000000 0.000000 0.000000
# 4 0.000000 0.000000 0.000000 -0.023153 0.000000 0.000000
# 5 0.000000 0.000000 0.000000 0.000000 0.026090 0.000000
# 6 0.000000 0.000000 0.000000 0.000000 0.000000 -1.151893
#
#
# Mechanical properties :
#
#
# Convention : Reuss Voigt Hill
#
# Bulk Modulus (GPa) = 67.49492 88.05108 77.77300
# Shear Modulus (GPa) = -4.51231 21.91905 8.70337
#
# Velocity S-wave (km/s) = -1.39857 3.08245 1.94236
# Velocity P-wave (km/s) = 5.16235 7.13003 6.22443
#
# Compressibility (1/GPa) = 0.01481593
#
# Stress axis : x y z
#
# Youngs Moduli (GPa) = 163.30475 73.79509 175.37007
#
# Poissons Ratio (x) = 0.13536 0.35632
# Poissons Ratio (y) = 0.29954 0.24804
# Poissons Ratio (z) = 0.33180 0.10437
#
# Static dielectric constant tensor:
#      x y z
#    x 1.847650 0.000000 0.000000 
#    y 0.000000 2.050490 0.000000 
#    z 0.000000 0.000000 1.829440 
# 
# From -- ./inp_files/30302.got.cif
#   From: 2010.05.17/outbox.cif.g08.bks.cpg/sg59_16_cif.got.tgz:30302.got - 2010.06.03 14:40:33.
