data_PCOD9452724
_publ_section_title
;
Structure prediction by ZEFSAII (Michael W. Deem and Ramdas Pophale) SiO2 
 PCOD9452724
Probable space group: P M M N
;
_chemical_formula_sum "Si O2"
_cell_formula_units_Z 56
_cell_length_a 13.643985
_cell_length_b 28.809730
_cell_length_c 6.844597
_cell_angle_alpha 90.000000
_cell_angle_beta 90.000000
_cell_angle_gamma 90.000000
_cell_volume 2690.470931
_symmetry_space_group_name_H-M "P M M N"
_symmetry_group_IT_number 59
_space_group.IT_coordinate_system_code '2'
_symmetry_cell_setting 'orthorhombic'
loop_
_space_group_symop_operation_xyz
x,y,z
1/2-x,1/2-y,z
1/2+x,-y,-z
-x,1/2+y,-z
-x,-y,-z
1/2+x,1/2+y,-z
1/2-x,y,z
x,1/2-y,z
loop_
_atom_site_type_symbol
_atom_site_label
_atom_site_fract_x
_atom_site_fract_y
_atom_site_fract_z
Si Si1 0.355121 0.024945 0.533685
Si Si2 0.963414 0.014130 0.789428
Si Si3 0.863340 0.695949 0.149603
Si Si4 0.633571 0.198111 0.526420
Si Si5 0.487501 0.659994 0.827036
Si Si6 0.639436 0.630843 0.516213
Si Si7 0.867621 0.385709 0.834346
O O1 0.250000 0.004957 0.585677
O O2 0.441268 0.004004 0.659003
O O3 0.356667 0.079550 0.571653
O O4 0.377484 0.016224 0.306282
O O5 0.924687 0.067094 0.777752
O O6 0.000000 0.000000 0.000000
O O7 0.750000 0.684743 0.092357
O O8 0.866749 0.750000 0.199406
O O9 0.885762 0.666311 0.343118
O O10 0.940438 0.685817 0.978554
O O11 0.750000 0.196598 0.484320
O O12 0.611490 0.250000 0.606792
O O13 0.573682 0.190626 0.326859
O O14 0.615123 0.156134 0.678813
O O15 0.560801 0.631335 0.688070
O O16 0.412461 0.630685 0.958972
O O17 0.750000 0.642337 0.586455
O O18 0.750000 0.393497 0.844457
#
# Coordination Sequence:
#
# PCOD9452724 Si02
#       7
#     8   8   8   8   8   8   8
#     4  10  22  40  62  89 120 156 200 248 299 362
#     4  11  23  41  65  93 123 159 202 252 311 372
#     4  10  22  38  57  87 126 164 204 254 311 370
#     4  10  23  42  62  87 122 164 207 251 300 356
#     4  12  21  36  62  90 119 158 206 253 301 360
#     4  10  22  40  60  84 118 157 196 243 299 359
#     4  11  25  43  63  91 128 165 204 257 317 376
#
# _framework density 20.814198000000001
#
# number of rings (size 3 to 8) (size 9 to 14) (size 15 to 20)
#    0.000    1.429    0.000    5.143    0.000    5.714 
#    0.000    6.429    0.000    0.000    0.000    0.000 
#    0.000    0.000    0.000    0.000    0.000    0.000 
#
# Total GULP energy -312721.269291 kJ/mol
# GULP energy per Si atom -5584.308380 kJ/mol
# Density = 2.076682 g / cm^3
# Si number density = 20.814198 Si / 1000 Ang^3
#
#
#
# Elastic Constant Matrix: (Units=GPa)
#
#
# Indices 1 2 3 4 5 6 
#
# 1 135.9318 8.5698 38.2769 0.0000 0.0000 0.0000
# 2 8.5698 34.6603 -3.1374 0.0000 0.0000 0.0000
# 3 38.2769 -3.1374 82.7966 0.0000 0.0000 0.0000
# 4 0.0000 0.0000 0.0000 25.5507 0.0000 0.0000
# 5 0.0000 0.0000 0.0000 0.0000 34.6046 0.0000
# 6 0.0000 0.0000 0.0000 0.0000 0.0000 25.0705
#
#
#
# Elastic Compliance Matrix: (Units=1/GPa)
#
#
# Indices 1 2 3 4 5 6 
#
# 1 0.008671 -0.002515 -0.004104 0.000000 0.000000 0.000000
# 2 -0.002515 0.029680 0.002288 0.000000 0.000000 0.000000
# 3 -0.004104 0.002288 0.014062 0.000000 0.000000 0.000000
# 4 0.000000 0.000000 0.000000 0.039138 0.000000 0.000000
# 5 0.000000 0.000000 0.000000 0.000000 0.028898 0.000000
# 6 0.000000 0.000000 0.000000 0.000000 0.000000 0.039888
#
#
# Mechanical properties :
#
#
# Convention : Reuss Voigt Hill
#
# Bulk Modulus (GPa) = 22.85734 37.86748 30.36241
# Shear Modulus (GPa) = 27.23567 31.02377 29.12972
#
# Velocity S-wave (km/s) = 3.62126 3.86490 3.74506
# Velocity P-wave (km/s) = 5.33762 6.17650 5.77232
#
# Compressibility (1/GPa) = 0.04374963
#
# Stress axis : x y z
#
# Youngs Moduli (GPa) = 115.32954 33.69223 71.11530
#
# Poissons Ratio (x) = 0.08475 0.29185
# Poissons Ratio (y) = 0.29009 -0.16268
# Poissons Ratio (z) = 0.47329 -0.07707
#
# Static dielectric constant tensor:
#      x y z
#    x 1.799180 0.000000 0.000000 
#    y 0.000000 1.737990 0.000000 
#    z 0.000000 0.000000 1.750660 
# 
# From -- ./inp_files/2308.got.cif
#   From: 2010.05.17/outbox.cif.g08.bks.cpg/sg59_2_cif.got.tgz:2308.got - 2010.06.03 14:40:33.
