data_PCOD9452068
_publ_section_title
;
Structure prediction by ZEFSAII (Michael W. Deem and Ramdas Pophale) SiO2 
 PCOD9452068
Probable space group: P M M N
;
_chemical_formula_sum "Si O2"
_cell_formula_units_Z 40
_cell_length_a 8.229691
_cell_length_b 17.715826
_cell_length_c 13.139264
_cell_angle_alpha 90.000000
_cell_angle_beta 90.000000
_cell_angle_gamma 90.000000
_cell_volume 1915.649162
_symmetry_space_group_name_H-M "P M M N"
_symmetry_group_IT_number 59
_space_group.IT_coordinate_system_code '2'
_symmetry_cell_setting 'orthorhombic'
loop_
_space_group_symop_operation_xyz
x,y,z
1/2-x,1/2-y,z
1/2+x,-y,-z
-x,1/2+y,-z
-x,-y,-z
1/2+x,1/2+y,-z
1/2-x,y,z
x,1/2-y,z
loop_
_atom_site_type_symbol
_atom_site_label
_atom_site_fract_x
_atom_site_fract_y
_atom_site_fract_z
Si Si1 0.945302 0.338297 0.738540
Si Si2 0.937135 0.159839 0.106858
Si Si3 0.551679 0.335542 0.324054
Si Si4 0.433229 0.429480 0.933164
Si Si5 0.553362 0.084067 0.527745
O O1 0.750000 0.333476 0.732908
O O2 0.002893 0.250000 0.749966
O O3 0.003756 0.377752 0.633244
O O4 0.984756 0.394332 0.832478
O O5 0.750000 0.136243 0.084983
O O6 0.932825 0.250000 0.116723
O O7 0.992045 0.127123 0.216110
O O8 0.051150 0.136695 0.015954
O O9 0.750000 0.335100 0.323422
O O10 0.493963 0.250000 0.322461
O O11 0.496769 0.370395 0.428801
O O12 0.250000 0.447693 0.904791
O O13 0.500000 0.500000 0.000000
O O14 0.750000 0.086033 0.531066
O O15 0.500000 0.000000 0.500000
#
# Coordination Sequence:
#
# PCOD9452068 Si02
#       5
#     8   8   8   8   8
#     4  10  22  42  66  91 124 167 212 255 304 369
#     4   9  18  35  60  88 118 152 192 238 293 359
#     4   8  15  31  57  85 112 148 192 233 280 346
#     4  12  26  41  60  86 120 158 203 255 309 367
#     4  10  21  36  58  89 123 158 200 248 299 353
#
# _framework density 20.880649999999999
#
# number of rings (size 3 to 8) (size 9 to 14) (size 15 to 20)
#    0.000    2.200    0.000    4.200    2.800    6.400 
#    0.000    0.000    0.000    3.000    0.000    0.000 
#    0.000    0.000    0.000    0.000    0.000    0.000 
#
# Total GULP energy -222858.265788 kJ/mol
# GULP energy per Si atom -5571.456645 kJ/mol
# Density = 2.083312 g / cm^3
# Si number density = 20.880650 Si / 1000 Ang^3
#
#
#
# Elastic Constant Matrix: (Units=GPa)
#
#
# Indices 1 2 3 4 5 6 
#
# 1 18.9542 8.5129 4.7300 0.0000 0.0000 0.0000
# 2 8.5129 73.1096 27.4989 0.0000 0.0000 0.0000
# 3 4.7300 27.4989 138.7390 0.0000 0.0000 0.0000
# 4 0.0000 0.0000 0.0000 28.1964 0.0000 0.0000
# 5 0.0000 0.0000 0.0000 0.0000 -6.3957 0.0000
# 6 0.0000 0.0000 0.0000 0.0000 0.0000 25.6619
#
#
#
# Elastic Compliance Matrix: (Units=1/GPa)
#
#
# Indices 1 2 3 4 5 6 
#
# 1 0.055727 -0.006239 -0.000663 0.000000 0.000000 0.000000
# 2 -0.006239 0.015479 -0.002855 0.000000 0.000000 0.000000
# 3 -0.000663 -0.002855 0.007796 0.000000 0.000000 0.000000
# 4 0.000000 0.000000 0.000000 0.035466 0.000000 0.000000
# 5 0.000000 0.000000 0.000000 0.000000 -0.156355 0.000000
# 6 0.000000 0.000000 0.000000 0.000000 0.000000 0.038968
#
#
# Mechanical properties :
#
#
# Convention : Reuss Voigt Hill
#
# Bulk Modulus (GPa) = 16.81071 34.69849 25.75460
# Shear Modulus (GPa) = 137.27093 22.16325 79.71709
#
# Velocity S-wave (km/s) = 8.11686 3.26149 6.18550
# Velocity P-wave (km/s) = 9.79352 5.55308 7.96083
#
# Compressibility (1/GPa) = 0.05948588
#
# Stress axis : x y z
#
# Youngs Moduli (GPa) = 17.94477 64.60553 128.26574
#
# Poissons Ratio (x) = 0.40310 0.08506
# Poissons Ratio (y) = 0.11196 0.36623
# Poissons Ratio (z) = 0.01190 0.18446
#
# Static dielectric constant tensor:
#      x y z
#    x 1.822720 0.000000 0.000000 
#    y 0.000000 1.785990 0.000000 
#    z 0.000000 0.000000 1.786010 
# 
# From -- ./inp_files/13846.got.cif
#   From: 2010.05.17/outbox.cif.g08.bks.cpg/sg59_7_cif.got.tgz:13846.got - 2010.06.03 14:40:33.
