data_PCOD9452867
_publ_section_title
;
Structure prediction by ZEFSAII (Michael W. Deem and Ramdas Pophale) SiO2 
 PCOD9452867
Probable space group: P M M N
;
_chemical_formula_sum "Si O2"
_cell_formula_units_Z 48
_cell_length_a 28.588579
_cell_length_b 8.743897
_cell_length_c 10.179695
_cell_angle_alpha 90.000000
_cell_angle_beta 90.000000
_cell_angle_gamma 90.000000
_cell_volume 2544.675265
_symmetry_space_group_name_H-M "P M M N"
_symmetry_group_IT_number 59
_space_group.IT_coordinate_system_code '2'
_symmetry_cell_setting 'orthorhombic'
loop_
_space_group_symop_operation_xyz
x,y,z
1/2-x,1/2-y,z
1/2+x,-y,-z
-x,1/2+y,-z
-x,-y,-z
1/2+x,1/2+y,-z
1/2-x,y,z
x,1/2-y,z
loop_
_atom_site_type_symbol
_atom_site_label
_atom_site_fract_x
_atom_site_fract_y
_atom_site_fract_z
Si Si1 0.129773 0.568077 0.494508
Si Si2 0.033945 0.433033 0.388807
Si Si3 0.482895 0.433730 0.862241
Si Si4 0.805089 0.066650 0.999206
Si Si5 0.693914 0.573386 0.717116
Si Si6 0.124344 0.066509 0.786002
O O1 0.125130 0.750000 0.501007
O O2 0.084965 0.495565 0.422618
O O3 0.173097 0.519165 0.404289
O O4 0.132322 0.501405 0.641233
O O5 0.033492 0.250000 0.392439
O O6 0.000000 0.500000 0.500000
O O7 0.014661 0.493945 0.251268
O O8 0.487210 0.250000 0.860394
O O9 0.428520 0.471779 0.832533
O O10 0.500000 0.500000 0.000000
O O11 0.750000 0.028261 0.020680
O O12 0.809065 0.250000 0.996531
O O13 0.837971 0.998828 0.111870
O O14 0.819421 0.999248 0.857413
O O15 0.750000 0.570556 0.711171
O O16 0.678170 0.750000 0.711171
O O17 0.128048 0.250000 0.780392
#
# Coordination Sequence:
#
# PCOD9452867 Si02
#       6
#     8   8   8   8   8   8
#     4  12  25  41  65  94 126 166 209 258 312 368
#     4  12  24  42  66  92 127 167 208 254 308 370
#     4  11  25  43  64  92 127 167 209 258 311 368
#     4  10  22  41  65  93 126 164 207 256 311 372
#     4  10  22  42  67  94 126 164 207 256 311 372
#     4  11  24  42  64  91 126 165 209 258 310 372
#
# _framework density 18.862916999999999
#
# number of rings (size 3 to 8) (size 9 to 14) (size 15 to 20)
#    0.000    1.000    1.667    5.000    2.333    4.667 
#    0.000    0.000    0.000    0.000    0.000    0.000 
#    0.000    0.000    0.000    0.000    0.000    0.000 
#
# Total GULP energy -268523.521876 kJ/mol
# GULP energy per Si atom -5594.240039 kJ/mol
# Density = 1.881998 g / cm^3
# Si number density = 18.862917 Si / 1000 Ang^3
#
#
#
# Elastic Constant Matrix: (Units=GPa)
#
#
# Indices 1 2 3 4 5 6 
#
# 1 63.5038 48.8737 70.3468 0.0000 0.0000 0.0000
# 2 48.8737 127.9868 76.5570 0.0000 0.0000 0.0000
# 3 70.3468 76.5570 196.3439 0.0000 0.0000 0.0000
# 4 0.0000 0.0000 0.0000 42.0140 0.0000 0.0000
# 5 0.0000 0.0000 0.0000 0.0000 37.9161 0.0000
# 6 0.0000 0.0000 0.0000 0.0000 0.0000 32.4653
#
#
#
# Elastic Compliance Matrix: (Units=1/GPa)
#
#
# Indices 1 2 3 4 5 6 
#
# 1 0.029750 -0.006501 -0.008124 0.000000 0.000000 0.000000
# 2 -0.006501 0.011610 -0.002198 0.000000 0.000000 0.000000
# 3 -0.008124 -0.002198 0.008861 0.000000 0.000000 0.000000
# 4 0.000000 0.000000 0.000000 0.023802 0.000000 0.000000
# 5 0.000000 0.000000 0.000000 0.000000 0.026374 0.000000
# 6 0.000000 0.000000 0.000000 0.000000 0.000000 0.030802
#
#
# Mechanical properties :
#
#
# Convention : Reuss Voigt Hill
#
# Bulk Modulus (GPa) = 60.33057 86.59883 73.46470
# Shear Modulus (GPa) = 29.34792 35.28289 32.31541
#
# Velocity S-wave (km/s) = 3.94871 4.32961 4.14354
# Velocity P-wave (km/s) = 7.26931 8.42634 7.86912
#
# Compressibility (1/GPa) = 0.01657534
#
# Stress axis : x y z
#
# Youngs Moduli (GPa) = 33.61359 86.12904 112.85626
#
# Poissons Ratio (x) = 0.55992 0.91686
# Poissons Ratio (y) = 0.21852 0.24805
# Poissons Ratio (z) = 0.27308 0.18930
#
# Static dielectric constant tensor:
#      x y z
#    x 1.646960 0.000000 0.000000 
#    y 0.000000 1.631990 0.000000 
#    z 0.000000 0.000000 1.602690 
# 
# From -- ./inp_files/12966.got.cif
#   From: 2010.05.17/outbox.cif.g08.bks.cpg/sg59_7_cif.got.tgz:12966.got - 2010.06.03 14:40:33.
