data_PCOD9452344
_publ_section_title
;
Structure prediction by ZEFSAII (Michael W. Deem and Ramdas Pophale) SiO2 
 PCOD9452344
Probable space group: P M M N
;
_chemical_formula_sum "Si O2"
_cell_formula_units_Z 40
_cell_length_a 16.304312
_cell_length_b 8.063997
_cell_length_c 15.087907
_cell_angle_alpha 90.000000
_cell_angle_beta 90.000000
_cell_angle_gamma 90.000000
_cell_volume 1983.726676
_symmetry_space_group_name_H-M "P M M N"
_symmetry_group_IT_number 59
_space_group.IT_coordinate_system_code '2'
_symmetry_cell_setting 'orthorhombic'
loop_
_space_group_symop_operation_xyz
x,y,z
1/2-x,1/2-y,z
1/2+x,-y,-z
-x,1/2+y,-z
-x,-y,-z
1/2+x,1/2+y,-z
1/2-x,y,z
x,1/2-y,z
loop_
_atom_site_type_symbol
_atom_site_label
_atom_site_fract_x
_atom_site_fract_y
_atom_site_fract_z
Si Si1 0.750000 0.451006 0.280398
Si Si2 0.410689 0.446694 0.031519
Si Si3 0.085295 0.550339 0.395808
Si Si4 0.103011 0.549372 0.592825
Si Si5 0.158549 0.950250 0.212709
Si Si6 0.250000 0.049762 0.925283
O O1 0.750000 0.250000 0.280863
O O2 0.669891 0.507557 0.335845
O O3 0.750000 0.506037 0.178597
O O4 0.406655 0.250000 0.024756
O O5 0.399407 0.496813 0.133391
O O6 0.500000 0.500000 0.000000
O O7 0.332846 0.513110 0.974432
O O8 0.091833 0.750000 0.396653
O O9 0.118529 0.492120 0.491344
O O10 0.131871 0.488189 0.309224
O O11 0.989656 0.505082 0.387304
O O12 0.105173 0.750000 0.592733
O O13 0.250000 0.009279 0.191272
O O14 0.159143 0.750000 0.215676
O O15 0.250000 0.250000 0.931940
#
# Coordination Sequence:
#
# PCOD9452344 Si02
#       6
#     4   8   8   8   8   4
#     4  10  22  36  57  84 112 148 191 232 277 330
#     4  11  24  43  64  87 116 153 193 241 296 349
#     4   9  19  35  57  82 114 150 187 230 280 335
#     4   9  19  36  55  81 114 149 189 232 276 329
#     4  10  21  37  60  89 116 149 191 236 287 345
#     4  10  24  44  61  82 116 152 191 238 291 346
#
# _framework density 20.164065999999998
#
# number of rings (size 3 to 8) (size 9 to 14) (size 15 to 20)
#    0.000    2.200    1.000    0.600    4.200    3.200 
#    0.000    0.000    0.000    0.000    0.000    0.000 
#    0.000    0.000    0.000    0.000    0.000    0.000 
#
# Total GULP energy -223283.525825 kJ/mol
# GULP energy per Si atom -5582.088146 kJ/mol
# Density = 2.011817 g / cm^3
# Si number density = 20.164066 Si / 1000 Ang^3
#
#
#
# Elastic Constant Matrix: (Units=GPa)
#
#
# Indices 1 2 3 4 5 6 
#
# 1 77.9539 8.4306 46.2966 0.0000 0.0000 0.0000
# 2 8.4306 14.3968 8.9306 0.0000 0.0000 0.0000
# 3 46.2966 8.9306 115.0995 0.0000 0.0000 0.0000
# 4 0.0000 0.0000 0.0000 25.7233 0.0000 0.0000
# 5 0.0000 0.0000 0.0000 0.0000 39.1143 0.0000
# 6 0.0000 0.0000 0.0000 0.0000 0.0000 25.0005
#
#
#
# Elastic Compliance Matrix: (Units=1/GPa)
#
#
# Indices 1 2 3 4 5 6 
#
# 1 0.017354 -0.006127 -0.006505 0.000000 0.000000 0.000000
# 2 -0.006127 0.075135 -0.003365 0.000000 0.000000 0.000000
# 3 -0.006505 -0.003365 0.011566 0.000000 0.000000 0.000000
# 4 0.000000 0.000000 0.000000 0.038875 0.000000 0.000000
# 5 0.000000 0.000000 0.000000 0.000000 0.025566 0.000000
# 6 0.000000 0.000000 0.000000 0.000000 0.000000 0.039999
#
#
# Mechanical properties :
#
#
# Convention : Reuss Voigt Hill
#
# Bulk Modulus (GPa) = 13.87723 37.19620 25.53671
# Shear Modulus (GPa) = 18.90284 27.55377 23.22831
#
# Velocity S-wave (km/s) = 3.06511 3.70060 3.39774
# Velocity P-wave (km/s) = 4.40722 6.06186 5.29951
#
# Compressibility (1/GPa) = 0.07206048
#
# Stress axis : x y z
#
# Youngs Moduli (GPa) = 57.62358 13.30930 86.46236
#
# Poissons Ratio (x) = 0.08155 0.56243
# Poissons Ratio (y) = 0.35307 0.29096
# Poissons Ratio (z) = 0.37484 0.04479
#
# Static dielectric constant tensor:
#      x y z
#    x 1.703880 0.000000 0.000000 
#    y 0.000000 1.731570 0.000000 
#    z 0.000000 0.000000 1.699840 
# 
# From -- ./inp_files/22983.got.cif
#   From: 2010.05.17/outbox.cif.g08.bks.cpg/sg59_12_cif.got.tgz:22983.got - 2010.06.03 14:40:33.
