data_PCOD9452066
_publ_section_title
;
Structure prediction by ZEFSAII (Michael W. Deem and Ramdas Pophale) SiO2 
 PCOD9452066
Probable space group: P M M N
;
_chemical_formula_sum "Si O2"
_cell_formula_units_Z 48
_cell_length_a 9.997822
_cell_length_b 8.352814
_cell_length_c 29.272797
_cell_angle_alpha 90.000000
_cell_angle_beta 90.000000
_cell_angle_gamma 90.000000
_cell_volume 2444.569743
_symmetry_space_group_name_H-M "P M M N"
_symmetry_group_IT_number 59
_space_group.IT_coordinate_system_code '2'
_symmetry_cell_setting 'orthorhombic'
loop_
_space_group_symop_operation_xyz
x,y,z
1/2-x,1/2-y,z
1/2+x,-y,-z
-x,1/2+y,-z
-x,-y,-z
1/2+x,1/2+y,-z
1/2-x,y,z
x,1/2-y,z
loop_
_atom_site_type_symbol
_atom_site_label
_atom_site_fract_x
_atom_site_fract_y
_atom_site_fract_z
Si Si1 0.750000 0.565588 0.972704
Si Si2 0.402415 0.942886 0.460651
Si Si3 0.596314 0.445255 0.642797
Si Si4 0.398873 0.441891 0.198361
Si Si5 0.537468 0.061838 0.902644
Si Si6 0.750000 0.436752 0.072399
Si Si7 0.096152 0.443608 0.724030
O O1 0.750000 0.750000 0.987493
O O2 0.877578 0.529851 0.941039
O O3 0.750000 0.458337 0.017711
O O4 0.250000 0.996057 0.469453
O O5 0.403043 0.750000 0.460318
O O6 0.438238 0.995116 0.409008
O O7 0.500000 0.000000 0.500000
O O8 0.750000 0.494774 0.652652
O O9 0.596201 0.250000 0.643462
O O10 0.490076 0.500054 0.680322
O O11 0.250000 0.488366 0.215449
O O12 0.405150 0.250000 0.196205
O O13 0.416207 0.509524 0.147514
O O14 0.514382 0.504351 0.231386
O O15 0.560284 0.250000 0.908744
O O16 0.382724 0.019149 0.908572
O O17 0.750000 0.250000 0.084476
O O18 0.250000 0.499540 0.723781
O O19 0.098643 0.250000 0.722880
#
# Coordination Sequence:
#
# PCOD9452066 Si02
#       7
#     4   8   8   8   8   4   8
#     4  12  24  44  68  96 130 164 206 250 297 358
#     4   9  18  32  51  78 111 148 193 242 293 349
#     4   8  15  31  54  78 108 149 195 242 290 346
#     4  11  24  42  63  86 116 155 198 241 293 354
#     4  12  25  43  67  95 124 161 207 252 299 355
#     4  12  26  44  66  94 130 168 202 248 305 354
#     4  10  21  36  58  88 117 145 186 239 295 354
#
# _framework density 19.635358
#
# number of rings (size 3 to 8) (size 9 to 14) (size 15 to 20)
#    0.000    1.667    0.833    5.500    1.167    3.000 
#    0.000    2.500    0.000    1.000    0.000    0.000 
#    0.000    0.000    0.000    0.000    0.000    0.000 
#
# Total GULP energy -268264.586120 kJ/mol
# GULP energy per Si atom -5588.845544 kJ/mol
# Density = 1.959067 g / cm^3
# Si number density = 19.635358 Si / 1000 Ang^3
#
#
#
# Elastic Constant Matrix: (Units=GPa)
#
#
# Indices 1 2 3 4 5 6 
#
# 1 128.8361 8.6204 49.2320 0.0000 0.0000 0.0000
# 2 8.6204 28.7321 0.9198 0.0000 0.0000 0.0000
# 3 49.2320 0.9198 92.2351 0.0000 0.0000 0.0000
# 4 0.0000 0.0000 0.0000 26.4118 0.0000 0.0000
# 5 0.0000 0.0000 0.0000 0.0000 34.8987 0.0000
# 6 0.0000 0.0000 0.0000 0.0000 0.0000 31.1201
#
#
#
# Elastic Compliance Matrix: (Units=1/GPa)
#
#
# Indices 1 2 3 4 5 6 
#
# 1 0.009974 -0.002823 -0.005296 0.000000 0.000000 0.000000
# 2 -0.002823 0.035614 0.001152 0.000000 0.000000 0.000000
# 3 -0.005296 0.001152 0.013657 0.000000 0.000000 0.000000
# 4 0.000000 0.000000 0.000000 0.037862 0.000000 0.000000
# 5 0.000000 0.000000 0.000000 0.000000 0.028654 0.000000
# 6 0.000000 0.000000 0.000000 0.000000 0.000000 0.032134
#
#
# Mechanical properties :
#
#
# Convention : Reuss Voigt Hill
#
# Bulk Modulus (GPa) = 22.06945 40.81642 31.44293
# Shear Modulus (GPa) = 26.74743 31.22154 28.98448
#
# Velocity S-wave (km/s) = 3.69481 3.99189 3.84622
# Velocity P-wave (km/s) = 5.42828 6.48685 5.98103
#
# Compressibility (1/GPa) = 0.04531151
#
# Stress axis : x y z
#
# Youngs Moduli (GPa) = 100.25682 28.07850 73.22196
#
# Poissons Ratio (x) = 0.07927 0.38777
# Poissons Ratio (y) = 0.28303 -0.08433
# Poissons Ratio (z) = 0.53094 -0.03234
#
# Static dielectric constant tensor:
#      x y z
#    x 1.683400 0.000000 0.000000 
#    y 0.000000 1.679610 0.000000 
#    z 0.000000 0.000000 1.660190 
# 
# From -- ./inp_files/33091.got.cif
#   From: 2010.05.17/outbox.cif.g08.bks.cpg/sg59_17_cif.got.tgz:33091.got - 2010.06.03 14:40:33.
