data_PCOD9452946
_publ_section_title
;
Structure prediction by ZEFSAII (Michael W. Deem and Ramdas Pophale) SiO2 
 PCOD9452946
Probable space group: P M M N
;
_chemical_formula_sum "Si O2"
_cell_formula_units_Z 58
_cell_length_a 17.837082
_cell_length_b 25.642587
_cell_length_c 6.823670
_cell_angle_alpha 90.000000
_cell_angle_beta 90.000000
_cell_angle_gamma 90.000000
_cell_volume 3121.071100
_symmetry_space_group_name_H-M "P M M N"
_symmetry_group_IT_number 59
_space_group.IT_coordinate_system_code '2'
_symmetry_cell_setting 'orthorhombic'
loop_
_space_group_symop_operation_xyz
x,y,z
1/2-x,1/2-y,z
1/2+x,-y,-z
-x,1/2+y,-z
-x,-y,-z
1/2+x,1/2+y,-z
1/2-x,y,z
x,1/2-y,z
loop_
_atom_site_type_symbol
_atom_site_label
_atom_site_fract_x
_atom_site_fract_y
_atom_site_fract_z
Si Si1 0.162334 0.189155 0.909382
Si Si2 0.925424 0.883160 0.806440
Si Si3 0.044150 0.190207 0.560648
Si Si4 0.837824 0.431334 0.370883
Si Si5 0.250000 0.750000 0.324502
Si Si6 0.376983 0.839944 0.333734
Si Si7 0.926877 0.082754 0.978821
Si Si8 0.571940 0.501914 0.644457
O O1 0.250000 0.183227 0.859589
O O2 0.151080 0.250000 0.972580
O O3 0.107966 0.180775 0.723513
O O4 0.137954 0.147843 0.074336
O O5 0.946882 0.848392 0.620216
O O6 0.909563 0.940940 0.724564
O O7 0.996792 0.890517 0.948812
O O8 0.051152 0.250000 0.494521
O O9 0.961263 0.181748 0.647602
O O10 0.750000 0.430648 0.332307
O O11 0.861494 0.378124 0.482125
O O12 0.860949 0.477258 0.518658
O O13 0.884073 0.436504 0.171245
O O14 0.315589 0.795421 0.326257
O O15 0.376779 0.875761 0.139811
O O16 0.943374 0.036194 0.827749
O O17 0.500000 0.500000 0.500000
#
# Coordination Sequence:
#
# PCOD9452946 Si02
#       8
#     8   8   8   8   2   8   8   8
#     4  10  24  44  65  95 132 167 208 272 334 386
#     4  12  22  39  70  97 122 165 222 268 318 396
#     4  11  22  40  66  95 129 173 212 258 323 395
#     4  11  24  42  64  92 133 174 213 269 328 385
#     4  12  24  40  66  96 146 174 224 280 308 376
#     4  11  22  41  62  95 134 176 220 266 317 380
#     4  11  23  40  67  93 127 172 222 266 325 390
#     4  11  24  41  67  95 127 169 219 271 330 389
#
# _framework density 18.583364
#
# number of rings (size 3 to 8) (size 9 to 14) (size 15 to 20)
#    0.000    0.966    5.517    1.655    0.966    1.655 
#    1.241    4.138    0.000    0.000    0.000    0.000 
#    0.000    0.000    0.000    0.000    0.000    0.000 
#
# Total GULP energy -323491.611919 kJ/mol
# GULP energy per Si atom -5577.441585 kJ/mol
# Density = 1.854107 g / cm^3
# Si number density = 18.583364 Si / 1000 Ang^3
#
#
#
# Elastic Constant Matrix: (Units=GPa)
#
#
# Indices 1 2 3 4 5 6 
#
# 1 136.9356 52.5516 49.4177 0.0000 0.0000 0.0000
# 2 52.5516 146.6757 76.3403 0.0000 0.0000 0.0000
# 3 49.4177 76.3403 110.2464 0.0000 0.0000 0.0000
# 4 0.0000 0.0000 0.0000 28.5389 0.0000 0.0000
# 5 0.0000 0.0000 0.0000 0.0000 17.4182 0.0000
# 6 0.0000 0.0000 0.0000 0.0000 0.0000 11.8934
#
#
#
# Elastic Compliance Matrix: (Units=1/GPa)
#
#
# Indices 1 2 3 4 5 6 
#
# 1 0.008993 -0.001757 -0.002814 0.000000 0.000000 0.000000
# 2 -0.001757 0.011003 -0.006831 0.000000 0.000000 0.000000
# 3 -0.002814 -0.006831 0.015062 0.000000 0.000000 0.000000
# 4 0.000000 0.000000 0.000000 0.035040 0.000000 0.000000
# 5 0.000000 0.000000 0.000000 0.000000 0.057411 0.000000
# 6 0.000000 0.000000 0.000000 0.000000 0.000000 0.084080
#
#
# Mechanical properties :
#
#
# Convention : Reuss Voigt Hill
#
# Bulk Modulus (GPa) = 81.61561 83.38633 82.50097
# Shear Modulus (GPa) = 20.96626 25.93998 23.45312
#
# Velocity S-wave (km/s) = 3.36255 3.74019 3.55639
# Velocity P-wave (km/s) = 7.68698 7.97627 7.83296
#
# Compressibility (1/GPa) = 0.01225256
#
# Stress axis : x y z
#
# Youngs Moduli (GPa) = 111.20190 90.88592 66.39091
#
# Poissons Ratio (x) = 0.15971 0.18683
# Poissons Ratio (y) = 0.19541 0.45353
# Poissons Ratio (z) = 0.31294 0.62086
#
# Static dielectric constant tensor:
#      x y z
#    x 1.623130 0.000000 0.000000 
#    y 0.000000 1.656720 0.000000 
#    z 0.000000 0.000000 1.627220 
# 
# From -- ./inp_files/2958.got.cif
#   From: 2010.05.17/outbox.cif.g08.bks.cpg/sg59_2_cif.got.tgz:2958.got - 2010.06.03 14:40:33.
