data_PCOD9452763
_publ_section_title
;
Structure prediction by ZEFSAII (Michael W. Deem and Ramdas Pophale) SiO2 
 PCOD9452763
Probable space group: P M M N
;
_chemical_formula_sum "Si O2"
_cell_formula_units_Z 64
_cell_length_a 29.020016
_cell_length_b 7.744956
_cell_length_c 12.492890
_cell_angle_alpha 90.000000
_cell_angle_beta 90.000000
_cell_angle_gamma 90.000000
_cell_volume 2807.886303
_symmetry_space_group_name_H-M "P M M N"
_symmetry_group_IT_number 59
_space_group.IT_coordinate_system_code '2'
_symmetry_cell_setting 'orthorhombic'
loop_
_space_group_symop_operation_xyz
x,y,z
1/2-x,1/2-y,z
1/2+x,-y,-z
-x,1/2+y,-z
-x,-y,-z
1/2+x,1/2+y,-z
1/2-x,y,z
x,1/2-y,z
loop_
_atom_site_type_symbol
_atom_site_label
_atom_site_fract_x
_atom_site_fract_y
_atom_site_fract_z
Si Si1 0.946748 0.446460 0.490147
Si Si2 0.600420 0.039273 0.041917
Si Si3 0.543222 0.051428 0.847276
Si Si4 0.302932 0.461945 0.457218
Si Si5 0.194483 0.054199 0.689799
Si Si6 0.550324 0.546715 0.254998
Si Si7 0.198826 0.950479 0.929559
Si Si8 0.885041 0.553969 0.677561
O O1 0.941953 0.250000 0.526616
O O2 0.934639 0.463119 0.365745
O O3 0.915696 0.555789 0.569743
O O4 0.000000 0.500000 0.500000
O O5 0.600729 0.250000 0.038521
O O6 0.652444 0.977431 0.017220
O O7 0.585650 0.981540 0.159353
O O8 0.562187 0.975285 0.957776
O O9 0.530544 0.250000 0.869605
O O10 0.498685 0.974153 0.788543
O O11 0.586031 0.044840 0.766226
O O12 0.250000 0.514110 0.442101
O O13 0.304218 0.250000 0.460572
O O14 0.320625 0.519395 0.575015
O O15 0.336367 0.518509 0.362440
O O16 0.250000 0.066122 0.676469
O O17 0.176262 0.250000 0.702119
O O18 0.188675 0.958646 0.801718
O O19 0.544764 0.750000 0.278165
O O20 0.250000 0.028595 0.946725
O O21 0.201784 0.750000 0.960142
O O22 0.878978 0.750000 0.716118
#
# Coordination Sequence:
#
# PCOD9452763 Si02
#       8
#     8   8   8   8   8   8   8   8
#     4  12  24  40  61  88 122 156 191 233 286 350
#     4  10  22  39  59  84 113 150 196 243 292 345
#     4  10  22  41  60  80 114 156 195 242 297 350
#     4   8  16  32  53  80 114 151 192 237 286 340
#     4   8  14  27  48  72 101 139 178 220 275 334
#     4  11  23  39  61  87 116 152 193 241 295 350
#     4   9  18  33  52  77 110 145 183 231 288 344
#     4  11  22  36  60  89 118 156 199 242 291 345
#
# _framework density 22.792946000000001
#
# number of rings (size 3 to 8) (size 9 to 14) (size 15 to 20)
#    0.000    2.125    1.250    3.000    1.750    1.500 
#    0.000    1.250    0.000    3.000    0.000    0.000 
#    0.000    0.000    0.000    0.000    0.000    0.000 
#
# Total GULP energy -357430.903718 kJ/mol
# GULP energy per Si atom -5584.857871 kJ/mol
# Density = 2.274107 g / cm^3
# Si number density = 22.792946 Si / 1000 Ang^3
#
#
#
# Elastic Constant Matrix: (Units=GPa)
#
#
# Indices 1 2 3 4 5 6 
#
# 1 85.7482 -6.1096 -0.6221 0.0000 0.0000 0.0000
# 2 -6.1096 52.1490 -9.8868 0.0000 0.0000 0.0000
# 3 -0.6221 -9.8868 48.3205 0.0000 0.0000 0.0000
# 4 0.0000 0.0000 0.0000 14.8538 0.0000 0.0000
# 5 0.0000 0.0000 0.0000 0.0000 27.9539 0.0000
# 6 0.0000 0.0000 0.0000 0.0000 0.0000 5.1090
#
#
#
# Elastic Compliance Matrix: (Units=1/GPa)
#
#
# Indices 1 2 3 4 5 6 
#
# 1 0.011770 0.001464 0.000451 0.000000 0.000000 0.000000
# 2 0.001464 0.020132 0.004138 0.000000 0.000000 0.000000
# 3 0.000451 0.004138 0.021548 0.000000 0.000000 0.000000
# 4 0.000000 0.000000 0.000000 0.067323 0.000000 0.000000
# 5 0.000000 0.000000 0.000000 0.000000 0.035773 0.000000
# 6 0.000000 0.000000 0.000000 0.000000 0.000000 0.195731
#
#
# Mechanical properties :
#
#
# Convention : Reuss Voigt Hill
#
# Bulk Modulus (GPa) = 15.25401 16.99784 16.12592
# Shear Modulus (GPa) = 13.81133 23.10577 18.45855
#
# Velocity S-wave (km/s) = 2.46427 3.18736 2.84885
# Velocity P-wave (km/s) = 3.84757 4.58469 4.23221
#
# Compressibility (1/GPa) = 0.06555652
#
# Stress axis : x y z
#
# Youngs Moduli (GPa) = 84.96416 49.67237 46.40879
#
# Poissons Ratio (x) = -0.07274 -0.02094
# Poissons Ratio (y) = -0.12442 -0.19204
# Poissons Ratio (z) = -0.03833 -0.20555
#
# Static dielectric constant tensor:
#      x y z
#    x 1.889160 0.000000 0.000000 
#    y 0.000000 1.830880 0.000000 
#    z 0.000000 0.000000 1.838720 
# 
# From -- ./inp_files/19331.got.cif
#   From: 2010.05.17/outbox.cif.g08.bks.cpg/sg59_10_cif.got.tgz:19331.got - 2010.06.03 14:40:33.
