data_PCOD9452850
_publ_section_title
;
Structure prediction by ZEFSAII (Michael W. Deem and Ramdas Pophale) SiO2 
 PCOD9452850
Probable space group: P M M N
;
_chemical_formula_sum "Si O2"
_cell_formula_units_Z 48
_cell_length_a 13.271889
_cell_length_b 28.204941
_cell_length_c 6.890236
_cell_angle_alpha 90.000000
_cell_angle_beta 90.000000
_cell_angle_gamma 90.000000
_cell_volume 2579.241653
_symmetry_space_group_name_H-M "P M M N"
_symmetry_group_IT_number 59
_space_group.IT_coordinate_system_code '2'
_symmetry_cell_setting 'orthorhombic'
loop_
_space_group_symop_operation_xyz
x,y,z
1/2-x,1/2-y,z
1/2+x,-y,-z
-x,1/2+y,-z
-x,-y,-z
1/2+x,1/2+y,-z
1/2-x,y,z
x,1/2-y,z
loop_
_atom_site_type_symbol
_atom_site_label
_atom_site_fract_x
_atom_site_fract_y
_atom_site_fract_z
Si Si1 0.632893 0.882203 0.035172
Si Si2 0.364315 0.806265 0.000120
Si Si3 0.370039 0.546996 0.524940
Si Si4 0.960649 0.806191 0.298050
Si Si5 0.977164 0.526925 0.198846
Si Si6 0.990991 0.362052 0.317336
O O1 0.750000 0.893240 0.018841
O O2 0.615671 0.833801 0.156281
O O3 0.574161 0.923127 0.150910
O O4 0.580731 0.878270 0.824996
O O5 0.250000 0.822583 0.027083
O O6 0.364212 0.750000 0.962225
O O7 0.431525 0.813706 0.191302
O O8 0.416977 0.832125 0.821118
O O9 0.250000 0.552930 0.518602
O O10 0.403080 0.504669 0.669098
O O11 0.419902 0.534742 0.317971
O O12 0.428381 0.593649 0.600287
O O13 0.941108 0.750000 0.309659
O O14 0.966760 0.830487 0.507270
O O15 0.000000 0.500000 0.000000
#
# Coordination Sequence:
#
# PCOD9452850 Si02
#       6
#     8   8   8   8   8   8
#     4  11  24  43  66  89 124 170 213 264 319 371
#     4   9  19  35  58  88 122 162 203 247 307 374
#     4  11  24  40  66  98 129 163 204 255 313 379
#     4  10  22  41  62  88 126 166 211 267 314 371
#     4  11  23  46  63  93 130 164 211 258 313 381
#     4  11  21  40  60  94 127 158 207 260 310 379
#
# _framework density 18.610122
#
# number of rings (size 3 to 8) (size 9 to 14) (size 15 to 20)
#    0.000    1.500    3.333    1.500    0.000    4.333 
#    0.000    1.667    0.000    0.000    0.000    0.000 
#    0.000    0.000    0.000    0.000    0.000    0.000 
#
# Total GULP energy -268165.371464 kJ/mol
# GULP energy per Si atom -5586.778572 kJ/mol
# Density = 1.856776 g / cm^3
# Si number density = 18.610122 Si / 1000 Ang^3
#
#
#
# Elastic Constant Matrix: (Units=GPa)
#
#
# Indices 1 2 3 4 5 6 
#
# 1 101.1597 27.2345 48.0901 0.0000 0.0000 0.0000
# 2 27.2345 89.3499 55.5832 0.0000 0.0000 0.0000
# 3 48.0901 55.5832 132.9984 0.0000 0.0000 0.0000
# 4 0.0000 0.0000 0.0000 43.4398 0.0000 0.0000
# 5 0.0000 0.0000 0.0000 0.0000 8.0605 0.0000
# 6 0.0000 0.0000 0.0000 0.0000 0.0000 16.8086
#
#
#
# Elastic Compliance Matrix: (Units=1/GPa)
#
#
# Indices 1 2 3 4 5 6 
#
# 1 0.012048 -0.001300 -0.003813 0.000000 0.000000 0.000000
# 2 -0.001300 0.015264 -0.005909 0.000000 0.000000 0.000000
# 3 -0.003813 -0.005909 0.011367 0.000000 0.000000 0.000000
# 4 0.000000 0.000000 0.000000 0.023020 0.000000 0.000000
# 5 0.000000 0.000000 0.000000 0.000000 0.124062 0.000000
# 6 0.000000 0.000000 0.000000 0.000000 0.000000 0.059493
#
#
# Mechanical properties :
#
#
# Convention : Reuss Voigt Hill
#
# Bulk Modulus (GPa) = 60.11543 65.03594 62.57568
# Shear Modulus (GPa) = 18.32539 26.50178 22.41359
#
# Velocity S-wave (km/s) = 3.14140 3.77776 3.47418
# Velocity P-wave (km/s) = 6.74763 7.35194 7.05626
#
# Compressibility (1/GPa) = 0.01663467
#
# Stress axis : x y z
#
# Youngs Moduli (GPa) = 83.00085 65.51239 87.97284
#
# Poissons Ratio (x) = 0.08519 0.33543
# Poissons Ratio (y) = 0.10793 0.51984
# Poissons Ratio (z) = 0.31648 0.38712
#
# Static dielectric constant tensor:
#      x y z
#    x 1.609790 0.000000 0.000000 
#    y 0.000000 1.648420 0.000000 
#    z 0.000000 0.000000 1.622480 
# 
# From -- ./inp_files/2145.got.cif
#   From: 2010.05.17/outbox.cif.g08.bks.cpg/sg59_2_cif.got.tgz:2145.got - 2010.06.03 14:40:33.
