data_PCOD9452612
_publ_section_title
;
Structure prediction by ZEFSAII (Michael W. Deem and Ramdas Pophale) SiO2 
 PCOD9452612
Probable space group: P M M N
;
_chemical_formula_sum "Si O2"
_cell_formula_units_Z 40
_cell_length_a 14.418968
_cell_length_b 14.593123
_cell_length_c 8.986706
_cell_angle_alpha 90.000000
_cell_angle_beta 90.000000
_cell_angle_gamma 90.000000
_cell_volume 1890.962668
_symmetry_space_group_name_H-M "P M M N"
_symmetry_group_IT_number 59
_space_group.IT_coordinate_system_code '2'
_symmetry_cell_setting 'orthorhombic'
loop_
_space_group_symop_operation_xyz
x,y,z
1/2-x,1/2-y,z
1/2+x,-y,-z
-x,1/2+y,-z
-x,-y,-z
1/2+x,1/2+y,-z
1/2-x,y,z
x,1/2-y,z
loop_
_atom_site_type_symbol
_atom_site_label
_atom_site_fract_x
_atom_site_fract_y
_atom_site_fract_z
Si Si1 0.352538 0.858464 0.506095
Si Si2 0.525139 0.478006 0.669616
Si Si3 0.638370 0.149451 0.151345
Si Si4 0.859237 0.644126 0.810357
Si Si5 0.641174 0.547693 0.115730
O O1 0.250000 0.900332 0.509317
O O2 0.347278 0.750000 0.492874
O O3 0.403024 0.896650 0.362083
O O4 0.389537 0.870941 0.676334
O O5 0.500000 0.500000 0.500000
O O6 0.578089 0.565997 0.736066
O O7 0.436330 0.441311 0.758934
O O8 0.750000 0.157131 0.153732
O O9 0.601872 0.250000 0.106774
O O10 0.619018 0.057146 0.059529
O O11 0.750000 0.632627 0.770967
O O12 0.884783 0.750000 0.777942
O O13 0.867276 0.621212 0.985608
O O14 0.750000 0.547799 0.164965
#
# Coordination Sequence:
#
# PCOD9452612 Si02
#       5
#     8   8   8   8   8
#     4   9  18  34  56  85 123 160 196 252 322 380
#     4  12  23  36  64  97 127 159 207 267 325 379
#     4   8  14  28  53  83 115 152 195 246 307 365
#     4  10  24  46  66  86 124 176 219 258 309 376
#     4  10  21  39  62  91 126 170 217 258 308 373
#
# _framework density 21.153244999999998
#
# number of rings (size 3 to 8) (size 9 to 14) (size 15 to 20)
#    0.000    2.200    2.000    2.400    0.000    3.200 
#    0.000    1.000    0.000    6.000    0.000    0.000 
#    0.000    0.000    0.000    0.000    0.000    0.000 
#
# Total GULP energy -222840.064228 kJ/mol
# GULP energy per Si atom -5571.001606 kJ/mol
# Density = 2.110510 g / cm^3
# Si number density = 21.153245 Si / 1000 Ang^3
#
#
#
# Elastic Constant Matrix: (Units=GPa)
#
#
# Indices 1 2 3 4 5 6 
#
# 1 77.5445 9.6124 27.3306 0.0000 0.0000 0.0000
# 2 9.6124 69.7976 19.0886 0.0000 0.0000 0.0000
# 3 27.3306 19.0886 48.4994 0.0000 0.0000 0.0000
# 4 0.0000 0.0000 0.0000 36.6701 0.0000 0.0000
# 5 0.0000 0.0000 0.0000 0.0000 30.2475 0.0000
# 6 0.0000 0.0000 0.0000 0.0000 0.0000 -4.5789
#
#
#
# Elastic Compliance Matrix: (Units=1/GPa)
#
#
# Indices 1 2 3 4 5 6 
#
# 1 0.016097 0.000296 -0.009188 0.000000 0.000000 0.000000
# 2 0.000296 0.016061 -0.006488 0.000000 0.000000 0.000000
# 3 -0.009188 -0.006488 0.028350 0.000000 0.000000 0.000000
# 4 0.000000 0.000000 0.000000 0.027270 0.000000 0.000000
# 5 0.000000 0.000000 0.000000 0.000000 0.033061 0.000000
# 6 0.000000 0.000000 0.000000 0.000000 0.000000 -0.218392
#
#
# Mechanical properties :
#
#
# Convention : Reuss Voigt Hill
#
# Bulk Modulus (GPa) = 33.61539 34.21165 33.91352
# Shear Modulus (GPa) = -87.90864 21.78841 -33.06012
#
# Velocity S-wave (km/s) = -6.45354 3.21288 -3.95762
# Velocity P-wave (km/s) = 6.29326 5.47466 2.19468
#
# Compressibility (1/GPa) = 0.02974828
#
# Stress axis : x y z
#
# Youngs Moduli (GPa) = 62.12205 62.26358 35.27359
#
# Poissons Ratio (x) = -0.01842 0.32408
# Poissons Ratio (y) = -0.01838 0.22885
# Poissons Ratio (z) = 0.57076 0.40396
#
# Static dielectric constant tensor:
#      x y z
#    x 1.932190 0.000000 0.000000 
#    y 0.000000 1.856170 0.000000 
#    z 0.000000 0.000000 1.738670 
# 
# From -- ./inp_files/10117.got.cif
#   From: 2010.05.17/outbox.cif.g08.bks.cpg/sg59_6_cif.got.tgz:10117.got - 2010.06.03 14:40:33.
