data_PCOD9452609
_publ_section_title
;
Structure prediction by ZEFSAII (Michael W. Deem and Ramdas Pophale) SiO2 
 PCOD9452609
Probable space group: P M M N
;
_chemical_formula_sum "Si O2"
_cell_formula_units_Z 56
_cell_length_a 22.178240
_cell_length_b 13.962880
_cell_length_c 9.976236
_cell_angle_alpha 90.000000
_cell_angle_beta 90.000000
_cell_angle_gamma 90.000000
_cell_volume 3089.361989
_symmetry_space_group_name_H-M "P M M N"
_symmetry_group_IT_number 59
_space_group.IT_coordinate_system_code '2'
_symmetry_cell_setting 'orthorhombic'
loop_
_space_group_symop_operation_xyz
x,y,z
1/2-x,1/2-y,z
1/2+x,-y,-z
-x,1/2+y,-z
-x,-y,-z
1/2+x,1/2+y,-z
1/2-x,y,z
x,1/2-y,z
loop_
_atom_site_type_symbol
_atom_site_label
_atom_site_fract_x
_atom_site_fract_y
_atom_site_fract_z
Si Si1 0.250000 0.135418 0.276276
Si Si2 0.441397 0.362086 0.149942
Si Si3 0.080031 0.859058 0.789053
Si Si4 0.935924 0.636079 0.361479
Si Si5 0.069975 0.637320 0.467171
Si Si6 0.378337 0.049755 0.896716
Si Si7 0.750000 0.636878 0.046416
Si Si8 0.627746 0.550348 0.607568
O O1 0.250000 0.250000 0.303447
O O2 0.308294 0.085194 0.339180
O O3 0.250000 0.123867 0.115212
O O4 0.424036 0.250000 0.133291
O O5 0.513429 0.368592 0.146937
O O6 0.420011 0.399141 0.293787
O O7 0.408159 0.425216 0.039026
O O8 0.100748 0.750000 0.808168
O O9 0.073172 0.874766 0.628598
O O10 0.120973 0.938491 0.857895
O O11 0.930666 0.750000 0.367303
O O12 0.921060 0.599653 0.213785
O O13 0.887514 0.589509 0.460678
O O14 0.003135 0.611676 0.413078
O O15 0.080544 0.750000 0.438746
O O16 0.115928 0.563223 0.399032
O O17 0.311126 0.091592 0.896327
O O18 0.750000 0.750000 0.073382
#
# Coordination Sequence:
#
# PCOD9452609 Si02
#       8
#     4   8   8   8   8   8   4   8
#     4  11  24  41  64  87 116 160 203 239 290 365
#     4  11  21  36  62  91 123 159 196 242 304 365
#     4  10  21  39  62  90 121 160 203 245 297 360
#     4  11  21  35  61  94 125 154 196 251 305 355
#     4  10  21  39  62  90 124 159 196 248 306 353
#     4  12  23  39  60  90 125 161 200 248 299 349
#     4  11  24  43  62  83 122 164 195 237 302 361
#     4  12  21  38  62  89 119 157 204 242 293 354
#
# _framework density 18.126721
#
# number of rings (size 3 to 8) (size 9 to 14) (size 15 to 20)
#    0.000    1.000    4.286    4.286    0.000    0.571 
#    0.000    4.286    0.000    2.571    0.000    0.000 
#    0.000    0.000    0.000    0.000    0.000    0.000 
#
# Total GULP energy -312907.795510 kJ/mol
# GULP energy per Si atom -5587.639206 kJ/mol
# Density = 1.808546 g / cm^3
# Si number density = 18.126721 Si / 1000 Ang^3
#
#
#
# Elastic Constant Matrix: (Units=GPa)
#
#
# Indices 1 2 3 4 5 6 
#
# 1 69.7055 71.4286 16.0519 0.0000 0.0000 0.0000
# 2 71.4286 126.8174 15.2657 0.0000 0.0000 0.0000
# 3 16.0519 15.2657 31.8132 0.0000 0.0000 0.0000
# 4 0.0000 0.0000 0.0000 32.4929 0.0000 0.0000
# 5 0.0000 0.0000 0.0000 0.0000 14.8732 0.0000
# 6 0.0000 0.0000 0.0000 0.0000 0.0000 26.6531
#
#
#
# Elastic Compliance Matrix: (Units=1/GPa)
#
#
# Indices 1 2 3 4 5 6 
#
# 1 0.036205 -0.019308 -0.009003 0.000000 0.000000 0.000000
# 2 -0.019308 0.018666 0.000785 0.000000 0.000000 0.000000
# 3 -0.009003 0.000785 0.035599 0.000000 0.000000 0.000000
# 4 0.000000 0.000000 0.000000 0.030776 0.000000 0.000000
# 5 0.000000 0.000000 0.000000 0.000000 0.067235 0.000000
# 6 0.000000 0.000000 0.000000 0.000000 0.000000 0.037519
#
#
# Mechanical properties :
#
#
# Convention : Reuss Voigt Hill
#
# Bulk Modulus (GPa) = 28.23359 48.20316 38.21838
# Shear Modulus (GPa) = 17.07318 23.17650 20.12484
#
# Velocity S-wave (km/s) = 3.07233 3.57961 3.33563
# Velocity P-wave (km/s) = 5.30991 6.61323 5.99708
#
# Compressibility (1/GPa) = 0.03541880
#
# Stress axis : x y z
#
# Youngs Moduli (GPa) = 27.62075 53.57346 28.09067
#
# Poissons Ratio (x) = 1.03441 0.25289
# Poissons Ratio (y) = 0.53331 -0.02206
# Poissons Ratio (z) = 0.24866 -0.04207
#
# Static dielectric constant tensor:
#      x y z
#    x 1.608540 0.000000 0.000000 
#    y 0.000000 1.640450 0.000000 
#    z 0.000000 0.000000 1.598630 
# 
# From -- ./inp_files/11488.got.cif
#   From: 2010.05.17/outbox.cif.g08.bks.cpg/sg59_6_cif.got.tgz:11488.got - 2010.06.03 14:40:33.
