data_PCOD9452932
_publ_section_title
;
Structure prediction by ZEFSAII (Michael W. Deem and Ramdas Pophale) SiO2 
 PCOD9452932
Probable space group: P M M N
;
_chemical_formula_sum "Si O2"
_cell_formula_units_Z 40
_cell_length_a 8.733445
_cell_length_b 15.418713
_cell_length_c 14.687917
_cell_angle_alpha 90.000000
_cell_angle_beta 90.000000
_cell_angle_gamma 90.000000
_cell_volume 1977.852606
_symmetry_space_group_name_H-M "P M M N"
_symmetry_group_IT_number 59
_space_group.IT_coordinate_system_code '2'
_symmetry_cell_setting 'orthorhombic'
loop_
_space_group_symop_operation_xyz
x,y,z
1/2-x,1/2-y,z
1/2+x,-y,-z
-x,1/2+y,-z
-x,-y,-z
1/2+x,1/2+y,-z
1/2-x,y,z
x,1/2-y,z
loop_
_atom_site_type_symbol
_atom_site_label
_atom_site_fract_x
_atom_site_fract_y
_atom_site_fract_z
Si Si1 0.565140 0.648212 0.246494
Si Si2 0.066490 0.496479 0.898923
Si Si3 0.434950 0.149028 0.221522
Si Si4 0.078310 0.151853 0.418516
Si Si5 0.572643 0.073293 0.568590
O O1 0.750000 0.649373 0.249289
O O2 0.514711 0.750000 0.243185
O O3 0.517900 0.588418 0.160394
O O4 0.507676 0.599861 0.337868
O O5 0.250000 0.495050 0.902660
O O6 0.010430 0.583064 0.847993
O O7 0.000000 0.500000 0.000000
O O8 0.250000 0.147334 0.213348
O O9 0.484598 0.250000 0.208585
O O10 0.468914 0.109872 0.323004
O O11 0.250000 0.125445 0.449490
O O12 0.095630 0.250000 0.387939
O O13 0.958072 0.150796 0.498642
O O14 0.750000 0.057731 0.585523
O O15 0.500000 0.000000 0.500000
#
# Coordination Sequence:
#
# PCOD9452932 Si02
#       5
#     8   8   8   8   8
#     4  10  23  44  66  89 123 167 212 259 314 376
#     4  11  24  41  63  90 118 154 201 254 314 377
#     4   9  19  37  61  88 119 156 197 245 304 366
#     4   9  18  34  56  82 114 151 187 226 278 340
#     4  12  24  36  55  85 121 161 204 249 298 353
#
# _framework density 20.223953999999999
#
# number of rings (size 3 to 8) (size 9 to 14) (size 15 to 20)
#    0.000    1.800    0.000    5.400    0.000   10.000 
#    0.000    4.000    0.000    0.000    0.000    0.000 
#    0.000    0.000    0.000    0.000    0.000    0.000 
#
# Total GULP energy -222841.807063 kJ/mol
# GULP energy per Si atom -5571.045177 kJ/mol
# Density = 2.017792 g / cm^3
# Si number density = 20.223954 Si / 1000 Ang^3
#
#
#
# Elastic Constant Matrix: (Units=GPa)
#
#
# Indices 1 2 3 4 5 6 
#
# 1 36.5392 28.0678 39.0933 0.0000 0.0000 0.0000
# 2 28.0678 139.2066 62.4482 0.0000 0.0000 0.0000
# 3 39.0933 62.4482 161.9638 0.0000 0.0000 0.0000
# 4 0.0000 0.0000 0.0000 25.9448 0.0000 0.0000
# 5 0.0000 0.0000 0.0000 0.0000 34.8492 0.0000
# 6 0.0000 0.0000 0.0000 0.0000 0.0000 28.7458
#
#
#
# Elastic Compliance Matrix: (Units=1/GPa)
#
#
# Indices 1 2 3 4 5 6 
#
# 1 0.039007 -0.004403 -0.007718 0.000000 0.000000 0.000000
# 2 -0.004403 0.009183 -0.002478 0.000000 0.000000 0.000000
# 3 -0.007718 -0.002478 0.008992 0.000000 0.000000 0.000000
# 4 0.000000 0.000000 0.000000 0.038543 0.000000 0.000000
# 5 0.000000 0.000000 0.000000 0.000000 0.028695 0.000000
# 6 0.000000 0.000000 0.000000 0.000000 0.000000 0.034788
#
#
# Mechanical properties :
#
#
# Convention : Reuss Voigt Hill
#
# Bulk Modulus (GPa) = 35.73255 66.32537 51.02896
# Shear Modulus (GPa) = 25.28660 31.78133 28.53397
#
# Velocity S-wave (km/s) = 3.53984 3.96848 3.76027
# Velocity P-wave (km/s) = 5.86635 7.33928 6.64376
#
# Compressibility (1/GPa) = 0.02798569
#
# Stress axis : x y z
#
# Youngs Moduli (GPa) = 25.63653 108.89822 111.20468
#
# Poissons Ratio (x) = 0.47945 0.85823
# Poissons Ratio (y) = 0.11287 0.27556
# Poissons Ratio (z) = 0.19785 0.26984
#
# Static dielectric constant tensor:
#      x y z
#    x 1.738710 0.000000 0.000000 
#    y 0.000000 3.452950 0.000000 
#    z 0.000000 0.000000 1.734390 
# 
# From -- ./inp_files/19843.got.cif
#   From: 2010.05.17/outbox.cif.g08.bks.cpg/sg59_10_cif.got.tgz:19843.got - 2010.06.03 14:40:33.
