data_PCOD9452988
_publ_section_title
;
Structure prediction by ZEFSAII (Michael W. Deem and Ramdas Pophale) SiO2 
 PCOD9452988
Probable space group: P M M N
;
_chemical_formula_sum "Si O2"
_cell_formula_units_Z 48
_cell_length_a 18.539735
_cell_length_b 8.842596
_cell_length_c 16.797925
_cell_angle_alpha 90.000000
_cell_angle_beta 90.000000
_cell_angle_gamma 90.000000
_cell_volume 2753.841520
_symmetry_space_group_name_H-M "P M M N"
_symmetry_group_IT_number 59
_space_group.IT_coordinate_system_code '2'
_symmetry_cell_setting 'orthorhombic'
loop_
_space_group_symop_operation_xyz
x,y,z
1/2-x,1/2-y,z
1/2+x,-y,-z
-x,1/2+y,-z
-x,-y,-z
1/2+x,1/2+y,-z
1/2-x,y,z
x,1/2-y,z
loop_
_atom_site_type_symbol
_atom_site_label
_atom_site_fract_x
_atom_site_fract_y
_atom_site_fract_z
Si Si1 0.920263 0.069303 0.507803
Si Si2 0.896891 0.571708 0.672979
Si Si3 0.332288 0.934443 0.648178
Si Si4 0.527635 0.429792 0.917974
Si Si5 0.831945 0.932370 0.840802
Si Si6 0.954706 0.429726 0.233481
O O1 0.926462 0.250000 0.504607
O O2 0.870995 0.018909 0.433725
O O3 0.887407 0.018804 0.592049
O O4 0.000000 0.000000 0.500000
O O5 0.886083 0.750000 0.657407
O O6 0.847954 0.527279 0.748414
O O7 0.978908 0.551918 0.704649
O O8 0.250000 0.986196 0.653065
O O9 0.332080 0.750000 0.648276
O O10 0.382290 0.980051 0.722285
O O11 0.529064 0.250000 0.923226
O O12 0.606813 0.491492 0.894151
O O13 0.475821 0.482847 0.845976
O O14 0.500000 0.500000 0.000000
O O15 0.750000 0.971306 0.862135
O O16 0.840699 0.750000 0.845934
O O17 0.950771 0.250000 0.215608
#
# Coordination Sequence:
#
# PCOD9452988 Si02
#       6
#     8   8   8   8   8   8
#     4  11  20  31  49  74 104 143 186 228 269 315
#     4   9  17  31  51  77 104 138 179 216 263 323
#     4   9  18  33  52  74 102 139 182 227 273 318
#     4  11  22  37  59  86 112 142 181 222 265 324
#     4   9  19  37  59  82 113 148 178 219 277 330
#     4   9  17  34  56  76 102 137 176 221 271 327
#
# _framework density 17.430197
#
# number of rings (size 3 to 8) (size 9 to 14) (size 15 to 20)
#    0.000    2.333    1.667    3.000    0.000    3.667 
#    0.000    0.833    0.000    7.000    0.000    0.000 
#    0.000    0.000    0.000    0.000    0.000    0.000 
#
# Total GULP energy -267817.298516 kJ/mol
# GULP energy per Si atom -5579.527052 kJ/mol
# Density = 1.739052 g / cm^3
# Si number density = 17.430197 Si / 1000 Ang^3
#
#
#
# Elastic Constant Matrix: (Units=GPa)
#
#
# Indices 1 2 3 4 5 6 
#
# 1 143.9451 49.6767 84.3885 0.0000 0.0000 0.0000
# 2 49.6767 56.8985 58.7445 0.0000 0.0000 0.0000
# 3 84.3885 58.7445 138.4948 0.0000 0.0000 0.0000
# 4 0.0000 0.0000 0.0000 32.9378 0.0000 0.0000
# 5 0.0000 0.0000 0.0000 0.0000 18.8390 0.0000
# 6 0.0000 0.0000 0.0000 0.0000 0.0000 19.0796
#
#
#
# Elastic Compliance Matrix: (Units=1/GPa)
#
#
# Indices 1 2 3 4 5 6 
#
# 1 0.011561 -0.005018 -0.004916 0.000000 0.000000 0.000000
# 2 -0.005018 0.033447 -0.011129 0.000000 0.000000 0.000000
# 3 -0.004916 -0.011129 0.014936 0.000000 0.000000 0.000000
# 4 0.000000 0.000000 0.000000 0.030360 0.000000 0.000000
# 5 0.000000 0.000000 0.000000 0.000000 0.053081 0.000000
# 6 0.000000 0.000000 0.000000 0.000000 0.000000 0.052412
#
#
# Mechanical properties :
#
#
# Convention : Reuss Voigt Hill
#
# Bulk Modulus (GPa) = 56.12430 80.55088 68.33759
# Shear Modulus (GPa) = 20.50333 23.93986 22.22160
#
# Velocity S-wave (km/s) = 3.43346 3.71006 3.57443
# Velocity P-wave (km/s) = 6.92731 8.04154 7.50513
#
# Compressibility (1/GPa) = 0.01781759
#
# Stress axis : x y z
#
# Youngs Moduli (GPa) = 86.49909 29.89840 66.95066
#
# Poissons Ratio (x) = 0.15004 0.32911
# Poissons Ratio (y) = 0.43407 0.74510
# Poissons Ratio (z) = 0.42521 0.33274
#
# Static dielectric constant tensor:
#      x y z
#    x 1.593260 0.000000 0.000000 
#    y 0.000000 1.584010 0.000000 
#    z 0.000000 0.000000 1.577100 
# 
# From -- ./inp_files/23639.got.cif
#   From: 2010.05.17/outbox.cif.g08.bks.cpg/sg59_12_cif.got.tgz:23639.got - 2010.06.03 14:40:33.
