data_PCOD9452551
_publ_section_title
;
Structure prediction by ZEFSAII (Michael W. Deem and Ramdas Pophale) SiO2 
 PCOD9452551
Probable space group: P M M N
;
_chemical_formula_sum "Si O2"
_cell_formula_units_Z 64
_cell_length_a 31.252298
_cell_length_b 8.814755
_cell_length_c 12.344260
_cell_angle_alpha 90.000000
_cell_angle_beta 90.000000
_cell_angle_gamma 90.000000
_cell_volume 3400.613410
_symmetry_space_group_name_H-M "P M M N"
_symmetry_group_IT_number 59
_space_group.IT_coordinate_system_code '2'
_symmetry_cell_setting 'orthorhombic'
loop_
_space_group_symop_operation_xyz
x,y,z
1/2-x,1/2-y,z
1/2+x,-y,-z
-x,1/2+y,-z
-x,-y,-z
1/2+x,1/2+y,-z
1/2-x,y,z
x,1/2-y,z
loop_
_atom_site_type_symbol
_atom_site_label
_atom_site_fract_x
_atom_site_fract_y
_atom_site_fract_z
Si Si1 0.624220 0.068345 0.869511
Si Si2 0.934586 0.571510 0.253918
Si Si3 0.699023 0.575496 0.265347
Si Si4 0.481398 0.929150 0.389942
Si Si5 0.866616 0.072084 0.416306
Si Si6 0.110557 0.070083 0.356618
Si Si7 0.200306 0.568143 0.966231
Si Si8 0.047887 0.432834 0.990911
O O1 0.619285 0.250000 0.868025
O O2 0.665365 0.029572 0.943285
O O3 0.630732 0.007329 0.748638
O O4 0.581250 0.996731 0.921274
O O5 0.923426 0.750000 0.262524
O O6 0.904038 0.479829 0.333971
O O7 0.982798 0.555238 0.297792
O O8 0.933631 0.526658 0.128387
O O9 0.750000 0.569244 0.276576
O O10 0.684940 0.750000 0.276899
O O11 0.676322 0.473142 0.354058
O O12 0.688777 0.515280 0.145351
O O13 0.472629 0.750000 0.405530
O O14 0.500000 0.000000 0.500000
O O15 0.438620 0.015933 0.359336
O O16 0.869847 0.250000 0.436285
O O17 0.870393 0.985099 0.529491
O O18 0.113201 0.250000 0.348154
O O19 0.250000 0.530661 0.993805
O O20 0.198536 0.750000 0.948563
O O21 0.045555 0.250000 0.998218
O O22 0.000000 0.500000 0.000000
#
# Coordination Sequence:
#
# PCOD9452551 Si02
#       8
#     8   8   8   8   8   8   8   8
#     4  11  23  40  61  87 121 160 203 251 307 367
#     4  10  22  38  58  84 117 152 192 242 293 348
#     4  10  21  38  62  91 123 155 188 234 292 353
#     4  11  21  36  58  85 117 155 198 245 295 349
#     4  12  24  38  60  87 116 151 194 242 291 349
#     4  12  25  41  60  83 117 159 203 251 299 355
#     4   9  19  38  65  95 124 155 195 244 298 359
#     4  11  23  39  59  85 119 159 202 248 300 357
#
# _framework density 18.820133999999999
#
# number of rings (size 3 to 8) (size 9 to 14) (size 15 to 20)
#    0.000    1.250    1.250    5.250    0.000    6.250 
#    0.000    0.625    0.000    2.250    0.000    0.000 
#    0.000    0.000    0.000    0.000    0.000    0.000 
#
# Total GULP energy -357889.675196 kJ/mol
# GULP energy per Si atom -5592.026175 kJ/mol
# Density = 1.877730 g / cm^3
# Si number density = 18.820134 Si / 1000 Ang^3
#
#
#
# Elastic Constant Matrix: (Units=GPa)
#
#
# Indices 1 2 3 4 5 6 
#
# 1 64.8881 26.0611 39.9263 0.0000 0.0000 0.0000
# 2 26.0611 72.7590 39.8078 0.0000 0.0000 0.0000
# 3 39.9263 39.8078 118.0103 0.0000 0.0000 0.0000
# 4 0.0000 0.0000 0.0000 34.0000 0.0000 0.0000
# 5 0.0000 0.0000 0.0000 0.0000 31.8896 0.0000
# 6 0.0000 0.0000 0.0000 0.0000 0.0000 27.5684
#
#
#
# Elastic Compliance Matrix: (Units=1/GPa)
#
#
# Indices 1 2 3 4 5 6 
#
# 1 0.020531 -0.004358 -0.005476 0.000000 0.000000 0.000000
# 2 -0.004358 0.017780 -0.004523 0.000000 0.000000 0.000000
# 3 -0.005476 -0.004523 0.011852 0.000000 0.000000 0.000000
# 4 0.000000 0.000000 0.000000 0.029412 0.000000 0.000000
# 5 0.000000 0.000000 0.000000 0.000000 0.031358 0.000000
# 6 0.000000 0.000000 0.000000 0.000000 0.000000 0.036273
#
#
# Mechanical properties :
#
#
# Convention : Reuss Voigt Hill
#
# Bulk Modulus (GPa) = 46.62292 51.91643 49.26968
# Shear Modulus (GPa) = 27.31195 28.68240 27.99717
#
# Velocity S-wave (km/s) = 3.81361 3.90811 3.86115
# Velocity P-wave (km/s) = 6.64967 6.92892 6.79073
#
# Compressibility (1/GPa) = 0.02144868
#
# Stress axis : x y z
#
# Youngs Moduli (GPa) = 48.70695 56.24439 84.37114
#
# Poissons Ratio (x) = 0.24510 0.46204
# Poissons Ratio (y) = 0.21225 0.38162
# Poissons Ratio (z) = 0.26673 0.25440
#
# Static dielectric constant tensor:
#      x y z
#    x 1.647490 0.000000 0.000000 
#    y 0.000000 1.631640 0.000000 
#    z 0.000000 0.000000 1.664810 
# 
# From -- ./inp_files/19305.got.cif
#   From: 2010.05.17/outbox.cif.g08.bks.cpg/sg59_10_cif.got.tgz:19305.got - 2010.06.03 14:40:33.
