data_PCOD9452960
_publ_section_title
;
Structure prediction by ZEFSAII (Michael W. Deem and Ramdas Pophale) SiO2 
 PCOD9452960
Probable space group: P M M N
;
_chemical_formula_sum "Si O2"
_cell_formula_units_Z 34
_cell_length_a 13.823861
_cell_length_b 11.318423
_cell_length_c 9.744196
_cell_angle_alpha 90.000000
_cell_angle_beta 90.000000
_cell_angle_gamma 90.000000
_cell_volume 1524.618868
_symmetry_space_group_name_H-M "P M M N"
_symmetry_group_IT_number 59
_space_group.IT_coordinate_system_code '2'
_symmetry_cell_setting 'orthorhombic'
loop_
_space_group_symop_operation_xyz
x,y,z
1/2-x,1/2-y,z
1/2+x,-y,-z
-x,1/2+y,-z
-x,-y,-z
1/2+x,1/2+y,-z
1/2-x,y,z
x,1/2-y,z
loop_
_atom_site_type_symbol
_atom_site_label
_atom_site_fract_x
_atom_site_fract_y
_atom_site_fract_z
Si Si1 0.962345 0.115848 0.349720
Si Si2 0.250000 0.505518 0.660926
Si Si3 0.467609 0.250000 0.596481
Si Si4 0.250000 0.383162 0.959574
Si Si5 0.355706 0.750000 0.198021
Si Si6 0.250000 0.250000 0.636326
Si Si7 0.918004 0.999635 0.887482
O O1 0.958111 0.250000 0.288612
O O2 0.015743 0.139097 0.494644
O O3 0.851314 0.072682 0.362914
O O4 0.029059 0.035816 0.253077
O O5 0.250000 0.383399 0.573980
O O6 0.250000 0.463101 0.821948
O O7 0.556114 0.250000 0.698442
O O8 0.366029 0.250000 0.674104
O O9 0.250000 0.250000 0.905825
O O10 0.159535 0.407173 0.056933
O O11 0.250000 0.750000 0.265509
O O12 0.367783 0.872198 0.117014
O O13 0.000000 0.000000 0.000000
#
# Coordination Sequence:
#
# PCOD9452960 Si02
#       7
#     8   4   4   4   4   2   8
#     4  10  25  47  70 105 137 191 241 296 360 428
#     4  12  23  42  75 103 143 185 242 299 358 447
#     4  10  28  49  72 105 143 194 245 303 357 437
#     4  12  26  43  69 105 142 187 230 293 367 431
#     4  12  28  49  70 112 152 192 246 299 378 428
#     4  12  26  46  68 108 136 192 250 300 366 426
#     4  12  26  45  73 104 146 186 234 302 360 438
#
# _framework density 22.300657000000001
#
# number of rings (size 3 to 8) (size 9 to 14) (size 15 to 20)
#    0.706    0.000    4.118    2.471    4.941    4.706 
#    2.118    0.000    0.000    0.000    0.000    0.000 
#    0.000    0.000    0.000    0.000    0.000    0.000 
#
# Total GULP energy -189751.803163 kJ/mol
# GULP energy per Si atom -5580.935387 kJ/mol
# Density = 2.224990 g / cm^3
# Si number density = 22.300657 Si / 1000 Ang^3
#
#
#
# Elastic Constant Matrix: (Units=GPa)
#
#
# Indices 1 2 3 4 5 6 
#
# 1 218.0249 32.0688 48.0614 0.0000 0.0000 0.0000
# 2 32.0688 98.8632 7.6391 0.0000 0.0000 0.0000
# 3 48.0614 7.6391 81.5268 0.0000 0.0000 0.0000
# 4 0.0000 0.0000 0.0000 20.6651 0.0000 0.0000
# 5 0.0000 0.0000 0.0000 0.0000 35.9074 0.0000
# 6 0.0000 0.0000 0.0000 0.0000 0.0000 35.6029
#
#
#
# Elastic Compliance Matrix: (Units=1/GPa)
#
#
# Indices 1 2 3 4 5 6 
#
# 1 0.005496 -0.001544 -0.003095 0.000000 0.000000 0.000000
# 2 -0.001544 0.010622 -0.000085 0.000000 0.000000 0.000000
# 3 -0.003095 -0.000085 0.014099 0.000000 0.000000 0.000000
# 4 0.000000 0.000000 0.000000 0.048391 0.000000 0.000000
# 5 0.000000 0.000000 0.000000 0.000000 0.027849 0.000000
# 6 0.000000 0.000000 0.000000 0.000000 0.000000 0.028088
#
#
# Mechanical properties :
#
#
# Convention : Reuss Voigt Hill
#
# Bulk Modulus (GPa) = 48.15012 63.77264 55.96138
# Shear Modulus (GPa) = 33.13096 39.14477 36.13786
#
# Velocity S-wave (km/s) = 3.85859 4.19420 4.02989
# Velocity P-wave (km/s) = 6.44126 7.21900 6.84119
#
# Compressibility (1/GPa) = 0.02076838
#
# Stress axis : x y z
#
# Youngs Moduli (GPa) = 181.94994 94.14168 70.92866
#
# Poissons Ratio (x) = 0.14532 0.21955
# Poissons Ratio (y) = 0.28086 0.00605
# Poissons Ratio (z) = 0.56320 0.00803
#
# Static dielectric constant tensor:
#      x y z
#    x 1.787230 0.000000 0.000000 
#    y 0.000000 1.954560 0.000000 
#    z 0.000000 0.000000 2.042160 
# 
# From -- ./inp_files/15398.got.cif
#   From: 2010.05.17/outbox.cif.g08.bks.cpg/sg59_8_cif.got.tgz:15398.got - 2010.06.03 14:40:33.
