data_PCOD9452338
_publ_section_title
;
Structure prediction by ZEFSAII (Michael W. Deem and Ramdas Pophale) SiO2 
 PCOD9452338
Probable space group: P M M N
;
_chemical_formula_sum "Si O2"
_cell_formula_units_Z 40
_cell_length_a 8.486502
_cell_length_b 19.297711
_cell_length_c 12.843581
_cell_angle_alpha 90.000000
_cell_angle_beta 90.000000
_cell_angle_gamma 90.000000
_cell_volume 2103.394069
_symmetry_space_group_name_H-M "P M M N"
_symmetry_group_IT_number 59
_space_group.IT_coordinate_system_code '2'
_symmetry_cell_setting 'orthorhombic'
loop_
_space_group_symop_operation_xyz
x,y,z
1/2-x,1/2-y,z
1/2+x,-y,-z
-x,1/2+y,-z
-x,-y,-z
1/2+x,1/2+y,-z
1/2-x,y,z
x,1/2-y,z
loop_
_atom_site_type_symbol
_atom_site_label
_atom_site_fract_x
_atom_site_fract_y
_atom_site_fract_z
Si Si1 0.942379 0.670510 0.533641
Si Si2 0.938990 0.910161 0.325719
Si Si3 0.061046 0.670064 0.123045
Si Si4 0.440548 0.063175 0.291000
Si Si5 0.939151 0.570964 0.948517
O O1 0.750000 0.671384 0.533889
O O2 0.995738 0.750000 0.538721
O O3 0.991510 0.633276 0.426686
O O4 0.992896 0.623861 0.631328
O O5 0.750000 0.911142 0.324131
O O6 0.998772 0.873307 0.221171
O O7 0.000118 0.988579 0.328800
O O8 0.250000 0.667518 0.123996
O O9 0.009911 0.750000 0.130459
O O10 0.000308 0.633910 0.018339
O O11 0.250000 0.061775 0.291855
O O12 0.491419 0.074442 0.171625
O O13 0.750000 0.570239 0.950724
O O14 0.000000 0.500000 0.000000
#
# Coordination Sequence:
#
# PCOD9452338 Si02
#       5
#     8   8   8   8   8
#     4   9  19  36  57  84 117 151 191 240 292 347
#     4  11  21  35  60  88 116 152 193 241 291 349
#     4  11  24  40  59  85 119 156 196 246 298 346
#     4  10  21  37  60  86 115 152 193 239 291 351
#     4  11  22  37  60  87 118 155 196 242 289 347
#
# _framework density 19.016883
#
# number of rings (size 3 to 8) (size 9 to 14) (size 15 to 20)
#    0.000    1.600    2.000    3.000    0.000    4.000 
#    0.000    3.000    0.000    3.000    0.000    0.000 
#    0.000    0.000    0.000    0.000    0.000    0.000 
#
# Total GULP energy -223561.614044 kJ/mol
# GULP energy per Si atom -5589.040351 kJ/mol
# Density = 1.897360 g / cm^3
# Si number density = 19.016883 Si / 1000 Ang^3
#
#
#
# Elastic Constant Matrix: (Units=GPa)
#
#
# Indices 1 2 3 4 5 6 
#
# 1 18.1609 16.3036 28.8403 0.0000 0.0000 0.0000
# 2 16.3036 174.5943 119.9898 0.0000 0.0000 0.0000
# 3 28.8403 119.9898 163.8340 0.0000 0.0000 0.0000
# 4 0.0000 0.0000 0.0000 30.1945 0.0000 0.0000
# 5 0.0000 0.0000 0.0000 0.0000 19.0133 0.0000
# 6 0.0000 0.0000 0.0000 0.0000 0.0000 24.5934
#
#
#
# Elastic Compliance Matrix: (Units=1/GPa)
#
#
# Indices 1 2 3 4 5 6 
#
# 1 0.078026 0.004336 -0.016911 0.000000 0.000000 0.000000
# 2 0.004336 0.011773 -0.009386 0.000000 0.000000 0.000000
# 3 -0.016911 -0.009386 0.015954 0.000000 0.000000 0.000000
# 4 0.000000 0.000000 0.000000 0.033119 0.000000 0.000000
# 5 0.000000 0.000000 0.000000 0.000000 0.052595 0.000000
# 6 0.000000 0.000000 0.000000 0.000000 0.000000 0.040661
#
#
# Mechanical properties :
#
#
# Convention : Reuss Voigt Hill
#
# Bulk Modulus (GPa) = 16.17276 76.31739 46.24507
# Shear Modulus (GPa) = 16.85434 27.52394 22.18914
#
# Velocity S-wave (km/s) = 2.98028 3.80852 3.41957
# Velocity P-wave (km/s) = 4.51283 7.71740 6.32155
#
# Compressibility (1/GPa) = 0.06183238
#
# Stress axis : x y z
#
# Youngs Moduli (GPa) = 12.81626 84.94084 62.67860
#
# Poissons Ratio (x) = -0.36828 1.05993
# Poissons Ratio (y) = -0.05557 0.58827
# Poissons Ratio (z) = 0.21673 0.79722
#
# Static dielectric constant tensor:
#      x y z
#    x 1.655770 0.000000 0.000000 
#    y 0.000000 1.630190 0.000000 
#    z 0.000000 0.000000 1.651550 
# 
# From -- ./inp_files/13809.got.cif
#   From: 2010.05.17/outbox.cif.g08.bks.cpg/sg59_7_cif.got.tgz:13809.got - 2010.06.03 14:40:33.
