data_PCOD9452484
_publ_section_title
;
Structure prediction by ZEFSAII (Michael W. Deem and Ramdas Pophale) SiO2 
 PCOD9452484
Probable space group: P M M N
;
_chemical_formula_sum "Si O2"
_cell_formula_units_Z 48
_cell_length_a 8.627268
_cell_length_b 27.402851
_cell_length_c 10.552522
_cell_angle_alpha 90.000000
_cell_angle_beta 90.000000
_cell_angle_gamma 90.000000
_cell_volume 2494.740083
_symmetry_space_group_name_H-M "P M M N"
_symmetry_group_IT_number 59
_space_group.IT_coordinate_system_code '2'
_symmetry_cell_setting 'orthorhombic'
loop_
_space_group_symop_operation_xyz
x,y,z
1/2-x,1/2-y,z
1/2+x,-y,-z
-x,1/2+y,-z
-x,-y,-z
1/2+x,1/2+y,-z
1/2-x,y,z
x,1/2-y,z
loop_
_atom_site_type_symbol
_atom_site_label
_atom_site_fract_x
_atom_site_fract_y
_atom_site_fract_z
Si Si1 0.062903 0.307216 0.136534
Si Si2 0.564139 0.365417 0.375980
Si Si3 0.436932 0.359235 0.874923
Si Si4 0.937069 0.306177 0.626617
Si Si5 0.434928 0.025384 0.373865
Si Si6 0.563614 0.527134 0.123853
O O1 0.250000 0.311532 0.147608
O O2 0.023482 0.250000 0.136100
O O3 0.985696 0.334672 0.253668
O O4 0.016025 0.332258 0.004316
O O5 0.750000 0.370933 0.378382
O O6 0.514771 0.336317 0.502323
O O7 0.487658 0.418478 0.372073
O O8 0.250000 0.357412 0.868062
O O9 0.503408 0.332139 0.752829
O O10 0.483433 0.415966 0.877727
O O11 0.750000 0.305906 0.628642
O O12 0.990436 0.250000 0.620203
O O13 0.250000 0.022335 0.373497
O O14 0.500000 0.000000 0.500000
O O15 0.500567 0.998480 0.249956
O O16 0.750000 0.524836 0.123316
O O17 0.500000 0.500000 0.000000
#
# Coordination Sequence:
#
# PCOD9452484 Si02
#       6
#     8   8   8   8   8   8
#     4  10  21  38  60  88 122 158 197 243 296 354
#     4  11  23  40  62  88 119 156 200 249 302 359
#     4  10  22  39  60  87 118 153 195 242 290 348
#     4  10  22  39  59  86 119 153 192 240 293 351
#     4  12  25  42  63  89 122 159 203 253 306 366
#     4  11  23  40  63  92 124 160 203 249 301 360
#
# _framework density 19.240480999999999
#
# number of rings (size 3 to 8) (size 9 to 14) (size 15 to 20)
#    0.000    1.333    0.000    5.500    0.000    9.333 
#    0.000    0.000    0.000    0.000    0.000    0.000 
#    0.000    0.000    0.000    0.000    0.000    0.000 
#
# Total GULP energy -268545.214096 kJ/mol
# GULP energy per Si atom -5594.691960 kJ/mol
# Density = 1.919669 g / cm^3
# Si number density = 19.240481 Si / 1000 Ang^3
#
#
#
# Elastic Constant Matrix: (Units=GPa)
#
#
# Indices 1 2 3 4 5 6 
#
# 1 57.4479 53.2693 48.0865 0.0000 0.0000 0.0000
# 2 53.2693 179.5235 96.8346 0.0000 0.0000 0.0000
# 3 48.0865 96.8346 196.5213 0.0000 0.0000 0.0000
# 4 0.0000 0.0000 0.0000 46.3563 0.0000 0.0000
# 5 0.0000 0.0000 0.0000 0.0000 33.7332 0.0000
# 6 0.0000 0.0000 0.0000 0.0000 0.0000 25.7619
#
#
#
# Elastic Compliance Matrix: (Units=1/GPa)
#
#
# Indices 1 2 3 4 5 6 
#
# 1 0.025611 -0.005747 -0.003435 0.000000 0.000000 0.000000
# 2 -0.005747 0.008876 -0.002968 0.000000 0.000000 0.000000
# 3 -0.003435 -0.002968 0.007391 0.000000 0.000000 0.000000
# 4 0.000000 0.000000 0.000000 0.021572 0.000000 0.000000
# 5 0.000000 0.000000 0.000000 0.000000 0.029644 0.000000
# 6 0.000000 0.000000 0.000000 0.000000 0.000000 0.038817
#
#
# Mechanical properties :
#
#
# Convention : Reuss Voigt Hill
#
# Bulk Modulus (GPa) = 56.88291 92.20817 74.54554
# Shear Modulus (GPa) = 30.85078 36.85709 33.85394
#
# Velocity S-wave (km/s) = 4.00863 4.38151 4.19921
# Velocity P-wave (km/s) = 7.14520 8.58049 7.89553
#
# Compressibility (1/GPa) = 0.01757997
#
# Stress axis : x y z
#
# Youngs Moduli (GPa) = 39.04564 112.66156 135.29445
#
# Poissons Ratio (x) = 0.64742 0.46476
# Poissons Ratio (y) = 0.22438 0.40149
# Poissons Ratio (z) = 0.13413 0.33433
#
# Static dielectric constant tensor:
#      x y z
#    x 1.658650 0.000000 0.000000 
#    y 0.000000 1.644420 0.000000 
#    z 0.000000 0.000000 1.622310 
# 
# From -- ./inp_files/6194.got.cif
#   From: 2010.05.17/outbox.cif.g08.bks.cpg/sg59_4_cif.got.tgz:6194.got - 2010.06.03 14:40:33.
