data_PCOD9452304
_publ_section_title
;
Structure prediction by ZEFSAII (Michael W. Deem and Ramdas Pophale) SiO2 
 PCOD9452304
Probable space group: P M M N
;
_chemical_formula_sum "Si O2"
_cell_formula_units_Z 64
_cell_length_a 31.779507
_cell_length_b 8.189526
_cell_length_c 12.277747
_cell_angle_alpha 90.000000
_cell_angle_beta 90.000000
_cell_angle_gamma 90.000000
_cell_volume 3195.395370
_symmetry_space_group_name_H-M "P M M N"
_symmetry_group_IT_number 59
_space_group.IT_coordinate_system_code '2'
_symmetry_cell_setting 'orthorhombic'
loop_
_space_group_symop_operation_xyz
x,y,z
1/2-x,1/2-y,z
1/2+x,-y,-z
-x,1/2+y,-z
-x,-y,-z
1/2+x,1/2+y,-z
1/2-x,y,z
x,1/2-y,z
loop_
_atom_site_type_symbol
_atom_site_label
_atom_site_fract_x
_atom_site_fract_y
_atom_site_fract_z
Si Si1 0.204383 0.944211 0.991611
Si Si2 0.123454 0.946733 0.372017
Si Si3 0.952735 0.053418 0.477069
Si Si4 0.546549 0.556585 0.030851
Si Si5 0.122107 0.551185 0.121234
Si Si6 0.296610 0.052612 0.512760
Si Si7 0.587981 0.442792 0.250346
Si Si8 0.181896 0.059641 0.755578
O O1 0.250000 0.011268 0.026430
O O2 0.204908 0.750000 0.010563
O O3 0.199093 0.973147 0.862904
O O4 0.163446 0.007280 0.055287
O O5 0.121546 0.750000 0.370462
O O6 0.081966 0.006710 0.436093
O O7 0.124300 0.001660 0.246863
O O8 0.165216 0.993845 0.438220
O O9 0.951983 0.250000 0.480001
O O10 0.937353 0.003372 0.357104
O O11 0.000000 0.000000 0.500000
O O12 0.546930 0.750000 0.047762
O O13 0.580355 0.510997 0.938281
O O14 0.500000 0.500000 0.000000
O O15 0.561628 0.471186 0.141663
O O16 0.121196 0.750000 0.117457
O O17 0.250000 0.001995 0.474771
O O18 0.298080 0.250000 0.514404
O O19 0.302796 0.997092 0.638108
O O20 0.598007 0.250000 0.260759
O O21 0.631669 0.538147 0.242919
O O22 0.193359 0.250000 0.763529
#
# Coordination Sequence:
#
# PCOD9452304 Si02
#       8
#     8   8   8   8   8   8   8   8
#     4  10  21  37  59  87 120 160 201 246 305 364
#     4  10  22  41  62  88 119 158 205 251 299 357
#     4  10  23  40  61  90 123 158 200 248 300 357
#     4  12  26  43  65  93 124 160 204 248 301 361
#     4  10  22  41  63  88 124 161 201 254 303 355
#     4  10  22  39  59  87 123 161 202 251 305 359
#     4  11  22  40  64  92 126 159 198 251 303 358
#     4  11  21  36  60  90 122 159 201 252 306 358
#
# _framework density 20.028821000000001
#
# number of rings (size 3 to 8) (size 9 to 14) (size 15 to 20)
#    0.000    1.500    2.500    2.250    1.750    4.000 
#    0.000    1.250    0.000    0.000    0.000    0.000 
#    0.000    0.000    0.000    0.000    0.000    0.000 
#
# Total GULP energy -357688.040249 kJ/mol
# GULP energy per Si atom -5588.875629 kJ/mol
# Density = 1.998323 g / cm^3
# Si number density = 20.028821 Si / 1000 Ang^3
#
#
#
# Elastic Constant Matrix: (Units=GPa)
#
#
# Indices 1 2 3 4 5 6 
#
# 1 188.1846 1.5755 78.2331 0.0000 0.0000 0.0000
# 2 1.5755 16.5464 3.0494 0.0000 0.0000 0.0000
# 3 78.2331 3.0494 142.5044 0.0000 0.0000 0.0000
# 4 0.0000 0.0000 0.0000 17.1453 0.0000 0.0000
# 5 0.0000 0.0000 0.0000 0.0000 36.6702 0.0000
# 6 0.0000 0.0000 0.0000 0.0000 0.0000 20.9055
#
#
#
# Elastic Compliance Matrix: (Units=1/GPa)
#
#
# Indices 1 2 3 4 5 6 
#
# 1 0.006885 0.000041 -0.003781 0.000000 0.000000 0.000000
# 2 0.000041 0.060676 -0.001321 0.000000 0.000000 0.000000
# 3 -0.003781 -0.001321 0.009121 0.000000 0.000000 0.000000
# 4 0.000000 0.000000 0.000000 0.058325 0.000000 0.000000
# 5 0.000000 0.000000 0.000000 0.000000 0.027270 0.000000
# 6 0.000000 0.000000 0.000000 0.000000 0.000000 0.047834
#
#
# Mechanical properties :
#
#
# Convention : Reuss Voigt Hill
#
# Bulk Modulus (GPa) = 15.02382 56.99459 36.00921
# Shear Modulus (GPa) = 20.62534 32.56934 26.59734
#
# Velocity S-wave (km/s) = 3.21250 4.03690 3.64806
# Velocity P-wave (km/s) = 4.61277 7.08850 5.98015
#
# Compressibility (1/GPa) = 0.06656096
#
# Stress axis : x y z
#
# Youngs Moduli (GPa) = 145.23497 16.48107 109.63408
#
# Poissons Ratio (x) = -0.00068 0.41451
# Poissons Ratio (y) = -0.00598 0.14483
# Poissons Ratio (z) = 0.54912 0.02177
#
# Static dielectric constant tensor:
#      x y z
#    x 1.690890 0.000000 0.000000 
#    y 0.000000 1.712370 0.000000 
#    z 0.000000 0.000000 1.687470 
# 
# From -- ./inp_files/19206.got.cif
#   From: 2010.05.17/outbox.cif.g08.bks.cpg/sg59_10_cif.got.tgz:19206.got - 2010.06.03 14:40:33.
