data_PCOD9452179
_publ_section_title
;
Structure prediction by ZEFSAII (Michael W. Deem and Ramdas Pophale) SiO2 
 PCOD9452179
Probable space group: P M M N
;
_chemical_formula_sum "Si O2"
_cell_formula_units_Z 48
_cell_length_a 8.956587
_cell_length_b 13.678348
_cell_length_c 18.773478
_cell_angle_alpha 90.000000
_cell_angle_beta 90.000000
_cell_angle_gamma 90.000000
_cell_volume 2299.963456
_symmetry_space_group_name_H-M "P M M N"
_symmetry_group_IT_number 59
_space_group.IT_coordinate_system_code '2'
_symmetry_cell_setting 'orthorhombic'
loop_
_space_group_symop_operation_xyz
x,y,z
1/2-x,1/2-y,z
1/2+x,-y,-z
-x,1/2+y,-z
-x,-y,-z
1/2+x,1/2+y,-z
1/2-x,y,z
x,1/2-y,z
loop_
_atom_site_type_symbol
_atom_site_label
_atom_site_fract_x
_atom_site_fract_y
_atom_site_fract_z
Si Si1 0.926283 0.364694 0.191686
Si Si2 0.923843 0.632424 0.114387
Si Si3 0.929331 0.142437 0.460921
Si Si4 0.074033 0.954943 0.252425
Si Si5 0.577859 0.868952 0.955724
Si Si6 0.071633 0.434353 0.602982
O O1 0.750000 0.379109 0.201546
O O2 0.959429 0.250000 0.201190
O O3 0.016584 0.433898 0.244199
O O4 0.974493 0.393252 0.111144
O O5 0.750000 0.602902 0.123555
O O6 0.927341 0.750000 0.115271
O O7 0.972688 0.600795 0.034856
O O8 0.020960 0.594772 0.179325
O O9 0.750000 0.139116 0.469489
O O10 0.968728 0.250000 0.432039
O O11 0.004663 0.126690 0.537691
O O12 0.969723 0.047922 0.414108
O O13 0.250000 0.950705 0.260016
O O14 0.995719 0.907889 0.320887
O O15 0.750000 0.901314 0.943957
O O16 0.581970 0.750000 0.957391
O O17 0.250000 0.425819 0.604094
#
# Coordination Sequence:
#
# PCOD9452179 Si02
#       6
#     8   8   8   8   8   8
#     4  10  21  37  57  80 108 145 189 236 285 337
#     4   9  19  37  59  81 108 145 189 237 287 337
#     4   9  19  38  64  90 114 143 179 219 267 323
#     4  12  25  38  55  81 115 153 189 230 279 330
#     4   8  15  31  55  80 106 138 181 235 288 336
#     4  10  21  38  59  85 117 148 182 225 269 320
#
# _framework density 20.869897000000002
#
# number of rings (size 3 to 8) (size 9 to 14) (size 15 to 20)
#    0.000    2.333    0.000    3.500    0.000    5.000 
#    0.000    3.333    0.000    0.000    0.000    0.000 
#    0.000    0.000    0.000    0.000    0.000    0.000 
#
# Total GULP energy -268199.753230 kJ/mol
# GULP energy per Si atom -5587.494859 kJ/mol
# Density = 2.082240 g / cm^3
# Si number density = 20.869897 Si / 1000 Ang^3
#
#
#
# Elastic Constant Matrix: (Units=GPa)
#
#
# Indices 1 2 3 4 5 6 
#
# 1 29.3443 -2.3113 9.2295 0.0000 0.0000 0.0000
# 2 -2.3113 43.6952 -13.6509 0.0000 0.0000 0.0000
# 3 9.2295 -13.6509 60.2605 0.0000 0.0000 0.0000
# 4 0.0000 0.0000 0.0000 11.0699 0.0000 0.0000
# 5 0.0000 0.0000 0.0000 0.0000 30.7254 0.0000
# 6 0.0000 0.0000 0.0000 0.0000 0.0000 25.8930
#
#
#
# Elastic Compliance Matrix: (Units=1/GPa)
#
#
# Indices 1 2 3 4 5 6 
#
# 1 0.035804 0.000194 -0.005440 0.000000 0.000000 0.000000
# 2 0.000194 0.024630 0.005550 0.000000 0.000000 0.000000
# 3 -0.005440 0.005550 0.018685 0.000000 0.000000 0.000000
# 4 0.000000 0.000000 0.000000 0.090335 0.000000 0.000000
# 5 0.000000 0.000000 0.000000 0.000000 0.032546 0.000000
# 6 0.000000 0.000000 0.000000 0.000000 0.000000 0.038620
#
#
# Mechanical properties :
#
#
# Convention : Reuss Voigt Hill
#
# Bulk Modulus (GPa) = 12.54265 13.31496 12.92880
# Shear Modulus (GPa) = 18.75549 22.87317 20.81433
#
# Velocity S-wave (km/s) = 3.00106 3.31416 3.16149
# Velocity P-wave (km/s) = 4.24635 4.58680 4.41985
#
# Compressibility (1/GPa) = 0.07972798
#
# Stress axis : x y z
#
# Youngs Moduli (GPa) = 27.92952 40.60111 53.51909
#
# Poissons Ratio (x) = -0.00790 0.29113
# Poissons Ratio (y) = -0.00543 -0.29701
# Poissons Ratio (z) = 0.15193 -0.22532
#
# Static dielectric constant tensor:
#      x y z
#    x 1.686090 0.000000 0.000000 
#    y 0.000000 1.811350 0.000000 
#    z 0.000000 0.000000 1.726400 
# 
# From -- ./inp_files/25483.got.cif
#   From: 2010.05.17/outbox.cif.g08.bks.cpg/sg59_13_cif.got.tgz:25483.got - 2010.06.03 14:40:33.
