data_PCOD9452610
_publ_section_title
;
Structure prediction by ZEFSAII (Michael W. Deem and Ramdas Pophale) SiO2 
 PCOD9452610
Probable space group: P M M N
;
_chemical_formula_sum "Si O2"
_cell_formula_units_Z 40
_cell_length_a 8.761210
_cell_length_b 15.900100
_cell_length_c 14.814700
_cell_angle_alpha 90.000000
_cell_angle_beta 90.000000
_cell_angle_gamma 90.000000
_cell_volume 2063.748674
_symmetry_space_group_name_H-M "P M M N"
_symmetry_group_IT_number 59
_space_group.IT_coordinate_system_code '2'
_symmetry_cell_setting 'orthorhombic'
loop_
_space_group_symop_operation_xyz
x,y,z
1/2-x,1/2-y,z
1/2+x,-y,-z
-x,1/2+y,-z
-x,-y,-z
1/2+x,1/2+y,-z
1/2-x,y,z
x,1/2-y,z
loop_
_atom_site_type_symbol
_atom_site_label
_atom_site_fract_x
_atom_site_fract_y
_atom_site_fract_z
Si Si1 0.432201 0.923924 0.395251
Si Si2 0.568852 0.108264 0.405069
Si Si3 0.930834 0.750000 0.721042
Si Si4 0.070430 0.410590 0.974131
Si Si5 0.072676 0.650646 0.202013
Si Si6 0.067660 0.750000 0.921483
O O1 0.250000 0.942584 0.399281
O O2 0.469321 0.877131 0.489029
O O3 0.461420 0.871440 0.305382
O O4 0.522295 0.011425 0.389827
O O5 0.750000 0.120157 0.392846
O O6 0.481375 0.169352 0.337605
O O7 0.750000 0.750000 0.734999
O O8 0.012772 0.750000 0.817918
O O9 0.250000 0.410231 0.991515
O O10 0.034270 0.395179 0.868968
O O11 0.000000 0.500000 0.000000
O O12 0.994983 0.333345 0.028718
O O13 0.250000 0.626683 0.184401
O O14 0.059531 0.750000 0.187982
O O15 0.250000 0.750000 0.926539
#
# Coordination Sequence:
#
# PCOD9452610 Si02
#       6
#     8   8   4   8   8   4
#     4   9  20  38  63  91 126 167 209 256 310 368
#     4  10  21  39  62  90 125 165 211 260 308 366
#     4  12  26  42  63  90 125 166 209 256 314 380
#     4  12  26  45  69  97 130 170 213 263 322 386
#     4  10  21  39  65  94 126 166 211 259 314 375
#     4  12  26  48  71  96 127 164 215 274 326 384
#
# _framework density 19.382204999999999
#
# number of rings (size 3 to 8) (size 9 to 14) (size 15 to 20)
#    0.000    1.400    1.000    4.200    4.200    1.600 
#    0.000    0.000    0.000    0.000    0.000    0.000 
#    0.000    0.000    0.000    0.000    0.000    0.000 
#
# Total GULP energy -223626.601374 kJ/mol
# GULP energy per Si atom -5590.665034 kJ/mol
# Density = 1.933809 g / cm^3
# Si number density = 19.382205 Si / 1000 Ang^3
#
#
#
# Elastic Constant Matrix: (Units=GPa)
#
#
# Indices 1 2 3 4 5 6 
#
# 1 127.1277 54.4664 55.0963 0.0000 0.0000 0.0000
# 2 54.4664 87.2295 43.9301 0.0000 0.0000 0.0000
# 3 55.0963 43.9301 108.3367 0.0000 0.0000 0.0000
# 4 0.0000 0.0000 0.0000 34.7030 0.0000 0.0000
# 5 0.0000 0.0000 0.0000 0.0000 31.3535 0.0000
# 6 0.0000 0.0000 0.0000 0.0000 0.0000 31.5827
#
#
#
# Elastic Compliance Matrix: (Units=1/GPa)
#
#
# Indices 1 2 3 4 5 6 
#
# 1 0.011871 -0.005494 -0.003809 0.000000 0.000000 0.000000
# 2 -0.005494 0.016948 -0.004079 0.000000 0.000000 0.000000
# 3 -0.003809 -0.004079 0.012822 0.000000 0.000000 0.000000
# 4 0.000000 0.000000 0.000000 0.028816 0.000000 0.000000
# 5 0.000000 0.000000 0.000000 0.000000 0.031894 0.000000
# 6 0.000000 0.000000 0.000000 0.000000 0.000000 0.031663
#
#
# Mechanical properties :
#
#
# Convention : Reuss Voigt Hill
#
# Bulk Modulus (GPa) = 67.21591 69.96440 68.59016
# Shear Modulus (GPa) = 30.16837 30.80791 30.48814
#
# Velocity S-wave (km/s) = 3.94953 3.99117 3.97040
# Velocity P-wave (km/s) = 7.45338 7.57726 7.51557
#
# Compressibility (1/GPa) = 0.01487743
#
# Stress axis : x y z
#
# Youngs Moduli (GPa) = 84.24036 59.00287 77.99299
#
# Poissons Ratio (x) = 0.32414 0.29711
# Poissons Ratio (y) = 0.46279 0.31810
# Poissons Ratio (z) = 0.32091 0.24065
#
# Static dielectric constant tensor:
#      x y z
#    x 1.664850 0.000000 0.000000 
#    y 0.000000 1.646900 0.000000 
#    z 0.000000 0.000000 1.672090 
# 
# From -- ./inp_files/20020.got.cif
#   From: 2010.05.17/outbox.cif.g08.bks.cpg/sg59_11_cif.got.tgz:20020.got - 2010.06.03 14:40:33.
