data_PCOD9452846
_publ_section_title
;
Structure prediction by ZEFSAII (Michael W. Deem and Ramdas Pophale) SiO2 
 PCOD9452846
Probable space group: P M M N
;
_chemical_formula_sum "Si O2"
_cell_formula_units_Z 48
_cell_length_a 14.927478
_cell_length_b 8.649371
_cell_length_c 20.141426
_cell_angle_alpha 90.000000
_cell_angle_beta 90.000000
_cell_angle_gamma 90.000000
_cell_volume 2600.525883
_symmetry_space_group_name_H-M "P M M N"
_symmetry_group_IT_number 59
_space_group.IT_coordinate_system_code '2'
_symmetry_cell_setting 'orthorhombic'
loop_
_space_group_symop_operation_xyz
x,y,z
1/2-x,1/2-y,z
1/2+x,-y,-z
-x,1/2+y,-z
-x,-y,-z
1/2+x,1/2+y,-z
1/2-x,y,z
x,1/2-y,z
loop_
_atom_site_type_symbol
_atom_site_label
_atom_site_fract_x
_atom_site_fract_y
_atom_site_fract_z
Si Si1 0.647968 0.561655 0.414653
Si Si2 0.750000 0.936241 0.018391
Si Si3 0.357282 0.432802 0.435657
Si Si4 0.946676 0.935633 0.063680
Si Si5 0.063275 0.066283 0.182810
Si Si6 0.015717 0.565887 0.325509
Si Si7 0.250000 0.934182 0.130646
O O1 0.750000 0.510876 0.402434
O O2 0.648722 0.750000 0.415846
O O3 0.620154 0.514527 0.489272
O O4 0.577370 0.513498 0.359393
O O5 0.750000 0.750000 0.009356
O O6 0.841981 0.977660 0.055655
O O7 0.750000 0.012073 0.945892
O O8 0.250000 0.447052 0.428847
O O9 0.379145 0.250000 0.429415
O O10 0.408714 0.525953 0.379643
O O11 0.953758 0.750000 0.063945
O O12 0.992818 0.001357 0.129318
O O13 0.000000 0.000000 0.000000
O O14 0.067220 0.250000 0.177074
O O15 0.035900 0.016352 0.256497
O O16 0.160608 0.998388 0.164854
O O17 0.012210 0.750000 0.314589
O O18 0.250000 0.750000 0.133845
#
# Coordination Sequence:
#
# PCOD9452846 Si02
#       7
#     8   4   8   8   8   8   4
#     4   8  16  34  59  84 111 149 195 244 297 354
#     4  10  22  40  66  94 124 157 194 241 300 356
#     4   9  18  34  57  84 115 151 192 237 295 358
#     4  11  22  40  65  94 124 158 201 247 294 350
#     4  12  26  43  61  85 124 164 198 241 300 361
#     4  11  22  36  57  85 117 152 197 247 296 349
#     4  12  24  40  66  94 120 151 196 247 296 354
#
# _framework density 18.457806000000001
#
# number of rings (size 3 to 8) (size 9 to 14) (size 15 to 20)
#    0.000    1.667    1.667    4.750    1.167    1.000 
#    1.500    0.833    0.000    3.500    0.000    0.000 
#    0.000    0.000    0.000    0.000    0.000    0.000 
#
# Total GULP energy -268208.696127 kJ/mol
# GULP energy per Si atom -5587.681169 kJ/mol
# Density = 1.841579 g / cm^3
# Si number density = 18.457806 Si / 1000 Ang^3
#
#
#
# Elastic Constant Matrix: (Units=GPa)
#
#
# Indices 1 2 3 4 5 6 
#
# 1 143.7028 52.2069 98.6492 0.0000 0.0000 0.0000
# 2 52.2069 61.0186 44.8557 0.0000 0.0000 0.0000
# 3 98.6492 44.8557 153.8042 0.0000 0.0000 0.0000
# 4 0.0000 0.0000 0.0000 24.2394 0.0000 0.0000
# 5 0.0000 0.0000 0.0000 0.0000 -44.6224 0.0000
# 6 0.0000 0.0000 0.0000 0.0000 0.0000 24.6048
#
#
#
# Elastic Compliance Matrix: (Units=1/GPa)
#
#
# Indices 1 2 3 4 5 6 
#
# 1 0.014499 -0.007089 -0.007232 0.000000 0.000000 0.000000
# 2 -0.007089 0.024326 -0.002548 0.000000 0.000000 0.000000
# 3 -0.007232 -0.002548 0.011884 0.000000 0.000000 0.000000
# 4 0.000000 0.000000 0.000000 0.041255 0.000000 0.000000
# 5 0.000000 0.000000 0.000000 0.000000 -0.022410 0.000000
# 6 0.000000 0.000000 0.000000 0.000000 0.000000 0.040643
#
#
# Mechanical properties :
#
#
# Convention : Reuss Voigt Hill
#
# Bulk Modulus (GPa) = 58.92292 83.32767 71.12529
# Shear Modulus (GPa) = 33.42452 11.69860 22.56156
#
# Velocity S-wave (km/s) = 4.26004 2.52027 3.49998
# Velocity P-wave (km/s) = 7.49597 7.32885 7.41288
#
# Compressibility (1/GPa) = 0.01697133
#
# Stress axis : x y z
#
# Youngs Moduli (GPa) = 68.97135 41.10748 84.15012
#
# Poissons Ratio (x) = 0.29139 0.60858
# Poissons Ratio (y) = 0.48891 0.21442
# Poissons Ratio (z) = 0.49881 0.10474
#
# Static dielectric constant tensor:
#      x y z
#    x 1.624050 0.000000 0.000000 
#    y 0.000000 1.639160 0.000000 
#    z 0.000000 0.000000 1.599890 
# 
# From -- ./inp_files/27415.got.cif
#   From: 2010.05.17/outbox.cif.g08.bks.cpg/sg59_14_cif.got.tgz:27415.got - 2010.06.03 14:40:33.
