data_PCOD9452616
_publ_section_title
;
Structure prediction by ZEFSAII (Michael W. Deem and Ramdas Pophale) SiO2 
 PCOD9452616
Probable space group: P M M N
;
_chemical_formula_sum "Si O2"
_cell_formula_units_Z 48
_cell_length_a 14.763811
_cell_length_b 8.723983
_cell_length_c 18.833617
_cell_angle_alpha 90.000000
_cell_angle_beta 90.000000
_cell_angle_gamma 90.000000
_cell_volume 2425.755484
_symmetry_space_group_name_H-M "P M M N"
_symmetry_group_IT_number 59
_space_group.IT_coordinate_system_code '2'
_symmetry_cell_setting 'orthorhombic'
loop_
_space_group_symop_operation_xyz
x,y,z
1/2-x,1/2-y,z
1/2+x,-y,-z
-x,1/2+y,-z
-x,-y,-z
1/2+x,1/2+y,-z
1/2-x,y,z
x,1/2-y,z
loop_
_atom_site_type_symbol
_atom_site_label
_atom_site_fract_x
_atom_site_fract_y
_atom_site_fract_z
Si Si1 0.468244 0.069457 0.830394
Si Si2 0.642531 0.428338 0.040071
Si Si3 0.141349 0.070435 0.553870
Si Si4 0.852471 0.563258 0.607131
Si Si5 0.354981 0.068057 0.112878
Si Si6 0.467988 0.932288 0.682024
O O1 0.458682 0.250000 0.838190
O O2 0.413360 0.987088 0.893131
O O3 0.572609 0.018993 0.839533
O O4 0.436221 0.014844 0.753246
O O5 0.750000 0.440884 0.054684
O O6 0.621431 0.250000 0.025802
O O7 0.624153 0.524639 0.968915
O O8 0.250000 0.062408 0.561584
O O9 0.115175 0.250000 0.560246
O O10 0.121520 0.017278 0.473324
O O11 0.092678 0.974589 0.614372
O O12 0.750000 0.511736 0.622858
O O13 0.850682 0.750000 0.606274
O O14 0.929977 0.516793 0.661494
O O15 0.250000 0.025744 0.126149
O O16 0.364366 0.250000 0.123176
O O17 0.467939 0.750000 0.693632
#
# Coordination Sequence:
#
# PCOD9452616 Si02
#       6
#     8   8   8   8   8   8
#     4  12  25  39  56  80 115 154 190 230 277 331
#     4  10  21  39  63  88 113 143 184 233 280 329
#     4   9  18  35  58  81 107 142 182 223 272 331
#     4   8  16  33  57  82 107 139 180 224 272 329
#     4  10  21  39  63  88 114 146 185 228 275 329
#     4  11  22  35  54  81 112 145 183 228 278 329
#
# _framework density 19.787649999999999
#
# number of rings (size 3 to 8) (size 9 to 14) (size 15 to 20)
#    0.000    2.000    0.000    5.000    0.000    3.667 
#    0.000    2.500    0.000    3.500    0.000    0.000 
#    0.000    0.000    0.000    0.000    0.000    0.000 
#
# Total GULP energy -268225.005840 kJ/mol
# GULP energy per Si atom -5588.020955 kJ/mol
# Density = 1.974261 g / cm^3
# Si number density = 19.787650 Si / 1000 Ang^3
#
#
#
# Elastic Constant Matrix: (Units=GPa)
#
#
# Indices 1 2 3 4 5 6 
#
# 1 21.1000 6.1214 7.8788 0.0000 0.0000 0.0000
# 2 6.1214 31.2329 -5.3358 0.0000 0.0000 0.0000
# 3 7.8788 -5.3358 32.1361 0.0000 0.0000 0.0000
# 4 0.0000 0.0000 0.0000 23.7054 0.0000 0.0000
# 5 0.0000 0.0000 0.0000 0.0000 4.6889 0.0000
# 6 0.0000 0.0000 0.0000 0.0000 0.0000 26.1859
#
#
#
# Elastic Compliance Matrix: (Units=1/GPa)
#
#
# Indices 1 2 3 4 5 6 
#
# 1 0.057639 -0.014111 -0.016474 0.000000 0.000000 0.000000
# 2 -0.014111 0.036407 0.009505 0.000000 0.000000 0.000000
# 3 -0.016474 0.009505 0.036735 0.000000 0.000000 0.000000
# 4 0.000000 0.000000 0.000000 0.042185 0.000000 0.000000
# 5 0.000000 0.000000 0.000000 0.000000 0.213269 0.000000
# 6 0.000000 0.000000 0.000000 0.000000 0.000000 0.038189
#
#
# Mechanical properties :
#
#
# Convention : Reuss Voigt Hill
#
# Bulk Modulus (GPa) = 11.28430 11.31086 11.29758
# Shear Modulus (GPa) = 10.07813 15.96967 13.02390
#
# Velocity S-wave (km/s) = 2.25925 2.84395 2.56829
# Velocity P-wave (km/s) = 3.53846 4.06357 3.81007
#
# Compressibility (1/GPa) = 0.08861871
#
# Stress axis : x y z
#
# Youngs Moduli (GPa) = 17.34944 27.46730 27.22217
#
# Poissons Ratio (x) = 0.38760 0.44846
# Poissons Ratio (y) = 0.24482 -0.25873
# Poissons Ratio (z) = 0.28582 -0.26106
#
# Static dielectric constant tensor:
#      x y z
#    x 1.708740 0.000000 0.000000 
#    y 0.000000 1.815740 0.000000 
#    z 0.000000 0.000000 1.671410 
# 
# From -- ./inp_files/25415.got.cif
#   From: 2010.05.17/outbox.cif.g08.bks.cpg/sg59_13_cif.got.tgz:25415.got - 2010.06.03 14:40:33.
