data_PCOD9452915
_publ_section_title
;
Structure prediction by ZEFSAII (Michael W. Deem and Ramdas Pophale) SiO2 
 PCOD9452915
Probable space group: P M M N
;
_chemical_formula_sum "Si O2"
_cell_formula_units_Z 64
_cell_length_a 23.650401
_cell_length_b 8.993574
_cell_length_c 15.651250
_cell_angle_alpha 90.000000
_cell_angle_beta 90.000000
_cell_angle_gamma 90.000000
_cell_volume 3329.046410
_symmetry_space_group_name_H-M "P M M N"
_symmetry_group_IT_number 59
_space_group.IT_coordinate_system_code '2'
_symmetry_cell_setting 'orthorhombic'
loop_
_space_group_symop_operation_xyz
x,y,z
1/2-x,1/2-y,z
1/2+x,-y,-z
-x,1/2+y,-z
-x,-y,-z
1/2+x,1/2+y,-z
1/2-x,y,z
x,1/2-y,z
loop_
_atom_site_type_symbol
_atom_site_label
_atom_site_fract_x
_atom_site_fract_y
_atom_site_fract_z
Si Si1 0.501783 0.426511 0.906510
Si Si2 0.629971 0.073922 0.345221
Si Si3 0.389987 0.928080 0.345123
Si Si4 0.498217 0.926511 0.593490
Si Si5 0.129971 0.573922 0.154779
Si Si6 0.816348 0.925654 0.506361
Si Si7 0.889987 0.428080 0.154877
Si Si8 0.683652 0.574346 0.006361
O O1 0.492074 0.250000 0.913588
O O2 0.563822 0.449392 0.867418
O O3 0.451994 0.500357 0.852070
O O4 0.500000 0.500000 0.000000
O O5 0.641708 0.250000 0.356102
O O6 0.563822 0.050608 0.367418
O O7 0.637774 0.034250 0.246082
O O8 0.666158 0.982430 0.412754
O O9 0.395237 0.750000 0.350331
O O10 0.362226 0.965749 0.253918
O O11 0.451994 0.999643 0.352070
O O12 0.353514 0.988375 0.423836
O O13 0.507926 0.750000 0.586412
O O14 0.500000 0.000000 0.500000
O O15 0.141708 0.750000 0.143898
O O16 0.166158 0.482429 0.087246
O O17 0.750000 0.952019 0.520742
O O18 0.827678 0.750000 0.513368
O O19 0.895237 0.250000 0.149669
O O20 0.853514 0.488375 0.076164
O O21 0.750000 0.547981 0.020741
O O22 0.672322 0.750000 0.013368
#
# Coordination Sequence:
#
# PCOD9452915 Si02
#       8
#     8   8   8   8   8   8   8   8
#     4  11  21  36  61  93 126 162 199 244 302 362
#     4  10  23  41  63  91 123 160 202 247 301 362
#     4  11  23  40  63  92 124 161 202 246 301 363
#     4  11  21  36  61  93 126 162 199 244 302 362
#     4  10  23  41  63  91 123 160 202 247 301 362
#     4  11  25  43  63  88 119 159 206 255 305 357
#     4  11  23  40  63  92 124 161 202 246 301 363
#     4  11  25  43  63  88 119 159 206 255 305 357
#
# _framework density 19.224723000000001
#
# number of rings (size 3 to 8) (size 9 to 14) (size 15 to 20)
#    0.000    1.250    2.500    3.000    0.000    6.000 
#    0.000    5.000    0.000    0.000    0.000    0.000 
#    0.000    0.000    0.000    0.000    0.000    0.000 
#
# Total GULP energy -357924.925127 kJ/mol
# GULP energy per Si atom -5592.576955 kJ/mol
# Density = 1.918097 g / cm^3
# Si number density = 19.224723 Si / 1000 Ang^3
#
#
#
# Elastic Constant Matrix: (Units=GPa)
#
#
# Indices 1 2 3 4 5 6 
#
# 1 32.2471 26.2353 -6.0385 0.0000 0.0000 0.0000
# 2 26.2353 57.9735 20.4195 0.0000 0.0000 0.0000
# 3 -6.0385 20.4195 73.9558 0.0000 0.0000 0.0000
# 4 0.0000 0.0000 0.0000 22.8761 0.0000 0.0000
# 5 0.0000 0.0000 0.0000 0.0000 6.6090 0.0000
# 6 0.0000 0.0000 0.0000 0.0000 0.0000 24.6958
#
#
#
# Elastic Compliance Matrix: (Units=1/GPa)
#
#
# Indices 1 2 3 4 5 6 
#
# 1 0.059249 -0.031588 0.013559 0.000000 0.000000 0.000000
# 2 -0.031588 0.035949 -0.012505 0.000000 0.000000 0.000000
# 3 0.013559 -0.012505 0.018081 0.000000 0.000000 0.000000
# 4 0.000000 0.000000 0.000000 0.043714 0.000000 0.000000
# 5 0.000000 0.000000 0.000000 0.000000 0.151309 0.000000
# 6 0.000000 0.000000 0.000000 0.000000 0.000000 0.040493
#
#
# Mechanical properties :
#
#
# Convention : Reuss Voigt Hill
#
# Bulk Modulus (GPa) = 19.15286 27.26766 23.21026
# Shear Modulus (GPa) = 11.70231 19.07352 15.38792
#
# Velocity S-wave (km/s) = 2.46988 3.15323 2.83224
# Velocity P-wave (km/s) = 4.25653 5.24134 4.77439
#
# Compressibility (1/GPa) = 0.05221152
#
# Stress axis : x y z
#
# Youngs Moduli (GPa) = 16.87791 27.81744 55.30559
#
# Poissons Ratio (x) = 0.87871 -0.74991
# Poissons Ratio (y) = 0.53315 0.69159
# Poissons Ratio (z) = -0.22885 0.34785
#
# Static dielectric constant tensor:
#      x y z
#    x 1.650820 0.000000 0.000000 
#    y 0.000000 1.641910 0.000000 
#    z 0.000000 0.000000 1.660530 
# 
# From -- ./inp_files/24675.got.cif
#   From: 2010.05.17/outbox.cif.g08.bks.cpg/sg59_13_cif.got.tgz:24675.got - 2010.06.03 14:40:33.
