data_PCOD9452365
_publ_section_title
;
Structure prediction by ZEFSAII (Michael W. Deem and Ramdas Pophale) SiO2 
 PCOD9452365
Probable space group: P M M N
;
_chemical_formula_sum "Si O2"
_cell_formula_units_Z 46
_cell_length_a 16.331387
_cell_length_b 10.084081
_cell_length_c 13.374526
_cell_angle_alpha 90.000000
_cell_angle_beta 90.000000
_cell_angle_gamma 90.000000
_cell_volume 2202.610956
_symmetry_space_group_name_H-M "P M M N"
_symmetry_group_IT_number 59
_space_group.IT_coordinate_system_code '2'
_symmetry_cell_setting 'orthorhombic'
loop_
_space_group_symop_operation_xyz
x,y,z
1/2-x,1/2-y,z
1/2+x,-y,-z
-x,1/2+y,-z
-x,-y,-z
1/2+x,1/2+y,-z
1/2-x,y,z
x,1/2-y,z
loop_
_atom_site_type_symbol
_atom_site_label
_atom_site_fract_x
_atom_site_fract_y
_atom_site_fract_z
Si Si1 0.250000 0.908130 0.075082
Si Si2 0.750000 0.496355 0.710238
Si Si3 0.159160 0.899165 0.549510
Si Si4 0.575963 0.408845 0.039116
Si Si5 0.921162 0.096235 0.639336
Si Si6 0.424222 0.511710 0.731600
Si Si7 0.158350 0.250000 0.642731
Si Si8 0.750000 0.750000 0.560379
O O1 0.250000 0.750000 0.104040
O O2 0.250000 0.006334 0.170123
O O3 0.335934 0.929107 0.015705
O O4 0.668921 0.414823 0.684582
O O5 0.750000 0.625315 0.637378
O O6 0.250000 0.961710 0.549130
O O7 0.168373 0.750000 0.511137
O O8 0.092995 0.957477 0.473356
O O9 0.123782 0.890571 0.659216
O O10 0.556965 0.250000 0.031288
O O11 0.587030 0.451295 0.154414
O O12 0.500000 0.500000 0.000000
O O13 0.949522 0.250000 0.640720
O O14 0.981066 0.003994 0.702589
O O15 0.385670 0.376141 0.688871
O O16 0.250000 0.250000 0.683715
O O17 0.174015 0.250000 0.521299
#
# Coordination Sequence:
#
# PCOD9452365 Si02
#       8
#     4   4   8   8   8   8   4   2
#     4  10  24  47  75 104 132 186 246 304 373 434
#     4  12  22  44  67  91 135 183 225 283 349 424
#     4  10  21  37  61  96 134 174 228 285 342 423
#     4  11  27  50  76 106 146 184 248 317 367 431
#     4  11  22  39  64  96 131 178 230 283 345 428
#     4  12  23  42  68  99 137 185 239 284 364 424
#     4  10  24  42  67 101 146 190 225 284 358 437
#     4  10  26  44  64 102 152 188 226 284 362 430
#
# _framework density 20.884305000000001
#
# number of rings (size 3 to 8) (size 9 to 14) (size 15 to 20)
#    0.261    0.870    1.739    4.435    3.652    1.391 
#    7.826    0.000    0.000    0.000    0.000    0.000 
#    0.000    0.000    0.000    0.000    0.000    0.000 
#
# Total GULP energy -256386.792723 kJ/mol
# GULP energy per Si atom -5573.625929 kJ/mol
# Density = 2.083677 g / cm^3
# Si number density = 20.884305 Si / 1000 Ang^3
#
#
#
# Elastic Constant Matrix: (Units=GPa)
#
#
# Indices 1 2 3 4 5 6 
#
# 1 139.0543 43.3969 61.2194 0.0000 0.0000 0.0000
# 2 43.3969 114.0737 48.8732 0.0000 0.0000 0.0000
# 3 61.2194 48.8732 175.9834 0.0000 0.0000 0.0000
# 4 0.0000 0.0000 0.0000 18.8448 0.0000 0.0000
# 5 0.0000 0.0000 0.0000 0.0000 3.7354 0.0000
# 6 0.0000 0.0000 0.0000 0.0000 0.0000 34.1775
#
#
#
# Elastic Compliance Matrix: (Units=1/GPa)
#
#
# Indices 1 2 3 4 5 6 
#
# 1 0.009023 -0.002370 -0.002481 0.000000 0.000000 0.000000
# 2 -0.002370 0.010573 -0.002112 0.000000 0.000000 0.000000
# 3 -0.002481 -0.002112 0.007132 0.000000 0.000000 0.000000
# 4 0.000000 0.000000 0.000000 0.053065 0.000000 0.000000
# 5 0.000000 0.000000 0.000000 0.000000 0.267711 0.000000
# 6 0.000000 0.000000 0.000000 0.000000 0.000000 0.029259
#
#
# Mechanical properties :
#
#
# Convention : Reuss Voigt Hill
#
# Bulk Modulus (GPa) = 78.10764 81.78783 79.94774
# Shear Modulus (GPa) = 12.65966 29.72635 21.19300
#
# Velocity S-wave (km/s) = 2.46474 3.77687 3.18902
# Velocity P-wave (km/s) = 6.75139 7.63328 7.20584
#
# Compressibility (1/GPa) = 0.01280285
#
# Stress axis : x y z
#
# Youngs Moduli (GPa) = 110.82546 94.58443 140.21695
#
# Poissons Ratio (x) = 0.22415 0.34785
# Poissons Ratio (y) = 0.26264 0.29610
# Poissons Ratio (z) = 0.27493 0.19974
#
# Static dielectric constant tensor:
#      x y z
#    x 1.788790 0.000000 0.000000 
#    y 0.000000 0.559870 0.000000 
#    z 0.000000 0.000000 1.762540 
# 
# From -- ./inp_files/17674.got.cif
#   From: 2010.05.17/outbox.cif.g08.bks.cpg/sg59_9_cif.got.tgz:17674.got - 2010.06.03 14:40:33.
