data_PCOD9452888
_publ_section_title
;
Structure prediction by ZEFSAII (Michael W. Deem and Ramdas Pophale) SiO2 
 PCOD9452888
Probable space group: P M M N
;
_chemical_formula_sum "Si O2"
_cell_formula_units_Z 48
_cell_length_a 8.632277
_cell_length_b 16.110479
_cell_length_c 17.155057
_cell_angle_alpha 90.000000
_cell_angle_beta 90.000000
_cell_angle_gamma 90.000000
_cell_volume 2385.755790
_symmetry_space_group_name_H-M "P M M N"
_symmetry_group_IT_number 59
_space_group.IT_coordinate_system_code '2'
_symmetry_cell_setting 'orthorhombic'
loop_
_space_group_symop_operation_xyz
x,y,z
1/2-x,1/2-y,z
1/2+x,-y,-z
-x,1/2+y,-z
-x,-y,-z
1/2+x,1/2+y,-z
1/2-x,y,z
x,1/2-y,z
loop_
_atom_site_type_symbol
_atom_site_label
_atom_site_fract_x
_atom_site_fract_y
_atom_site_fract_z
Si Si1 0.431976 0.572189 0.157985
Si Si2 0.436680 0.156239 0.693953
Si Si3 0.932924 0.107964 0.161514
Si Si4 0.564670 0.999152 0.412971
Si Si5 0.429765 0.348351 0.993520
Si Si6 0.935140 0.658654 0.676303
O O1 0.250000 0.553692 0.164479
O O2 0.483304 0.637625 0.223476
O O3 0.530165 0.489227 0.172538
O O4 0.472767 0.605205 0.072338
O O5 0.250000 0.150735 0.704120
O O6 0.472417 0.250000 0.667470
O O7 0.484851 0.083549 0.634392
O O8 0.750000 0.123102 0.161583
O O9 0.011777 0.153154 0.234123
O O10 0.005440 0.134110 0.079269
O O11 0.750000 0.998425 0.415314
O O12 0.509215 0.081608 0.368603
O O13 0.500000 0.000000 0.500000
O O14 0.250000 0.375133 0.988970
O O15 0.436500 0.250000 0.978838
O O16 0.750000 0.651061 0.672248
O O17 0.979208 0.750000 0.645144
#
# Coordination Sequence:
#
# PCOD9452888 Si02
#       6
#     8   8   8   8   8   8
#     4  12  24  39  62  91 126 167 215 267 321 380
#     4  10  22  42  67  95 129 171 216 263 322 387
#     4  12  24  40  63  91 126 168 216 268 323 382
#     4  11  24  43  69  99 134 174 214 265 324 387
#     4  11  24  41  60  86 124 168 215 267 322 379
#     4  11  24  43  68  98 133 173 217 268 327 387
#
# _framework density 20.119410999999999
#
# number of rings (size 3 to 8) (size 9 to 14) (size 15 to 20)
#    0.000    0.833    1.667    6.000    0.000    8.333 
#    0.000    1.667    0.000    0.000    0.000    0.000 
#    0.000    0.000    0.000    0.000    0.000    0.000 
#
# Total GULP energy -268628.140812 kJ/mol
# GULP energy per Si atom -5596.419600 kJ/mol
# Density = 2.007362 g / cm^3
# Si number density = 20.119411 Si / 1000 Ang^3
#
#
#
# Elastic Constant Matrix: (Units=GPa)
#
#
# Indices 1 2 3 4 5 6 
#
# 1 44.0290 11.5164 11.4573 0.0000 0.0000 0.0000
# 2 11.5164 111.7971 37.5720 0.0000 0.0000 0.0000
# 3 11.4573 37.5720 115.5040 0.0000 0.0000 0.0000
# 4 0.0000 0.0000 0.0000 2.5280 0.0000 0.0000
# 5 0.0000 0.0000 0.0000 0.0000 38.3090 0.0000
# 6 0.0000 0.0000 0.0000 0.0000 0.0000 27.4166
#
#
#
# Elastic Compliance Matrix: (Units=1/GPa)
#
#
# Indices 1 2 3 4 5 6 
#
# 1 0.023650 -0.001850 -0.001744 0.000000 0.000000 0.000000
# 2 -0.001850 0.010187 -0.003130 0.000000 0.000000 0.000000
# 3 -0.001744 -0.003130 0.009849 0.000000 0.000000 0.000000
# 4 0.000000 0.000000 0.000000 0.395576 0.000000 0.000000
# 5 0.000000 0.000000 0.000000 0.000000 0.026104 0.000000
# 6 0.000000 0.000000 0.000000 0.000000 0.000000 0.036474
#
#
# Mechanical properties :
#
#
# Convention : Reuss Voigt Hill
#
# Bulk Modulus (GPa) = 33.07164 43.60238 38.33701
# Shear Modulus (GPa) = 9.51713 27.70301 18.61007
#
# Velocity S-wave (km/s) = 2.17729 3.71473 3.04465
# Velocity P-wave (km/s) = 4.77432 6.33386 5.60856
#
# Compressibility (1/GPa) = 0.03023738
#
# Stress axis : x y z
#
# Youngs Moduli (GPa) = 42.28314 98.16084 101.53358
#
# Poissons Ratio (x) = 0.18161 0.17709
# Poissons Ratio (y) = 0.07823 0.31783
# Poissons Ratio (z) = 0.07375 0.30727
#
# Static dielectric constant tensor:
#      x y z
#    x 1.664750 0.000000 0.000000 
#    y 0.000000 1.730700 0.000000 
#    z 0.000000 0.000000 1.677740 
# 
# From -- ./inp_files/25429.got.cif
#   From: 2010.05.17/outbox.cif.g08.bks.cpg/sg59_13_cif.got.tgz:25429.got - 2010.06.03 14:40:33.
