data_PCOD9452766
_publ_section_title
;
Structure prediction by ZEFSAII (Michael W. Deem and Ramdas Pophale) SiO2 
 PCOD9452766
Probable space group: P M M N
;
_chemical_formula_sum "Si O2"
_cell_formula_units_Z 40
_cell_length_a 8.579069
_cell_length_b 19.191275
_cell_length_c 12.854185
_cell_angle_alpha 90.000000
_cell_angle_beta 90.000000
_cell_angle_gamma 90.000000
_cell_volume 2116.355083
_symmetry_space_group_name_H-M "P M M N"
_symmetry_group_IT_number 59
_space_group.IT_coordinate_system_code '2'
_symmetry_cell_setting 'orthorhombic'
loop_
_space_group_symop_operation_xyz
x,y,z
1/2-x,1/2-y,z
1/2+x,-y,-z
-x,1/2+y,-z
-x,-y,-z
1/2+x,1/2+y,-z
1/2-x,y,z
x,1/2-y,z
loop_
_atom_site_type_symbol
_atom_site_label
_atom_site_fract_x
_atom_site_fract_y
_atom_site_fract_z
Si Si1 0.063195 0.431463 0.715899
Si Si2 0.938234 0.169487 0.134535
Si Si3 0.436848 0.416576 0.330111
Si Si4 0.563396 0.429364 0.948023
Si Si5 0.559887 0.829946 0.466806
O O1 0.250000 0.431875 0.718996
O O2 0.011119 0.371151 0.636591
O O3 0.006691 0.506258 0.674301
O O4 0.000910 0.421449 0.832227
O O5 0.750000 0.166225 0.144129
O O6 0.986292 0.250000 0.139742
O O7 0.011106 0.125128 0.227683
O O8 0.980159 0.133672 0.025093
O O9 0.250000 0.421913 0.331712
O O10 0.488702 0.373452 0.431616
O O11 0.750000 0.433775 0.943414
O O12 0.500000 0.500000 0.000000
O O13 0.750000 0.828807 0.467577
O O14 0.506346 0.750000 0.470155
#
# Coordination Sequence:
#
# PCOD9452766 Si02
#       5
#     8   8   8   8   8
#     4  11  22  37  60  86 117 155 196 242 292 349
#     4  10  22  39  59  85 118 153 189 238 299 352
#     4  11  21  36  61  88 116 152 197 245 290 346
#     4  11  22  38  60  85 117 154 193 238 288 345
#     4   9  20  38  58  84 118 154 194 243 295 346
#
# _framework density 18.90042
#
# number of rings (size 3 to 8) (size 9 to 14) (size 15 to 20)
#    0.000    1.600    2.000    3.000    0.000    2.800 
#    0.000    3.000    0.000    6.600    0.000    0.000 
#    0.000    0.000    0.000    0.000    0.000    0.000 
#
# Total GULP energy -223552.195293 kJ/mol
# GULP energy per Si atom -5588.804882 kJ/mol
# Density = 1.885740 g / cm^3
# Si number density = 18.900420 Si / 1000 Ang^3
#
#
#
# Elastic Constant Matrix: (Units=GPa)
#
#
# Indices 1 2 3 4 5 6 
#
# 1 30.5939 20.2968 30.4433 0.0000 0.0000 0.0000
# 2 20.2968 72.8350 62.6431 0.0000 0.0000 0.0000
# 3 30.4433 62.6431 172.9931 0.0000 0.0000 0.0000
# 4 0.0000 0.0000 0.0000 27.6725 0.0000 0.0000
# 5 0.0000 0.0000 0.0000 0.0000 22.5835 0.0000
# 6 0.0000 0.0000 0.0000 0.0000 0.0000 10.7197
#
#
#
# Elastic Compliance Matrix: (Units=1/GPa)
#
#
# Indices 1 2 3 4 5 6 
#
# 1 0.042514 -0.007861 -0.004635 0.000000 0.000000 0.000000
# 2 -0.007861 0.021393 -0.006363 0.000000 0.000000 0.000000
# 3 -0.004635 -0.006363 0.008901 0.000000 0.000000 0.000000
# 4 0.000000 0.000000 0.000000 0.036137 0.000000 0.000000
# 5 0.000000 0.000000 0.000000 0.000000 0.044280 0.000000
# 6 0.000000 0.000000 0.000000 0.000000 0.000000 0.093286
#
#
# Mechanical properties :
#
#
# Convention : Reuss Voigt Hill
#
# Bulk Modulus (GPa) = 28.49905 55.90981 42.20443
# Shear Modulus (GPa) = 16.89619 23.06440 19.98029
#
# Velocity S-wave (km/s) = 2.99316 3.49709 3.25489
# Velocity P-wave (km/s) = 5.20159 6.77876 6.04186
#
# Compressibility (1/GPa) = 0.03508888
#
# Stress axis : x y z
#
# Youngs Moduli (GPa) = 23.52192 46.74388 112.35285
#
# Poissons Ratio (x) = 0.36744 0.52076
# Poissons Ratio (y) = 0.18490 0.71495
# Poissons Ratio (z) = 0.10903 0.29745
#
# Static dielectric constant tensor:
#      x y z
#    x 1.646730 0.000000 0.000000 
#    y 0.000000 1.632370 0.000000 
#    z 0.000000 0.000000 1.637720 
# 
# From -- ./inp_files/13819.got.cif
#   From: 2010.05.17/outbox.cif.g08.bks.cpg/sg59_7_cif.got.tgz:13819.got - 2010.06.03 14:40:33.
