data_PCOD9452450
_publ_section_title
;
Structure prediction by ZEFSAII (Michael W. Deem and Ramdas Pophale) SiO2 
 PCOD9452450
Probable space group: P M M N
;
_chemical_formula_sum "Si O2"
_cell_formula_units_Z 56
_cell_length_a 20.853368
_cell_length_b 8.789718
_cell_length_c 16.385110
_cell_angle_alpha 90.000000
_cell_angle_beta 90.000000
_cell_angle_gamma 90.000000
_cell_volume 3003.312409
_symmetry_space_group_name_H-M "P M M N"
_symmetry_group_IT_number 59
_space_group.IT_coordinate_system_code '2'
_symmetry_cell_setting 'orthorhombic'
loop_
_space_group_symop_operation_xyz
x,y,z
1/2-x,1/2-y,z
1/2+x,-y,-z
-x,1/2+y,-z
-x,-y,-z
1/2+x,1/2+y,-z
1/2-x,y,z
x,1/2-y,z
loop_
_atom_site_type_symbol
_atom_site_label
_atom_site_fract_x
_atom_site_fract_y
_atom_site_fract_z
Si Si1 0.889494 0.065634 0.718848
Si Si2 0.750000 0.435237 0.466935
Si Si3 0.130404 0.930291 0.644990
Si Si4 0.250000 0.564700 0.344221
Si Si5 0.001797 0.931492 0.409864
Si Si6 0.910302 0.069815 0.057804
Si Si7 0.826088 0.922776 0.191136
Si Si8 0.445017 0.431118 0.113928
O O1 0.890742 0.250000 0.724639
O O2 0.816355 0.018160 0.699075
O O3 0.936837 0.021190 0.644396
O O4 0.917046 0.997355 0.802471
O O5 0.750000 0.250000 0.466190
O O6 0.813984 0.482206 0.418065
O O7 0.750000 0.484743 0.560921
O O8 0.121107 0.750000 0.633706
O O9 0.063610 0.014334 0.631906
O O10 0.154255 0.967277 0.735398
O O11 0.250000 0.750000 0.345162
O O12 0.003738 0.750000 0.415791
O O13 0.000000 0.000000 0.500000
O O14 0.898472 0.250000 0.058385
O O15 0.978668 0.042140 0.102761
O O16 0.857759 0.980177 0.108527
O O17 0.914844 0.010337 0.965559
O O18 0.750000 0.923449 0.184145
O O19 0.847324 0.750000 0.209966
O O20 0.434632 0.250000 0.110748
#
# Coordination Sequence:
#
# PCOD9452450 Si02
#       8
#     8   4   8   4   8   8   8   8
#     4  10  21  38  60  84 113 151 198 244 291 349
#     4   9  18  34  57  82 111 152 199 243 288 343
#     4  11  21  36  59  86 117 156 200 244 293 356
#     4   9  18  36  59  80 105 144 195 243 282 331
#     4  11  23  38  58  87 120 155 197 251 307 358
#     4  10  21  38  62  88 114 150 195 237 283 348
#     4  11  23  38  56  84 123 159 193 238 294 349
#     4  10  21  38  61  88 117 148 187 238 295 350
#
# _framework density 18.646079
#
# number of rings (size 3 to 8) (size 9 to 14) (size 15 to 20)
#    0.000    1.714    0.714    3.857    0.000    8.286 
#    1.286    0.357    0.000    1.714    0.000    0.000 
#    0.000    0.000    0.000    0.000    0.000    0.000 
#
# Total GULP energy -312846.978274 kJ/mol
# GULP energy per Si atom -5586.553183 kJ/mol
# Density = 1.860364 g / cm^3
# Si number density = 18.646079 Si / 1000 Ang^3
#
#
#
# Elastic Constant Matrix: (Units=GPa)
#
#
# Indices 1 2 3 4 5 6 
#
# 1 109.4901 32.1669 55.1308 0.0000 0.0000 0.0000
# 2 32.1669 32.1133 25.8361 0.0000 0.0000 0.0000
# 3 55.1308 25.8361 106.2334 0.0000 0.0000 0.0000
# 4 0.0000 0.0000 0.0000 33.9466 0.0000 0.0000
# 5 0.0000 0.0000 0.0000 0.0000 34.4425 0.0000
# 6 0.0000 0.0000 0.0000 0.0000 0.0000 26.1925
#
#
#
# Elastic Compliance Matrix: (Units=1/GPa)
#
#
# Indices 1 2 3 4 5 6 
#
# 1 0.014869 -0.010798 -0.005090 0.000000 0.000000 0.000000
# 2 -0.010798 0.046557 -0.005719 0.000000 0.000000 0.000000
# 3 -0.005090 -0.005719 0.013446 0.000000 0.000000 0.000000
# 4 0.000000 0.000000 0.000000 0.029458 0.000000 0.000000
# 5 0.000000 0.000000 0.000000 0.000000 0.029034 0.000000
# 6 0.000000 0.000000 0.000000 0.000000 0.000000 0.038179
#
#
# Mechanical properties :
#
#
# Convention : Reuss Voigt Hill
#
# Bulk Modulus (GPa) = 31.58875 52.67825 42.13350
# Shear Modulus (GPa) = 22.19177 27.89653 25.04415
#
# Velocity S-wave (km/s) = 3.45361 3.87215 3.66885
# Velocity P-wave (km/s) = 5.73422 6.95014 6.37125
#
# Compressibility (1/GPa) = 0.03165684
#
# Stress axis : x y z
#
# Youngs Moduli (GPa) = 67.25572 21.47902 74.37391
#
# Poissons Ratio (x) = 0.23194 0.37857
# Poissons Ratio (y) = 0.72625 0.42533
# Poissons Ratio (z) = 0.34233 0.12283
#
# Static dielectric constant tensor:
#      x y z
#    x 1.653010 0.000000 0.000000 
#    y 0.000000 1.632130 0.000000 
#    z 0.000000 0.000000 1.618790 
# 
# From -- ./inp_files/24349.got.cif
#   From: 2010.05.17/outbox.cif.g08.bks.cpg/sg59_13_cif.got.tgz:24349.got - 2010.06.03 14:40:33.
