data_PCOD9452849
_publ_section_title
;
Structure prediction by ZEFSAII (Michael W. Deem and Ramdas Pophale) SiO2 
 PCOD9452849
Probable space group: P M M N
;
_chemical_formula_sum "Si O2"
_cell_formula_units_Z 56
_cell_length_a 8.696066
_cell_length_b 15.824138
_cell_length_c 21.402554
_cell_angle_alpha 90.000000
_cell_angle_beta 90.000000
_cell_angle_gamma 90.000000
_cell_volume 2945.157267
_symmetry_space_group_name_H-M "P M M N"
_symmetry_group_IT_number 59
_space_group.IT_coordinate_system_code '2'
_symmetry_cell_setting 'orthorhombic'
loop_
_space_group_symop_operation_xyz
x,y,z
1/2-x,1/2-y,z
1/2+x,-y,-z
-x,1/2+y,-z
-x,-y,-z
1/2+x,1/2+y,-z
1/2-x,y,z
x,1/2-y,z
loop_
_atom_site_type_symbol
_atom_site_label
_atom_site_fract_x
_atom_site_fract_y
_atom_site_fract_z
Si Si1 0.932993 0.093314 0.987580
Si Si2 0.934272 0.087691 0.473178
Si Si3 0.064392 0.982380 0.655079
Si Si4 0.434915 0.340980 0.592583
Si Si5 0.434535 0.153860 0.855596
Si Si6 0.566114 0.991126 0.790121
Si Si7 0.565940 0.655982 0.886047
O O1 0.750000 0.088606 0.980877
O O2 0.981153 0.146287 0.048160
O O3 0.003873 0.131576 0.924629
O O4 0.000000 0.000000 0.000000
O O5 0.750000 0.088423 0.477312
O O6 0.975431 0.084246 0.399895
O O7 0.002758 0.153651 0.521861
O O8 0.000000 0.000000 0.500000
O O9 0.250000 0.983299 0.661029
O O10 0.014940 0.075937 0.630614
O O11 0.989682 0.966221 0.721447
O O12 0.250000 0.345283 0.589945
O O13 0.479373 0.250000 0.620298
O O14 0.250000 0.149803 0.855905
O O15 0.480264 0.250000 0.839088
O O16 0.497432 0.081422 0.810009
O O17 0.750000 0.996381 0.791873
O O18 0.517902 0.919402 0.840007
O O19 0.750000 0.647558 0.896772
O O20 0.538287 0.750000 0.860002
#
# Coordination Sequence:
#
# PCOD9452849 Si02
#       7
#     8   8   8   8   8   8   8
#     4  12  23  37  61  90 118 149 188 237 292 346
#     4   9  17  31  52  77 104 137 176 219 269 320
#     4   9  19  35  54  76 109 150 187 226 275 335
#     4   9  18  33  54  81 111 143 181 227 281 337
#     4  11  24  41  61  85 117 156 192 234 292 350
#     4  11  23  38  59  85 114 152 196 243 285 336
#     4  10  22  41  62  84 113 149 189 238 297 350
#
# _framework density 19.014265999999999
#
# number of rings (size 3 to 8) (size 9 to 14) (size 15 to 20)
#    0.000    1.857    1.429    3.857    0.000    7.429 
#    0.000    2.143    0.000    2.571    0.000    0.000 
#    0.000    0.000    0.000    0.000    0.000    0.000 
#
# Total GULP energy -312534.103591 kJ/mol
# GULP energy per Si atom -5580.966136 kJ/mol
# Density = 1.897099 g / cm^3
# Si number density = 19.014266 Si / 1000 Ang^3
#
#
#
# Elastic Constant Matrix: (Units=GPa)
#
#
# Indices 1 2 3 4 5 6 
#
# 1 24.0714 6.3628 7.3226 0.0000 0.0000 0.0000
# 2 6.3628 56.7124 -12.3341 0.0000 0.0000 0.0000
# 3 7.3226 -12.3341 71.0605 0.0000 0.0000 0.0000
# 4 0.0000 0.0000 0.0000 12.0700 0.0000 0.0000
# 5 0.0000 0.0000 0.0000 0.0000 34.6953 0.0000
# 6 0.0000 0.0000 0.0000 0.0000 0.0000 21.3974
#
#
#
# Elastic Compliance Matrix: (Units=1/GPa)
#
#
# Indices 1 2 3 4 5 6 
#
# 1 0.044946 -0.006287 -0.005723 0.000000 0.000000 0.000000
# 2 -0.006287 0.019204 0.003981 0.000000 0.000000 0.000000
# 3 -0.005723 0.003981 0.015353 0.000000 0.000000 0.000000
# 4 0.000000 0.000000 0.000000 0.082850 0.000000 0.000000
# 5 0.000000 0.000000 0.000000 0.000000 0.028822 0.000000
# 6 0.000000 0.000000 0.000000 0.000000 0.000000 0.046735
#
#
# Mechanical properties :
#
#
# Convention : Reuss Voigt Hill
#
# Bulk Modulus (GPa) = 15.76160 17.17187 16.46674
# Shear Modulus (GPa) = 18.17412 23.66542 20.91977
#
# Velocity S-wave (km/s) = 3.09498 3.53174 3.32055
# Velocity P-wave (km/s) = 4.59121 5.06769 4.83533
#
# Compressibility (1/GPa) = 0.06344534
#
# Stress axis : x y z
#
# Youngs Moduli (GPa) = 22.24896 52.07233 65.13278
#
# Poissons Ratio (x) = 0.32739 0.37274
# Poissons Ratio (y) = 0.13989 -0.25930
# Poissons Ratio (z) = 0.12733 -0.20731
#
# Static dielectric constant tensor:
#      x y z
#    x 1.638350 0.000000 0.000000 
#    y 0.000000 1.684950 0.000000 
#    z 0.000000 0.000000 1.650630 
# 
# From -- ./inp_files/29136.got.cif
#   From: 2010.05.17/outbox.cif.g08.bks.cpg/sg59_15_cif.got.tgz:29136.got - 2010.06.03 14:40:33.
