data_PCOD9452140
_publ_section_title
;
Structure prediction by ZEFSAII (Michael W. Deem and Ramdas Pophale) SiO2 
 PCOD9452140
Probable space group: P M M N
;
_chemical_formula_sum "Si O2"
_cell_formula_units_Z 64
_cell_length_a 21.824514
_cell_length_b 7.811049
_cell_length_c 17.593653
_cell_angle_alpha 90.000000
_cell_angle_beta 90.000000
_cell_angle_gamma 90.000000
_cell_volume 2999.231341
_symmetry_space_group_name_H-M "P M M N"
_symmetry_group_IT_number 59
_space_group.IT_coordinate_system_code '2'
_symmetry_cell_setting 'orthorhombic'
loop_
_space_group_symop_operation_xyz
x,y,z
1/2-x,1/2-y,z
1/2+x,-y,-z
-x,1/2+y,-z
-x,-y,-z
1/2+x,1/2+y,-z
1/2-x,y,z
x,1/2-y,z
loop_
_atom_site_type_symbol
_atom_site_label
_atom_site_fract_x
_atom_site_fract_y
_atom_site_fract_z
Si Si1 0.858756 0.956823 0.850662
Si Si2 0.429673 0.544028 0.585045
Si Si3 0.819053 0.551354 0.009779
Si Si4 0.493563 0.046092 0.090014
Si Si5 0.681585 0.048456 0.683913
Si Si6 0.180198 0.952121 0.689578
Si Si7 0.382406 0.450442 0.845193
Si Si8 0.565120 0.043334 0.589682
O O1 0.853512 0.750000 0.842454
O O2 0.927962 0.000934 0.874786
O O3 0.834683 0.031657 0.772569
O O4 0.822009 0.016919 0.925002
O O5 0.425194 0.750000 0.583563
O O6 0.371252 0.476408 0.631765
O O7 0.429637 0.482248 0.497720
O O8 0.497005 0.503435 0.618467
O O9 0.750000 0.552479 0.037420
O O10 0.840778 0.750000 0.002182
O O11 0.858642 0.469563 0.075591
O O12 0.498965 0.250000 0.093898
O O13 0.545250 0.967060 0.144230
O O14 0.500000 0.000000 0.000000
O O15 0.750000 0.976057 0.669413
O O16 0.684718 0.250000 0.665031
O O17 0.623241 0.977691 0.637443
O O18 0.250000 0.022275 0.686405
O O19 0.185228 0.750000 0.673190
O O20 0.150049 0.970019 0.772681
O O21 0.365661 0.250000 0.842872
O O22 0.567272 0.250000 0.589472
#
# Coordination Sequence:
#
# PCOD9452140 Si02
#       8
#     8   8   8   8   8   8   8   8
#     4  10  21  37  56  78 108 147 190 232 277 335
#     4   9  19  37  61  86 114 150 190 232 282 342
#     4   9  17  32  53  74 100 139 185 227 270 326
#     4  11  22  38  58  83 111 145 192 244 295 346
#     4  10  22  38  56  84 119 149 185 235 286 337
#     4  10  22  39  58  85 119 152 191 240 291 345
#     4  11  22  37  56  81 113 151 192 236 288 344
#     4   9  19  37  60  86 115 150 189 231 282 341
#
# _framework density 21.338802000000001
#
# number of rings (size 3 to 8) (size 9 to 14) (size 15 to 20)
#    0.000    2.125    1.250    1.500    1.750    4.000 
#    0.000    2.500    0.000    2.250    0.000    5.250 
#    0.000    0.000    0.000    0.000    0.000    0.000 
#
# Total GULP energy -357004.784955 kJ/mol
# GULP energy per Si atom -5578.199765 kJ/mol
# Density = 2.129023 g / cm^3
# Si number density = 21.338802 Si / 1000 Ang^3
#
#
#
# Elastic Constant Matrix: (Units=GPa)
#
#
# Indices 1 2 3 4 5 6 
#
# 1 168.8345 9.9867 66.3444 0.0000 0.0000 0.0000
# 2 9.9867 27.3109 1.5862 0.0000 0.0000 0.0000
# 3 66.3444 1.5862 67.1054 0.0000 0.0000 0.0000
# 4 0.0000 0.0000 0.0000 18.8188 0.0000 0.0000
# 5 0.0000 0.0000 0.0000 0.0000 8.2209 0.0000
# 6 0.0000 0.0000 0.0000 0.0000 0.0000 27.6436
#
#
#
# Elastic Compliance Matrix: (Units=1/GPa)
#
#
# Indices 1 2 3 4 5 6 
#
# 1 0.009936 -0.003067 -0.009751 0.000000 0.000000 0.000000
# 2 -0.003067 0.037612 0.002143 0.000000 0.000000 0.000000
# 3 -0.009751 0.002143 0.024492 0.000000 0.000000 0.000000
# 4 0.000000 0.000000 0.000000 0.053138 0.000000 0.000000
# 5 0.000000 0.000000 0.000000 0.000000 0.121641 0.000000
# 6 0.000000 0.000000 0.000000 0.000000 0.000000 0.036175
#
#
# Mechanical properties :
#
#
# Convention : Reuss Voigt Hill
#
# Bulk Modulus (GPa) = 19.72752 46.56502 33.14627
# Shear Modulus (GPa) = 15.56467 23.29223 19.42845
#
# Velocity S-wave (km/s) = 2.70368 3.30744 3.02068
# Velocity P-wave (km/s) = 4.36022 6.03777 5.26622
#
# Compressibility (1/GPa) = 0.05069061
#
# Stress axis : x y z
#
# Youngs Moduli (GPa) = 100.64404 26.58698 40.83048
#
# Poissons Ratio (x) = 0.08154 0.39813
# Poissons Ratio (y) = 0.30867 -0.08750
# Poissons Ratio (z) = 0.98136 -0.05698
#
# Static dielectric constant tensor:
#      x y z
#    x 1.819210 0.000000 0.000000 
#    y 0.000000 1.780830 0.000000 
#    z 0.000000 0.000000 1.767800 
# 
# From -- ./inp_files/28205.got.cif
#   From: 2010.05.17/outbox.cif.g08.bks.cpg/sg59_15_cif.got.tgz:28205.got - 2010.06.03 14:40:33.
