data_PCOD9452800
_publ_section_title
;
Structure prediction by ZEFSAII (Michael W. Deem and Ramdas Pophale) SiO2 
 PCOD9452800
Probable space group: P M M N
;
_chemical_formula_sum "Si O2"
_cell_formula_units_Z 32
_cell_length_a 13.339062
_cell_length_b 10.760331
_cell_length_c 10.137239
_cell_angle_alpha 90.000000
_cell_angle_beta 90.000000
_cell_angle_gamma 90.000000
_cell_volume 1455.025511
_symmetry_space_group_name_H-M "P M M N"
_symmetry_group_IT_number 59
_space_group.IT_coordinate_system_code '2'
_symmetry_cell_setting 'orthorhombic'
loop_
_space_group_symop_operation_xyz
x,y,z
1/2-x,1/2-y,z
1/2+x,-y,-z
-x,1/2+y,-z
-x,-y,-z
1/2+x,1/2+y,-z
1/2-x,y,z
x,1/2-y,z
loop_
_atom_site_type_symbol
_atom_site_label
_atom_site_fract_x
_atom_site_fract_y
_atom_site_fract_z
Si Si1 0.864872 0.971329 0.858511
Si Si2 0.371053 0.108293 0.720436
Si Si3 0.072964 0.617757 0.910644
Si Si4 0.870739 0.608752 0.576877
O O1 0.750000 0.927078 0.872654
O O2 0.888926 0.977822 0.702910
O O3 0.879464 0.093809 0.946033
O O4 0.952160 0.885253 0.917723
O O5 0.250000 0.112626 0.721383
O O6 0.405476 0.250000 0.751088
O O7 0.404965 0.076799 0.570443
O O8 0.399816 0.999115 0.819517
O O9 0.106661 0.750000 0.856371
O O10 0.750000 0.614762 0.567569
O O11 0.905807 0.750000 0.608540
#
# Coordination Sequence:
#
# PCOD9452800 Si02
#       4
#     8   8   8   8
#     4  10  22  40  60  81 113 158 201 240 287 346
#     4   9  19  37  61  89 121 157 196 236 282 344
#     4  11  24  39  59  91 123 151 191 244 298 348
#     4   8  15  32  59  86 111 147 198 245 280 329
#
# _framework density 21.992742
#
# number of rings (size 3 to 8) (size 9 to 14) (size 15 to 20)
#    0.000    2.500    0.000    3.000    0.000    9.500 
#    0.000    3.750    0.000    4.500    0.000    0.000 
#    0.000    0.000    0.000    0.000    0.000    0.000 
#
# Total GULP energy -178361.084298 kJ/mol
# GULP energy per Si atom -5573.783884 kJ/mol
# Density = 2.194269 g / cm^3
# Si number density = 21.992742 Si / 1000 Ang^3
#
#
#
# Elastic Constant Matrix: (Units=GPa)
#
#
# Indices 1 2 3 4 5 6 
#
# 1 79.5581 22.7388 35.9692 0.0000 0.0000 0.0000
# 2 22.7388 136.3844 99.4756 0.0000 0.0000 0.0000
# 3 35.9692 99.4756 169.8664 0.0000 0.0000 0.0000
# 4 0.0000 0.0000 0.0000 23.2722 0.0000 0.0000
# 5 0.0000 0.0000 0.0000 0.0000 34.6999 0.0000
# 6 0.0000 0.0000 0.0000 0.0000 0.0000 4.2830
#
#
#
# Elastic Compliance Matrix: (Units=1/GPa)
#
#
# Indices 1 2 3 4 5 6 
#
# 1 0.013907 -0.000298 -0.002770 0.000000 0.000000 0.000000
# 2 -0.000298 0.012806 -0.007436 0.000000 0.000000 0.000000
# 3 -0.002770 -0.007436 0.010828 0.000000 0.000000 0.000000
# 4 0.000000 0.000000 0.000000 0.042970 0.000000 0.000000
# 5 0.000000 0.000000 0.000000 0.000000 0.028819 0.000000
# 6 0.000000 0.000000 0.000000 0.000000 0.000000 0.233480
#
#
# Mechanical properties :
#
#
# Convention : Reuss Voigt Hill
#
# Bulk Modulus (GPa) = 60.48814 78.01958 69.25386
# Shear Modulus (GPa) = 13.53809 27.62603 20.58206
#
# Velocity S-wave (km/s) = 2.48376 3.54806 3.06250
# Velocity P-wave (km/s) = 5.98238 7.23444 6.63799
#
# Compressibility (1/GPa) = 0.01653217
#
# Stress axis : x y z
#
# Youngs Moduli (GPa) = 71.90574 78.09137 92.35197
#
# Poissons Ratio (x) = 0.02328 0.25584
# Poissons Ratio (y) = 0.02144 0.68672
# Poissons Ratio (z) = 0.19920 0.58068
#
# Static dielectric constant tensor:
#      x y z
#    x 1.843000 0.000000 0.000000 
#    y 0.000000 1.836210 0.000000 
#    z 0.000000 0.000000 1.853050 
# 
# From -- ./inp_files/16430.got.cif
#   From: 2010.05.17/outbox.cif.g08.bks.cpg/sg59_9_cif.got.tgz:16430.got - 2010.06.03 14:40:33.
