data_PCOD9452391
_publ_section_title
;
Structure prediction by ZEFSAII (Michael W. Deem and Ramdas Pophale) SiO2 
 PCOD9452391
Probable space group: P M M N
;
_chemical_formula_sum "Si O2"
_cell_formula_units_Z 64
_cell_length_a 31.704148
_cell_length_b 7.777097
_cell_length_c 12.284400
_cell_angle_alpha 90.000000
_cell_angle_beta 90.000000
_cell_angle_gamma 90.000000
_cell_volume 3028.918249
_symmetry_space_group_name_H-M "P M M N"
_symmetry_group_IT_number 59
_space_group.IT_coordinate_system_code '2'
_symmetry_cell_setting 'orthorhombic'
loop_
_space_group_symop_operation_xyz
x,y,z
1/2-x,1/2-y,z
1/2+x,-y,-z
-x,1/2+y,-z
-x,-y,-z
1/2+x,1/2+y,-z
1/2-x,y,z
x,1/2-y,z
loop_
_atom_site_type_symbol
_atom_site_label
_atom_site_fract_x
_atom_site_fract_y
_atom_site_fract_z
Si Si1 0.296089 0.050671 0.750483
Si Si2 0.950122 0.542005 0.762774
Si Si3 0.455374 0.541632 0.776794
Si Si4 0.415518 0.454095 0.002830
Si Si5 0.371700 0.954514 0.384788
Si Si6 0.379416 0.951615 0.627510
Si Si7 0.680350 0.051196 0.013161
Si Si8 0.702760 0.039688 0.771482
O O1 0.250000 0.978248 0.721541
O O2 0.297095 0.250000 0.718501
O O3 0.336016 0.964800 0.693863
O O4 0.301845 0.039645 0.880503
O O5 0.949914 0.750000 0.761577
O O6 0.915763 0.480844 0.676627
O O7 0.997982 0.484169 0.742678
O O8 0.935465 0.486588 0.883442
O O9 0.454829 0.750000 0.775107
O O10 0.445201 0.488889 0.900182
O O11 0.417931 0.475724 0.698947
O O12 0.407973 0.250000 0.010396
O O13 0.370338 0.540618 0.983759
O O14 0.363872 0.750000 0.393652
O O15 0.373852 0.026601 0.506859
O O16 0.333847 0.023152 0.308984
O O17 0.389351 0.750000 0.613343
O O18 0.693606 0.250000 0.020604
O O19 0.694569 0.982547 0.895697
O O20 0.750000 0.991791 0.737271
O O21 0.700649 0.250000 0.774271
#
# Coordination Sequence:
#
# PCOD9452391 Si02
#       8
#     8   8   8   8   8   8   8   8
#     4  11  24  40  59  86 120 153 188 234 286 341
#     4  10  22  38  57  83 118 153 188 237 291 346
#     4  10  21  38  58  83 115 153 194 236 286 343
#     4  11  21  34  56  86 116 148 188 234 292 349
#     4  10  21  38  59  84 113 148 195 245 286 333
#     4  10  22  39  60  84 112 151 199 244 284 333
#     4  11  20  34  59  86 114 149 186 229 282 344
#     4   9  18  33  55  83 112 143 182 230 283 335
#
# _framework density 21.129657000000002
#
# number of rings (size 3 to 8) (size 9 to 14) (size 15 to 20)
#    0.000    1.750    2.500    1.875    0.000    4.000 
#    0.000    1.250    0.000    1.125    0.000    0.000 
#    0.000    0.000    0.000    0.000    0.000    0.000 
#
# Total GULP energy -357652.269283 kJ/mol
# GULP energy per Si atom -5588.316708 kJ/mol
# Density = 2.108156 g / cm^3
# Si number density = 21.129657 Si / 1000 Ang^3
#
#
#
# Elastic Constant Matrix: (Units=GPa)
#
#
# Indices 1 2 3 4 5 6 
#
# 1 131.7686 -10.4735 51.2000 0.0000 0.0000 0.0000
# 2 -10.4735 28.5839 -2.7491 0.0000 0.0000 0.0000
# 3 51.2000 -2.7491 139.0650 0.0000 0.0000 0.0000
# 4 0.0000 0.0000 0.0000 -2.1447 0.0000 0.0000
# 5 0.0000 0.0000 0.0000 0.0000 -1.5352 0.0000
# 6 0.0000 0.0000 0.0000 0.0000 0.0000 8.4859
#
#
#
# Elastic Compliance Matrix: (Units=1/GPa)
#
#
# Indices 1 2 3 4 5 6 
#
# 1 0.009109 0.003021 -0.003294 0.000000 0.000000 0.000000
# 2 0.003021 0.036053 -0.000399 0.000000 0.000000 0.000000
# 3 -0.003294 -0.000399 0.008396 0.000000 0.000000 0.000000
# 4 0.000000 0.000000 0.000000 -0.466275 0.000000 0.000000
# 5 0.000000 0.000000 0.000000 0.000000 -0.651376 0.000000
# 6 0.000000 0.000000 0.000000 0.000000 0.000000 0.117843
#
#
# Mechanical properties :
#
#
# Convention : Reuss Voigt Hill
#
# Bulk Modulus (GPa) = 19.15241 41.70803 30.43022
# Shear Modulus (GPa) = -5.39083 18.39054 6.49986
#
# Velocity S-wave (km/s) = -1.59901 2.95340 1.75581
# Velocity P-wave (km/s) = 2.38218 5.60464 4.30620
#
# Compressibility (1/GPa) = 0.05221276
#
# Stress axis : x y z
#
# Youngs Moduli (GPa) = 109.78042 27.73683 119.10784
#
# Poissons Ratio (x) = -0.08379 0.39234
# Poissons Ratio (y) = -0.33163 0.04758
# Poissons Ratio (z) = 0.36162 0.01108
#
# Static dielectric constant tensor:
#      x y z
#    x 1.746910 0.000000 0.000000 
#    y 0.000000 1.778180 0.000000 
#    z 0.000000 0.000000 1.735890 
# 
# From -- ./inp_files/19344.got.cif
#   From: 2010.05.17/outbox.cif.g08.bks.cpg/sg59_10_cif.got.tgz:19344.got - 2010.06.03 14:40:33.
