data_PCOD9452080
_publ_section_title
;
Structure prediction by ZEFSAII (Michael W. Deem and Ramdas Pophale) SiO2 
 PCOD9452080
Probable space group: P M M N
;
_chemical_formula_sum "Si O2"
_cell_formula_units_Z 56
_cell_length_a 9.214634
_cell_length_b 20.152287
_cell_length_c 18.483915
_cell_angle_alpha 90.000000
_cell_angle_beta 90.000000
_cell_angle_gamma 90.000000
_cell_volume 3432.388137
_symmetry_space_group_name_H-M "P M M N"
_symmetry_group_IT_number 59
_space_group.IT_coordinate_system_code '2'
_symmetry_cell_setting 'orthorhombic'
loop_
_space_group_symop_operation_xyz
x,y,z
1/2-x,1/2-y,z
1/2+x,-y,-z
-x,1/2+y,-z
-x,-y,-z
1/2+x,1/2+y,-z
1/2-x,y,z
x,1/2-y,z
loop_
_atom_site_type_symbol
_atom_site_label
_atom_site_fract_x
_atom_site_fract_y
_atom_site_fract_z
Si Si1 0.923838 0.565167 0.467429
Si Si2 0.422141 0.457865 0.698065
Si Si3 0.922150 0.327550 0.435228
Si Si4 0.422105 0.885309 0.717004
Si Si5 0.582080 0.600452 0.859941
Si Si6 0.580742 0.060525 0.841718
Si Si7 0.074696 0.428865 0.984925
O O1 0.750000 0.559806 0.475623
O O2 0.955747 0.568537 0.381743
O O3 0.000000 0.500000 0.500000
O O4 0.987223 0.627389 0.510484
O O5 0.250000 0.449941 0.711880
O O6 0.451753 0.537221 0.698563
O O7 0.511856 0.426041 0.763478
O O8 0.750000 0.344971 0.440420
O O9 0.938160 0.250000 0.450235
O O10 0.968189 0.343365 0.352666
O O11 0.250000 0.877954 0.725106
O O12 0.494042 0.869261 0.793715
O O13 0.750000 0.618246 0.851865
O O14 0.570899 0.520016 0.850974
O O15 0.538579 0.613731 0.943220
O O16 0.750000 0.078006 0.845777
O O17 0.490745 0.092083 0.907924
O O18 0.250000 0.435780 0.981671
O O19 0.000000 0.500000 0.000000
#
# Coordination Sequence:
#
# PCOD9452080 Si02
#       7
#     8   8   8   8   8   8   8
#     4  11  21  34  53  75  99 127 166 209 253 304
#     4   9  17  29  44  64  90 120 156 197 239 288
#     4  10  21  37  53  71  99 132 166 206 254 303
#     4   9  16  28  44  63  87 119 157 193 236 285
#     4   8  15  24  35  55  81 113 151 188 225 268
#     4   9  16  24  36  57  84 115 150 187 232 279
#     4   9  15  23  34  51  79 115 152 185 226 276
#
# _framework density 16.315172
#
# number of rings (size 3 to 8) (size 9 to 14) (size 15 to 20)
#    0.000    2.714    1.429    2.143    0.000    6.000 
#    0.000    0.000    0.000    0.000    0.000    0.000 
#    0.000    1.143    0.000    8.571    0.000    6.857 
#
# Total GULP energy -311837.341631 kJ/mol
# GULP energy per Si atom -5568.523958 kJ/mol
# Density = 1.627804 g / cm^3
# Si number density = 16.315172 Si / 1000 Ang^3
#
#
#
# Elastic Constant Matrix: (Units=GPa)
#
#
# Indices 1 2 3 4 5 6 
#
# 1 66.8757 27.1231 80.5966 0.0000 0.0000 0.0000
# 2 27.1231 23.7275 36.4051 0.0000 0.0000 0.0000
# 3 80.5966 36.4051 171.0619 0.0000 0.0000 0.0000
# 4 0.0000 0.0000 0.0000 10.3570 0.0000 0.0000
# 5 0.0000 0.0000 0.0000 0.0000 36.2139 0.0000
# 6 0.0000 0.0000 0.0000 0.0000 0.0000 11.7321
#
#
#
# Elastic Compliance Matrix: (Units=1/GPa)
#
#
# Indices 1 2 3 4 5 6 
#
# 1 0.044090 -0.027510 -0.014918 0.000000 0.000000 0.000000
# 2 -0.027510 0.079744 -0.004010 0.000000 0.000000 0.000000
# 3 -0.014918 -0.004010 0.013728 0.000000 0.000000 0.000000
# 4 0.000000 0.000000 0.000000 0.096553 0.000000 0.000000
# 5 0.000000 0.000000 0.000000 0.000000 0.027614 0.000000
# 6 0.000000 0.000000 0.000000 0.000000 0.000000 0.085237
#
#
# Mechanical properties :
#
#
# Convention : Reuss Voigt Hill
#
# Bulk Modulus (GPa) = 22.37844 61.10162 41.74003
# Shear Modulus (GPa) = 10.99539 19.49661 15.24600
#
# Velocity S-wave (km/s) = 2.59884 3.46063 3.06022
# Velocity P-wave (km/s) = 4.76985 7.31437 6.17460
#
# Compressibility (1/GPa) = 0.04468587
#
# Stress axis : x y z
#
# Youngs Moduli (GPa) = 22.68107 12.54013 72.84362
#
# Poissons Ratio (x) = 0.34498 1.08671
# Poissons Ratio (y) = 0.62395 0.29207
# Poissons Ratio (z) = 0.33837 0.05028
#
# Static dielectric constant tensor:
#      x y z
#    x 1.550910 0.000000 0.000000 
#    y 0.000000 1.382140 0.000000 
#    z 0.000000 0.000000 1.581370 
# 
# From -- ./inp_files/26010.got.cif
#   From: 2010.05.17/outbox.cif.g08.bks.cpg/sg59_14_cif.got.tgz:26010.got - 2010.06.03 14:40:33.
