data_PCOD9452904
_publ_section_title
;
Structure prediction by ZEFSAII (Michael W. Deem and Ramdas Pophale) SiO2 
 PCOD9452904
Probable space group: P M M N
;
_chemical_formula_sum "Si O2"
_cell_formula_units_Z 48
_cell_length_a 32.336656
_cell_length_b 8.363161
_cell_length_c 9.342427
_cell_angle_alpha 90.000000
_cell_angle_beta 90.000000
_cell_angle_gamma 90.000000
_cell_volume 2526.534757
_symmetry_space_group_name_H-M "P M M N"
_symmetry_group_IT_number 59
_space_group.IT_coordinate_system_code '2'
_symmetry_cell_setting 'orthorhombic'
loop_
_space_group_symop_operation_xyz
x,y,z
1/2-x,1/2-y,z
1/2+x,-y,-z
-x,1/2+y,-z
-x,-y,-z
1/2+x,1/2+y,-z
1/2-x,y,z
x,1/2-y,z
loop_
_atom_site_type_symbol
_atom_site_label
_atom_site_fract_x
_atom_site_fract_y
_atom_site_fract_z
Si Si1 0.419969 0.558497 0.334142
Si Si2 0.659788 0.555967 0.834927
Si Si3 0.499816 0.058617 0.162532
Si Si4 0.250000 0.435237 0.824363
Si Si5 0.250000 0.064764 0.172729
Si Si6 0.580174 0.056775 0.337621
Si Si7 0.340195 0.443857 0.832713
O O1 0.421052 0.750000 0.333780
O O2 0.377509 0.502594 0.261590
O O3 0.458766 0.496818 0.243767
O O4 0.422583 0.501681 0.498291
O O5 0.660886 0.750000 0.832875
O O6 0.705330 0.495976 0.786315
O O7 0.653336 0.508011 0.001142
O O8 0.500618 0.250000 0.162032
O O9 0.540605 0.000271 0.246674
O O10 0.500000 0.000000 0.000000
O O11 0.250000 0.250000 0.776562
O O12 0.294699 0.504208 0.783684
O O13 0.250000 0.433490 0.998556
O O14 0.250000 0.250000 0.220363
O O15 0.579618 0.250000 0.337642
O O16 0.622366 0.001396 0.263783
O O17 0.338813 0.250000 0.831048
#
# Coordination Sequence:
#
# PCOD9452904 Si02
#       7
#     8   8   8   4   4   8   8
#     4  11  23  38  54  76 108 144 177 213 257 310
#     4   9  17  32  55  82 107 137 178 223 267 312
#     4  11  23  40  61  83 105 133 171 217 264 314
#     4   7  12  26  48  77 106 132 168 217 262 301
#     4   7  12  26  50  77 106 136 172 219 266 309
#     4  10  23  39  53  74 108 143 174 211 260 312
#     4   9  17  31  55  81 105 135 175 219 262 308
#
# _framework density 18.998353000000002
#
# number of rings (size 3 to 8) (size 9 to 14) (size 15 to 20)
#    0.000    2.500    0.000    4.500    0.000    6.000 
#    0.000    1.667    0.000    8.000    0.000    0.000 
#    0.000    0.000    0.000    0.000    0.000    0.000 
#
# Total GULP energy -267754.222981 kJ/mol
# GULP energy per Si atom -5578.212979 kJ/mol
# Density = 1.895511 g / cm^3
# Si number density = 18.998353 Si / 1000 Ang^3
#
#
#
# Elastic Constant Matrix: (Units=GPa)
#
#
# Indices 1 2 3 4 5 6 
#
# 1 228.3439 24.9226 115.3160 0.0000 0.0000 0.0000
# 2 24.9226 17.2690 24.3014 0.0000 0.0000 0.0000
# 3 115.3160 24.3014 143.6168 0.0000 0.0000 0.0000
# 4 0.0000 0.0000 0.0000 24.4372 0.0000 0.0000
# 5 0.0000 0.0000 0.0000 0.0000 -20.3731 0.0000
# 6 0.0000 0.0000 0.0000 0.0000 0.0000 26.5896
#
#
#
# Elastic Compliance Matrix: (Units=1/GPa)
#
#
# Indices 1 2 3 4 5 6 
#
# 1 0.007489 -0.003079 -0.005492 0.000000 0.000000 0.000000
# 2 -0.003079 0.077272 -0.010603 0.000000 0.000000 0.000000
# 3 -0.005492 -0.010603 0.013167 0.000000 0.000000 0.000000
# 4 0.000000 0.000000 0.000000 0.040921 0.000000 0.000000
# 5 0.000000 0.000000 0.000000 0.000000 -0.049084 0.000000
# 6 0.000000 0.000000 0.000000 0.000000 0.000000 0.037609
#
#
# Mechanical properties :
#
#
# Convention : Reuss Voigt Hill
#
# Bulk Modulus (GPa) = 16.78430 79.81220 48.29825
# Shear Modulus (GPa) = 26.94229 21.11006 24.02617
#
# Velocity S-wave (km/s) = 3.76990 3.33701 3.56004
# Velocity P-wave (km/s) = 5.27289 7.54644 6.50969
#
# Compressibility (1/GPa) = 0.05957950
#
# Stress axis : x y z
#
# Youngs Moduli (GPa) = 133.52726 12.94131 75.94742
#
# Poissons Ratio (x) = 0.03985 0.41712
# Poissons Ratio (y) = 0.41119 0.80524
# Poissons Ratio (z) = 0.73337 0.13721
#
# Static dielectric constant tensor:
#      x y z
#    x 1.668710 0.000000 0.000000 
#    y 0.000000 1.668200 0.000000 
#    z 0.000000 0.000000 1.674010 
# 
# From -- ./inp_files/13016.got.cif
#   From: 2010.05.17/outbox.cif.g08.bks.cpg/sg59_7_cif.got.tgz:13016.got - 2010.06.03 14:40:33.
