data_PCOD9452096
_publ_section_title
;
Structure prediction by ZEFSAII (Michael W. Deem and Ramdas Pophale) SiO2 
 PCOD9452096
Probable space group: P M M N
;
_chemical_formula_sum "Si O2"
_cell_formula_units_Z 56
_cell_length_a 15.061454
_cell_length_b 7.606215
_cell_length_c 22.838625
_cell_angle_alpha 90.000000
_cell_angle_beta 90.000000
_cell_angle_gamma 90.000000
_cell_volume 2616.407893
_symmetry_space_group_name_H-M "P M M N"
_symmetry_group_IT_number 59
_space_group.IT_coordinate_system_code '2'
_symmetry_cell_setting 'orthorhombic'
loop_
_space_group_symop_operation_xyz
x,y,z
1/2-x,1/2-y,z
1/2+x,-y,-z
-x,1/2+y,-z
-x,-y,-z
1/2+x,1/2+y,-z
1/2-x,y,z
x,1/2-y,z
loop_
_atom_site_type_symbol
_atom_site_label
_atom_site_fract_x
_atom_site_fract_y
_atom_site_fract_z
Si Si1 0.347798 0.544463 0.609673
Si Si2 0.648264 0.463901 0.968617
Si Si3 0.349704 0.042326 0.254213
Si Si4 0.537651 0.042608 0.859314
Si Si5 0.962973 0.966509 0.636129
Si Si6 0.350997 0.461838 0.474725
Si Si7 0.349308 0.538493 0.898206
O O1 0.250000 0.466036 0.620642
O O2 0.342846 0.750000 0.625322
O O3 0.435487 0.471440 0.640124
O O4 0.364753 0.533562 0.539808
O O5 0.750000 0.510143 0.952832
O O6 0.644095 0.250000 0.970177
O O7 0.580245 0.529481 0.919735
O O8 0.632006 0.524635 0.035122
O O9 0.250000 0.969778 0.247214
O O10 0.340896 0.250000 0.265078
O O11 0.402650 0.971716 0.310243
O O12 0.408236 0.023545 0.196206
O O13 0.551491 0.250000 0.860488
O O14 0.432671 0.009349 0.858567
O O15 0.963997 0.750000 0.636012
O O16 0.919446 0.021052 0.574549
O O17 0.250000 0.506677 0.456651
O O18 0.356162 0.250000 0.478824
O O19 0.250000 0.477445 0.881479
O O20 0.345949 0.750000 0.900100
#
# Coordination Sequence:
#
# PCOD9452096 Si02
#       7
#     8   8   8   8   8   8   8
#     4   9  17  29  46  70  98 124 152 192 243 298
#     4   8  15  29  50  76 105 136 168 204 250 302
#     4  10  21  37  55  73  95 128 173 218 252 292
#     4  11  21  33  52  77 107 139 167 204 257 310
#     4   9  17  31  50  69  92 126 167 206 242 285
#     4   9  16  27  46  71  96 123 156 195 242 293
#     4   9  18  34  55  77 102 134 173 213 249 293
#
# _framework density 21.403390999999999
#
# number of rings (size 3 to 8) (size 9 to 14) (size 15 to 20)
#    0.000    2.714    0.000    3.000    0.000    2.857 
#    0.000    2.857    0.000    6.000    0.000    0.000 
#    0.000    0.000    0.000    0.000    0.000    0.000 
#
# Total GULP energy -312558.809110 kJ/mol
# GULP energy per Si atom -5581.407306 kJ/mol
# Density = 2.135468 g / cm^3
# Si number density = 21.403391 Si / 1000 Ang^3
#
#
#
# Elastic Constant Matrix: (Units=GPa)
#
#
# Indices 1 2 3 4 5 6 
#
# 1 180.5147 2.8992 64.7105 0.0000 0.0000 0.0000
# 2 2.8992 43.2500 -1.4269 0.0000 0.0000 0.0000
# 3 64.7105 -1.4269 39.3174 0.0000 0.0000 0.0000
# 4 0.0000 0.0000 0.0000 15.4961 0.0000 0.0000
# 5 0.0000 0.0000 0.0000 0.0000 -1.4392 0.0000
# 6 0.0000 0.0000 0.0000 0.0000 0.0000 7.0841
#
#
#
# Elastic Compliance Matrix: (Units=1/GPa)
#
#
# Indices 1 2 3 4 5 6 
#
# 1 0.013629 -0.001656 -0.022491 0.000000 0.000000 0.000000
# 2 -0.001656 0.023350 0.003572 0.000000 0.000000 0.000000
# 3 -0.022491 0.003572 0.062581 0.000000 0.000000 0.000000
# 4 0.000000 0.000000 0.000000 0.064532 0.000000 0.000000
# 5 0.000000 0.000000 0.000000 0.000000 -0.694843 0.000000
# 6 0.000000 0.000000 0.000000 0.000000 0.000000 0.141161
#
#
# Mechanical properties :
#
#
# Convention : Reuss Voigt Hill
#
# Bulk Modulus (GPa) = 17.12015 43.93864 30.52940
# Shear Modulus (GPa) = -15.19888 17.35484 1.07798
#
# Velocity S-wave (km/s) = -2.66769 2.85062 0.71045
# Velocity P-wave (km/s) = 1.21351 5.60430 3.86882
#
# Compressibility (1/GPa) = 0.05841071
#
# Stress axis : x y z
#
# Youngs Moduli (GPa) = 73.37374 42.82619 15.97941
#
# Poissons Ratio (x) = 0.07090 0.35939
# Poissons Ratio (y) = 0.12148 -0.05708
# Poissons Ratio (z) = 1.65025 -0.15299
#
# Static dielectric constant tensor:
#      x y z
#    x 1.834310 0.000000 0.000000 
#    y 0.000000 1.795330 0.000000 
#    z 0.000000 0.000000 1.738270 
# 
# From -- ./inp_files/30372.got.cif
#   From: 2010.05.17/outbox.cif.g08.bks.cpg/sg59_16_cif.got.tgz:30372.got - 2010.06.03 14:40:33.
