data_PCOD9452505
_publ_section_title
;
Structure prediction by ZEFSAII (Michael W. Deem and Ramdas Pophale) SiO2 
 PCOD9452505
Probable space group: P M M N
;
_chemical_formula_sum "Si O2"
_cell_formula_units_Z 64
_cell_length_a 8.944375
_cell_length_b 14.604862
_cell_length_c 24.576706
_cell_angle_alpha 90.000000
_cell_angle_beta 90.000000
_cell_angle_gamma 90.000000
_cell_volume 3210.488592
_symmetry_space_group_name_H-M "P M M N"
_symmetry_group_IT_number 59
_space_group.IT_coordinate_system_code '2'
_symmetry_cell_setting 'orthorhombic'
loop_
_space_group_symop_operation_xyz
x,y,z
1/2-x,1/2-y,z
1/2+x,-y,-z
-x,1/2+y,-z
-x,-y,-z
1/2+x,1/2+y,-z
1/2-x,y,z
x,1/2-y,z
loop_
_atom_site_type_symbol
_atom_site_label
_atom_site_fract_x
_atom_site_fract_y
_atom_site_fract_z
Si Si1 0.076216 0.859296 0.029993
Si Si2 0.571755 0.357855 0.647595
Si Si3 0.571069 0.966921 0.129288
Si Si4 0.582446 0.646752 0.610518
Si Si5 0.578686 0.852321 0.741507
Si Si6 0.426337 0.457173 0.750824
Si Si7 0.924904 0.983612 0.441775
Si Si8 0.928711 0.643905 0.913199
O O1 0.250000 0.886600 0.023805
O O2 0.070886 0.750000 0.039166
O O3 0.002112 0.910733 0.080322
O O4 0.988118 0.876981 0.974048
O O5 0.750000 0.370016 0.644744
O O6 0.537541 0.250000 0.650287
O O7 0.512493 0.408350 0.701805
O O8 0.498849 0.404161 0.594591
O O9 0.750000 0.970389 0.123379
O O10 0.536956 0.923116 0.188242
O O11 0.504990 0.069374 0.125130
O O12 0.750000 0.616331 0.593218
O O13 0.558565 0.750000 0.590210
O O14 0.584353 0.650359 0.675752
O O15 0.459271 0.576631 0.591069
O O16 0.750000 0.869960 0.760564
O O17 0.535619 0.750000 0.760318
O O18 0.470748 0.936019 0.753287
O O19 0.250000 0.447013 0.741236
O O20 0.750000 0.966805 0.447570
O O21 0.000000 0.000000 0.500000
O O22 0.750000 0.635086 0.911276
O O23 0.967316 0.750000 0.901133
#
# Coordination Sequence:
#
# PCOD9452505 Si02
#       8
#     8   8   8   8   8   8   8   8
#     4  10  21  38  61  87 116 153 200 254 310 367
#     4  11  25  46  70  93 122 163 209 256 306 361
#     4  11  24  39  57  85 123 162 202 251 305 361
#     4   9  18  35  60  89 121 155 191 236 291 348
#     4   9  18  34  59  87 116 153 193 236 290 353
#     4  11  24  40  60  89 123 162 205 252 305 361
#     4  12  25  41  65  95 128 163 201 249 301 357
#     4  10  21  38  61  88 119 158 202 249 306 369
#
# _framework density 19.934660000000001
#
# number of rings (size 3 to 8) (size 9 to 14) (size 15 to 20)
#    0.000    1.625    1.250    4.125    0.000    6.500 
#    0.000    6.250    0.000    0.000    0.000    0.000 
#    0.000    0.000    0.000    0.000    0.000    0.000 
#
# Total GULP energy -357655.603724 kJ/mol
# GULP energy per Si atom -5588.368808 kJ/mol
# Density = 1.988929 g / cm^3
# Si number density = 19.934660 Si / 1000 Ang^3
#
#
#
# Elastic Constant Matrix: (Units=GPa)
#
#
# Indices 1 2 3 4 5 6 
#
# 1 87.3918 44.3964 55.8211 0.0000 0.0000 0.0000
# 2 44.3964 80.8041 52.3195 0.0000 0.0000 0.0000
# 3 55.8211 52.3195 120.8654 0.0000 0.0000 0.0000
# 4 0.0000 0.0000 0.0000 -0.6871 0.0000 0.0000
# 5 0.0000 0.0000 0.0000 0.0000 27.7700 0.0000
# 6 0.0000 0.0000 0.0000 0.0000 0.0000 16.5781
#
#
#
# Elastic Compliance Matrix: (Units=1/GPa)
#
#
# Indices 1 2 3 4 5 6 
#
# 1 0.018324 -0.006375 -0.005703 0.000000 0.000000 0.000000
# 2 -0.006375 0.019413 -0.005459 0.000000 0.000000 0.000000
# 3 -0.005703 -0.005459 0.013271 0.000000 0.000000 0.000000
# 4 0.000000 0.000000 0.000000 -1.455411 0.000000 0.000000
# 5 0.000000 0.000000 0.000000 0.000000 0.036010 0.000000
# 6 0.000000 0.000000 0.000000 0.000000 0.000000 0.060321
#
#
# Mechanical properties :
#
#
# Convention : Reuss Voigt Hill
#
# Bulk Modulus (GPa) = 62.76272 66.01504 64.38888
# Shear Modulus (GPa) = -3.94420 17.83382 6.94481
#
# Velocity S-wave (km/s) = -1.40814 2.99425 1.86852
# Velocity P-wave (km/s) = 5.37669 6.71876 6.08484
#
# Compressibility (1/GPa) = 0.01593303
#
# Stress axis : x y z
#
# Youngs Moduli (GPa) = 54.57198 51.51187 75.35322
#
# Poissons Ratio (x) = 0.32840 0.42977
# Poissons Ratio (y) = 0.34791 0.41136
# Poissons Ratio (z) = 0.31125 0.28121
#
# Static dielectric constant tensor:
#      x y z
#    x 1.674500 0.000000 0.000000 
#    y 0.000000 1.708750 0.000000 
#    z 0.000000 0.000000 1.716220 
# 
# From -- ./inp_files/31667.got.cif
#   From: 2010.05.17/outbox.cif.g08.bks.cpg/sg59_16_cif.got.tgz:31667.got - 2010.06.03 14:40:33.
