data_PCOD9452168
_publ_section_title
;
Structure prediction by ZEFSAII (Michael W. Deem and Ramdas Pophale) SiO2 
 PCOD9452168
Probable space group: P M M N
;
_chemical_formula_sum "Si O2"
_cell_formula_units_Z 48
_cell_length_a 8.044768
_cell_length_b 14.858801
_cell_length_c 18.458918
_cell_angle_alpha 90.000000
_cell_angle_beta 90.000000
_cell_angle_gamma 90.000000
_cell_volume 2206.497964
_symmetry_space_group_name_H-M "P M M N"
_symmetry_group_IT_number 59
_space_group.IT_coordinate_system_code '2'
_symmetry_cell_setting 'orthorhombic'
loop_
_space_group_symop_operation_xyz
x,y,z
1/2-x,1/2-y,z
1/2+x,-y,-z
-x,1/2+y,-z
-x,-y,-z
1/2+x,1/2+y,-z
1/2-x,y,z
x,1/2-y,z
loop_
_atom_site_type_symbol
_atom_site_label
_atom_site_fract_x
_atom_site_fract_y
_atom_site_fract_z
Si Si1 0.940890 0.353202 0.470179
Si Si2 0.548532 0.653726 0.130622
Si Si3 0.449824 0.400171 0.024230
Si Si4 0.058282 0.147873 0.628141
Si Si5 0.450031 0.046644 0.176140
Si Si6 0.057063 0.459384 0.332975
O O1 0.750000 0.361629 0.494570
O O2 0.969668 0.250000 0.446634
O O3 0.049285 0.369327 0.541532
O O4 0.971039 0.418164 0.403189
O O5 0.750000 0.649893 0.133088
O O6 0.497596 0.750000 0.164247
O O7 0.486898 0.559282 0.162486
O O8 0.495236 0.655233 0.045761
O O9 0.250000 0.390593 0.027389
O O10 0.511819 0.395440 0.107088
O O11 0.500000 0.500000 0.000000
O O12 0.250000 0.143528 0.652009
O O13 0.996885 0.250000 0.639639
O O14 0.960394 0.067283 0.664861
O O15 0.250000 0.055270 0.178056
O O16 0.513178 0.072415 0.255623
O O17 0.250000 0.434372 0.338101
#
# Coordination Sequence:
#
# PCOD9452168 Si02
#       6
#     8   8   8   8   8   8
#     4  10  21  38  59  80 103 134 174 220 266 312
#     4   9  17  29  48  73  97 124 161 206 254 301
#     4   8  14  28  47  65  88 119 157 196 234 281
#     4  10  21  37  57  80 106 138 177 219 261 309
#     4   9  19  33  48  69  98 133 168 202 246 299
#     4  11  22  35  53  78 109 143 177 214 260 314
#
# _framework density 21.753927000000001
#
# number of rings (size 3 to 8) (size 9 to 14) (size 15 to 20)
#    0.000    2.500    0.000    2.000    0.000    4.333 
#    0.000    4.167    0.000    3.000    0.000    0.000 
#    0.000    0.000    0.000    0.000    0.000    0.000 
#
# Total GULP energy -267628.422487 kJ/mol
# GULP energy per Si atom -5575.592135 kJ/mol
# Density = 2.170441 g / cm^3
# Si number density = 21.753927 Si / 1000 Ang^3
#
#
#
# Elastic Constant Matrix: (Units=GPa)
#
#
# Indices 1 2 3 4 5 6 
#
# 1 22.4784 -1.3529 -3.6467 0.0000 0.0000 0.0000
# 2 -1.3529 29.3302 0.5511 0.0000 0.0000 0.0000
# 3 -3.6467 0.5511 67.2201 0.0000 0.0000 0.0000
# 4 0.0000 0.0000 0.0000 8.8716 0.0000 0.0000
# 5 0.0000 0.0000 0.0000 0.0000 13.0206 0.0000
# 6 0.0000 0.0000 0.0000 0.0000 0.0000 13.9037
#
#
#
# Elastic Compliance Matrix: (Units=1/GPa)
#
#
# Indices 1 2 3 4 5 6 
#
# 1 0.045003 0.002030 0.002425 0.000000 0.000000 0.000000
# 2 0.002030 0.034191 -0.000170 0.000000 0.000000 0.000000
# 3 0.002425 -0.000170 0.015009 0.000000 0.000000 0.000000
# 4 0.000000 0.000000 0.000000 0.112719 0.000000 0.000000
# 5 0.000000 0.000000 0.000000 0.000000 0.076801 0.000000
# 6 0.000000 0.000000 0.000000 0.000000 0.000000 0.071923
#
#
# Mechanical properties :
#
#
# Convention : Reuss Voigt Hill
#
# Bulk Modulus (GPa) = 9.73015 12.23685 10.98350
# Shear Modulus (GPa) = 13.11182 15.39100 14.25141
#
# Velocity S-wave (km/s) = 2.45773 2.66278 2.56231
# Velocity P-wave (km/s) = 3.54068 3.88474 3.71669
#
# Compressibility (1/GPa) = 0.10277332
#
# Stress axis : x y z
#
# Youngs Moduli (GPa) = 22.22093 29.24708 66.62476
#
# Poissons Ratio (x) = -0.05938 -0.16155
# Poissons Ratio (y) = -0.04512 0.01134
# Poissons Ratio (z) = -0.05388 0.00498
#
# Static dielectric constant tensor:
#      x y z
#    x 1.799180 0.000000 0.000000 
#    y 0.000000 1.796790 0.000000 
#    z 0.000000 0.000000 1.847160 
# 
# From -- ./inp_files/25417.got.cif
#   From: 2010.05.17/outbox.cif.g08.bks.cpg/sg59_13_cif.got.tgz:25417.got - 2010.06.03 14:40:33.
