data_PCOD9452185
_publ_section_title
;
Structure prediction by ZEFSAII (Michael W. Deem and Ramdas Pophale) SiO2 
 PCOD9452185
Probable space group: P M M N
;
_chemical_formula_sum "Si O2"
_cell_formula_units_Z 64
_cell_length_a 14.862664
_cell_length_b 8.844086
_cell_length_c 27.030152
_cell_angle_alpha 90.000000
_cell_angle_beta 90.000000
_cell_angle_gamma 90.000000
_cell_volume 3553.023703
_symmetry_space_group_name_H-M "P M M N"
_symmetry_group_IT_number 59
_space_group.IT_coordinate_system_code '2'
_symmetry_cell_setting 'orthorhombic'
loop_
_space_group_symop_operation_xyz
x,y,z
1/2-x,1/2-y,z
1/2+x,-y,-z
-x,1/2+y,-z
-x,-y,-z
1/2+x,1/2+y,-z
1/2-x,y,z
x,1/2-y,z
loop_
_atom_site_type_symbol
_atom_site_label
_atom_site_fract_x
_atom_site_fract_y
_atom_site_fract_z
Si Si1 0.647392 0.933976 0.130864
Si Si2 0.992898 0.569314 0.690619
Si Si3 0.004971 0.931225 0.054350
Si Si4 0.354257 0.432536 0.504419
Si Si5 0.143393 0.570896 0.232749
Si Si6 0.498870 0.932360 0.576484
Si Si7 0.143117 0.070036 0.756998
Si Si8 0.142544 0.072435 0.127549
O O1 0.750000 0.983317 0.121742
O O2 0.647874 0.750000 0.131308
O O3 0.578740 0.982490 0.088723
O O4 0.620688 0.978882 0.186668
O O5 0.984749 0.750000 0.692228
O O6 0.912956 0.496576 0.722379
O O7 0.992182 0.520803 0.633387
O O8 0.084200 0.517485 0.717439
O O9 0.003382 0.750000 0.051316
O O10 0.092390 0.986235 0.083885
O O11 0.000000 0.000000 0.000000
O O12 0.250000 0.481946 0.502685
O O13 0.354630 0.250000 0.507507
O O14 0.413373 0.475169 0.456065
O O15 0.411199 0.498352 0.550123
O O16 0.250000 0.544165 0.239530
O O17 0.128003 0.750000 0.229063
O O18 0.115979 0.495053 0.180837
O O19 0.491501 0.750000 0.574810
O O20 0.250000 0.048883 0.750469
O O21 0.124688 0.250000 0.753027
O O22 0.250000 0.054773 0.123103
O O23 0.121053 0.250000 0.125678
#
# Coordination Sequence:
#
# PCOD9452185 Si02
#       8
#     8   8   8   8   8   8   8   8
#     4   8  16  33  55  75  96 129 173 215 257 308
#     4  11  22  34  52  79 113 148 177 214 264 318
#     4  11  22  35  54  80 109 141 178 223 274 325
#     4   9  18  35  58  78  98 132 179 226 268 312
#     4  10  21  37  57  81 109 142 180 221 267 321
#     4   9  20  36  52  76 108 140 175 216 264 316
#     4   9  18  34  56  79 103 136 179 223 267 316
#     4  10  21  38  59  81 107 141 181 225 274 327
#
# _framework density 18.012826
#
# number of rings (size 3 to 8) (size 9 to 14) (size 15 to 20)
#    0.000    2.375    0.000    3.000    0.000    5.500 
#    0.000    5.625    0.000    2.625    0.000    0.000 
#    0.000    0.000    0.000    0.000    0.000    0.000 
#
# Total GULP energy -357224.438805 kJ/mol
# GULP energy per Si atom -5581.631856 kJ/mol
# Density = 1.797183 g / cm^3
# Si number density = 18.012826 Si / 1000 Ang^3
#
#
#
# Elastic Constant Matrix: (Units=GPa)
#
#
# Indices 1 2 3 4 5 6 
#
# 1 95.1312 41.4481 72.2917 0.0000 0.0000 0.0000
# 2 41.4481 40.1808 52.4252 0.0000 0.0000 0.0000
# 3 72.2917 52.4252 173.1652 0.0000 0.0000 0.0000
# 4 0.0000 0.0000 0.0000 31.8728 0.0000 0.0000
# 5 0.0000 0.0000 0.0000 0.0000 175.4703 0.0000
# 6 0.0000 0.0000 0.0000 0.0000 0.0000 27.4107
#
#
#
# Elastic Compliance Matrix: (Units=1/GPa)
#
#
# Indices 1 2 3 4 5 6 
#
# 1 0.020321 -0.016353 -0.003533 0.000000 0.000000 0.000000
# 2 -0.016353 0.054296 -0.009611 0.000000 0.000000 0.000000
# 3 -0.003533 -0.009611 0.010159 0.000000 0.000000 0.000000
# 4 0.000000 0.000000 0.000000 0.031375 0.000000 0.000000
# 5 0.000000 0.000000 0.000000 0.000000 0.005699 0.000000
# 6 0.000000 0.000000 0.000000 0.000000 0.000000 0.036482
#
#
# Mechanical properties :
#
#
# Convention : Reuss Voigt Hill
#
# Bulk Modulus (GPa) = 38.78484 71.20082 54.99283
# Shear Modulus (GPa) = 22.13165 56.43823 39.28494
#
# Velocity S-wave (km/s) = 3.50903 5.60359 4.67512
# Velocity P-wave (km/s) = 6.16411 9.02666 7.72907
#
# Compressibility (1/GPa) = 0.02578327
#
# Stress axis : x y z
#
# Youngs Moduli (GPa) = 49.20945 18.41750 98.43087
#
# Poissons Ratio (x) = 0.30118 0.34774
# Poissons Ratio (y) = 0.80472 0.94603
# Poissons Ratio (z) = 0.17385 0.17701
#
# Static dielectric constant tensor:
#      x y z
#    x 1.619010 0.000000 0.000000 
#    y 0.000000 1.612530 0.000000 
#    z 0.000000 0.000000 1.590140 
# 
# From -- ./inp_files/31623.got.cif
#   From: 2010.05.17/outbox.cif.g08.bks.cpg/sg59_16_cif.got.tgz:31623.got - 2010.06.03 14:40:33.
