data_PCOD9452324
_publ_section_title
;
Structure prediction by ZEFSAII (Michael W. Deem and Ramdas Pophale) SiO2 
 PCOD9452324
Probable space group: P M M N
;
_chemical_formula_sum "Si O2"
_cell_formula_units_Z 48
_cell_length_a 15.177638
_cell_length_b 8.815364
_cell_length_c 19.357171
_cell_angle_alpha 90.000000
_cell_angle_beta 90.000000
_cell_angle_gamma 90.000000
_cell_volume 2589.919864
_symmetry_space_group_name_H-M "P M M N"
_symmetry_group_IT_number 59
_space_group.IT_coordinate_system_code '2'
_symmetry_cell_setting 'orthorhombic'
loop_
_space_group_symop_operation_xyz
x,y,z
1/2-x,1/2-y,z
1/2+x,-y,-z
-x,1/2+y,-z
-x,-y,-z
1/2+x,1/2+y,-z
1/2-x,y,z
x,1/2-y,z
loop_
_atom_site_type_symbol
_atom_site_label
_atom_site_fract_x
_atom_site_fract_y
_atom_site_fract_z
Si Si1 0.097459 0.569484 0.503964
Si Si2 0.353314 0.433219 0.001521
Si Si3 0.148868 0.073982 0.647664
Si Si4 0.497397 0.568662 0.742704
Si Si5 0.151465 0.428613 0.362075
Si Si6 0.006012 0.568270 0.105370
O O1 0.094412 0.750000 0.510625
O O2 0.141139 0.498074 0.571721
O O3 0.142857 0.520729 0.432784
O O4 0.000000 0.500000 0.500000
O O5 0.250000 0.480959 0.997605
O O6 0.353360 0.250000 0.006878
O O7 0.415761 0.474008 0.935936
O O8 0.409235 0.500521 0.065367
O O9 0.250000 0.068735 0.670036
O O10 0.120607 0.250000 0.644038
O O11 0.087736 0.984695 0.700492
O O12 0.498117 0.750000 0.750434
O O13 0.579779 0.524654 0.694080
O O14 0.502105 0.492475 0.817160
O O15 0.250000 0.443736 0.334142
O O16 0.136270 0.250000 0.378576
O O17 0.012158 0.750000 0.104542
#
# Coordination Sequence:
#
# PCOD9452324 Si02
#       6
#     8   8   8   8   8   8
#     4  12  23  37  60  86 114 150 195 248 302 353
#     4   9  19  38  63  88 116 154 197 237 285 345
#     4  11  24  41  61  85 116 155 197 246 302 353
#     4  11  23  39  60  86 120 161 198 239 289 348
#     4  10  22  40  60  83 113 152 197 245 298 352
#     4  10  21  37  59  89 123 155 191 240 292 344
#
# _framework density 18.533391000000002
#
# number of rings (size 3 to 8) (size 9 to 14) (size 15 to 20)
#    0.000    1.500    1.667    3.500    0.000    6.667 
#    0.000    3.333    0.000    0.000    0.000    0.000 
#    0.000    0.000    0.000    0.000    0.000    0.000 
#
# Total GULP energy -268142.500109 kJ/mol
# GULP energy per Si atom -5586.302086 kJ/mol
# Density = 1.849121 g / cm^3
# Si number density = 18.533391 Si / 1000 Ang^3
#
#
#
# Elastic Constant Matrix: (Units=GPa)
#
#
# Indices 1 2 3 4 5 6 
#
# 1 125.7595 25.8833 52.0238 0.0000 0.0000 0.0000
# 2 25.8833 34.2955 25.8983 0.0000 0.0000 0.0000
# 3 52.0238 25.8983 132.9759 0.0000 0.0000 0.0000
# 4 0.0000 0.0000 0.0000 36.3174 0.0000 0.0000
# 5 0.0000 0.0000 0.0000 0.0000 348.7680 0.0000
# 6 0.0000 0.0000 0.0000 0.0000 0.0000 28.1182
#
#
#
# Elastic Compliance Matrix: (Units=1/GPa)
#
#
# Indices 1 2 3 4 5 6 
#
# 1 0.010317 -0.005556 -0.002954 0.000000 0.000000 0.000000
# 2 -0.005556 0.037178 -0.005067 0.000000 0.000000 0.000000
# 3 -0.002954 -0.005067 0.009663 0.000000 0.000000 0.000000
# 4 0.000000 0.000000 0.000000 0.027535 0.000000 0.000000
# 5 0.000000 0.000000 0.000000 0.000000 0.002867 0.000000
# 6 0.000000 0.000000 0.000000 0.000000 0.000000 0.035564
#
#
# Mechanical properties :
#
#
# Convention : Reuss Voigt Hill
#
# Bulk Modulus (GPa) = 33.32944 55.62687 44.47816
# Shear Modulus (GPa) = 31.19544 95.25576 63.22560
#
# Velocity S-wave (km/s) = 4.10713 7.17694 5.84709
# Velocity P-wave (km/s) = 6.36505 9.93768 8.34480
#
# Compressibility (1/GPa) = 0.03000350
#
# Stress axis : x y z
#
# Youngs Moduli (GPa) = 96.92473 26.89781 103.48871
#
# Poissons Ratio (x) = 0.14943 0.30575
# Poissons Ratio (y) = 0.53847 0.52440
# Poissons Ratio (z) = 0.28635 0.13630
#
# Static dielectric constant tensor:
#      x y z
#    x 1.558460 0.000000 0.000000 
#    y 0.000000 1.629680 0.000000 
#    z 0.000000 0.000000 2.781870 
# 
# From -- ./inp_files/25418.got.cif
#   From: 2010.05.17/outbox.cif.g08.bks.cpg/sg59_13_cif.got.tgz:25418.got - 2010.06.03 14:40:33.
