data_PCOD9452460
_publ_section_title
;
Structure prediction by ZEFSAII (Michael W. Deem and Ramdas Pophale) SiO2 
 PCOD9452460
Probable space group: P M M N
;
_chemical_formula_sum "Si O2"
_cell_formula_units_Z 64
_cell_length_a 7.887268
_cell_length_b 15.161145
_cell_length_c 25.029629
_cell_angle_alpha 90.000000
_cell_angle_beta 90.000000
_cell_angle_gamma 90.000000
_cell_volume 2993.043381
_symmetry_space_group_name_H-M "P M M N"
_symmetry_group_IT_number 59
_space_group.IT_coordinate_system_code '2'
_symmetry_cell_setting 'orthorhombic'
loop_
_space_group_symop_operation_xyz
x,y,z
1/2-x,1/2-y,z
1/2+x,-y,-z
-x,1/2+y,-z
-x,-y,-z
1/2+x,1/2+y,-z
1/2-x,y,z
x,1/2-y,z
loop_
_atom_site_type_symbol
_atom_site_label
_atom_site_fract_x
_atom_site_fract_y
_atom_site_fract_z
Si Si1 0.956247 0.150038 0.024503
Si Si2 0.552079 0.154796 0.398121
Si Si3 0.454465 0.848690 0.098077
Si Si4 0.450890 0.399066 0.510969
Si Si5 0.454545 0.652191 0.368669
Si Si6 0.951980 0.460673 0.123719
Si Si7 0.951942 0.850061 0.773644
Si Si8 0.054247 0.020030 0.316065
O O1 0.750000 0.146839 0.023195
O O2 0.002480 0.250000 0.041502
O O3 0.016394 0.077826 0.066864
O O4 0.014012 0.138146 0.963451
O O5 0.750000 0.144125 0.385113
O O6 0.492198 0.250000 0.377725
O O7 0.532818 0.152152 0.461674
O O8 0.452254 0.076092 0.370666
O O9 0.250000 0.846763 0.097644
O O10 0.510985 0.750000 0.115323
O O11 0.506359 0.936037 0.129745
O O12 0.500000 0.500000 0.500000
O O13 0.250000 0.388542 0.507449
O O14 0.506408 0.369614 0.569637
O O15 0.250000 0.651887 0.363941
O O16 0.517434 0.750000 0.355888
O O17 0.522668 0.574578 0.330611
O O18 0.750000 0.451540 0.124155
O O19 0.021801 0.398597 0.170219
O O20 0.750000 0.843104 0.763976
O O21 0.020802 0.750000 0.772819
O O22 0.024032 0.915884 0.728419
O O23 0.250000 0.004845 0.300431
#
# Coordination Sequence:
#
# PCOD9452460 Si02
#       8
#     8   8   8   8   8   8   8   8
#     4   8  15  29  50  78 112 149 189 231 278 338
#     4  11  23  37  56  84 116 148 183 226 277 334
#     4   9  18  34  55  78 109 151 194 235 280 333
#     4  12  23  36  56  83 116 153 189 226 273 330
#     4  10  21  38  60  86 115 146 183 230 282 335
#     4  11  21  33  54  83 115 150 187 233 289 344
#     4  10  22  40  60  83 112 146 189 237 282 335
#     4  10  21  39  62  83 108 146 189 235 280 325
#
# _framework density 21.382918
#
# number of rings (size 3 to 8) (size 9 to 14) (size 15 to 20)
#    0.000    1.875    1.250    4.125    0.000    4.750 
#    0.000    1.250    0.000    3.750    0.000    0.000 
#    0.000    0.000    0.000    0.000    0.000    0.000 
#
# Total GULP energy -357382.039605 kJ/mol
# GULP energy per Si atom -5584.094369 kJ/mol
# Density = 2.133425 g / cm^3
# Si number density = 21.382918 Si / 1000 Ang^3
#
#
#
# Elastic Constant Matrix: (Units=GPa)
#
#
# Indices 1 2 3 4 5 6 
#
# 1 31.9954 3.3787 -3.2141 0.0000 0.0000 0.0000
# 2 3.3787 185.8403 49.2672 0.0000 0.0000 0.0000
# 3 -3.2141 49.2672 57.2760 0.0000 0.0000 0.0000
# 4 0.0000 0.0000 0.0000 18.3371 0.0000 0.0000
# 5 0.0000 0.0000 0.0000 0.0000 16.3147 0.0000
# 6 0.0000 0.0000 0.0000 0.0000 0.0000 12.4071
#
#
#
# Elastic Compliance Matrix: (Units=1/GPa)
#
#
# Indices 1 2 3 4 5 6 
#
# 1 0.031694 -0.001357 0.002946 0.000000 0.000000 0.000000
# 2 -0.001357 0.007029 -0.006122 0.000000 0.000000 0.000000
# 3 0.002946 -0.006122 0.022891 0.000000 0.000000 0.000000
# 4 0.000000 0.000000 0.000000 0.054534 0.000000 0.000000
# 5 0.000000 0.000000 0.000000 0.000000 0.061294 0.000000
# 6 0.000000 0.000000 0.000000 0.000000 0.000000 0.080599
#
#
# Mechanical properties :
#
#
# Convention : Reuss Voigt Hill
#
# Bulk Modulus (GPa) = 19.03073 41.55279 30.29176
# Shear Modulus (GPa) = 17.56712 24.45711 21.01212
#
# Velocity S-wave (km/s) = 2.86938 3.38563 3.13814
# Velocity P-wave (km/s) = 4.46061 5.89561 5.22759
#
# Compressibility (1/GPa) = 0.05254659
#
# Stress axis : x y z
#
# Youngs Moduli (GPa) = 31.55191 142.27585 43.68612
#
# Poissons Ratio (x) = 0.19310 -0.12870
# Poissons Ratio (y) = 0.04282 0.26744
# Poissons Ratio (z) = -0.09295 0.87101
#
# Static dielectric constant tensor:
#      x y z
#    x 1.755550 0.000000 0.000000 
#    y 0.000000 1.812480 0.000000 
#    z 0.000000 0.000000 1.765360 
# 
# From -- ./inp_files/31577.got.cif
#   From: 2010.05.17/outbox.cif.g08.bks.cpg/sg59_16_cif.got.tgz:31577.got - 2010.06.03 14:40:33.
