data_PCOD9452660
_publ_section_title
;
Structure prediction by ZEFSAII (Michael W. Deem and Ramdas Pophale) SiO2 
 PCOD9452660
Probable space group: P M M N
;
_chemical_formula_sum "Si O2"
_cell_formula_units_Z 48
_cell_length_a 8.676729
_cell_length_b 31.054576
_cell_length_c 9.831950
_cell_angle_alpha 90.000000
_cell_angle_beta 90.000000
_cell_angle_gamma 90.000000
_cell_volume 2649.239969
_symmetry_space_group_name_H-M "P M M N"
_symmetry_group_IT_number 59
_space_group.IT_coordinate_system_code '2'
_symmetry_cell_setting 'orthorhombic'
loop_
_space_group_symop_operation_xyz
x,y,z
1/2-x,1/2-y,z
1/2+x,-y,-z
-x,1/2+y,-z
-x,-y,-z
1/2+x,1/2+y,-z
1/2-x,y,z
x,1/2-y,z
loop_
_atom_site_type_symbol
_atom_site_label
_atom_site_fract_x
_atom_site_fract_y
_atom_site_fract_z
Si Si1 0.565938 0.638509 0.411020
Si Si2 0.434613 0.800363 0.192381
Si Si3 0.065840 0.370441 0.011611
Si Si4 0.934183 0.012516 0.352285
Si Si5 0.065869 0.567116 0.207172
Si Si6 0.065502 0.613078 0.694455
O O1 0.750000 0.635475 0.403713
O O2 0.506883 0.680193 0.329845
O O3 0.493019 0.598131 0.329077
O O4 0.507856 0.636488 0.564751
O O5 0.250000 0.806450 0.196011
O O6 0.467970 0.750000 0.176407
O O7 0.503484 0.829297 0.071518
O O8 0.250000 0.370883 0.008445
O O9 0.003052 0.370933 0.163901
O O10 0.002140 0.411891 0.929256
O O11 0.750000 0.007057 0.354206
O O12 0.969370 0.062176 0.321327
O O13 0.000000 0.000000 0.500000
O O14 0.006376 0.980280 0.242196
O O15 0.250000 0.568181 0.202770
O O16 0.250000 0.618221 0.692768
#
# Coordination Sequence:
#
# PCOD9452660 Si02
#       6
#     8   8   8   8   8   8
#     4  11  21  35  59  87 117 149 189 238 285 338
#     4  10  21  40  66  91 116 149 188 230 283 351
#     4  11  23  39  60  86 118 154 193 241 293 347
#     4  11  22  35  56  83 114 154 201 249 293 339
#     4  11  21  36  57  81 114 156 199 242 285 340
#     4  11  23  39  58  83 118 157 195 239 293 347
#
# _framework density 18.118403000000001
#
# number of rings (size 3 to 8) (size 9 to 14) (size 15 to 20)
#    0.000    1.167    1.667    8.000    0.000    4.000 
#    0.000    0.833    0.000    5.000    0.000    0.000 
#    0.000    0.000    0.000    0.000    0.000    0.000 
#
# Total GULP energy -268417.627657 kJ/mol
# GULP energy per Si atom -5592.033910 kJ/mol
# Density = 1.807717 g / cm^3
# Si number density = 18.118403 Si / 1000 Ang^3
#
#
#
# Elastic Constant Matrix: (Units=GPa)
#
#
# Indices 1 2 3 4 5 6 
#
# 1 132.0261 66.2370 60.1794 0.0000 0.0000 0.0000
# 2 66.2370 94.8548 51.8160 0.0000 0.0000 0.0000
# 3 60.1794 51.8160 153.2797 0.0000 0.0000 0.0000
# 4 0.0000 0.0000 0.0000 13.8216 0.0000 0.0000
# 5 0.0000 0.0000 0.0000 0.0000 33.7713 0.0000
# 6 0.0000 0.0000 0.0000 0.0000 0.0000 27.8953
#
#
#
# Elastic Compliance Matrix: (Units=1/GPa)
#
#
# Indices 1 2 3 4 5 6 
#
# 1 0.012321 -0.007311 -0.002366 0.000000 0.000000 0.000000
# 2 -0.007311 0.017269 -0.002967 0.000000 0.000000 0.000000
# 3 -0.002366 -0.002967 0.008456 0.000000 0.000000 0.000000
# 4 0.000000 0.000000 0.000000 0.072351 0.000000 0.000000
# 5 0.000000 0.000000 0.000000 0.000000 0.029611 0.000000
# 6 0.000000 0.000000 0.000000 0.000000 0.000000 0.035848
#
#
# Mechanical properties :
#
#
# Convention : Reuss Voigt Hill
#
# Bulk Modulus (GPa) = 78.38800 81.84726 80.11763
# Shear Modulus (GPa) = 24.34328 28.55950 26.45139
#
# Velocity S-wave (km/s) = 3.66945 3.97453 3.82503
# Velocity P-wave (km/s) = 7.83016 8.14458 7.98891
#
# Compressibility (1/GPa) = 0.01275705
#
# Stress axis : x y z
#
# Youngs Moduli (GPa) = 81.16532 57.90835 118.26102
#
# Poissons Ratio (x) = 0.42338 0.27977
# Poissons Ratio (y) = 0.59341 0.35091
# Poissons Ratio (z) = 0.19201 0.17183
#
# Static dielectric constant tensor:
#      x y z
#    x 1.601940 0.000000 0.000000 
#    y 0.000000 1.609270 0.000000 
#    z 0.000000 0.000000 1.606710 
# 
# From -- ./inp_files/6266.got.cif
#   From: 2010.05.17/outbox.cif.g08.bks.cpg/sg59_4_cif.got.tgz:6266.got - 2010.06.03 14:40:33.
