data_PCOD9452291
_publ_section_title
;
Structure prediction by ZEFSAII (Michael W. Deem and Ramdas Pophale) SiO2 
 PCOD9452291
Probable space group: P M M N
;
_chemical_formula_sum "Si O2"
_cell_formula_units_Z 40
_cell_length_a 14.346542
_cell_length_b 13.780652
_cell_length_c 9.938383
_cell_angle_alpha 90.000000
_cell_angle_beta 90.000000
_cell_angle_gamma 90.000000
_cell_volume 1964.865056
_symmetry_space_group_name_H-M "P M M N"
_symmetry_group_IT_number 59
_space_group.IT_coordinate_system_code '2'
_symmetry_cell_setting 'orthorhombic'
loop_
_space_group_symop_operation_xyz
x,y,z
1/2-x,1/2-y,z
1/2+x,-y,-z
-x,1/2+y,-z
-x,-y,-z
1/2+x,1/2+y,-z
1/2-x,y,z
x,1/2-y,z
loop_
_atom_site_type_symbol
_atom_site_label
_atom_site_fract_x
_atom_site_fract_y
_atom_site_fract_z
Si Si1 0.518841 0.634230 0.538231
Si Si2 0.024695 0.542823 0.823932
Si Si3 0.141895 0.560709 0.056331
Si Si4 0.350741 0.864084 0.352134
Si Si5 0.360131 0.364403 0.706542
O O1 0.511635 0.750000 0.552250
O O2 0.503347 0.590649 0.684061
O O3 0.435011 0.597791 0.441234
O O4 0.611379 0.617602 0.449530
O O5 0.079003 0.441400 0.791202
O O6 0.928337 0.526039 0.904034
O O7 0.095682 0.601299 0.920333
O O8 0.250000 0.535851 0.035543
O O9 0.136242 0.623906 0.192299
O O10 0.250000 0.908218 0.386474
O O11 0.347067 0.750000 0.379437
O O12 0.250000 0.378125 0.727997
O O13 0.383233 0.250000 0.734635
#
# Coordination Sequence:
#
# PCOD9452291 Si02
#       5
#     8   8   8   8   8
#     4  10  21  38  58  87 118 148 190 240 290 341
#     4  11  22  38  59  86 115 153 197 241 291 340
#     4  10  22  37  55  82 116 152 195 241 291 348
#     4   9  18  34  56  81 112 150 188 230 288 353
#     4  10  21  37  59  86 116 152 194 237 285 344
#
# _framework density 20.357631999999999
#
# number of rings (size 3 to 8) (size 9 to 14) (size 15 to 20)
#    0.000    2.000    2.000    1.200    0.000    3.200 
#    0.000    3.000    0.000    1.200    0.000    0.000 
#    0.000    0.000    0.000    0.000    0.000    0.000 
#
# Total GULP energy -222926.341039 kJ/mol
# GULP energy per Si atom -5573.158526 kJ/mol
# Density = 2.031130 g / cm^3
# Si number density = 20.357632 Si / 1000 Ang^3
#
#
#
# Elastic Constant Matrix: (Units=GPa)
#
#
# Indices 1 2 3 4 5 6 
#
# 1 94.8934 -0.7353 18.1666 0.0000 0.0000 0.0000
# 2 -0.7353 32.8174 1.8350 0.0000 0.0000 0.0000
# 3 18.1666 1.8350 99.7203 0.0000 0.0000 0.0000
# 4 0.0000 0.0000 0.0000 16.4842 0.0000 0.0000
# 5 0.0000 0.0000 0.0000 0.0000 24.3179 0.0000
# 6 0.0000 0.0000 0.0000 0.0000 0.0000 16.4636
#
#
#
# Elastic Compliance Matrix: (Units=1/GPa)
#
#
# Indices 1 2 3 4 5 6 
#
# 1 0.010923 0.000356 -0.001996 0.000000 0.000000 0.000000
# 2 0.000356 0.030515 -0.000626 0.000000 0.000000 0.000000
# 3 -0.001996 -0.000626 0.010403 0.000000 0.000000 0.000000
# 4 0.000000 0.000000 0.000000 0.060664 0.000000 0.000000
# 5 0.000000 0.000000 0.000000 0.000000 0.041122 0.000000
# 6 0.000000 0.000000 0.000000 0.000000 0.000000 0.060740
#
#
# Mechanical properties :
#
#
# Convention : Reuss Voigt Hill
#
# Bulk Modulus (GPa) = 21.13812 29.55154 25.34483
# Shear Modulus (GPa) = 21.30656 25.33080 23.31868
#
# Velocity S-wave (km/s) = 3.23865 3.53128 3.38812
# Velocity P-wave (km/s) = 4.93873 5.58339 5.27093
#
# Compressibility (1/GPa) = 0.04730790
#
# Stress axis : x y z
#
# Youngs Moduli (GPa) = 91.54902 32.77119 96.12342
#
# Poissons Ratio (x) = -0.01168 0.19191
# Poissons Ratio (y) = -0.03262 0.06021
# Poissons Ratio (z) = 0.18278 0.02053
#
# Static dielectric constant tensor:
#      x y z
#    x 1.759520 0.000000 0.000000 
#    y 0.000000 1.755730 0.000000 
#    z 0.000000 0.000000 1.745750 
# 
# From -- ./inp_files/8594.got.cif
#   From: 2010.05.17/outbox.cif.g08.bks.cpg/sg59_5_cif.got.tgz:8594.got - 2010.06.03 14:40:33.
