data_PCOD9452961
_publ_section_title
;
Structure prediction by ZEFSAII (Michael W. Deem and Ramdas Pophale) SiO2 
 PCOD9452961
Probable space group: P M M N
;
_chemical_formula_sum "Si O2"
_cell_formula_units_Z 52
_cell_length_a 12.377276
_cell_length_b 32.482404
_cell_length_c 7.448694
_cell_angle_alpha 90.000000
_cell_angle_beta 90.000000
_cell_angle_gamma 90.000000
_cell_volume 2994.700343
_symmetry_space_group_name_H-M "P M M N"
_symmetry_group_IT_number 59
_space_group.IT_coordinate_system_code '2'
_symmetry_cell_setting 'orthorhombic'
loop_
_space_group_symop_operation_xyz
x,y,z
1/2-x,1/2-y,z
1/2+x,-y,-z
-x,1/2+y,-z
-x,-y,-z
1/2+x,1/2+y,-z
1/2-x,y,z
x,1/2-y,z
loop_
_atom_site_type_symbol
_atom_site_label
_atom_site_fract_x
_atom_site_fract_y
_atom_site_fract_z
Si Si1 0.750000 0.068873 0.538090
Si Si2 0.750000 0.998017 0.250000
Si Si3 0.250000 0.931127 0.038089
Si Si4 0.874798 0.295960 0.468444
Si Si5 0.627776 0.917496 0.250000
Si Si6 0.625202 0.204040 0.031557
Si Si7 0.969495 0.118798 0.038931
Si Si8 0.469495 0.618798 0.538931
O O1 0.750000 0.060856 0.750000
O O2 0.643661 0.094955 0.488399
O O3 0.750000 0.027423 0.421880
O O4 0.648541 0.966685 0.250000
O O5 0.750000 0.027423 0.078120
O O6 0.356339 0.905045 0.988399
O O7 0.750000 0.302287 0.524971
O O8 0.908162 0.250000 0.524717
O O9 0.873781 0.296427 0.250000
O O10 0.947504 0.334292 0.523500
O O11 0.750000 0.900213 0.250000
O O12 0.560631 0.902793 0.078594
O O13 0.560631 0.902793 0.421406
O O14 0.750000 0.197713 0.975029
O O15 0.591839 0.250000 0.975284
O O16 0.552496 0.165708 0.976500
O O17 0.995655 0.118613 0.250000
#
# Coordination Sequence:
#
# PCOD9452961 Si02
#       8
#     4   4   4   8   8   8   8   8
#     4  12  22  38  63  93 117 149 186 241 305 370
#     4  10  26  46  56  86 116 144 216 248 292 360
#     4  12  22  38  63  93 117 149 186 241 305 370
#     4   8  14  26  51  90 127 151 180 226 288 363
#     4  10  26  45  56  83 113 157 209 254 283 348
#     4   8  14  26  51  90 127 151 180 226 288 363
#     4  11  20  37  65  87 121 158 191 237 300 352
#     4  11  20  37  65  87 121 158 191 237 300 352
#
# _framework density 17.364007999999998
#
# number of rings (size 3 to 8) (size 9 to 14) (size 15 to 20)
#    0.462    1.538    4.615    0.923    0.000    3.077 
#    0.000    0.769    0.000    4.615    0.000    4.308 
#    0.000    0.000    0.000    0.000    0.000    0.000 
#
# Total GULP energy -290035.303099 kJ/mol
# GULP energy per Si atom -5577.601983 kJ/mol
# Density = 1.732449 g / cm^3
# Si number density = 17.364008 Si / 1000 Ang^3
#
#
#
# Elastic Constant Matrix: (Units=GPa)
#
#
# Indices 1 2 3 4 5 6 
#
# 1 101.4690 51.8031 32.1362 0.0000 0.0000 0.0000
# 2 51.8031 153.6964 45.5974 0.0000 0.0000 0.0000
# 3 32.1362 45.5974 109.5722 0.0000 0.0000 0.0000
# 4 0.0000 0.0000 0.0000 -41.9338 0.0000 0.0000
# 5 0.0000 0.0000 0.0000 0.0000 14.9111 0.0000
# 6 0.0000 0.0000 0.0000 0.0000 0.0000 -66.3984
#
#
#
# Elastic Compliance Matrix: (Units=1/GPa)
#
#
# Indices 1 2 3 4 5 6 
#
# 1 0.012333 -0.003518 -0.002153 0.000000 0.000000 0.000000
# 2 -0.003518 0.008426 -0.002475 0.000000 0.000000 0.000000
# 3 -0.002153 -0.002475 0.010788 0.000000 0.000000 0.000000
# 4 0.000000 0.000000 0.000000 -0.023847 0.000000 0.000000
# 5 0.000000 0.000000 0.000000 0.000000 0.067064 0.000000
# 6 0.000000 0.000000 0.000000 0.000000 0.000000 -0.015061
#
#
# Mechanical properties :
#
#
# Convention : Reuss Voigt Hill
#
# Bulk Modulus (GPa) = 65.55096 69.31234 67.43165
# Shear Modulus (GPa) = 61.66709 -3.00414 29.33148
#
# Velocity S-wave (km/s) = 5.96585 -1.31676 4.11446
# Velocity P-wave (km/s) = 9.23516 6.13939 7.84157
#
# Compressibility (1/GPa) = 0.01525531
#
# Stress axis : x y z
#
# Youngs Moduli (GPa) = 81.08147 118.67634 92.69805
#
# Poissons Ratio (x) = 0.41752 0.19959
# Poissons Ratio (y) = 0.28525 0.22940
# Poissons Ratio (z) = 0.17458 0.29369
#
# Static dielectric constant tensor:
#      x y z
#    x 1.546830 0.000000 0.000000 
#    y 0.000000 1.602060 0.000000 
#    z 0.000000 0.000000 1.615140 
# 
# From -- ./inp_files/7951.got.cif
#   From: 2010.05.17/outbox.cif.g08.bks.cpg/sg59_4_cif.got.tgz:7951.got - 2010.06.03 14:40:33.
