data_PCOD9452152
_publ_section_title
;
Structure prediction by ZEFSAII (Michael W. Deem and Ramdas Pophale) SiO2 
 PCOD9452152
Probable space group: P M M N
;
_chemical_formula_sum "Si O2"
_cell_formula_units_Z 48
_cell_length_a 32.047122
_cell_length_b 9.021376
_cell_length_c 9.207777
_cell_angle_alpha 90.000000
_cell_angle_beta 90.000000
_cell_angle_gamma 90.000000
_cell_volume 2662.052465
_symmetry_space_group_name_H-M "P M M N"
_symmetry_group_IT_number 59
_space_group.IT_coordinate_system_code '2'
_symmetry_cell_setting 'orthorhombic'
loop_
_space_group_symop_operation_xyz
x,y,z
1/2-x,1/2-y,z
1/2+x,-y,-z
-x,1/2+y,-z
-x,-y,-z
1/2+x,1/2+y,-z
1/2-x,y,z
x,1/2-y,z
loop_
_atom_site_type_symbol
_atom_site_label
_atom_site_fract_x
_atom_site_fract_y
_atom_site_fract_z
Si Si1 0.750000 0.428396 0.337157
Si Si2 0.668760 0.428580 0.150230
Si Si3 0.414695 0.572522 0.674656
Si Si4 0.667853 0.927526 0.834580
Si Si5 0.250000 0.428367 0.346954
Si Si6 0.998608 0.572845 0.340367
Si Si7 0.408658 0.572834 0.331296
O O1 0.750000 0.250000 0.352906
O O2 0.708686 0.470323 0.247367
O O3 0.750000 0.500312 0.494880
O O4 0.669427 0.250000 0.132566
O O5 0.626061 0.467424 0.233756
O O6 0.670595 0.504356 0.994458
O O7 0.420842 0.750000 0.682024
O O8 0.456799 0.493149 0.728743
O O9 0.407485 0.536604 0.503870
O O10 0.666774 0.750000 0.842989
O O11 0.708656 0.971710 0.741939
O O12 0.626801 0.987462 0.754372
O O13 0.250000 0.250000 0.360794
O O14 0.995321 0.750000 0.353425
O O15 0.044322 0.539647 0.275661
O O16 0.000000 0.500000 0.500000
O O17 0.402001 0.750000 0.318135
#
# Coordination Sequence:
#
# PCOD9452152 Si02
#       7
#     4   8   8   8   4   8   8
#     4  10  21  38  62  86 104 134 181 220 258 316
#     4  10  21  37  56  80 110 141 175 219 267 313
#     4   9  18  33  54  80 108 138 176 223 270 314
#     4  11  23  37  54  78 109 145 180 213 259 319
#     4  10  23  40  56  80 112 140 171 218 268 310
#     4   9  17  30  51  78 107 139 176 220 268 314
#     4   9  18  34  55  79 107 138 176 224 269 309
#
# _framework density 18.031199999999998
#
# number of rings (size 3 to 8) (size 9 to 14) (size 15 to 20)
#    0.000    2.333    0.000    3.500    0.000    7.333 
#    0.000    0.833    0.000    0.000    0.000    0.000 
#    0.000    0.000    0.000    0.000    0.000    0.000 
#
# Total GULP energy -267845.330806 kJ/mol
# GULP energy per Si atom -5580.111058 kJ/mol
# Density = 1.799016 g / cm^3
# Si number density = 18.031200 Si / 1000 Ang^3
#
#
#
# Elastic Constant Matrix: (Units=GPa)
#
#
# Indices 1 2 3 4 5 6 
#
# 1 216.3950 70.4719 101.2111 0.0000 0.0000 0.0000
# 2 70.4719 34.3896 48.6375 0.0000 0.0000 0.0000
# 3 101.2111 48.6375 123.9925 0.0000 0.0000 0.0000
# 4 0.0000 0.0000 0.0000 27.6370 0.0000 0.0000
# 5 0.0000 0.0000 0.0000 0.0000 -10.9354 0.0000
# 6 0.0000 0.0000 0.0000 0.0000 0.0000 28.4026
#
#
#
# Elastic Compliance Matrix: (Units=1/GPa)
#
#
# Indices 1 2 3 4 5 6 
#
# 1 0.013901 -0.027936 -0.000388 0.000000 0.000000 0.000000
# 2 -0.027936 0.121457 -0.024839 0.000000 0.000000 0.000000
# 3 -0.000388 -0.024839 0.018126 0.000000 0.000000 0.000000
# 4 0.000000 0.000000 0.000000 0.036183 0.000000 0.000000
# 5 0.000000 0.000000 0.000000 0.000000 -0.091446 0.000000
# 6 0.000000 0.000000 0.000000 0.000000 0.000000 0.035208
#
#
# Mechanical properties :
#
#
# Convention : Reuss Voigt Hill
#
# Bulk Modulus (GPa) = 21.20670 90.60203 55.90436
# Shear Modulus (GPa) = 19.57145 19.31794 19.44470
#
# Velocity S-wave (km/s) = 3.29815 3.27672 3.28745
# Velocity P-wave (km/s) = 5.12741 8.04191 6.74398
#
# Compressibility (1/GPa) = 0.04715491
#
# Stress axis : x y z
#
# Youngs Moduli (GPa) = 71.93942 8.23340 55.17089
#
# Poissons Ratio (x) = 0.23001 0.02142
# Poissons Ratio (y) = 2.00971 1.37041
# Poissons Ratio (z) = 0.02793 0.20451
#
# Static dielectric constant tensor:
#      x y z
#    x 1.636730 0.000000 0.000000 
#    y 0.000000 1.601980 0.000000 
#    z 0.000000 0.000000 1.580510 
# 
# From -- ./inp_files/13009.got.cif
#   From: 2010.05.17/outbox.cif.g08.bks.cpg/sg59_7_cif.got.tgz:13009.got - 2010.06.03 14:40:33.
