data_PCOD9452506
_publ_section_title
;
Structure prediction by ZEFSAII (Michael W. Deem and Ramdas Pophale) SiO2 
 PCOD9452506
Probable space group: P M M N
;
_chemical_formula_sum "Si O2"
_cell_formula_units_Z 48
_cell_length_a 8.830712
_cell_length_b 19.489037
_cell_length_c 15.347659
_cell_angle_alpha 90.000000
_cell_angle_beta 90.000000
_cell_angle_gamma 90.000000
_cell_volume 2641.363928
_symmetry_space_group_name_H-M "P M M N"
_symmetry_group_IT_number 59
_space_group.IT_coordinate_system_code '2'
_symmetry_cell_setting 'orthorhombic'
loop_
_space_group_symop_operation_xyz
x,y,z
1/2-x,1/2-y,z
1/2+x,-y,-z
-x,1/2+y,-z
-x,-y,-z
1/2+x,1/2+y,-z
1/2-x,y,z
x,1/2-y,z
loop_
_atom_site_type_symbol
_atom_site_label
_atom_site_fract_x
_atom_site_fract_y
_atom_site_fract_z
Si Si1 0.568940 0.830220 0.613980
Si Si2 0.569508 0.669280 0.930798
Si Si3 0.069911 0.914555 0.772851
Si Si4 0.430876 0.431415 0.542501
Si Si5 0.068243 0.562497 0.267901
Si Si6 0.568518 0.170467 0.881425
O O1 0.750000 0.836375 0.630601
O O2 0.531026 0.750000 0.610329
O O3 0.482398 0.868349 0.691281
O O4 0.537356 0.869054 0.523539
O O5 0.750000 0.660711 0.923951
O O6 0.534421 0.750000 0.914813
O O7 0.487811 0.622579 0.859943
O O8 0.513969 0.653043 0.028291
O O9 0.250000 0.921347 0.773602
O O10 0.994635 0.988877 0.761510
O O11 0.500000 0.500000 0.500000
O O12 0.250000 0.439482 0.549728
O O13 0.501042 0.421075 0.637423
O O14 0.250000 0.559138 0.273966
O O15 0.026688 0.619846 0.196677
O O16 0.750000 0.165356 0.894996
O O17 0.533799 0.250000 0.860314
#
# Coordination Sequence:
#
# PCOD9452506 Si02
#       6
#     8   8   8   8   8   8
#     4  10  22  40  61  86 118 155 195 242 295 350
#     4  10  21  38  61  87 118 156 194 239 297 354
#     4  12  24  37  58  87 119 156 198 243 292 351
#     4  11  22  38  61  86 117 156 196 239 291 349
#     4  11  23  39  61  87 119 157 195 242 297 351
#     4   9  20  40  63  87 116 152 197 246 293 345
#
# _framework density 18.172429999999999
#
# number of rings (size 3 to 8) (size 9 to 14) (size 15 to 20)
#    0.000    1.500    1.667    3.500    0.000    6.667 
#    0.000    0.000    0.000    0.000    0.000    0.000 
#    0.000    0.000    0.000    0.000    0.000    0.000 
#
# Total GULP energy -268324.237406 kJ/mol
# GULP energy per Si atom -5590.088279 kJ/mol
# Density = 1.813107 g / cm^3
# Si number density = 18.172430 Si / 1000 Ang^3
#
#
#
# Elastic Constant Matrix: (Units=GPa)
#
#
# Indices 1 2 3 4 5 6 
#
# 1 74.0504 67.4241 78.7429 0.0000 0.0000 0.0000
# 2 67.4241 127.9842 101.5694 0.0000 0.0000 0.0000
# 3 78.7429 101.5694 171.2559 0.0000 0.0000 0.0000
# 4 0.0000 0.0000 0.0000 52.7769 0.0000 0.0000
# 5 0.0000 0.0000 0.0000 0.0000 38.8033 0.0000
# 6 0.0000 0.0000 0.0000 0.0000 0.0000 19.9122
#
#
#
# Elastic Compliance Matrix: (Units=1/GPa)
#
#
# Indices 1 2 3 4 5 6 
#
# 1 0.031740 -0.009709 -0.008836 0.000000 0.000000 0.000000
# 2 -0.009709 0.017731 -0.006052 0.000000 0.000000 0.000000
# 3 -0.008836 -0.006052 0.013491 0.000000 0.000000 0.000000
# 4 0.000000 0.000000 0.000000 0.018948 0.000000 0.000000
# 5 0.000000 0.000000 0.000000 0.000000 0.025771 0.000000
# 6 0.000000 0.000000 0.000000 0.000000 0.000000 0.050220
#
#
# Mechanical properties :
#
#
# Convention : Reuss Voigt Hill
#
# Bulk Modulus (GPa) = 72.62634 96.52927 84.57781
# Shear Modulus (GPa) = 23.61997 30.66875 27.14436
#
# Velocity S-wave (km/s) = 3.60914 4.11256 3.86905
# Velocity P-wave (km/s) = 7.57758 8.70544 8.16102
#
# Compressibility (1/GPa) = 0.01376911
#
# Stress axis : x y z
#
# Youngs Moduli (GPa) = 31.50565 56.39752 74.12270
#
# Poissons Ratio (x) = 0.54758 0.65493
# Poissons Ratio (y) = 0.30589 0.44858
# Poissons Ratio (z) = 0.27837 0.34131
#
# Static dielectric constant tensor:
#      x y z
#    x 1.607350 0.000000 0.000000 
#    y 0.000000 1.600630 0.000000 
#    z 0.000000 0.000000 1.591790 
# 
# From -- ./inp_files/20316.got.cif
#   From: 2010.05.17/outbox.cif.g08.bks.cpg/sg59_11_cif.got.tgz:20316.got - 2010.06.03 14:40:33.
