data_PCOD9452332
_publ_section_title
;
Structure prediction by ZEFSAII (Michael W. Deem and Ramdas Pophale) SiO2 
 PCOD9452332
Probable space group: P M M N
;
_chemical_formula_sum "Si O2"
_cell_formula_units_Z 64
_cell_length_a 17.664970
_cell_length_b 20.308221
_cell_length_c 9.544873
_cell_angle_alpha 90.000000
_cell_angle_beta 90.000000
_cell_angle_gamma 90.000000
_cell_volume 3424.167014
_symmetry_space_group_name_H-M "P M M N"
_symmetry_group_IT_number 59
_space_group.IT_coordinate_system_code '2'
_symmetry_cell_setting 'orthorhombic'
loop_
_space_group_symop_operation_xyz
x,y,z
1/2-x,1/2-y,z
1/2+x,-y,-z
-x,1/2+y,-z
-x,-y,-z
1/2+x,1/2+y,-z
1/2-x,y,z
x,1/2-y,z
loop_
_atom_site_type_symbol
_atom_site_label
_atom_site_fract_x
_atom_site_fract_y
_atom_site_fract_z
Si Si1 0.023984 0.677120 0.729120
Si Si2 0.835578 0.132823 0.443412
Si Si3 0.337590 0.021416 0.574030
Si Si4 0.480281 0.823036 0.060882
Si Si5 0.835417 0.362895 0.778354
Si Si6 0.425374 0.448451 0.291393
Si Si7 0.443223 0.045850 0.818736
Si Si8 0.336046 0.002014 0.057642
O O1 0.991920 0.750000 0.706599
O O2 0.101539 0.670684 0.643277
O O3 0.969259 0.618856 0.682012
O O4 0.036062 0.668374 0.895726
O O5 0.750000 0.157140 0.419916
O O6 0.849026 0.133441 0.611315
O O7 0.839130 0.056764 0.394974
O O8 0.250000 0.041338 0.563846
O O9 0.381099 0.030085 0.428726
O O10 0.384352 0.057895 0.693809
O O11 0.515454 0.750000 0.079424
O O12 0.401843 0.824410 0.145970
O O13 0.527399 0.885903 0.115500
O O14 0.750000 0.336952 0.798431
O O15 0.837010 0.435019 0.851312
O O16 0.487281 0.502755 0.241893
O O17 0.364915 0.442896 0.165986
O O18 0.397226 0.003452 0.933959
O O19 0.250000 0.012058 0.007410
#
# Coordination Sequence:
#
# PCOD9452332 Si02
#       8
#     8   8   8   8   8   8   8   8
#     4  11  25  41  59  87 121 162 206 250 302 365
#     4  10  21  38  59  89 126 159 194 241 302 369
#     4  11  23  38  61  95 126 153 196 252 312 364
#     4  11  24  41  59  85 122 161 203 254 305 362
#     4  10  21  37  59  91 124 158 198 241 301 369
#     4  12  21  38  65  90 123 159 201 255 303 358
#     4  12  22  38  63  93 122 158 207 252 309 359
#     4  11  21  36  62  92 124 155 196 254 308 357
#
# _framework density 18.690677000000001
#
# number of rings (size 3 to 8) (size 9 to 14) (size 15 to 20)
#    0.000    1.000    5.000    2.250    1.750    1.500 
#    0.000    2.500    0.000    4.500    0.000    0.000 
#    0.000    0.000    0.000    0.000    0.000    0.000 
#
# Total GULP energy -357488.005562 kJ/mol
# GULP energy per Si atom -5585.750087 kJ/mol
# Density = 1.864814 g / cm^3
# Si number density = 18.690677 Si / 1000 Ang^3
#
#
#
# Elastic Constant Matrix: (Units=GPa)
#
#
# Indices 1 2 3 4 5 6 
#
# 1 107.0126 49.3117 50.6412 0.0000 0.0000 0.0000
# 2 49.3117 87.3697 22.3423 0.0000 0.0000 0.0000
# 3 50.6412 22.3423 91.7432 0.0000 0.0000 0.0000
# 4 0.0000 0.0000 0.0000 -5.2485 0.0000 0.0000
# 5 0.0000 0.0000 0.0000 0.0000 35.4793 0.0000
# 6 0.0000 0.0000 0.0000 0.0000 0.0000 18.0005
#
#
#
# Elastic Compliance Matrix: (Units=1/GPa)
#
#
# Indices 1 2 3 4 5 6 
#
# 1 0.016034 -0.007237 -0.007088 0.000000 0.000000 0.000000
# 2 -0.007237 0.015472 0.000227 0.000000 0.000000 0.000000
# 3 -0.007088 0.000227 0.014757 0.000000 0.000000 0.000000
# 4 0.000000 0.000000 0.000000 -0.190530 0.000000 0.000000
# 5 0.000000 0.000000 0.000000 0.000000 0.028185 0.000000
# 6 0.000000 0.000000 0.000000 0.000000 0.000000 0.055554
#
#
# Mechanical properties :
#
#
# Convention : Reuss Voigt Hill
#
# Bulk Modulus (GPa) = 55.35019 58.96844 57.15932
# Shear Modulus (GPa) = -190.05163 20.56827 -84.74168
#
# Velocity S-wave (km/s) = -10.09472 3.32091 -6.74073
# Velocity P-wave (km/s) = 10.30500 6.80608 5.47130
#
# Compressibility (1/GPa) = 0.01806679
#
# Stress axis : x y z
#
# Youngs Moduli (GPa) = 62.36846 64.63216 67.76315
#
# Poissons Ratio (x) = 0.46774 0.48031
# Poissons Ratio (y) = 0.45136 -0.01537
# Poissons Ratio (z) = 0.44207 -0.01466
#
# Static dielectric constant tensor:
#      x y z
#    x 1.652640 0.000000 0.000000 
#    y 0.000000 1.666400 0.000000 
#    z 0.000000 0.000000 1.660930 
# 
# From -- ./inp_files/10668.got.cif
#   From: 2010.05.17/outbox.cif.g08.bks.cpg/sg59_6_cif.got.tgz:10668.got - 2010.06.03 14:40:33.
