data_PCOD9452631
_publ_section_title
;
Structure prediction by ZEFSAII (Michael W. Deem and Ramdas Pophale) SiO2 
 PCOD9452631
Probable space group: P M M N
;
_chemical_formula_sum "Si O2"
_cell_formula_units_Z 64
_cell_length_a 8.740737
_cell_length_b 18.997075
_cell_length_c 20.360934
_cell_angle_alpha 90.000000
_cell_angle_beta 90.000000
_cell_angle_gamma 90.000000
_cell_volume 3380.901253
_symmetry_space_group_name_H-M "P M M N"
_symmetry_group_IT_number 59
_space_group.IT_coordinate_system_code '2'
_symmetry_cell_setting 'orthorhombic'
loop_
_space_group_symop_operation_xyz
x,y,z
1/2-x,1/2-y,z
1/2+x,-y,-z
-x,1/2+y,-z
-x,-y,-z
1/2+x,1/2+y,-z
1/2-x,y,z
x,1/2-y,z
loop_
_atom_site_type_symbol
_atom_site_label
_atom_site_fract_x
_atom_site_fract_y
_atom_site_fract_z
Si Si1 0.432357 0.076717 0.017042
Si Si2 0.065421 0.668618 0.471860
Si Si3 0.567935 0.668076 0.721772
Si Si4 0.432371 0.914809 0.840586
Si Si5 0.433161 0.425067 0.639424
Si Si6 0.934511 0.418355 0.399845
Si Si7 0.433233 0.939436 0.215462
Si Si8 0.933744 0.168178 0.900010
O O1 0.250000 0.071976 0.019189
O O2 0.496288 0.097917 0.088079
O O3 0.485471 0.130576 0.961047
O O4 0.500000 0.000000 0.000000
O O5 0.250000 0.665165 0.467454
O O6 0.022583 0.750000 0.482699
O O7 0.016947 0.620182 0.533317
O O8 0.994803 0.637375 0.405757
O O9 0.750000 0.658408 0.728501
O O10 0.536344 0.750000 0.708760
O O11 0.487154 0.642531 0.788071
O O12 0.506736 0.621266 0.662032
O O13 0.250000 0.916456 0.844956
O O14 0.492418 0.989825 0.813608
O O15 0.250000 0.421996 0.644585
O O16 0.475155 0.499441 0.604810
O O17 0.504483 0.425481 0.711864
O O18 0.750000 0.412964 0.395042
O O19 0.250000 0.948650 0.217552
O O20 0.469134 0.875728 0.165780
O O21 0.750000 0.163711 0.909835
O O22 0.975691 0.250000 0.894375
#
# Coordination Sequence:
#
# PCOD9452631 Si02
#       8
#     8   8   8   8   8   8   8   8
#     4  12  24  40  65  94 126 165 208 258 312 368
#     4  10  22  40  61  86 120 165 212 257 312 375
#     4  11  24  40  61  92 127 163 204 251 306 368
#     4  12  24  40  64  92 124 164 208 255 306 367
#     4  11  23  38  61  93 125 160 207 261 314 371
#     4  10  21  39  63  90 122 162 207 255 310 375
#     4  11  22  39  65  93 126 166 207 257 310 369
#     4  10  23  43  66  94 128 167 212 261 315 375
#
# _framework density 18.929864999999999
#
# number of rings (size 3 to 8) (size 9 to 14) (size 15 to 20)
#    0.000    1.125    2.500    4.125    0.000    4.500 
#    0.000    1.250    0.000    0.000    0.000    0.000 
#    0.000    0.000    0.000    0.000    0.000    0.000 
#
# Total GULP energy -357982.473950 kJ/mol
# GULP energy per Si atom -5593.476155 kJ/mol
# Density = 1.888678 g / cm^3
# Si number density = 18.929865 Si / 1000 Ang^3
#
#
#
# Elastic Constant Matrix: (Units=GPa)
#
#
# Indices 1 2 3 4 5 6 
#
# 1 42.4383 20.6845 28.2847 0.0000 0.0000 0.0000
# 2 20.6845 59.3242 24.4522 0.0000 0.0000 0.0000
# 3 28.2847 24.4522 120.4881 0.0000 0.0000 0.0000
# 4 0.0000 0.0000 0.0000 30.8969 0.0000 0.0000
# 5 0.0000 0.0000 0.0000 0.0000 35.3283 0.0000
# 6 0.0000 0.0000 0.0000 0.0000 0.0000 27.4287
#
#
#
# Elastic Compliance Matrix: (Units=1/GPa)
#
#
# Indices 1 2 3 4 5 6 
#
# 1 0.031555 -0.008675 -0.005647 0.000000 0.000000 0.000000
# 2 -0.008675 0.020780 -0.002181 0.000000 0.000000 0.000000
# 3 -0.005647 -0.002181 0.010068 0.000000 0.000000 0.000000
# 4 0.000000 0.000000 0.000000 0.032366 0.000000 0.000000
# 5 0.000000 0.000000 0.000000 0.000000 0.028306 0.000000
# 6 0.000000 0.000000 0.000000 0.000000 0.000000 0.036458
#
#
# Mechanical properties :
#
#
# Convention : Reuss Voigt Hill
#
# Bulk Modulus (GPa) = 34.01599 41.01036 37.51318
# Shear Modulus (GPa) = 24.71117 28.65274 26.68195
#
# Velocity S-wave (km/s) = 3.61696 3.89476 3.75843
# Velocity P-wave (km/s) = 5.95413 6.47587 6.22047
#
# Compressibility (1/GPa) = 0.02939794
#
# Stress axis : x y z
#
# Youngs Moduli (GPa) = 31.69023 48.12326 99.32637
#
# Poissons Ratio (x) = 0.41746 0.56091
# Poissons Ratio (y) = 0.27490 0.21661
# Poissons Ratio (z) = 0.17896 0.10494
#
# Static dielectric constant tensor:
#      x y z
#    x 1.633890 0.000000 0.000000 
#    y 0.000000 1.636170 0.000000 
#    z 0.000000 0.000000 1.623800 
# 
# From -- ./inp_files/29607.got.cif
#   From: 2010.05.17/outbox.cif.g08.bks.cpg/sg59_15_cif.got.tgz:29607.got - 2010.06.03 14:40:33.
