data_PCOD9452034
_publ_section_title
;
Structure prediction by ZEFSAII (Michael W. Deem and Ramdas Pophale) SiO2 
 PCOD9452034
Probable space group: P M M N
;
_chemical_formula_sum "Si O2"
_cell_formula_units_Z 56
_cell_length_a 14.349858
_cell_length_b 8.984978
_cell_length_c 22.405840
_cell_angle_alpha 90.000000
_cell_angle_beta 90.000000
_cell_angle_gamma 90.000000
_cell_volume 2888.855719
_symmetry_space_group_name_H-M "P M M N"
_symmetry_group_IT_number 59
_space_group.IT_coordinate_system_code '2'
_symmetry_cell_setting 'orthorhombic'
loop_
_space_group_symop_operation_xyz
x,y,z
1/2-x,1/2-y,z
1/2+x,-y,-z
-x,1/2+y,-z
-x,-y,-z
1/2+x,1/2+y,-z
1/2-x,y,z
x,1/2-y,z
loop_
_atom_site_type_symbol
_atom_site_label
_atom_site_fract_x
_atom_site_fract_y
_atom_site_fract_z
Si Si1 0.455724 0.426300 0.291853
Si Si2 0.956704 0.426869 0.588037
Si Si3 0.143771 0.084013 0.871936
Si Si4 0.854396 0.578259 0.271850
Si Si5 0.512701 0.575865 0.936426
Si Si6 0.642832 0.568477 0.830838
Si Si7 0.858031 0.428834 0.463281
O O1 0.443104 0.250000 0.295933
O O2 0.417533 0.504324 0.351034
O O3 0.564468 0.469420 0.290999
O O4 0.411061 0.479122 0.229224
O O5 0.964536 0.250000 0.593470
O O6 0.059891 0.493157 0.574448
O O7 0.889873 0.459498 0.531670
O O8 0.250000 0.071630 0.892828
O O9 0.108779 0.250000 0.888683
O O10 0.145124 0.076897 0.800328
O O11 0.080396 0.957722 0.899180
O O12 0.750000 0.537989 0.291901
O O13 0.873097 0.750000 0.290093
O O14 0.527713 0.750000 0.945619
O O15 0.593510 0.517922 0.891925
O O16 0.500000 0.500000 0.000000
O O17 0.750000 0.523144 0.828240
O O18 0.639039 0.750000 0.831270
O O19 0.750000 0.474064 0.452840
O O20 0.863638 0.250000 0.454018
#
# Coordination Sequence:
#
# PCOD9452034 Si02
#       7
#     8   8   8   8   8   8   8
#     4  11  21  35  57  84 113 148 191 236 280 332
#     4  10  21  36  56  85 117 150 187 231 284 339
#     4   9  18  34  56  80 107 140 176 220 280 341
#     4   9  18  33  54  79 108 142 178 221 278 340
#     4  11  22  37  58  84 112 147 190 238 287 339
#     4   9  20  39  59  80 110 149 191 233 280 335
#     4   9  19  38  61  83 112 150 192 237 281 328
#
# _framework density 19.384838999999999
#
# number of rings (size 3 to 8) (size 9 to 14) (size 15 to 20)
#    0.000    2.286    1.429    2.143    0.000    3.143 
#    0.000    2.857    0.000    6.000    0.000    0.000 
#    0.000    0.000    0.000    0.000    0.000    0.000 
#
# Total GULP energy -312403.412186 kJ/mol
# GULP energy per Si atom -5578.632360 kJ/mol
# Density = 1.934072 g / cm^3
# Si number density = 19.384839 Si / 1000 Ang^3
#
#
#
# Elastic Constant Matrix: (Units=GPa)
#
#
# Indices 1 2 3 4 5 6 
#
# 1 74.2354 16.1597 32.9874 0.0000 0.0000 0.0000
# 2 16.1597 30.3379 32.6741 0.0000 0.0000 0.0000
# 3 32.9874 32.6741 118.1993 0.0000 0.0000 0.0000
# 4 0.0000 0.0000 0.0000 32.9139 0.0000 0.0000
# 5 0.0000 0.0000 0.0000 0.0000 3.1743 0.0000
# 6 0.0000 0.0000 0.0000 0.0000 0.0000 21.4270
#
#
#
# Elastic Compliance Matrix: (Units=1/GPa)
#
#
# Indices 1 2 3 4 5 6 
#
# 1 0.015948 -0.005270 -0.002994 0.000000 0.000000 0.000000
# 2 -0.005270 0.048677 -0.011985 0.000000 0.000000 0.000000
# 3 -0.002994 -0.011985 0.012609 0.000000 0.000000 0.000000
# 4 0.000000 0.000000 0.000000 0.030382 0.000000 0.000000
# 5 0.000000 0.000000 0.000000 0.000000 0.315033 0.000000
# 6 0.000000 0.000000 0.000000 0.000000 0.000000 0.046670
#
#
# Mechanical properties :
#
#
# Convention : Reuss Voigt Hill
#
# Bulk Modulus (GPa) = 27.22159 42.93498 35.07829
# Shear Modulus (GPa) = 9.57737 20.89979 15.23858
#
# Velocity S-wave (km/s) = 2.22517 3.28708 2.80680
# Velocity P-wave (km/s) = 4.54698 6.05007 5.35156
#
# Compressibility (1/GPa) = 0.03673555
#
# Stress axis : x y z
#
# Youngs Moduli (GPa) = 62.70233 20.54345 79.30899
#
# Poissons Ratio (x) = 0.10827 0.23745
# Poissons Ratio (y) = 0.33047 0.95052
# Poissons Ratio (z) = 0.18773 0.24621
#
# Static dielectric constant tensor:
#      x y z
#    x 1.671420 0.000000 0.000000 
#    y 0.000000 1.730400 0.000000 
#    z 0.000000 0.000000 1.702800 
# 
# From -- ./inp_files/30351.got.cif
#   From: 2010.05.17/outbox.cif.g08.bks.cpg/sg59_16_cif.got.tgz:30351.got - 2010.06.03 14:40:33.
