data_PCOD9452639
_publ_section_title
;
Structure prediction by ZEFSAII (Michael W. Deem and Ramdas Pophale) SiO2 
 PCOD9452639
Probable space group: P M M N
;
_chemical_formula_sum "Si O2"
_cell_formula_units_Z 56
_cell_length_a 14.380364
_cell_length_b 8.408532
_cell_length_c 21.823789
_cell_angle_alpha 90.000000
_cell_angle_beta 90.000000
_cell_angle_gamma 90.000000
_cell_volume 2638.883481
_symmetry_space_group_name_H-M "P M M N"
_symmetry_group_IT_number 59
_space_group.IT_coordinate_system_code '2'
_symmetry_cell_setting 'orthorhombic'
loop_
_space_group_symop_operation_xyz
x,y,z
1/2-x,1/2-y,z
1/2+x,-y,-z
-x,1/2+y,-z
-x,-y,-z
1/2+x,1/2+y,-z
1/2-x,y,z
x,1/2-y,z
loop_
_atom_site_type_symbol
_atom_site_label
_atom_site_fract_x
_atom_site_fract_y
_atom_site_fract_z
Si Si1 0.139809 0.430826 0.471422
Si Si2 0.858835 0.944263 0.897194
Si Si3 0.040823 0.567211 0.354264
Si Si4 0.534736 0.560748 0.776085
Si Si5 0.636414 0.564708 0.029203
Si Si6 0.642079 0.435120 0.398702
Si Si7 0.642112 0.942978 0.164090
O O1 0.250000 0.444541 0.459933
O O2 0.119333 0.250000 0.490695
O O3 0.087171 0.470300 0.409315
O O4 0.117874 0.541486 0.529346
O O5 0.750000 0.985097 0.891754
O O6 0.864121 0.750000 0.899247
O O7 0.912377 0.998789 0.836972
O O8 0.894596 0.004298 0.963697
O O9 0.063549 0.750000 0.363582
O O10 0.070482 0.512273 0.286993
O O11 0.930569 0.537189 0.360669
O O12 0.544673 0.750000 0.772666
O O13 0.427724 0.514638 0.787144
O O14 0.750000 0.563643 0.027182
O O15 0.608431 0.750000 0.030394
O O16 0.613067 0.496046 0.095799
O O17 0.750000 0.482504 0.391275
O O18 0.632368 0.250000 0.382395
O O19 0.750000 0.984031 0.174178
O O20 0.635936 0.750000 0.164148
#
# Coordination Sequence:
#
# PCOD9452639 Si02
#       7
#     8   8   8   8   8   8   8
#     4  10  21  39  64  92 120 149 183 224 271 324
#     4   8  15  30  52  77 105 137 175 221 272 328
#     4  12  25  40  58  80 113 154 193 233 275 325
#     4  11  23  36  52  78 109 143 185 228 275 329
#     4   7  11  24  49  77 101 130 172 219 268 325
#     4  10  21  39  64  92 119 146 181 227 277 328
#     4   9  18  34  55  77 104 140 180 222 271 330
#
# _framework density 21.221094999999998
#
# number of rings (size 3 to 8) (size 9 to 14) (size 15 to 20)
#    0.000    2.429    0.000    4.714    0.000    3.714 
#    0.000    1.429    0.000    2.143    0.000    4.000 
#    0.000    0.000    0.000    0.000    0.000    0.000 
#
# Total GULP energy -312709.133881 kJ/mol
# GULP energy per Si atom -5584.091676 kJ/mol
# Density = 2.117279 g / cm^3
# Si number density = 21.221095 Si / 1000 Ang^3
#
#
#
# Elastic Constant Matrix: (Units=GPa)
#
#
# Indices 1 2 3 4 5 6 
#
# 1 26.5607 1.5458 8.1446 0.0000 0.0000 0.0000
# 2 1.5458 20.2624 -5.2101 0.0000 0.0000 0.0000
# 3 8.1446 -5.2101 60.4310 0.0000 0.0000 0.0000
# 4 0.0000 0.0000 0.0000 23.8290 0.0000 0.0000
# 5 0.0000 0.0000 0.0000 0.0000 20.9669 0.0000
# 6 0.0000 0.0000 0.0000 0.0000 0.0000 19.3989
#
#
#
# Elastic Compliance Matrix: (Units=1/GPa)
#
#
# Indices 1 2 3 4 5 6 
#
# 1 0.039670 -0.004501 -0.005735 0.000000 0.000000 0.000000
# 2 -0.004501 0.050982 0.005002 0.000000 0.000000 0.000000
# 3 -0.005735 0.005002 0.017752 0.000000 0.000000 0.000000
# 4 0.000000 0.000000 0.000000 0.041966 0.000000 0.000000
# 5 0.000000 0.000000 0.000000 0.000000 0.047694 0.000000
# 6 0.000000 0.000000 0.000000 0.000000 0.000000 0.051549
#
#
# Mechanical properties :
#
#
# Convention : Reuss Voigt Hill
#
# Bulk Modulus (GPa) = 10.21064 12.91275 11.56169
# Shear Modulus (GPa) = 17.08083 19.69055 18.38569
#
# Velocity S-wave (km/s) = 2.84015 3.04941 2.94664
# Velocity P-wave (km/s) = 3.94681 4.30077 4.12758
#
# Compressibility (1/GPa) = 0.09793708
#
# Stress axis : x y z
#
# Youngs Moduli (GPa) = 25.20795 19.61475 56.33182
#
# Poissons Ratio (x) = 0.08828 0.32304
# Poissons Ratio (y) = 0.11346 -0.28178
# Poissons Ratio (z) = 0.14456 -0.09811
#
# Static dielectric constant tensor:
#      x y z
#    x 1.778640 0.000000 0.000000 
#    y 0.000000 1.718840 0.000000 
#    z 0.000000 0.000000 1.774050 
# 
# From -- ./inp_files/29068.got.cif
#   From: 2010.05.17/outbox.cif.g08.bks.cpg/sg59_15_cif.got.tgz:29068.got - 2010.06.03 14:40:33.
