data_PCOD9452730
_publ_section_title
;
Structure prediction by ZEFSAII (Michael W. Deem and Ramdas Pophale) SiO2 
 PCOD9452730
Probable space group: P M M N
;
_chemical_formula_sum "Si O2"
_cell_formula_units_Z 56
_cell_length_a 7.868394
_cell_length_b 23.474598
_cell_length_c 12.764692
_cell_angle_alpha 90.000000
_cell_angle_beta 90.000000
_cell_angle_gamma 90.000000
_cell_volume 2357.732893
_symmetry_space_group_name_H-M "P M M N"
_symmetry_group_IT_number 59
_space_group.IT_coordinate_system_code '2'
_symmetry_cell_setting 'orthorhombic'
loop_
_space_group_symop_operation_xyz
x,y,z
1/2-x,1/2-y,z
1/2+x,-y,-z
-x,1/2+y,-z
-x,-y,-z
1/2+x,1/2+y,-z
1/2-x,y,z
x,1/2-y,z
loop_
_atom_site_type_symbol
_atom_site_label
_atom_site_fract_x
_atom_site_fract_y
_atom_site_fract_z
Si Si1 0.454001 0.750000 0.087647
Si Si2 0.949015 0.336383 0.323537
Si Si3 0.556363 0.473160 0.791238
Si Si4 0.547316 0.906701 0.846624
Si Si5 0.445062 0.314929 0.551165
Si Si6 0.044136 0.750000 0.851610
Si Si7 0.559065 0.944813 0.431744
Si Si8 0.450911 0.370600 0.928006
O O1 0.250000 0.750000 0.089279
O O2 0.518418 0.810005 0.127600
O O3 0.523023 0.750000 0.967608
O O4 0.750000 0.325370 0.343585
O O5 0.007504 0.302040 0.221073
O O6 0.973967 0.397473 0.271342
O O7 0.048339 0.317552 0.424615
O O8 0.750000 0.481789 0.754239
O O9 0.510716 0.526772 0.863017
O O10 0.446896 0.464829 0.687795
O O11 0.542459 0.417642 0.860958
O O12 0.750000 0.897650 0.840517
O O13 0.483109 0.874199 0.951316
O O14 0.250000 0.315342 0.589733
O O15 0.513826 0.250000 0.579371
O O16 0.521818 0.379499 0.571728
O O17 0.250000 0.750000 0.858271
O O18 0.750000 0.933683 0.469821
O O19 0.500000 0.000000 0.500000
O O20 0.250000 0.382003 0.931055
#
# Coordination Sequence:
#
# PCOD9452730 Si02
#       8
#     4   8   8   8   8   4   8   8
#     4  11  21  39  61  86 125 168 207 247 302 362
#     4  11  20  33  56  89 125 159 198 246 304 366
#     4  11  24  43  64  89 122 161 206 257 313 372
#     4  10  22  38  59  89 125 163 204 249 302 367
#     4  10  22  40  61  87 120 160 204 256 317 378
#     4   9  18  31  49  80 121 158 193 239 292 350
#     4  11  24  44  68  93 124 162 210 265 323 386
#     4  11  23  40  62  91 124 162 208 253 301 362
#
# _framework density 23.751631
#
# number of rings (size 3 to 8) (size 9 to 14) (size 15 to 20)
#    0.000    1.429    2.143    3.214    0.000    6.286 
#    1.286    0.000    0.000    0.000    0.000    0.000 
#    0.000    0.000    0.000    0.000    0.000    0.000 
#
# Total GULP energy -312048.094838 kJ/mol
# GULP energy per Si atom -5572.287408 kJ/mol
# Density = 2.369757 g / cm^3
# Si number density = 23.751631 Si / 1000 Ang^3
#
#
#
# Elastic Constant Matrix: (Units=GPa)
#
#
# Indices 1 2 3 4 5 6 
#
# 1 43.0790 7.5560 -0.5535 0.0000 0.0000 0.0000
# 2 7.5560 148.1558 -1.7569 0.0000 0.0000 0.0000
# 3 -0.5535 -1.7569 27.1213 0.0000 0.0000 0.0000
# 4 0.0000 0.0000 0.0000 15.5460 0.0000 0.0000
# 5 0.0000 0.0000 0.0000 0.0000 18.9898 0.0000
# 6 0.0000 0.0000 0.0000 0.0000 0.0000 20.2789
#
#
#
# Elastic Compliance Matrix: (Units=1/GPa)
#
#
# Indices 1 2 3 4 5 6 
#
# 1 0.023427 -0.001190 0.000401 0.000000 0.000000 0.000000
# 2 -0.001190 0.006815 0.000417 0.000000 0.000000 0.000000
# 3 0.000401 0.000417 0.036907 0.000000 0.000000 0.000000
# 4 0.000000 0.000000 0.000000 0.064325 0.000000 0.000000
# 5 0.000000 0.000000 0.000000 0.000000 0.052660 0.000000
# 6 0.000000 0.000000 0.000000 0.000000 0.000000 0.049312
#
#
# Mechanical properties :
#
#
# Convention : Reuss Voigt Hill
#
# Bulk Modulus (GPa) = 15.05902 25.42746 20.24324
# Shear Modulus (GPa) = 19.50648 25.17031 22.33839
#
# Velocity S-wave (km/s) = 2.86889 3.25888 3.07008
# Velocity P-wave (km/s) = 4.16269 4.98891 4.59441
#
# Compressibility (1/GPa) = 0.06640537
#
# Stress axis : x y z
#
# Youngs Moduli (GPa) = 42.68570 146.72884 27.09543
#
# Poissons Ratio (x) = 0.17461 -0.01087
# Poissons Ratio (y) = 0.05080 -0.01130
# Poissons Ratio (z) = -0.01712 -0.06122
#
# Static dielectric constant tensor:
#      x y z
#    x 1.913950 0.000000 0.000000 
#    y 0.000000 3.119300 0.000000 
#    z 0.000000 0.000000 1.877500 
# 
# From -- ./inp_files/21227.got.cif
#   From: 2010.05.17/outbox.cif.g08.bks.cpg/sg59_11_cif.got.tgz:21227.got - 2010.06.03 14:40:33.
