data_PCOD9452555
_publ_section_title
;
Structure prediction by ZEFSAII (Michael W. Deem and Ramdas Pophale) SiO2 
 PCOD9452555
Probable space group: P M M N
;
_chemical_formula_sum "Si O2"
_cell_formula_units_Z 40
_cell_length_a 16.818682
_cell_length_b 8.996737
_cell_length_c 12.977160
_cell_angle_alpha 90.000000
_cell_angle_beta 90.000000
_cell_angle_gamma 90.000000
_cell_volume 1963.616368
_symmetry_space_group_name_H-M "P M M N"
_symmetry_group_IT_number 59
_space_group.IT_coordinate_system_code '2'
_symmetry_cell_setting 'orthorhombic'
loop_
_space_group_symop_operation_xyz
x,y,z
1/2-x,1/2-y,z
1/2+x,-y,-z
-x,1/2+y,-z
-x,-y,-z
1/2+x,1/2+y,-z
1/2-x,y,z
x,1/2-y,z
loop_
_atom_site_type_symbol
_atom_site_label
_atom_site_fract_x
_atom_site_fract_y
_atom_site_fract_z
Si Si1 0.155853 0.082907 0.356724
Si Si2 0.918834 0.427034 0.457972
Si Si3 0.416450 0.072156 0.967785
Si Si4 0.844489 0.928947 0.255614
Si Si5 0.655734 0.417051 0.842879
O O1 0.250000 0.097274 0.340867
O O2 0.123439 0.250000 0.371724
O O3 0.142906 0.980922 0.455341
O O4 0.120923 0.004566 0.255140
O O5 0.925032 0.250000 0.453972
O O6 0.889918 0.491599 0.348983
O O7 0.000000 0.500000 0.500000
O O8 0.421088 0.250000 0.974087
O O9 0.385266 0.033232 0.853743
O O10 0.500000 0.000000 0.000000
O O11 0.357415 0.008414 0.053702
O O12 0.750000 0.966446 0.254728
O O13 0.850046 0.750000 0.269395
O O14 0.750000 0.403587 0.826490
O O15 0.621989 0.250000 0.850377
#
# Coordination Sequence:
#
# PCOD9452555 Si02
#       5
#     8   8   8   8   8
#     4  10  21  39  64  92 124 163 207 256 314 380
#     4  12  26  42  64  93 129 168 212 265 323 384
#     4  11  24  41  64  93 130 171 215 267 324 383
#     4  10  23  45  70  95 128 173 222 270 326 394
#     4  10  21  38  62  92 126 164 208 258 313 378
#
# _framework density 20.370578999999999
#
# number of rings (size 3 to 8) (size 9 to 14) (size 15 to 20)
#    0.000    1.400    0.000    4.800    2.800    7.600 
#    0.000    0.000    0.000    0.000    0.000    0.000 
#    0.000    0.000    0.000    0.000    0.000    0.000 
#
# Total GULP energy -223508.585319 kJ/mol
# GULP energy per Si atom -5587.714633 kJ/mol
# Density = 2.032421 g / cm^3
# Si number density = 20.370579 Si / 1000 Ang^3
#
#
#
# Elastic Constant Matrix: (Units=GPa)
#
#
# Indices 1 2 3 4 5 6 
#
# 1 69.2843 52.3461 44.5712 0.0000 0.0000 0.0000
# 2 52.3461 135.0977 100.6986 0.0000 0.0000 0.0000
# 3 44.5712 100.6986 201.1555 0.0000 0.0000 0.0000
# 4 0.0000 0.0000 0.0000 30.0912 0.0000 0.0000
# 5 0.0000 0.0000 0.0000 0.0000 29.7861 0.0000
# 6 0.0000 0.0000 0.0000 0.0000 0.0000 20.7584
#
#
#
# Elastic Compliance Matrix: (Units=1/GPa)
#
#
# Indices 1 2 3 4 5 6 
#
# 1 0.020510 -0.007274 -0.000903 0.000000 0.000000 0.000000
# 2 -0.007274 0.014388 -0.005591 0.000000 0.000000 0.000000
# 3 -0.000903 -0.005591 0.007970 0.000000 0.000000 0.000000
# 4 0.000000 0.000000 0.000000 0.033232 0.000000 0.000000
# 5 0.000000 0.000000 0.000000 0.000000 0.033573 0.000000
# 6 0.000000 0.000000 0.000000 0.000000 0.000000 0.048173
#
#
# Mechanical properties :
#
#
# Convention : Reuss Voigt Hill
#
# Bulk Modulus (GPa) = 65.22229 88.97437 77.09833
# Shear Modulus (GPa) = 26.24785 29.98859 28.11822
#
# Velocity S-wave (km/s) = 3.59349 3.84103 3.71932
# Velocity P-wave (km/s) = 7.02175 7.96517 7.50829
#
# Compressibility (1/GPa) = 0.01533218
#
# Stress axis : x y z
#
# Youngs Moduli (GPa) = 48.75718 69.50440 125.46775
#
# Poissons Ratio (x) = 0.50555 0.11334
# Poissons Ratio (y) = 0.35464 0.70146
# Poissons Ratio (z) = 0.04404 0.38858
#
# Static dielectric constant tensor:
#      x y z
#    x 1.353010 0.000000 0.000000 
#    y 0.000000 1.714580 0.000000 
#    z 0.000000 0.000000 1.703800 
# 
# From -- ./inp_files/13860.got.cif
#   From: 2010.05.17/outbox.cif.g08.bks.cpg/sg59_7_cif.got.tgz:13860.got - 2010.06.03 14:40:33.
