data_PCOD9452130
_publ_section_title
;
Structure prediction by ZEFSAII (Michael W. Deem and Ramdas Pophale) SiO2 
 PCOD9452130
Probable space group: P M M N
;
_chemical_formula_sum "Si O2"
_cell_formula_units_Z 64
_cell_length_a 8.973800
_cell_length_b 14.347613
_cell_length_c 26.603905
_cell_angle_alpha 90.000000
_cell_angle_beta 90.000000
_cell_angle_gamma 90.000000
_cell_volume 3425.322193
_symmetry_space_group_name_H-M "P M M N"
_symmetry_group_IT_number 59
_space_group.IT_coordinate_system_code '2'
_symmetry_cell_setting 'orthorhombic'
loop_
_space_group_symop_operation_xyz
x,y,z
1/2-x,1/2-y,z
1/2+x,-y,-z
-x,1/2+y,-z
-x,-y,-z
1/2+x,1/2+y,-z
1/2-x,y,z
x,1/2-y,z
loop_
_atom_site_type_symbol
_atom_site_label
_atom_site_fract_x
_atom_site_fract_y
_atom_site_fract_z
Si Si1 0.570039 0.641678 0.723059
Si Si2 0.923343 0.637810 0.532137
Si Si3 0.431369 0.355285 0.581669
Si Si4 0.929553 0.528883 0.822664
Si Si5 0.427882 0.139726 0.076917
Si Si6 0.427738 0.358429 0.868924
Si Si7 0.919951 0.136448 0.974097
Si Si8 0.571917 0.456301 0.373058
O O1 0.750000 0.639655 0.719927
O O2 0.524856 0.750000 0.726475
O O3 0.525937 0.584912 0.772918
O O4 0.503089 0.593982 0.673865
O O5 0.750000 0.608136 0.537385
O O6 0.925626 0.750000 0.536919
O O7 0.976133 0.617513 0.475289
O O8 0.021142 0.593433 0.575585
O O9 0.250000 0.352888 0.580415
O O10 0.482484 0.250000 0.592573
O O11 0.475116 0.435623 0.620215
O O12 0.750000 0.520728 0.822748
O O13 0.972560 0.586801 0.872549
O O14 0.001920 0.427824 0.828573
O O15 0.250000 0.130258 0.070464
O O16 0.459418 0.250000 0.082950
O O17 0.507215 0.105268 0.026301
O O18 0.250000 0.365523 0.869057
O O19 0.468519 0.250000 0.860595
O O20 0.490237 0.386694 0.923806
O O21 0.750000 0.103925 0.969489
O O22 0.919319 0.250000 0.976206
O O23 0.750000 0.452046 0.368254
#
# Coordination Sequence:
#
# PCOD9452130 Si02
#       8
#     8   8   8   8   8   8   8   8
#     4  10  22  41  61  79 104 139 175 211 257 316
#     4   9  17  31  52  76 105 144 183 216 259 318
#     4   8  16  32  52  75 106 144 182 217 258 312
#     4  10  21  37  58  80 100 131 177 223 264 307
#     4   9  17  31  52  78 107 136 169 213 265 318
#     4  10  21  37  56  78 106 139 173 211 258 311
#     4   9  17  30  50  77 108 141 175 210 251 304
#     4  11  21  32  52  81 109 139 178 224 268 307
#
# _framework density 18.684373000000001
#
# number of rings (size 3 to 8) (size 9 to 14) (size 15 to 20)
#    0.000    2.500    0.000    3.000    0.000    7.250 
#    0.000    1.250    0.000    7.500    0.000    0.000 
#    0.000    0.000    0.000    0.000    0.000    0.000 
#
# Total GULP energy -357289.010236 kJ/mol
# GULP energy per Si atom -5582.640785 kJ/mol
# Density = 1.864185 g / cm^3
# Si number density = 18.684373 Si / 1000 Ang^3
#
#
#
# Elastic Constant Matrix: (Units=GPa)
#
#
# Indices 1 2 3 4 5 6 
#
# 1 24.5446 37.3407 35.2209 0.0000 0.0000 0.0000
# 2 37.3407 122.3032 90.9508 0.0000 0.0000 0.0000
# 3 35.2209 90.9508 111.7517 0.0000 0.0000 0.0000
# 4 0.0000 0.0000 0.0000 35.0462 0.0000 0.0000
# 5 0.0000 0.0000 0.0000 0.0000 16.6297 0.0000
# 6 0.0000 0.0000 0.0000 0.0000 0.0000 22.2347
#
#
#
# Elastic Compliance Matrix: (Units=1/GPa)
#
#
# Indices 1 2 3 4 5 6 
#
# 1 0.084139 -0.015119 -0.014213 0.000000 0.000000 0.000000
# 2 -0.015119 0.023429 -0.014303 0.000000 0.000000 0.000000
# 3 -0.014213 -0.014303 0.025069 0.000000 0.000000 0.000000
# 4 0.000000 0.000000 0.000000 0.028534 0.000000 0.000000
# 5 0.000000 0.000000 0.000000 0.000000 0.060133 0.000000
# 6 0.000000 0.000000 0.000000 0.000000 0.000000 0.044975
#
#
# Mechanical properties :
#
#
# Convention : Reuss Voigt Hill
#
# Bulk Modulus (GPa) = 22.04290 65.06937 43.55613
# Shear Modulus (GPa) = 13.56227 21.12126 17.34176
#
# Velocity S-wave (km/s) = 2.69710 3.36582 3.04985
# Velocity P-wave (km/s) = 4.63921 7.07151 5.98032
#
# Compressibility (1/GPa) = 0.04536609
#
# Stress axis : x y z
#
# Youngs Moduli (GPa) = 11.88511 42.68292 39.89068
#
# Poissons Ratio (x) = 0.64532 0.56698
# Poissons Ratio (y) = 0.17969 0.57054
# Poissons Ratio (z) = 0.16893 0.61048
#
# Static dielectric constant tensor:
#      x y z
#    x 1.629580 0.000000 0.000000 
#    y 0.000000 1.682790 0.000000 
#    z 0.000000 0.000000 1.613540 
# 
# From -- ./inp_files/31558.got.cif
#   From: 2010.05.17/outbox.cif.g08.bks.cpg/sg59_16_cif.got.tgz:31558.got - 2010.06.03 14:40:33.
