data_PCOD9452508
_publ_section_title
;
Structure prediction by ZEFSAII (Michael W. Deem and Ramdas Pophale) SiO2 
 PCOD9452508
Probable space group: P M M N
;
_chemical_formula_sum "Si O2"
_cell_formula_units_Z 48
_cell_length_a 8.776931
_cell_length_b 30.407285
_cell_length_c 9.786261
_cell_angle_alpha 90.000000
_cell_angle_beta 90.000000
_cell_angle_gamma 90.000000
_cell_volume 2611.783194
_symmetry_space_group_name_H-M "P M M N"
_symmetry_group_IT_number 59
_space_group.IT_coordinate_system_code '2'
_symmetry_cell_setting 'orthorhombic'
loop_
_space_group_symop_operation_xyz
x,y,z
1/2-x,1/2-y,z
1/2+x,-y,-z
-x,1/2+y,-z
-x,-y,-z
1/2+x,1/2+y,-z
1/2-x,y,z
x,1/2-y,z
loop_
_atom_site_type_symbol
_atom_site_label
_atom_site_fract_x
_atom_site_fract_y
_atom_site_fract_z
Si Si1 0.931653 0.050324 0.347468
Si Si2 0.569133 0.124288 0.846615
Si Si3 0.935326 0.800017 0.653151
Si Si4 0.066749 0.378512 0.148760
Si Si5 0.068423 0.053360 0.643215
Si Si6 0.568413 0.802096 0.341116
O O1 0.750000 0.056602 0.350014
O O2 0.005476 0.079016 0.228640
O O3 0.001812 0.063816 0.493561
O O4 0.962144 0.998266 0.330038
O O5 0.750000 0.121693 0.857087
O O6 0.506328 0.083879 0.756768
O O7 0.519096 0.168023 0.765640
O O8 0.496204 0.123650 0.996318
O O9 0.750000 0.799378 0.652992
O O10 0.985801 0.750000 0.682602
O O11 0.983876 0.835969 0.762835
O O12 0.979672 0.811791 0.497706
O O13 0.250000 0.379284 0.146121
O O14 0.250000 0.060213 0.641459
O O15 0.750000 0.811025 0.330103
O O16 0.546598 0.750000 0.319055
#
# Coordination Sequence:
#
# PCOD9452508 Si02
#       6
#     8   8   8   8   8   8
#     4  10  21  38  61  88 115 143 181 234 289 337
#     4  12  25  38  54  80 117 154 190 238 289 333
#     4   8  16  33  58  85 108 136 181 231 273 322
#     4  11  22  36  57  83 114 153 192 231 281 342
#     4  10  21  39  62  85 111 147 190 231 278 342
#     4   9  18  36  62  87 111 143 186 234 284 343
#
# _framework density 18.378247999999999
#
# number of rings (size 3 to 8) (size 9 to 14) (size 15 to 20)
#    0.000    2.000    0.000    5.000    0.000    5.000 
#    0.000    2.500    0.000    3.500    0.000    0.000 
#    0.000    0.000    0.000    0.000    0.000    0.000 
#
# Total GULP energy -268181.889888 kJ/mol
# GULP energy per Si atom -5587.122706 kJ/mol
# Density = 1.833642 g / cm^3
# Si number density = 18.378248 Si / 1000 Ang^3
#
#
#
# Elastic Constant Matrix: (Units=GPa)
#
#
# Indices 1 2 3 4 5 6 
#
# 1 73.7383 53.1672 61.7842 0.0000 0.0000 0.0000
# 2 53.1672 83.6193 87.0976 0.0000 0.0000 0.0000
# 3 61.7842 87.0976 166.2294 0.0000 0.0000 0.0000
# 4 0.0000 0.0000 0.0000 -27.2207 0.0000 0.0000
# 5 0.0000 0.0000 0.0000 0.0000 29.3450 0.0000
# 6 0.0000 0.0000 0.0000 0.0000 0.0000 27.2369
#
#
#
# Elastic Compliance Matrix: (Units=1/GPa)
#
#
# Indices 1 2 3 4 5 6 
#
# 1 0.025387 -0.013899 -0.002154 0.000000 0.000000 0.000000
# 2 -0.013899 0.033936 -0.012615 0.000000 0.000000 0.000000
# 3 -0.002154 -0.012615 0.013426 0.000000 0.000000 0.000000
# 4 0.000000 0.000000 0.000000 -0.036737 0.000000 0.000000
# 5 0.000000 0.000000 0.000000 0.000000 0.034077 0.000000
# 6 0.000000 0.000000 0.000000 0.000000 0.000000 0.036715
#
#
# Mechanical properties :
#
#
# Convention : Reuss Voigt Hill
#
# Bulk Modulus (GPa) = 64.87446 80.85388 72.86417
# Shear Modulus (GPa) = 29.53713 13.97478 21.75595
#
# Velocity S-wave (km/s) = 4.01331 2.76052 3.44436
# Velocity P-wave (km/s) = 7.54001 7.36549 7.45326
#
# Compressibility (1/GPa) = 0.01541439
#
# Stress axis : x y z
#
# Youngs Moduli (GPa) = 39.38991 29.46705 74.48135
#
# Poissons Ratio (x) = 0.40955 0.16040
# Poissons Ratio (y) = 0.54747 0.93961
# Poissons Ratio (z) = 0.08483 0.37174
#
# Static dielectric constant tensor:
#      x y z
#    x 1.616110 0.000000 0.000000 
#    y 0.000000 1.634360 0.000000 
#    z 0.000000 0.000000 1.593640 
# 
# From -- ./inp_files/6270.got.cif
#   From: 2010.05.17/outbox.cif.g08.bks.cpg/sg59_4_cif.got.tgz:6270.got - 2010.06.03 14:40:33.
