data_PCOD9452286
_publ_section_title
;
Structure prediction by ZEFSAII (Michael W. Deem and Ramdas Pophale) SiO2 
 PCOD9452286
Probable space group: P M M N
;
_chemical_formula_sum "Si O2"
_cell_formula_units_Z 48
_cell_length_a 8.862208
_cell_length_b 23.640994
_cell_length_c 12.937164
_cell_angle_alpha 90.000000
_cell_angle_beta 90.000000
_cell_angle_gamma 90.000000
_cell_volume 2710.483421
_symmetry_space_group_name_H-M "P M M N"
_symmetry_group_IT_number 59
_space_group.IT_coordinate_system_code '2'
_symmetry_cell_setting 'orthorhombic'
loop_
_space_group_symop_operation_xyz
x,y,z
1/2-x,1/2-y,z
1/2+x,-y,-z
-x,1/2+y,-z
-x,-y,-z
1/2+x,1/2+y,-z
1/2-x,y,z
x,1/2-y,z
loop_
_atom_site_type_symbol
_atom_site_label
_atom_site_fract_x
_atom_site_fract_y
_atom_site_fract_z
Si Si1 0.428849 0.683700 0.508045
Si Si2 0.429577 0.110734 0.308909
Si Si3 0.429380 0.316538 0.905846
Si Si4 0.569016 0.871134 0.309633
Si Si5 0.069739 0.497497 0.614735
Si Si6 0.429921 0.683733 0.873277
O O1 0.250000 0.673170 0.518231
O O2 0.456398 0.750000 0.526891
O O3 0.516340 0.645908 0.590953
O O4 0.484687 0.666400 0.394607
O O5 0.250000 0.106805 0.308039
O O6 0.501254 0.048748 0.319825
O O7 0.489175 0.144114 0.209282
O O8 0.250000 0.324117 0.924433
O O9 0.453799 0.250000 0.882296
O O10 0.473191 0.352852 0.806047
O O11 0.518064 0.330088 0.010436
O O12 0.750000 0.862231 0.320317
O O13 0.537247 0.936514 0.335239
O O14 0.250000 0.503928 0.607031
O O15 0.000000 0.500000 0.500000
O O16 0.250000 0.678251 0.862999
O O17 0.469273 0.750000 0.854683
#
# Coordination Sequence:
#
# PCOD9452286 Si02
#       6
#     8   8   8   8   8   8
#     4  11  23  36  54  83 117 149 184 234 291 345
#     4  12  24  38  58  83 112 151 195 238 287 342
#     4   9  18  35  59  86 116 149 186 230 281 341
#     4  10  21  37  59  85 114 151 193 234 282 342
#     4  11  22  38  59  84 115 154 196 238 286 341
#     4  10  21  38  60  86 116 149 187 235 290 345
#
# _framework density 17.709019000000001
#
# number of rings (size 3 to 8) (size 9 to 14) (size 15 to 20)
#    0.000    1.500    1.667    4.000    0.000    6.333 
#    0.000    2.500    0.000    0.000    0.000    0.000 
#    0.000    0.000    0.000    0.000    0.000    0.000 
#
# Total GULP energy -268281.367023 kJ/mol
# GULP energy per Si atom -5589.195146 kJ/mol
# Density = 1.766871 g / cm^3
# Si number density = 17.709019 Si / 1000 Ang^3
#
#
#
# Elastic Constant Matrix: (Units=GPa)
#
#
# Indices 1 2 3 4 5 6 
#
# 1 57.9167 34.8270 25.4235 0.0000 0.0000 0.0000
# 2 34.8270 55.9305 27.6094 0.0000 0.0000 0.0000
# 3 25.4235 27.6094 81.6059 0.0000 0.0000 0.0000
# 4 0.0000 0.0000 0.0000 15.6083 0.0000 0.0000
# 5 0.0000 0.0000 0.0000 0.0000 25.7333 0.0000
# 6 0.0000 0.0000 0.0000 0.0000 0.0000 24.7761
#
#
#
# Elastic Compliance Matrix: (Units=1/GPa)
#
#
# Indices 1 2 3 4 5 6 
#
# 1 0.028382 -0.015976 -0.003437 0.000000 0.000000 0.000000
# 2 -0.015976 0.030457 -0.005327 0.000000 0.000000 0.000000
# 3 -0.003437 -0.005327 0.015127 0.000000 0.000000 0.000000
# 4 0.000000 0.000000 0.000000 0.064068 0.000000 0.000000
# 5 0.000000 0.000000 0.000000 0.000000 0.038860 0.000000
# 6 0.000000 0.000000 0.000000 0.000000 0.000000 0.040362
#
#
# Mechanical properties :
#
#
# Convention : Reuss Voigt Hill
#
# Bulk Modulus (GPa) = 40.84076 41.24141 41.04108
# Shear Modulus (GPa) = 18.18849 20.39642 19.29245
#
# Velocity S-wave (km/s) = 3.20828 3.39743 3.30421
# Velocity P-wave (km/s) = 6.06929 6.22326 6.14676
#
# Compressibility (1/GPa) = 0.02448535
#
# Stress axis : x y z
#
# Youngs Moduli (GPa) = 35.23364 32.83284 66.10663
#
# Poissons Ratio (x) = 0.52455 0.22720
# Poissons Ratio (y) = 0.56291 0.35216
# Poissons Ratio (z) = 0.12109 0.17491
#
# Static dielectric constant tensor:
#      x y z
#    x 1.590330 0.000000 0.000000 
#    y 0.000000 1.591300 0.000000 
#    z 0.000000 0.000000 1.575620 
# 
# From -- ./inp_files/14330.got.cif
#   From: 2010.05.17/outbox.cif.g08.bks.cpg/sg59_8_cif.got.tgz:14330.got - 2010.06.03 14:40:33.
