data_PCOD9452159
_publ_section_title
;
Structure prediction by ZEFSAII (Michael W. Deem and Ramdas Pophale) SiO2 
 PCOD9452159
Probable space group: P M M N
;
_chemical_formula_sum "Si O2"
_cell_formula_units_Z 48
_cell_length_a 14.932314
_cell_length_b 8.696993
_cell_length_c 20.172364
_cell_angle_alpha 90.000000
_cell_angle_beta 90.000000
_cell_angle_gamma 90.000000
_cell_volume 2619.708870
_symmetry_space_group_name_H-M "P M M N"
_symmetry_group_IT_number 59
_space_group.IT_coordinate_system_code '2'
_symmetry_cell_setting 'orthorhombic'
loop_
_space_group_symop_operation_xyz
x,y,z
1/2-x,1/2-y,z
1/2+x,-y,-z
-x,1/2+y,-z
-x,-y,-z
1/2+x,1/2+y,-z
1/2-x,y,z
x,1/2-y,z
loop_
_atom_site_type_symbol
_atom_site_label
_atom_site_fract_x
_atom_site_fract_y
_atom_site_fract_z
Si Si1 0.052690 0.565422 0.563655
Si Si2 0.250000 0.066701 0.370008
Si Si3 0.936439 0.433214 0.682365
Si Si4 0.750000 0.434690 0.482092
Si Si5 0.015344 0.436147 0.174887
Si Si6 0.354011 0.434727 0.055382
Si Si7 0.852298 0.435142 0.086159
O O1 0.043723 0.750000 0.564400
O O2 0.157903 0.527350 0.555643
O O3 0.000000 0.500000 0.500000
O O4 0.007203 0.496993 0.628888
O O5 0.250000 0.250000 0.364838
O O6 0.160667 0.000372 0.336606
O O7 0.250000 0.016564 0.446849
O O8 0.933227 0.250000 0.678048
O O9 0.963230 0.487458 0.755524
O O10 0.750000 0.250000 0.493685
O O11 0.018247 0.250000 0.182431
O O12 0.086952 0.480178 0.118210
O O13 0.919196 0.480668 0.144496
O O14 0.250000 0.478502 0.065165
O O15 0.358915 0.250000 0.049928
O O16 0.383864 0.504912 0.985399
O O17 0.750000 0.488094 0.096074
O O18 0.852519 0.250000 0.083482
#
# Coordination Sequence:
#
# PCOD9452159 Si02
#       7
#     8   4   8   4   8   8   8
#     4  11  22  40  65  93 123 159 200 247 297 349
#     4  12  24  40  66  92 120 157 194 239 298 358
#     4  12  26  42  60  88 125 159 198 246 297 358
#     4  10  22  40  66  94 122 153 198 249 294 350
#     4  10  21  37  56  80 113 154 198 239 293 354
#     4   9  18  32  53  82 111 143 187 240 292 350
#     4   9  18  34  56  81 110 147 192 244 295 348
#
# _framework density 18.322645999999999
#
# number of rings (size 3 to 8) (size 9 to 14) (size 15 to 20)
#    0.000    1.667    1.667    3.250    1.167    2.000 
#    1.500    0.000    0.000    0.000    0.000    0.000 
#    0.000    0.000    0.000    0.000    0.000    0.000 
#
# Total GULP energy -268193.418082 kJ/mol
# GULP energy per Si atom -5587.362877 kJ/mol
# Density = 1.828094 g / cm^3
# Si number density = 18.322646 Si / 1000 Ang^3
#
#
#
# Elastic Constant Matrix: (Units=GPa)
#
#
# Indices 1 2 3 4 5 6 
#
# 1 163.1706 65.2279 110.4258 0.0000 0.0000 0.0000
# 2 65.2279 65.7972 63.2068 0.0000 0.0000 0.0000
# 3 110.4258 63.2068 171.2893 0.0000 0.0000 0.0000
# 4 0.0000 0.0000 0.0000 37.0790 0.0000 0.0000
# 5 0.0000 0.0000 0.0000 0.0000 5.6460 0.0000
# 6 0.0000 0.0000 0.0000 0.0000 0.0000 21.6700
#
#
#
# Elastic Compliance Matrix: (Units=1/GPa)
#
#
# Indices 1 2 3 4 5 6 
#
# 1 0.012841 -0.007401 -0.005547 0.000000 0.000000 0.000000
# 2 -0.007401 0.027810 -0.005491 0.000000 0.000000 0.000000
# 3 -0.005547 -0.005491 0.011440 0.000000 0.000000 0.000000
# 4 0.000000 0.000000 0.000000 0.026969 0.000000 0.000000
# 5 0.000000 0.000000 0.000000 0.000000 0.177116 0.000000
# 6 0.000000 0.000000 0.000000 0.000000 0.000000 0.046147
#
#
# Mechanical properties :
#
#
# Convention : Reuss Voigt Hill
#
# Bulk Modulus (GPa) = 65.73270 97.55312 81.64291
# Shear Modulus (GPa) = 14.52331 23.63878 19.08105
#
# Velocity S-wave (km/s) = 2.81845 3.59575 3.23056
# Velocity P-wave (km/s) = 6.82235 8.40218 7.65314
#
# Compressibility (1/GPa) = 0.01521313
#
# Stress axis : x y z
#
# Youngs Moduli (GPa) = 77.87254 35.95838 87.40935
#
# Poissons Ratio (x) = 0.26614 0.48490
# Poissons Ratio (y) = 0.57636 0.47993
# Poissons Ratio (z) = 0.43199 0.19743
#
# Static dielectric constant tensor:
#      x y z
#    x 1.645330 0.000000 0.000000 
#    y 0.000000 1.615490 0.000000 
#    z 0.000000 0.000000 1.583820 
# 
# From -- ./inp_files/27400.got.cif
#   From: 2010.05.17/outbox.cif.g08.bks.cpg/sg59_14_cif.got.tgz:27400.got - 2010.06.03 14:40:33.
