data_PCOD9452123
_publ_section_title
;
Structure prediction by ZEFSAII (Michael W. Deem and Ramdas Pophale) SiO2 
 PCOD9452123
Probable space group: P M M N
;
_chemical_formula_sum "Si O2"
_cell_formula_units_Z 64
_cell_length_a 28.942001
_cell_length_b 9.208994
_cell_length_c 12.787231
_cell_angle_alpha 90.000000
_cell_angle_beta 90.000000
_cell_angle_gamma 90.000000
_cell_volume 3408.138654
_symmetry_space_group_name_H-M "P M M N"
_symmetry_group_IT_number 59
_space_group.IT_coordinate_system_code '2'
_symmetry_cell_setting 'orthorhombic'
loop_
_space_group_symop_operation_xyz
x,y,z
1/2-x,1/2-y,z
1/2+x,-y,-z
-x,1/2+y,-z
-x,-y,-z
1/2+x,1/2+y,-z
1/2-x,y,z
x,1/2-y,z
loop_
_atom_site_type_symbol
_atom_site_label
_atom_site_fract_x
_atom_site_fract_y
_atom_site_fract_z
Si Si1 0.673984 0.582603 0.011946
Si Si2 0.805331 0.414162 0.224259
Si Si3 0.804924 0.576608 0.434986
Si Si4 0.474958 0.574773 0.402442
Si Si5 0.865734 0.424672 0.611979
Si Si6 0.997806 0.075846 0.828805
Si Si7 0.935452 0.917360 0.987601
Si Si8 0.801353 0.078081 0.802828
O O1 0.688739 0.750000 0.023360
O O2 0.695681 0.509602 0.909978
O O3 0.684229 0.493537 0.116208
O O4 0.619056 0.578246 0.995399
O O5 0.750000 0.404710 0.231393
O O6 0.824174 0.250000 0.227147
O O7 0.819974 0.508038 0.324228
O O8 0.750000 0.545621 0.451114
O O9 0.810362 0.750000 0.433384
O O10 0.836000 0.504811 0.524014
O O11 0.500000 0.500000 0.500000
O O12 0.479106 0.750000 0.411867
O O13 0.420100 0.540520 0.395650
O O14 0.497387 0.527920 0.291423
O O15 0.860937 0.250000 0.600112
O O16 0.841827 0.463287 0.722622
O O17 0.994607 0.250000 0.826251
O O18 0.041242 0.035712 0.902423
O O19 0.954719 0.012934 0.893291
O O20 0.950015 0.750000 0.969487
O O21 0.750000 0.055891 0.755375
O O22 0.805937 0.250000 0.825440
#
# Coordination Sequence:
#
# PCOD9452123 Si02
#       8
#     8   8   8   8   8   8   8   8
#     4  11  22  34  51  80 117 149 180 223 273 326
#     4  10  21  37  56  77 105 143 183 222 266 318
#     4  10  21  37  58  84 112 143 183 231 284 341
#     4  10  22  38  57  82 111 145 185 231 284 338
#     4  10  21  38  59  83 111 145 189 236 283 340
#     4   9  18  36  58  77 102 137 178 222 267 318
#     4   9  19  34  54  81 108 137 175 220 271 322
#     4  10  21  37  58  83 112 149 191 233 277 328
#
# _framework density 18.778579000000001
#
# number of rings (size 3 to 8) (size 9 to 14) (size 15 to 20)
#    0.000    2.125    0.000    2.625    0.000    8.250 
#    0.000    1.250    0.000    0.000    0.000    0.000 
#    0.000    0.000    0.000    0.000    0.000    0.000 
#
# Total GULP energy -357218.319150 kJ/mol
# GULP energy per Si atom -5581.536237 kJ/mol
# Density = 1.873584 g / cm^3
# Si number density = 18.778579 Si / 1000 Ang^3
#
#
#
# Elastic Constant Matrix: (Units=GPa)
#
#
# Indices 1 2 3 4 5 6 
#
# 1 65.3296 26.6224 40.1569 0.0000 0.0000 0.0000
# 2 26.6224 38.4691 45.6328 0.0000 0.0000 0.0000
# 3 40.1569 45.6328 150.5604 0.0000 0.0000 0.0000
# 4 0.0000 0.0000 0.0000 21.9427 0.0000 0.0000
# 5 0.0000 0.0000 0.0000 0.0000 14.9286 0.0000
# 6 0.0000 0.0000 0.0000 0.0000 0.0000 28.1298
#
#
#
# Elastic Compliance Matrix: (Units=1/GPa)
#
#
# Indices 1 2 3 4 5 6 
#
# 1 0.021672 -0.012711 -0.001928 0.000000 0.000000 0.000000
# 2 -0.012711 0.048043 -0.011171 0.000000 0.000000 0.000000
# 3 -0.001928 -0.011171 0.010542 0.000000 0.000000 0.000000
# 4 0.000000 0.000000 0.000000 0.045573 0.000000 0.000000
# 5 0.000000 0.000000 0.000000 0.000000 0.066986 0.000000
# 6 0.000000 0.000000 0.000000 0.000000 0.000000 0.035549
#
#
# Mechanical properties :
#
#
# Convention : Reuss Voigt Hill
#
# Bulk Modulus (GPa) = 34.92009 53.24260 44.08135
# Shear Modulus (GPa) = 17.26940 22.46337 19.86638
#
# Velocity S-wave (km/s) = 3.03583 3.46240 3.25611
# Velocity P-wave (km/s) = 5.56098 6.66323 6.13690
#
# Compressibility (1/GPa) = 0.02863681
#
# Stress axis : x y z
#
# Youngs Moduli (GPa) = 46.14283 20.81478 94.86159
#
# Poissons Ratio (x) = 0.26458 0.18285
# Poissons Ratio (y) = 0.58654 1.05968
# Poissons Ratio (z) = 0.08894 0.23252
#
# Static dielectric constant tensor:
#      x y z
#    x 1.649260 0.000000 0.000000 
#    y 0.000000 1.639220 0.000000 
#    z 0.000000 0.000000 1.630520 
# 
# From -- ./inp_files/19335.got.cif
#   From: 2010.05.17/outbox.cif.g08.bks.cpg/sg59_10_cif.got.tgz:19335.got - 2010.06.03 14:40:33.
