data_PCOD9452672
_publ_section_title
;
Structure prediction by ZEFSAII (Michael W. Deem and Ramdas Pophale) SiO2 
 PCOD9452672
Probable space group: P M M N
;
_chemical_formula_sum "Si O2"
_cell_formula_units_Z 34
_cell_length_a 23.544084
_cell_length_b 7.786883
_cell_length_c 7.500604
_cell_angle_alpha 90.000000
_cell_angle_beta 90.000000
_cell_angle_gamma 90.000000
_cell_volume 1375.123440
_symmetry_space_group_name_H-M "P M M N"
_symmetry_group_IT_number 59
_space_group.IT_coordinate_system_code '2'
_symmetry_cell_setting 'orthorhombic'
loop_
_space_group_symop_operation_xyz
x,y,z
1/2-x,1/2-y,z
1/2+x,-y,-z
-x,1/2+y,-z
-x,-y,-z
1/2+x,1/2+y,-z
1/2-x,y,z
x,1/2-y,z
loop_
_atom_site_type_symbol
_atom_site_label
_atom_site_fract_x
_atom_site_fract_y
_atom_site_fract_z
Si Si1 0.690105 0.451403 0.248987
Si Si2 0.750000 0.750000 0.702343
Si Si3 0.670100 0.055682 0.832767
Si Si4 0.565051 0.949567 0.348482
Si Si5 0.549151 0.547586 0.750040
O O1 0.750000 0.527929 0.317664
O O2 0.688632 0.250000 0.295690
O O3 0.630888 0.529630 0.306213
O O4 0.691246 0.463676 0.035177
O O5 0.799972 0.595909 0.721504
O O6 0.682832 0.250000 0.769346
O O7 0.601890 0.037026 0.848112
O O8 0.552027 0.750000 0.354358
O O9 0.556306 0.021605 0.547046
O O10 0.517822 0.023403 0.213851
O O11 0.560053 0.750000 0.756498
#
# Coordination Sequence:
#
# PCOD9452672 Si02
#       5
#     8   2   8   8   8
#     4  10  22  40  59  87 122 161 203 248 305 370
#     4  12  22  40  64  92 128 168 192 258 300 366
#     4  11  23  40  65  92 125 163 206 249 305 365
#     4  10  22  38  63  89 121 159 205 256 310 365
#     4  10  21  41  62  89 121 163 208 254 307 363
#
# _framework density 24.725051000000001
#
# number of rings (size 3 to 8) (size 9 to 14) (size 15 to 20)
#    0.000    1.647    2.353    1.765    1.647    4.235 
#    2.118    0.000    0.000    0.000    0.000    0.000 
#    0.000    0.000    0.000    0.000    0.000    0.000 
#
# Total GULP energy -189491.404991 kJ/mol
# GULP energy per Si atom -5573.276617 kJ/mol
# Density = 2.466878 g / cm^3
# Si number density = 24.725051 Si / 1000 Ang^3
#
#
#
# Elastic Constant Matrix: (Units=GPa)
#
#
# Indices 1 2 3 4 5 6 
#
# 1 230.3788 45.9353 27.5377 0.0000 0.0000 0.0000
# 2 45.9353 123.7393 -2.0526 0.0000 0.0000 0.0000
# 3 27.5377 -2.0526 29.6558 0.0000 0.0000 0.0000
# 4 0.0000 0.0000 0.0000 7.3755 0.0000 0.0000
# 5 0.0000 0.0000 0.0000 0.0000 30.3131 0.0000
# 6 0.0000 0.0000 0.0000 0.0000 0.0000 34.7787
#
#
#
# Elastic Compliance Matrix: (Units=1/GPa)
#
#
# Indices 1 2 3 4 5 6 
#
# 1 0.005368 -0.002078 -0.005128 0.000000 0.000000 0.000000
# 2 -0.002078 0.008895 0.002545 0.000000 0.000000 0.000000
# 3 -0.005128 0.002545 0.038659 0.000000 0.000000 0.000000
# 4 0.000000 0.000000 0.000000 0.135583 0.000000 0.000000
# 5 0.000000 0.000000 0.000000 0.000000 0.032989 0.000000
# 6 0.000000 0.000000 0.000000 0.000000 0.000000 0.028753
#
#
# Mechanical properties :
#
#
# Convention : Reuss Voigt Hill
#
# Bulk Modulus (GPa) = 22.93616 58.51275 40.72446
# Shear Modulus (GPa) = 18.24135 35.31704 26.77919
#
# Velocity S-wave (km/s) = 2.71913 3.78351 3.29459
# Velocity P-wave (km/s) = 4.37663 6.54242 5.56589
#
# Compressibility (1/GPa) = 0.04359927
#
# Stress axis : x y z
#
# Youngs Moduli (GPa) = 186.28981 112.42197 25.86752
#
# Poissons Ratio (x) = 0.23359 0.13266
# Poissons Ratio (y) = 0.38707 -0.06583
# Poissons Ratio (z) = 0.95537 -0.28612
#
# Static dielectric constant tensor:
#      x y z
#    x 2.074090 0.000000 0.000000 
#    y 0.000000 1.937560 0.000000 
#    z 0.000000 0.000000 2.023000 
# 
# From -- ./inp_files/5416.got.cif
#   From: 2010.05.17/outbox.cif.g08.bks.cpg/sg59_3_cif.got.tgz:5416.got - 2010.06.03 14:40:33.
