data_PCOD9452733
_publ_section_title
;
Structure prediction by ZEFSAII (Michael W. Deem and Ramdas Pophale) SiO2 
 PCOD9452733
Probable space group: P M M N
;
_chemical_formula_sum "Si O2"
_cell_formula_units_Z 48
_cell_length_a 19.047360
_cell_length_b 7.745614
_cell_length_c 16.542131
_cell_angle_alpha 90.000000
_cell_angle_beta 90.000000
_cell_angle_gamma 90.000000
_cell_volume 2440.518455
_symmetry_space_group_name_H-M "P M M N"
_symmetry_group_IT_number 59
_space_group.IT_coordinate_system_code '2'
_symmetry_cell_setting 'orthorhombic'
loop_
_space_group_symop_operation_xyz
x,y,z
1/2-x,1/2-y,z
1/2+x,-y,-z
-x,1/2+y,-z
-x,-y,-z
1/2+x,1/2+y,-z
1/2-x,y,z
x,1/2-y,z
loop_
_atom_site_type_symbol
_atom_site_label
_atom_site_fract_x
_atom_site_fract_y
_atom_site_fract_z
Si Si1 0.567063 0.956513 0.555635
Si Si2 0.898237 0.553333 0.194073
Si Si3 0.666357 0.250000 0.299172
Si Si4 0.829936 0.047892 0.846137
Si Si5 0.830793 0.957680 0.027376
Si Si6 0.666031 0.250000 0.489573
Si Si7 0.959001 0.948418 0.741497
O O1 0.581745 0.750000 0.551011
O O2 0.549012 0.001554 0.648489
O O3 0.500000 0.000000 0.500000
O O4 0.630323 0.079511 0.527389
O O5 0.871788 0.750000 0.204050
O O6 0.863641 0.420446 0.256261
O O7 0.878542 0.494679 0.103419
O O8 0.981032 0.550429 0.211210
O O9 0.750000 0.250000 0.290652
O O10 0.648904 0.250000 0.394007
O O11 0.750000 0.979994 0.839582
O O12 0.828798 0.250000 0.826275
O O13 0.885335 0.961557 0.787288
O O14 0.851581 0.027913 0.939871
O O15 0.750000 0.012056 0.043304
O O16 0.831788 0.750000 0.020862
O O17 0.750000 0.250000 0.500152
O O18 0.982528 0.750000 0.741175
#
# Coordination Sequence:
#
# PCOD9452733 Si02
#       7
#     8   8   4   8   8   4   8
#     4  11  24  43  70  97 127 174 222 268 329 404
#     4  11  23  39  64  95 130 167 212 266 311 377
#     4  11  24  42  64  95 132 166 205 259 322 384
#     4  10  22  38  60  90 123 166 216 263 316 379
#     4   9  19  37  59  86 122 168 212 254 314 377
#     4  11  26  44  66  99 134 168 213 275 336 390
#     4  11  24  41  62  92 126 165 215 266 325 379
#
# _framework density 19.667952
#
# number of rings (size 3 to 8) (size 9 to 14) (size 15 to 20)
#    0.000    1.500    1.667    2.500    3.500    5.667 
#    0.000    3.333    0.000    0.000    0.000    0.000 
#    0.000    0.000    0.000    0.000    0.000    0.000 
#
# Total GULP energy -268227.204367 kJ/mol
# GULP energy per Si atom -5588.066758 kJ/mol
# Density = 1.962319 g / cm^3
# Si number density = 19.667952 Si / 1000 Ang^3
#
#
#
# Elastic Constant Matrix: (Units=GPa)
#
#
# Indices 1 2 3 4 5 6 
#
# 1 80.1623 24.5428 74.9620 0.0000 0.0000 0.0000
# 2 24.5428 69.8577 27.7220 0.0000 0.0000 0.0000
# 3 74.9620 27.7220 141.7670 0.0000 0.0000 0.0000
# 4 0.0000 0.0000 0.0000 32.8477 0.0000 0.0000
# 5 0.0000 0.0000 0.0000 0.0000 38.7674 0.0000
# 6 0.0000 0.0000 0.0000 0.0000 0.0000 27.4498
#
#
#
# Elastic Compliance Matrix: (Units=1/GPa)
#
#
# Indices 1 2 3 4 5 6 
#
# 1 0.025635 -0.003932 -0.012786 0.000000 0.000000 0.000000
# 2 -0.003932 0.016122 -0.001073 0.000000 0.000000 0.000000
# 3 -0.012786 -0.001073 0.014025 0.000000 0.000000 0.000000
# 4 0.000000 0.000000 0.000000 0.030444 0.000000 0.000000
# 5 0.000000 0.000000 0.000000 0.000000 0.025795 0.000000
# 6 0.000000 0.000000 0.000000 0.000000 0.000000 0.036430
#
#
# Mechanical properties :
#
#
# Convention : Reuss Voigt Hill
#
# Bulk Modulus (GPa) = 49.50866 60.69341 55.10104
# Shear Modulus (GPa) = 26.20987 30.78364 28.49676
#
# Velocity S-wave (km/s) = 3.65446 3.96051 3.81056
# Velocity P-wave (km/s) = 6.56001 7.20002 6.88745
#
# Compressibility (1/GPa) = 0.02019849
#
# Stress axis : x y z
#
# Youngs Moduli (GPa) = 39.00854 62.02592 71.30277
#
# Poissons Ratio (x) = 0.24391 0.91170
# Poissons Ratio (y) = 0.15339 0.07653
# Poissons Ratio (z) = 0.49877 0.06658
#
# Static dielectric constant tensor:
#      x y z
#    x 1.691160 0.000000 0.000000 
#    y 0.000000 1.695320 0.000000 
#    z 0.000000 0.000000 1.662960 
# 
# From -- ./inp_files/23732.got.cif
#   From: 2010.05.17/outbox.cif.g08.bks.cpg/sg59_12_cif.got.tgz:23732.got - 2010.06.03 14:40:33.
