data_PCOD9452171
_publ_section_title
;
Structure prediction by ZEFSAII (Michael W. Deem and Ramdas Pophale) SiO2 
 PCOD9452171
Probable space group: P M M N
;
_chemical_formula_sum "Si O2"
_cell_formula_units_Z 64
_cell_length_a 8.843558
_cell_length_b 14.864572
_cell_length_c 27.035994
_cell_angle_alpha 90.000000
_cell_angle_beta 90.000000
_cell_angle_gamma 90.000000
_cell_volume 3554.035642
_symmetry_space_group_name_H-M "P M M N"
_symmetry_group_IT_number 59
_space_group.IT_coordinate_system_code '2'
_symmetry_cell_setting 'orthorhombic'
loop_
_space_group_symop_operation_xyz
x,y,z
1/2-x,1/2-y,z
1/2+x,-y,-z
-x,1/2+y,-z
-x,-y,-z
1/2+x,1/2+y,-z
1/2-x,y,z
x,1/2-y,z
loop_
_atom_site_type_symbol
_atom_site_label
_atom_site_fract_x
_atom_site_fract_y
_atom_site_fract_z
Si Si1 0.427611 0.857438 0.127622
Si Si2 0.930019 0.356801 0.242840
Si Si3 0.932451 0.010413 0.576252
Si Si4 0.070860 0.356653 0.767098
Si Si5 0.931274 0.504991 0.054347
Si Si6 0.434002 0.647348 0.869132
Si Si7 0.432561 0.354078 0.498700
Si Si8 0.069203 0.993269 0.309433
O O1 0.250000 0.878969 0.126017
O O2 0.445093 0.750000 0.123045
O O3 0.495833 0.883775 0.180835
O O4 0.513345 0.907711 0.083908
O O5 0.750000 0.374801 0.246538
O O6 0.952023 0.250000 0.249232
O O7 0.979386 0.379593 0.186590
O O8 0.016257 0.415700 0.282676
O O9 0.750000 0.017079 0.574156
O O10 0.975612 0.918178 0.547620
O O11 0.979238 0.009125 0.633355
O O12 0.001805 0.093925 0.546198
O O13 0.250000 0.372393 0.770368
O O14 0.044676 0.250000 0.760305
O O15 0.002157 0.412950 0.722415
O O16 0.750000 0.503624 0.051352
O O17 0.982336 0.421162 0.088647
O O18 0.000000 0.500000 0.000000
O O19 0.250000 0.647796 0.868618
O O20 0.483181 0.750000 0.878176
O O21 0.250000 0.354254 0.501632
O O22 0.481905 0.250000 0.494723
O O23 0.250000 0.986616 0.307826
#
# Coordination Sequence:
#
# PCOD9452171 Si02
#       8
#     8   8   8   8   8   8   8   8
#     4  10  21  38  59  81 107 140 179 225 276 328
#     4   9  18  34  56  80 105 136 177 222 266 315
#     4   9  20  36  52  76 108 140 175 216 264 316
#     4  10  21  37  57  80 107 142 182 222 268 323
#     4  11  22  35  54  80 109 142 180 223 272 323
#     4   8  16  33  55  75  97 131 173 213 257 310
#     4   9  18  35  58  78  99 134 179 224 268 314
#     4  11  22  34  52  79 113 148 177 214 264 318
#
# _framework density 18.007698000000001
#
# number of rings (size 3 to 8) (size 9 to 14) (size 15 to 20)
#    0.000    2.375    0.000    3.000    0.000    5.500 
#    0.000    5.625    0.000    2.625    0.000    0.000 
#    0.000    0.000    0.000    0.000    0.000    0.000 
#
# Total GULP energy -357221.375597 kJ/mol
# GULP energy per Si atom -5581.583994 kJ/mol
# Density = 1.796671 g / cm^3
# Si number density = 18.007698 Si / 1000 Ang^3
#
#
#
# Elastic Constant Matrix: (Units=GPa)
#
#
# Indices 1 2 3 4 5 6 
#
# 1 41.5842 41.3473 53.1587 0.0000 0.0000 0.0000
# 2 41.3473 93.5855 72.1338 0.0000 0.0000 0.0000
# 3 53.1587 72.1338 175.0219 0.0000 0.0000 0.0000
# 4 0.0000 0.0000 0.0000 131.7662 0.0000 0.0000
# 5 0.0000 0.0000 0.0000 0.0000 28.9356 0.0000
# 6 0.0000 0.0000 0.0000 0.0000 0.0000 26.9571
#
#
#
# Elastic Compliance Matrix: (Units=1/GPa)
#
#
# Indices 1 2 3 4 5 6 
#
# 1 0.051226 -0.015594 -0.009132 0.000000 0.000000 0.000000
# 2 -0.015594 0.020407 -0.003674 0.000000 0.000000 0.000000
# 3 -0.009132 -0.003674 0.010002 0.000000 0.000000 0.000000
# 4 0.000000 0.000000 0.000000 0.007589 0.000000 0.000000
# 5 0.000000 0.000000 0.000000 0.000000 0.034559 0.000000
# 6 0.000000 0.000000 0.000000 0.000000 0.000000 0.037096
#
#
# Mechanical properties :
#
#
# Convention : Reuss Voigt Hill
#
# Bulk Modulus (GPa) = 40.26613 71.49679 55.88146
# Shear Modulus (GPa) = 22.12805 47.10190 34.61497
#
# Velocity S-wave (km/s) = 3.50924 5.11989 4.38908
# Velocity P-wave (km/s) = 6.23127 8.64527 7.53557
#
# Compressibility (1/GPa) = 0.02483477
#
# Stress axis : x y z
#
# Youngs Moduli (GPa) = 19.52130 49.00268 99.98464
#
# Poissons Ratio (x) = 0.76413 0.91305
# Poissons Ratio (y) = 0.30441 0.36738
# Poissons Ratio (z) = 0.17827 0.18006
#
# Static dielectric constant tensor:
#      x y z
#    x 1.623900 0.000000 0.000000 
#    y 0.000000 1.620080 0.000000 
#    z 0.000000 0.000000 1.588550 
# 
# From -- ./inp_files/31691.got.cif
#   From: 2010.05.17/outbox.cif.g08.bks.cpg/sg59_16_cif.got.tgz:31691.got - 2010.06.03 14:40:33.
