data_PCOD9452647
_publ_section_title
;
Structure prediction by ZEFSAII (Michael W. Deem and Ramdas Pophale) SiO2 
 PCOD9452647
Probable space group: P M M N
;
_chemical_formula_sum "Si O2"
_cell_formula_units_Z 64
_cell_length_a 31.782651
_cell_length_b 8.572787
_cell_length_c 12.184675
_cell_angle_alpha 90.000000
_cell_angle_beta 90.000000
_cell_angle_gamma 90.000000
_cell_volume 3319.908407
_symmetry_space_group_name_H-M "P M M N"
_symmetry_group_IT_number 59
_space_group.IT_coordinate_system_code '2'
_symmetry_cell_setting 'orthorhombic'
loop_
_space_group_symop_operation_xyz
x,y,z
1/2-x,1/2-y,z
1/2+x,-y,-z
-x,1/2+y,-z
-x,-y,-z
1/2+x,1/2+y,-z
1/2-x,y,z
x,1/2-y,z
loop_
_atom_site_type_symbol
_atom_site_label
_atom_site_fract_x
_atom_site_fract_y
_atom_site_fract_z
Si Si1 0.297183 0.936536 0.765639
Si Si2 0.125628 0.436767 0.624633
Si Si3 0.297045 0.938322 0.230659
Si Si4 0.575742 0.939321 0.997910
Si Si5 0.325709 0.062893 0.997257
Si Si6 0.624194 0.062996 0.621156
Si Si7 0.454018 0.062913 0.240835
Si Si8 0.044302 0.438606 0.765876
O O1 0.250000 0.983568 0.731587
O O2 0.300296 0.750000 0.758078
O O3 0.333459 0.011253 0.692092
O O4 0.304517 0.987807 0.891113
O O5 0.124937 0.250000 0.618332
O O6 0.125887 0.506171 0.503359
O O7 0.083822 0.486439 0.691304
O O8 0.250000 0.981292 0.268214
O O9 0.298864 0.750000 0.222798
O O10 0.334254 0.989410 0.311875
O O11 0.305364 0.007571 0.110500
O O12 0.574292 0.750000 0.998103
O O13 0.624917 0.982462 0.001255
O O14 0.553112 0.992771 0.108993
O O15 0.555408 0.992949 0.884003
O O16 0.323170 0.250000 0.988468
O O17 0.623041 0.250000 0.623579
O O18 0.583028 0.998453 0.681992
O O19 0.453226 0.250000 0.241651
O O20 0.499935 0.003690 0.273932
O O21 0.042683 0.250000 0.766119
#
# Coordination Sequence:
#
# PCOD9452647 Si02
#       8
#     8   8   8   8   8   8   8   8
#     4  11  24  41  62  91 127 163 201 247 299 360
#     4  11  24  43  66  89 118 158 205 258 305 356
#     4  10  22  40  61  88 122 159 199 245 301 362
#     4   9  18  35  59  88 123 156 190 242 301 355
#     4  11  20  36  62  92 125 160 198 246 301 355
#     4  11  24  42  63  87 119 162 206 252 307 365
#     4  11  22  38  62  92 123 157 200 250 301 359
#     4  10  21  40  62  88 122 158 195 243 306 365
#
# _framework density 19.277640999999999
#
# number of rings (size 3 to 8) (size 9 to 14) (size 15 to 20)
#    0.000    1.500    2.500    2.625    0.000    5.250 
#    0.000    1.875    0.000    0.000    0.000    0.000 
#    0.000    0.000    0.000    0.000    0.000    0.000 
#
# Total GULP energy -357759.739427 kJ/mol
# GULP energy per Si atom -5589.995929 kJ/mol
# Density = 1.923376 g / cm^3
# Si number density = 19.277641 Si / 1000 Ang^3
#
#
#
# Elastic Constant Matrix: (Units=GPa)
#
#
# Indices 1 2 3 4 5 6 
#
# 1 182.6279 35.7338 74.1784 0.0000 0.0000 0.0000
# 2 35.7338 27.5903 24.9059 0.0000 0.0000 0.0000
# 3 74.1784 24.9059 139.0656 0.0000 0.0000 0.0000
# 4 0.0000 0.0000 0.0000 32.1861 0.0000 0.0000
# 5 0.0000 0.0000 0.0000 0.0000 10.8845 0.0000
# 6 0.0000 0.0000 0.0000 0.0000 0.0000 28.0975
#
#
#
# Elastic Compliance Matrix: (Units=1/GPa)
#
#
# Indices 1 2 3 4 5 6 
#
# 1 0.008246 -0.008003 -0.002965 0.000000 0.000000 0.000000
# 2 -0.008003 0.051002 -0.004865 0.000000 0.000000 0.000000
# 3 -0.002965 -0.004865 0.009644 0.000000 0.000000 0.000000
# 4 0.000000 0.000000 0.000000 0.031069 0.000000 0.000000
# 5 0.000000 0.000000 0.000000 0.000000 0.091874 0.000000
# 6 0.000000 0.000000 0.000000 0.000000 0.000000 0.035590
#
#
# Mechanical properties :
#
#
# Convention : Reuss Voigt Hill
#
# Bulk Modulus (GPa) = 26.86399 68.76889 47.81644
# Shear Modulus (GPa) = 18.41622 28.53135 23.47379
#
# Velocity S-wave (km/s) = 3.09417 3.85128 3.49330
# Velocity P-wave (km/s) = 5.17018 7.45163 6.41317
#
# Compressibility (1/GPa) = 0.03722455
#
# Stress axis : x y z
#
# Youngs Moduli (GPa) = 121.27265 19.60718 103.69388
#
# Poissons Ratio (x) = 0.15692 0.30746
# Poissons Ratio (y) = 0.97056 0.50449
# Poissons Ratio (z) = 0.35958 0.09539
#
# Static dielectric constant tensor:
#      x y z
#    x 1.668070 0.000000 0.000000 
#    y 0.000000 1.651770 0.000000 
#    z 0.000000 0.000000 1.640740 
# 
# From -- ./inp_files/19283.got.cif
#   From: 2010.05.17/outbox.cif.g08.bks.cpg/sg59_10_cif.got.tgz:19283.got - 2010.06.03 14:40:33.
