data_PCOD9452017
_publ_section_title
;
Structure prediction by ZEFSAII (Michael W. Deem and Ramdas Pophale) SiO2 
 PCOD9452017
Probable space group: P M M N
;
_chemical_formula_sum "Si O2"
_cell_formula_units_Z 56
_cell_length_a 19.894624
_cell_length_b 9.216169
_cell_length_c 15.451046
_cell_angle_alpha 90.000000
_cell_angle_beta 90.000000
_cell_angle_gamma 90.000000
_cell_volume 2832.983539
_symmetry_space_group_name_H-M "P M M N"
_symmetry_group_IT_number 59
_space_group.IT_coordinate_system_code '2'
_symmetry_cell_setting 'orthorhombic'
loop_
_space_group_symop_operation_xyz
x,y,z
1/2-x,1/2-y,z
1/2+x,-y,-z
-x,1/2+y,-z
-x,-y,-z
1/2+x,1/2+y,-z
1/2-x,y,z
x,1/2-y,z
loop_
_atom_site_type_symbol
_atom_site_label
_atom_site_fract_x
_atom_site_fract_y
_atom_site_fract_z
Si Si1 0.671054 0.419588 0.681201
Si Si2 0.920396 0.422250 0.848217
Si Si3 0.541297 0.079035 0.233550
Si Si4 0.328815 0.077965 0.499000
Si Si5 0.825966 0.919860 0.978158
Si Si6 0.546702 0.422453 0.429917
Si Si7 0.673624 0.919092 0.186413
O O1 0.750000 0.434290 0.703828
O O2 0.659490 0.250000 0.657361
O O3 0.625700 0.453923 0.763811
O O4 0.658118 0.520004 0.598384
O O5 0.927366 0.250000 0.856287
O O6 0.881655 0.487542 0.929904
O O7 0.991978 0.494787 0.830536
O O8 0.538200 0.250000 0.217072
O O9 0.520297 0.051791 0.332998
O O10 0.616602 0.020517 0.224024
O O11 0.250000 0.051646 0.517904
O O12 0.341334 0.250000 0.504155
O O13 0.379413 0.991072 0.559823
O O14 0.750000 0.965434 0.952871
O O15 0.833672 0.750000 0.955156
O O16 0.830001 0.929734 0.081938
O O17 0.500000 0.500000 0.500000
O O18 0.548818 0.250000 0.444912
O O19 0.750000 0.955543 0.212540
O O20 0.661530 0.750000 0.209580
#
# Coordination Sequence:
#
# PCOD9452017 Si02
#       7
#     8   8   8   8   8   8   8
#     4   9  18  33  53  79 113 151 190 234 283 333
#     4  11  22  35  55  84 117 153 193 234 278 333
#     4  11  25  41  58  84 115 149 189 233 285 340
#     4  10  21  36  56  83 112 145 187 232 281 339
#     4   9  19  37  61  88 118 152 188 229 279 332
#     4  11  24  41  61  84 112 148 190 236 287 342
#     4   9  20  41  66  89 114 147 189 235 283 336
#
# _framework density 19.767146
#
# number of rings (size 3 to 8) (size 9 to 14) (size 15 to 20)
#    0.000    2.000    0.000    3.857    0.000    9.429 
#    0.000    5.714    0.000    0.000    0.000    0.000 
#    0.000    0.000    0.000    0.000    0.000    0.000 
#
# Total GULP energy -313002.997537 kJ/mol
# GULP energy per Si atom -5589.339242 kJ/mol
# Density = 1.972216 g / cm^3
# Si number density = 19.767146 Si / 1000 Ang^3
#
#
#
# Elastic Constant Matrix: (Units=GPa)
#
#
# Indices 1 2 3 4 5 6 
#
# 1 69.7589 37.4351 17.3624 0.0000 0.0000 0.0000
# 2 37.4351 58.8436 26.7798 0.0000 0.0000 0.0000
# 3 17.3624 26.7798 21.5370 0.0000 0.0000 0.0000
# 4 0.0000 0.0000 0.0000 27.8753 0.0000 0.0000
# 5 0.0000 0.0000 0.0000 0.0000 33.5638 0.0000
# 6 0.0000 0.0000 0.0000 0.0000 0.0000 34.0956
#
#
#
# Elastic Compliance Matrix: (Units=1/GPa)
#
#
# Indices 1 2 3 4 5 6 
#
# 1 0.021771 -0.013505 -0.000758 0.000000 0.000000 0.000000
# 2 -0.013505 0.047525 -0.048206 0.000000 0.000000 0.000000
# 3 -0.000758 -0.048206 0.106983 0.000000 0.000000 0.000000
# 4 0.000000 0.000000 0.000000 0.035874 0.000000 0.000000
# 5 0.000000 0.000000 0.000000 0.000000 0.029794 0.000000
# 6 0.000000 0.000000 0.000000 0.000000 0.000000 0.029329
#
#
# Mechanical properties :
#
#
# Convention : Reuss Voigt Hill
#
# Bulk Modulus (GPa) = 19.47785 34.81045 27.14415
# Shear Modulus (GPa) = 12.09690 23.67775 17.88733
#
# Velocity S-wave (km/s) = 2.47649 3.46473 3.01142
# Velocity P-wave (km/s) = 4.24881 5.80123 5.08462
#
# Compressibility (1/GPa) = 0.05134037
#
# Stress axis : x y z
#
# Youngs Moduli (GPa) = 45.93208 21.04175 9.34724
#
# Poissons Ratio (x) = 0.28418 0.00709
# Poissons Ratio (y) = 0.62033 0.45059
# Poissons Ratio (z) = 0.03483 1.01434
#
# Static dielectric constant tensor:
#      x y z
#    x 1.699130 0.000000 0.000000 
#    y 0.000000 1.653490 0.000000 
#    z 0.000000 0.000000 1.688070 
# 
# From -- ./inp_files/24187.got.cif
#   From: 2010.05.17/outbox.cif.g08.bks.cpg/sg59_13_cif.got.tgz:24187.got - 2010.06.03 14:40:33.
