data_PCOD9452143
_publ_section_title
;
Structure prediction by ZEFSAII (Michael W. Deem and Ramdas Pophale) SiO2 
 PCOD9452143
Probable space group: P M M N
;
_chemical_formula_sum "Si O2"
_cell_formula_units_Z 56
_cell_length_a 8.849573
_cell_length_b 15.667647
_cell_length_c 21.816512
_cell_angle_alpha 90.000000
_cell_angle_beta 90.000000
_cell_angle_gamma 90.000000
_cell_volume 3024.902713
_symmetry_space_group_name_H-M "P M M N"
_symmetry_group_IT_number 59
_space_group.IT_coordinate_system_code '2'
_symmetry_cell_setting 'orthorhombic'
loop_
_space_group_symop_operation_xyz
x,y,z
1/2-x,1/2-y,z
1/2+x,-y,-z
-x,1/2+y,-z
-x,-y,-z
1/2+x,1/2+y,-z
1/2-x,y,z
x,1/2-y,z
loop_
_atom_site_type_symbol
_atom_site_label
_atom_site_fract_x
_atom_site_fract_y
_atom_site_fract_z
Si Si1 0.430801 0.905351 0.000645
Si Si2 0.068892 0.846834 0.863132
Si Si3 0.429842 0.995244 0.208601
Si Si4 0.931984 0.347683 0.429685
Si Si5 0.929720 0.846650 0.125949
Si Si6 0.068167 0.151961 0.562420
Si Si7 0.567144 0.503732 0.343481
O O1 0.250000 0.909669 0.008213
O O2 0.502818 0.857146 0.058018
O O3 0.462665 0.862421 0.935120
O O4 0.500000 0.000000 0.000000
O O5 0.250000 0.856965 0.854975
O O6 0.028110 0.750000 0.846429
O O7 0.985746 0.917967 0.823688
O O8 0.250000 0.991557 0.208280
O O9 0.495738 0.916797 0.169337
O O10 0.493213 0.991641 0.277251
O O11 0.750000 0.349875 0.434019
O O12 0.977198 0.250000 0.414757
O O13 0.976843 0.417289 0.379411
O O14 0.998661 0.369313 0.496288
O O15 0.750000 0.861646 0.123492
O O16 0.956498 0.750000 0.147769
O O17 0.250000 0.148691 0.557136
O O18 0.025357 0.250000 0.577370
O O19 0.023580 0.084086 0.613934
O O20 0.750000 0.504224 0.336958
#
# Coordination Sequence:
#
# PCOD9452143 Si02
#       7
#     8   8   8   8   8   8   8
#     4  11  21  36  63  94 123 154 191 239 296 351
#     4  10  22  41  64  87 116 156 197 238 290 352
#     4  12  26  41  59  85 118 156 198 249 298 348
#     4   9  18  33  55  83 112 144 183 229 281 336
#     4  11  24  42  64  88 117 156 199 244 297 355
#     4   9  18  33  55  83 112 143 181 229 284 338
#     4  10  21  37  56  78 111 152 193 233 280 344
#
# _framework density 18.512992000000001
#
# number of rings (size 3 to 8) (size 9 to 14) (size 15 to 20)
#    0.000    1.714    1.429    3.000    0.000    4.857 
#    0.000    2.857    0.000    0.000    0.000    0.000 
#    0.000    0.000    0.000    0.000    0.000    0.000 
#
# Total GULP energy -312923.440105 kJ/mol
# GULP energy per Si atom -5587.918573 kJ/mol
# Density = 1.847086 g / cm^3
# Si number density = 18.512992 Si / 1000 Ang^3
#
#
#
# Elastic Constant Matrix: (Units=GPa)
#
#
# Indices 1 2 3 4 5 6 
#
# 1 43.8899 43.5173 35.7978 0.0000 0.0000 0.0000
# 2 43.5173 99.1881 48.8704 0.0000 0.0000 0.0000
# 3 35.7978 48.8704 100.3852 0.0000 0.0000 0.0000
# 4 0.0000 0.0000 0.0000 -11.9279 0.0000 0.0000
# 5 0.0000 0.0000 0.0000 0.0000 35.0299 0.0000
# 6 0.0000 0.0000 0.0000 0.0000 0.0000 12.4623
#
#
#
# Elastic Compliance Matrix: (Units=1/GPa)
#
#
# Indices 1 2 3 4 5 6 
#
# 1 0.045257 -0.015660 -0.008515 0.000000 0.000000 0.000000
# 2 -0.015660 0.018682 -0.003510 0.000000 0.000000 0.000000
# 3 -0.008515 -0.003510 0.014707 0.000000 0.000000 0.000000
# 4 0.000000 0.000000 0.000000 -0.083837 0.000000 0.000000
# 5 0.000000 0.000000 0.000000 0.000000 0.028547 0.000000
# 6 0.000000 0.000000 0.000000 0.000000 0.000000 0.080242
#
#
# Mechanical properties :
#
#
# Convention : Reuss Voigt Hill
#
# Bulk Modulus (GPa) = 42.96529 55.53712 49.25121
# Shear Modulus (GPa) = 29.98903 14.79803 22.39353
#
# Velocity S-wave (km/s) = 4.02915 2.83031 3.48172
# Velocity P-wave (km/s) = 6.70104 6.38318 6.54404
#
# Compressibility (1/GPa) = 0.02327460
#
# Stress axis : x y z
#
# Youngs Moduli (GPa) = 22.09619 53.52669 67.99465
#
# Poissons Ratio (x) = 0.83825 0.57896
# Poissons Ratio (y) = 0.34604 0.23869
# Poissons Ratio (z) = 0.18814 0.18791
#
# Static dielectric constant tensor:
#      x y z
#    x 1.616390 0.000000 0.000000 
#    y 0.000000 1.645930 0.000000 
#    z 0.000000 0.000000 1.598430 
# 
# From -- ./inp_files/28996.got.cif
#   From: 2010.05.17/outbox.cif.g08.bks.cpg/sg59_15_cif.got.tgz:28996.got - 2010.06.03 14:40:33.
