data_PCOD9452571
_publ_section_title
;
Structure prediction by ZEFSAII (Michael W. Deem and Ramdas Pophale) SiO2 
 PCOD9452571
Probable space group: P M M N
;
_chemical_formula_sum "Si O2"
_cell_formula_units_Z 40
_cell_length_a 21.203237
_cell_length_b 8.664918
_cell_length_c 11.482172
_cell_angle_alpha 90.000000
_cell_angle_beta 90.000000
_cell_angle_gamma 90.000000
_cell_volume 2109.554127
_symmetry_space_group_name_H-M "P M M N"
_symmetry_group_IT_number 59
_space_group.IT_coordinate_system_code '2'
_symmetry_cell_setting 'orthorhombic'
loop_
_space_group_symop_operation_xyz
x,y,z
1/2-x,1/2-y,z
1/2+x,-y,-z
-x,1/2+y,-z
-x,-y,-z
1/2+x,1/2+y,-z
1/2-x,y,z
x,1/2-y,z
loop_
_atom_site_type_symbol
_atom_site_label
_atom_site_fract_x
_atom_site_fract_y
_atom_site_fract_z
Si Si1 0.003681 0.437332 0.130128
Si Si2 0.066499 0.423447 0.519148
Si Si3 0.750000 0.932402 0.349050
Si Si4 0.376742 0.929494 0.731124
Si Si5 0.128001 0.076058 0.268116
Si Si6 0.750000 0.431860 0.618667
O O1 0.004642 0.250000 0.133785
O O2 0.938813 0.484043 0.197128
O O3 0.070471 0.487334 0.188451
O O4 0.000000 0.500000 0.000000
O O5 0.064286 0.250000 0.571606
O O6 0.103395 0.543073 0.598128
O O7 0.096693 0.408233 0.394130
O O8 0.000000 0.500000 0.500000
O O9 0.750000 0.750000 0.364855
O O10 0.810440 0.982625 0.271938
O O11 0.750000 0.996953 0.484885
O O12 0.366640 0.750000 0.758361
O O13 0.144912 0.250000 0.226253
O O14 0.190211 0.981484 0.301645
O O15 0.750000 0.250000 0.600700
#
# Coordination Sequence:
#
# PCOD9452571 Si02
#       6
#     8   8   4   8   8   4
#     4  10  23  43  65  88 116 154 204 255 301 348
#     4  11  20  32  55  87 123 157 194 241 300 362
#     4  12  24  38  57  90 129 164 197 235 299 371
#     4  11  22  39  60  88 123 157 198 248 300 354
#     4  10  21  39  59  85 123 161 196 243 301 355
#     4  12  24  36  57  92 127 162 199 239 295 363
#
# _framework density 18.961352000000002
#
# number of rings (size 3 to 8) (size 9 to 14) (size 15 to 20)
#    0.000    1.200    4.000    3.000    0.000    3.200 
#    0.000    1.000    0.000    0.000    0.000    0.000 
#    0.000    0.000    0.000    0.000    0.000    0.000 
#
# Total GULP energy -222725.596005 kJ/mol
# GULP energy per Si atom -5568.139900 kJ/mol
# Density = 1.891820 g / cm^3
# Si number density = 18.961352 Si / 1000 Ang^3
#
#
#
# Elastic Constant Matrix: (Units=GPa)
#
#
# Indices 1 2 3 4 5 6 
#
# 1 166.7646 61.0268 45.4897 0.0000 0.0000 0.0000
# 2 61.0268 76.4042 20.5944 0.0000 0.0000 0.0000
# 3 45.4897 20.5944 86.3214 0.0000 0.0000 0.0000
# 4 0.0000 0.0000 0.0000 24.9586 0.0000 0.0000
# 5 0.0000 0.0000 0.0000 0.0000 4.7215 0.0000
# 6 0.0000 0.0000 0.0000 0.0000 0.0000 15.0420
#
#
#
# Elastic Compliance Matrix: (Units=1/GPa)
#
#
# Indices 1 2 3 4 5 6 
#
# 1 0.009295 -0.006524 -0.003342 0.000000 0.000000 0.000000
# 2 -0.006524 0.018566 -0.000992 0.000000 0.000000 0.000000
# 3 -0.003342 -0.000992 0.013582 0.000000 0.000000 0.000000
# 4 0.000000 0.000000 0.000000 0.040066 0.000000 0.000000
# 5 0.000000 0.000000 0.000000 0.000000 0.211798 0.000000
# 6 0.000000 0.000000 0.000000 0.000000 0.000000 0.066481
#
#
# Mechanical properties :
#
#
# Convention : Reuss Voigt Hill
#
# Bulk Modulus (GPa) = 50.68618 64.85688 57.77153
# Shear Modulus (GPa) = 12.88391 22.43637 17.66014
#
# Velocity S-wave (km/s) = 2.60952 3.44360 3.05516
# Velocity P-wave (km/s) = 5.98905 7.07744 6.55587
#
# Compressibility (1/GPa) = 0.01972925
#
# Stress axis : x y z
#
# Youngs Moduli (GPa) = 107.57915 53.86086 73.62458
#
# Poissons Ratio (x) = 0.35138 0.24606
# Poissons Ratio (y) = 0.70182 0.07301
# Poissons Ratio (z) = 0.35954 0.05341
#
# Static dielectric constant tensor:
#      x y z
#    x 1.731870 0.000000 0.000000 
#    y 0.000000 1.662080 0.000000 
#    z 0.000000 0.000000 1.629220 
# 
# From -- ./inp_files/18154.got.cif
#   From: 2010.05.17/outbox.cif.g08.bks.cpg/sg59_10_cif.got.tgz:18154.got - 2010.06.03 14:40:33.
