data_PCOD9452598
_publ_section_title
;
Structure prediction by ZEFSAII (Michael W. Deem and Ramdas Pophale) SiO2 
 PCOD9452598
Probable space group: P M M N
;
_chemical_formula_sum "Si O2"
_cell_formula_units_Z 56
_cell_length_a 14.582671
_cell_length_b 8.771453
_cell_length_c 23.317875
_cell_angle_alpha 90.000000
_cell_angle_beta 90.000000
_cell_angle_gamma 90.000000
_cell_volume 2982.617683
_symmetry_space_group_name_H-M "P M M N"
_symmetry_group_IT_number 59
_space_group.IT_coordinate_system_code '2'
_symmetry_cell_setting 'orthorhombic'
loop_
_space_group_symop_operation_xyz
x,y,z
1/2-x,1/2-y,z
1/2+x,-y,-z
-x,1/2+y,-z
-x,-y,-z
1/2+x,1/2+y,-z
1/2-x,y,z
x,1/2-y,z
loop_
_atom_site_type_symbol
_atom_site_label
_atom_site_fract_x
_atom_site_fract_y
_atom_site_fract_z
Si Si1 0.143563 0.934232 0.699124
Si Si2 0.356770 0.934022 0.467760
Si Si3 0.598738 0.933273 0.984208
Si Si4 0.851345 0.425103 0.098359
Si Si5 0.146045 0.066661 0.147204
Si Si6 0.531527 0.929498 0.195280
Si Si7 0.963767 0.066152 0.415697
O O1 0.250000 0.984962 0.698014
O O2 0.144427 0.750000 0.700434
O O3 0.087637 0.981510 0.642313
O O4 0.089395 0.993404 0.754283
O O5 0.250000 0.983512 0.460917
O O6 0.357056 0.750000 0.464034
O O7 0.398508 0.976154 0.530326
O O8 0.434354 0.998579 0.424752
O O9 0.601524 0.750000 0.988568
O O10 0.626974 0.974492 0.919550
O O11 0.500000 0.000000 0.000000
O O12 0.655942 0.009542 0.034733
O O13 0.750000 0.426307 0.125068
O O14 0.884732 0.250000 0.096901
O O15 0.918563 0.525510 0.136022
O O16 0.250000 0.023517 0.161451
O O17 0.137758 0.250000 0.150619
O O18 0.070933 0.992628 0.188091
O O19 0.530906 0.750000 0.203157
O O20 0.971420 0.250000 0.415770
#
# Coordination Sequence:
#
# PCOD9452598 Si02
#       7
#     8   8   8   8   8   8   8
#     4  10  21  39  62  84 110 148 191 235 282 334
#     4   9  17  31  53  83 120 157 190 229 279 332
#     4  11  21  35  58  86 114 144 178 221 278 338
#     4  11  23  38  57  81 111 147 184 224 274 333
#     4  10  22  41  63  83 108 145 186 228 277 336
#     4  12  25  39  58  83 112 144 182 233 285 336
#     4   9  18  33  55  84 115 150 194 237 279 331
#
# _framework density 18.775452999999999
#
# number of rings (size 3 to 8) (size 9 to 14) (size 15 to 20)
#    0.000    1.714    1.429    3.429    0.000    7.143 
#    0.000    0.714    0.000    3.429    0.000    0.000 
#    0.000    0.000    0.000    0.000    0.000    0.000 
#
# Total GULP energy -312583.352415 kJ/mol
# GULP energy per Si atom -5581.845579 kJ/mol
# Density = 1.873272 g / cm^3
# Si number density = 18.775453 Si / 1000 Ang^3
#
#
#
# Elastic Constant Matrix: (Units=GPa)
#
#
# Indices 1 2 3 4 5 6 
#
# 1 184.7856 31.9632 66.0817 0.0000 0.0000 0.0000
# 2 31.9632 23.4886 19.4287 0.0000 0.0000 0.0000
# 3 66.0817 19.4287 95.5455 0.0000 0.0000 0.0000
# 4 0.0000 0.0000 0.0000 26.1693 0.0000 0.0000
# 5 0.0000 0.0000 0.0000 0.0000 26.5792 0.0000
# 6 0.0000 0.0000 0.0000 0.0000 0.0000 15.6755
#
#
#
# Elastic Compliance Matrix: (Units=1/GPa)
#
#
# Indices 1 2 3 4 5 6 
#
# 1 0.008229 -0.007803 -0.004105 0.000000 0.000000 0.000000
# 2 -0.007803 0.058582 -0.006515 0.000000 0.000000 0.000000
# 3 -0.004105 -0.006515 0.014630 0.000000 0.000000 0.000000
# 4 0.000000 0.000000 0.000000 0.038213 0.000000 0.000000
# 5 0.000000 0.000000 0.000000 0.000000 0.037623 0.000000
# 6 0.000000 0.000000 0.000000 0.000000 0.000000 0.063794
#
#
# Mechanical properties :
#
#
# Convention : Reuss Voigt Hill
#
# Bulk Modulus (GPa) = 22.42446 59.86299 41.14372
# Shear Modulus (GPa) = 18.32960 26.10787 22.21874
#
# Velocity S-wave (km/s) = 3.12789 3.73303 3.44378
# Velocity P-wave (km/s) = 5.00144 7.10869 6.14605
#
# Compressibility (1/GPa) = 0.04459416
#
# Stress axis : x y z
#
# Youngs Moduli (GPa) = 121.51576 17.07021 68.35178
#
# Poissons Ratio (x) = 0.13320 0.28058
# Poissons Ratio (y) = 0.94820 0.44535
# Poissons Ratio (z) = 0.49881 0.11122
#
# Static dielectric constant tensor:
#      x y z
#    x 1.694300 0.000000 0.000000 
#    y 0.000000 1.632860 0.000000 
#    z 0.000000 0.000000 1.636240 
# 
# From -- ./inp_files/29128.got.cif
#   From: 2010.05.17/outbox.cif.g08.bks.cpg/sg59_15_cif.got.tgz:29128.got - 2010.06.03 14:40:33.
