data_PCOD9452802
_publ_section_title
;
Structure prediction by ZEFSAII (Michael W. Deem and Ramdas Pophale) SiO2 
 PCOD9452802
Probable space group: P M M N
;
_chemical_formula_sum "Si O2"
_cell_formula_units_Z 56
_cell_length_a 7.722712
_cell_length_b 13.745843
_cell_length_c 23.573685
_cell_angle_alpha 90.000000
_cell_angle_beta 90.000000
_cell_angle_gamma 90.000000
_cell_volume 2502.468932
_symmetry_space_group_name_H-M "P M M N"
_symmetry_group_IT_number 59
_space_group.IT_coordinate_system_code '2'
_symmetry_cell_setting 'orthorhombic'
loop_
_space_group_symop_operation_xyz
x,y,z
1/2-x,1/2-y,z
1/2+x,-y,-z
-x,1/2+y,-z
-x,-y,-z
1/2+x,1/2+y,-z
1/2-x,y,z
x,1/2-y,z
loop_
_atom_site_type_symbol
_atom_site_label
_atom_site_fract_x
_atom_site_fract_y
_atom_site_fract_z
Si Si1 0.536453 0.931652 0.706562
Si Si2 0.454958 0.110382 0.994090
Si Si3 0.049399 0.861411 0.254200
Si Si4 0.539709 0.858784 0.460747
Si Si5 0.945775 0.250000 0.093865
Si Si6 0.057406 0.136284 0.869122
Si Si7 0.950320 0.750000 0.779101
Si Si8 0.954113 0.932358 0.582116
O O1 0.750000 0.936995 0.708465
O O2 0.478623 0.850487 0.752129
O O3 0.481142 0.900339 0.643440
O O4 0.472990 0.042815 0.716060
O O5 0.250000 0.131878 0.991659
O O6 0.522235 0.162209 0.050243
O O7 0.525947 0.132542 0.931276
O O8 0.500000 0.000000 0.000000
O O9 0.250000 0.854267 0.270715
O O10 0.977510 0.750000 0.261920
O O11 0.041182 0.892543 0.187504
O O12 0.750000 0.860917 0.460245
O O13 0.485527 0.750000 0.443091
O O14 0.476944 0.881664 0.525124
O O15 0.478577 0.951218 0.424680
O O16 0.750000 0.250000 0.113022
O O17 0.046742 0.250000 0.152611
O O18 0.250000 0.089125 0.870666
O O19 0.080987 0.250000 0.860253
O O20 0.750000 0.750000 0.761291
O O21 0.750000 0.911639 0.581860
#
# Coordination Sequence:
#
# PCOD9452802 Si02
#       8
#     8   8   8   8   4   8   4   8
#     4   9  19  35  57  83 108 146 194 240 288 340
#     4  11  23  40  61  87 116 151 191 241 298 356
#     4   9  18  32  51  77 107 138 178 231 286 342
#     4   9  18  32  52  80 115 151 184 230 288 341
#     4  12  26  44  62  88 122 158 201 244 297 362
#     4   9  18  35  55  76 104 137 175 221 279 340
#     4  10  22  40  60  82 114 154 199 246 293 348
#     4   9  18  33  54  81 110 145 193 238 280 336
#
# _framework density 22.377898999999999
#
# number of rings (size 3 to 8) (size 9 to 14) (size 15 to 20)
#    0.000    2.429    0.714    1.071    3.000    2.000 
#    0.000    2.857    0.000    1.714    0.000    0.000 
#    0.000    0.000    0.000    0.000    0.000    0.000 
#
# Total GULP energy -311925.961383 kJ/mol
# GULP energy per Si atom -5570.106453 kJ/mol
# Density = 2.232697 g / cm^3
# Si number density = 22.377899 Si / 1000 Ang^3
#
#
#
# Elastic Constant Matrix: (Units=GPa)
#
#
# Indices 1 2 3 4 5 6 
#
# 1 33.4528 -6.7354 -10.7003 0.0000 0.0000 0.0000
# 2 -6.7354 88.3605 14.5112 0.0000 0.0000 0.0000
# 3 -10.7003 14.5112 84.6010 0.0000 0.0000 0.0000
# 4 0.0000 0.0000 0.0000 14.9903 0.0000 0.0000
# 5 0.0000 0.0000 0.0000 0.0000 11.0801 0.0000
# 6 0.0000 0.0000 0.0000 0.0000 0.0000 9.5733
#
#
#
# Elastic Compliance Matrix: (Units=1/GPa)
#
#
# Indices 1 2 3 4 5 6 
#
# 1 0.031427 0.001793 0.003667 0.000000 0.000000 0.000000
# 2 0.001793 0.011748 -0.001788 0.000000 0.000000 0.000000
# 3 0.003667 -0.001788 0.012591 0.000000 0.000000 0.000000
# 4 0.000000 0.000000 0.000000 0.066710 0.000000 0.000000
# 5 0.000000 0.000000 0.000000 0.000000 0.090252 0.000000
# 6 0.000000 0.000000 0.000000 0.000000 0.000000 0.104457
#
#
# Mechanical properties :
#
#
# Convention : Reuss Voigt Hill
#
# Bulk Modulus (GPa) = 15.84534 22.28504 19.06519
# Shear Modulus (GPa) = 15.11140 21.08466 18.09803
#
# Velocity S-wave (km/s) = 2.60144 3.07287 2.84693
# Velocity P-wave (km/s) = 4.01491 4.75081 4.39828
#
# Compressibility (1/GPa) = 0.06311003
#
# Stress axis : x y z
#
# Youngs Moduli (GPa) = 31.81986 85.12347 79.42343
#
# Poissons Ratio (x) = -0.15265 -0.29127
# Poissons Ratio (y) = -0.05706 0.14202
# Poissons Ratio (z) = -0.11669 0.15222
#
# Static dielectric constant tensor:
#      x y z
#    x 1.919710 0.000000 0.000000 
#    y 0.000000 1.825500 0.000000 
#    z 0.000000 0.000000 1.837360 
# 
# From -- ./inp_files/29197.got.cif
#   From: 2010.05.17/outbox.cif.g08.bks.cpg/sg59_15_cif.got.tgz:29197.got - 2010.06.03 14:40:33.
