data_PCOD9452256
_publ_section_title
;
Structure prediction by ZEFSAII (Michael W. Deem and Ramdas Pophale) SiO2 
 PCOD9452256
Probable space group: P M M N
;
_chemical_formula_sum "Si O2"
_cell_formula_units_Z 64
_cell_length_a 8.929148
_cell_length_b 15.449943
_cell_length_c 24.685724
_cell_angle_alpha 90.000000
_cell_angle_beta 90.000000
_cell_angle_gamma 90.000000
_cell_volume 3405.514800
_symmetry_space_group_name_H-M "P M M N"
_symmetry_group_IT_number 59
_space_group.IT_coordinate_system_code '2'
_symmetry_cell_setting 'orthorhombic'
loop_
_space_group_symop_operation_xyz
x,y,z
1/2-x,1/2-y,z
1/2+x,-y,-z
-x,1/2+y,-z
-x,-y,-z
1/2+x,1/2+y,-z
1/2-x,y,z
x,1/2-y,z
loop_
_atom_site_type_symbol
_atom_site_label
_atom_site_fract_x
_atom_site_fract_y
_atom_site_fract_z
Si Si1 0.428181 0.648055 0.119693
Si Si2 0.927391 0.346620 0.392941
Si Si3 0.931281 0.851340 0.886840
Si Si4 0.429536 0.996826 0.811554
Si Si5 0.071559 0.404788 0.502682
Si Si6 0.925961 0.151239 0.614038
Si Si7 0.430124 0.003864 0.685569
Si Si8 0.078550 0.144896 0.992181
O O1 0.250000 0.639731 0.125022
O O2 0.467642 0.750000 0.127129
O O3 0.509182 0.584533 0.161270
O O4 0.478122 0.621525 0.058972
O O5 0.750000 0.357597 0.405331
O O6 0.948595 0.250000 0.371040
O O7 0.970110 0.419570 0.349855
O O8 0.017553 0.357582 0.448397
O O9 0.750000 0.855593 0.884730
O O10 0.973125 0.750000 0.879276
O O11 0.974808 0.880647 0.947921
O O12 0.002081 0.915414 0.843536
O O13 0.250000 0.994640 0.815720
O O14 0.471424 0.994173 0.748244
O O15 0.250000 0.410141 0.504877
O O16 0.000000 0.500000 0.500000
O O17 0.009479 0.361097 0.556957
O O18 0.750000 0.133624 0.605570
O O19 0.943289 0.250000 0.632374
O O20 0.992751 0.085094 0.657178
O O21 0.250000 0.014143 0.682514
O O22 0.250000 0.115095 0.983885
O O23 0.082836 0.250000 0.994015
#
# Coordination Sequence:
#
# PCOD9452256 Si02
#       8
#     8   8   8   8   8   8   8   8
#     4  10  21  37  58  84 114 150 192 239 295 354
#     4  10  21  39  63  89 118 153 192 237 291 346
#     4   9  19  37  60  86 117 153 191 236 292 349
#     4  11  24  39  58  85 115 153 201 245 289 345
#     4  12  23  37  61  92 125 158 193 235 286 343
#     4  11  24  41  63  91 121 155 193 237 293 350
#     4  10  23  42  61  83 114 155 200 245 289 336
#     4   8  15  31  56  84 114 147 185 233 290 349
#
# _framework density 18.793047999999999
#
# number of rings (size 3 to 8) (size 9 to 14) (size 15 to 20)
#    0.000    1.875    1.250    3.375    0.000    6.750 
#    0.000    5.000    0.000    0.000    0.000    0.000 
#    0.000    0.000    0.000    0.000    0.000    0.000 
#
# Total GULP energy -357533.618455 kJ/mol
# GULP energy per Si atom -5586.462788 kJ/mol
# Density = 1.875027 g / cm^3
# Si number density = 18.793048 Si / 1000 Ang^3
#
#
#
# Elastic Constant Matrix: (Units=GPa)
#
#
# Indices 1 2 3 4 5 6 
#
# 1 45.6851 37.6337 39.8089 0.0000 0.0000 0.0000
# 2 37.6337 92.3777 48.7160 0.0000 0.0000 0.0000
# 3 39.8089 48.7160 120.5035 0.0000 0.0000 0.0000
# 4 0.0000 0.0000 0.0000 -5.8340 0.0000 0.0000
# 5 0.0000 0.0000 0.0000 0.0000 17.4948 0.0000
# 6 0.0000 0.0000 0.0000 0.0000 0.0000 27.1660
#
#
#
# Elastic Compliance Matrix: (Units=1/GPa)
#
#
# Indices 1 2 3 4 5 6 
#
# 1 0.038240 -0.011333 -0.008051 0.000000 0.000000 0.000000
# 2 -0.011333 0.017117 -0.003176 0.000000 0.000000 0.000000
# 3 -0.008051 -0.003176 0.012242 0.000000 0.000000 0.000000
# 4 0.000000 0.000000 0.000000 -0.171409 0.000000 0.000000
# 5 0.000000 0.000000 0.000000 0.000000 0.057160 0.000000
# 6 0.000000 0.000000 0.000000 0.000000 0.000000 0.036811
#
#
# Mechanical properties :
#
#
# Convention : Reuss Voigt Hill
#
# Bulk Modulus (GPa) = 44.48566 56.76481 50.62523
# Shear Modulus (GPa) = 116.89272 16.59255 66.74263
#
# Velocity S-wave (km/s) = 7.89525 2.97460 5.96587
# Velocity P-wave (km/s) = 10.33615 6.48602 8.62857
#
# Compressibility (1/GPa) = 0.02247916
#
# Stress axis : x y z
#
# Youngs Moduli (GPa) = 26.15055 58.42203 81.68412
#
# Poissons Ratio (x) = 0.66208 0.65767
# Poissons Ratio (y) = 0.29636 0.25943
# Poissons Ratio (z) = 0.21055 0.18555
#
# Static dielectric constant tensor:
#      x y z
#    x 1.629420 0.000000 0.000000 
#    y 0.000000 1.656990 0.000000 
#    z 0.000000 0.000000 1.630350 
# 
# From -- ./inp_files/31463.got.cif
#   From: 2010.05.17/outbox.cif.g08.bks.cpg/sg59_16_cif.got.tgz:31463.got - 2010.06.03 14:40:33.
