data_PCOD9452481
_publ_section_title
;
Structure prediction by ZEFSAII (Michael W. Deem and Ramdas Pophale) SiO2 
 PCOD9452481
Probable space group: P M M N
;
_chemical_formula_sum "Si O2"
_cell_formula_units_Z 40
_cell_length_a 14.338064
_cell_length_b 22.876660
_cell_length_c 6.540445
_cell_angle_alpha 90.000000
_cell_angle_beta 90.000000
_cell_angle_gamma 90.000000
_cell_volume 2145.311842
_symmetry_space_group_name_H-M "P M M N"
_symmetry_group_IT_number 59
_space_group.IT_coordinate_system_code '2'
_symmetry_cell_setting 'orthorhombic'
loop_
_space_group_symop_operation_xyz
x,y,z
1/2-x,1/2-y,z
1/2+x,-y,-z
-x,1/2+y,-z
-x,-y,-z
1/2+x,1/2+y,-z
1/2-x,y,z
x,1/2-y,z
loop_
_atom_site_type_symbol
_atom_site_label
_atom_site_fract_x
_atom_site_fract_y
_atom_site_fract_z
Si Si1 0.145570 0.902501 0.270850
Si Si2 0.030230 0.683690 0.562038
Si Si3 0.591342 0.973746 0.605024
Si Si4 0.518837 0.888498 0.949664
Si Si5 0.357059 0.363539 0.667539
O O1 0.250000 0.882674 0.216749
O O2 0.099226 0.860628 0.442875
O O3 0.150361 0.969014 0.348817
O O4 0.071679 0.903324 0.085244
O O5 0.063786 0.750000 0.553435
O O6 0.012142 0.661540 0.791275
O O7 0.930072 0.677739 0.449893
O O8 0.557883 0.940773 0.809659
O O9 0.634891 0.925388 0.454445
O O10 0.500000 0.000000 0.500000
O O11 0.600269 0.870962 0.106711
O O12 0.250000 0.344549 0.668436
#
# Coordination Sequence:
#
# PCOD9452481 Si02
#       5
#     8   8   8   8   8
#     4  11  23  38  61  89 118 154 198 239 287 345
#     4  10  23  43  61  79 116 158 197 246 294 339
#     4  11  19  39  60  87 124 156 184 229 291 354
#     4  10  21  38  60  88 121 152 193 238 292 344
#     4  10  22  38  62  91 118 149 191 240 293 351
#
# _framework density 18.645308
#
# number of rings (size 3 to 8) (size 9 to 14) (size 15 to 20)
#    0.000    1.600    6.000    1.200    0.000    8.800 
#    0.000    0.000    0.000    0.000    0.000    0.000 
#    0.000    0.000    0.000    0.000    0.000    0.000 
#
# Total GULP energy -223151.866526 kJ/mol
# GULP energy per Si atom -5578.796663 kJ/mol
# Density = 1.860287 g / cm^3
# Si number density = 18.645308 Si / 1000 Ang^3
#
#
#
# Elastic Constant Matrix: (Units=GPa)
#
#
# Indices 1 2 3 4 5 6 
#
# 1 105.4030 -0.7518 15.4043 0.0000 0.0000 0.0000
# 2 -0.7518 107.1767 30.8711 0.0000 0.0000 0.0000
# 3 15.4043 30.8711 103.2341 0.0000 0.0000 0.0000
# 4 0.0000 0.0000 0.0000 2.1098 0.0000 0.0000
# 5 0.0000 0.0000 0.0000 0.0000 -2.1383 0.0000
# 6 0.0000 0.0000 0.0000 0.0000 0.0000 10.4120
#
#
#
# Elastic Compliance Matrix: (Units=1/GPa)
#
#
# Indices 1 2 3 4 5 6 
#
# 1 0.009727 0.000532 -0.001611 0.000000 0.000000 0.000000
# 2 0.000532 0.010239 -0.003141 0.000000 0.000000 0.000000
# 3 -0.001611 -0.003141 0.010866 0.000000 0.000000 0.000000
# 4 0.000000 0.000000 0.000000 0.473971 0.000000 0.000000
# 5 0.000000 0.000000 0.000000 0.000000 -0.467652 0.000000
# 6 0.000000 0.000000 0.000000 0.000000 0.000000 0.096043
#
#
# Mechanical properties :
#
#
# Convention : Reuss Voigt Hill
#
# Bulk Modulus (GPa) = 44.65757 45.20679 44.93218
# Shear Modulus (GPa) = 33.53521 20.09605 26.81563
#
# Velocity S-wave (km/s) = 4.24558 3.28656 3.79647
# Velocity P-wave (km/s) = 6.93082 6.22095 6.58546
#
# Compressibility (1/GPa) = 0.02239262
#
# Stress axis : x y z
#
# Youngs Moduli (GPa) = 102.81122 97.66653 92.02682
#
# Poissons Ratio (x) = -0.05197 0.14821
# Poissons Ratio (y) = -0.05471 0.28908
# Poissons Ratio (z) = 0.16558 0.30680
#
# Static dielectric constant tensor:
#      x y z
#    x 1.650040 0.000000 0.000000 
#    y 0.000000 1.654540 0.000000 
#    z 0.000000 0.000000 1.649920 
# 
# From -- ./inp_files/2006.got.cif
#   From: 2010.05.17/outbox.cif.g08.bks.cpg/sg59_2_cif.got.tgz:2006.got - 2010.06.03 14:40:33.
