data_PCOD9452767
_publ_section_title
;
Structure prediction by ZEFSAII (Michael W. Deem and Ramdas Pophale) SiO2 
 PCOD9452767
Probable space group: P M M N
;
_chemical_formula_sum "Si O2"
_cell_formula_units_Z 48
_cell_length_a 8.730780
_cell_length_b 20.834041
_cell_length_c 14.760081
_cell_angle_alpha 90.000000
_cell_angle_beta 90.000000
_cell_angle_gamma 90.000000
_cell_volume 2684.820778
_symmetry_space_group_name_H-M "P M M N"
_symmetry_group_IT_number 59
_space_group.IT_coordinate_system_code '2'
_symmetry_cell_setting 'orthorhombic'
loop_
_space_group_symop_operation_xyz
x,y,z
1/2-x,1/2-y,z
1/2+x,-y,-z
-x,1/2+y,-z
-x,-y,-z
1/2+x,1/2+y,-z
1/2-x,y,z
x,1/2-y,z
loop_
_atom_site_type_symbol
_atom_site_label
_atom_site_fract_x
_atom_site_fract_y
_atom_site_fract_z
Si Si1 0.066196 0.822905 0.932401
Si Si2 0.932515 0.440580 0.557652
Si Si3 0.566049 0.058596 0.940690
Si Si4 0.067427 0.476839 0.748972
Si Si5 0.933940 0.676287 0.553952
Si Si6 0.067694 0.119608 0.249163
O O1 0.250000 0.826966 0.918580
O O2 0.028270 0.750000 0.958318
O O3 0.985319 0.841699 0.838794
O O4 0.025991 0.875448 0.008027
O O5 0.750000 0.446255 0.559083
O O6 0.000000 0.500000 0.500000
O O7 0.997725 0.445702 0.658853
O O8 0.983820 0.374991 0.509702
O O9 0.750000 0.052849 0.936712
O O10 0.497759 0.054121 0.840530
O O11 0.500000 0.000000 0.000000
O O12 0.250000 0.472661 0.747397
O O13 0.016861 0.551371 0.749565
O O14 0.750000 0.670496 0.541559
O O15 0.977777 0.750000 0.536925
O O16 0.966323 0.657437 0.658247
O O17 0.250000 0.108138 0.245380
#
# Coordination Sequence:
#
# PCOD9452767 Si02
#       6
#     8   8   8   8   8   8
#     4  10  22  39  59  86 122 161 200 244 298 359
#     4  12  24  40  63  90 121 160 204 250 302 361
#     4  11  22  38  61  88 121 159 200 248 298 356
#     4  12  24  39  61  90 121 157 203 255 302 355
#     4  10  22  40  61  89 126 164 201 246 301 360
#     4  11  21  35  60  91 124 159 197 245 302 362
#
# _framework density 17.878288000000001
#
# number of rings (size 3 to 8) (size 9 to 14) (size 15 to 20)
#    0.000    1.000    3.333    4.500    0.000    2.667 
#    0.000    0.833    0.000    3.000    0.000    0.000 
#    0.000    0.000    0.000    0.000    0.000    0.000 
#
# Total GULP energy -268435.887785 kJ/mol
# GULP energy per Si atom -5592.414329 kJ/mol
# Density = 1.783760 g / cm^3
# Si number density = 17.878288 Si / 1000 Ang^3
#
#
#
# Elastic Constant Matrix: (Units=GPa)
#
#
# Indices 1 2 3 4 5 6 
#
# 1 100.3401 79.7525 78.8359 0.0000 0.0000 0.0000
# 2 79.7525 159.4619 94.9785 0.0000 0.0000 0.0000
# 3 78.8359 94.9785 175.2429 0.0000 0.0000 0.0000
# 4 0.0000 0.0000 0.0000 7.0184 0.0000 0.0000
# 5 0.0000 0.0000 0.0000 0.0000 34.3341 0.0000
# 6 0.0000 0.0000 0.0000 0.0000 0.0000 22.1965
#
#
#
# Elastic Compliance Matrix: (Units=1/GPa)
#
#
# Indices 1 2 3 4 5 6 
#
# 1 0.019165 -0.006571 -0.005060 0.000000 0.000000 0.000000
# 2 -0.006571 0.011513 -0.003284 0.000000 0.000000 0.000000
# 3 -0.005060 -0.003284 0.009763 0.000000 0.000000 0.000000
# 4 0.000000 0.000000 0.000000 0.142482 0.000000 0.000000
# 5 0.000000 0.000000 0.000000 0.000000 0.029126 0.000000
# 6 0.000000 0.000000 0.000000 0.000000 0.000000 0.045052
#
#
# Mechanical properties :
#
#
# Convention : Reuss Voigt Hill
#
# Bulk Modulus (GPa) = 94.24727 104.68651 99.46689
# Shear Modulus (GPa) = 17.21365 24.80835 21.01100
#
# Velocity S-wave (km/s) = 3.10631 3.72912 3.43187
# Velocity P-wave (km/s) = 8.10531 8.78772 8.45340
#
# Compressibility (1/GPa) = 0.01061039
#
# Stress axis : x y z
#
# Youngs Moduli (GPa) = 52.17978 86.85464 102.43105
#
# Poissons Ratio (x) = 0.57072 0.51832
# Poissons Ratio (y) = 0.34287 0.33639
# Poissons Ratio (z) = 0.26404 0.28524
#
# Static dielectric constant tensor:
#      x y z
#    x 1.601200 0.000000 0.000000 
#    y 0.000000 1.589030 0.000000 
#    z 0.000000 0.000000 1.584640 
# 
# From -- ./inp_files/20368.got.cif
#   From: 2010.05.17/outbox.cif.g08.bks.cpg/sg59_11_cif.got.tgz:20368.got - 2010.06.03 14:40:33.
