data_PCOD9452242
_publ_section_title
;
Structure prediction by ZEFSAII (Michael W. Deem and Ramdas Pophale) SiO2 
 PCOD9452242
Probable space group: P M M N
;
_chemical_formula_sum "Si O2"
_cell_formula_units_Z 56
_cell_length_a 9.089677
_cell_length_b 14.138792
_cell_length_c 21.729545
_cell_angle_alpha 90.000000
_cell_angle_beta 90.000000
_cell_angle_gamma 90.000000
_cell_volume 2792.617074
_symmetry_space_group_name_H-M "P M M N"
_symmetry_group_IT_number 59
_space_group.IT_coordinate_system_code '2'
_symmetry_cell_setting 'orthorhombic'
loop_
_space_group_symop_operation_xyz
x,y,z
1/2-x,1/2-y,z
1/2+x,-y,-z
-x,1/2+y,-z
-x,-y,-z
1/2+x,1/2+y,-z
1/2-x,y,z
x,1/2-y,z
loop_
_atom_site_type_symbol
_atom_site_label
_atom_site_fract_x
_atom_site_fract_y
_atom_site_fract_z
Si Si1 0.574432 0.534059 0.352106
Si Si2 0.581551 0.634613 0.980210
Si Si3 0.074986 0.465227 0.785728
Si Si4 0.427349 0.140456 0.159048
Si Si5 0.575349 0.861686 0.594158
Si Si6 0.419967 0.636422 0.465308
Si Si7 0.417725 0.864217 0.102757
O O1 0.750000 0.536474 0.361437
O O2 0.541100 0.569449 0.283254
O O3 0.513477 0.427701 0.359473
O O4 0.492716 0.592445 0.405007
O O5 0.750000 0.603313 0.989133
O O6 0.583605 0.750000 0.980994
O O7 0.482682 0.603493 0.037157
O O8 0.532193 0.611040 0.911089
O O9 0.250000 0.471141 0.791702
O O10 0.004004 0.568134 0.795636
O O11 0.010073 0.400810 0.839693
O O12 0.250000 0.134830 0.163357
O O13 0.468447 0.250000 0.168542
O O14 0.750000 0.879187 0.597688
O O15 0.550272 0.750000 0.604233
O O16 0.513799 0.886421 0.526218
O O17 0.250000 0.605412 0.472576
O O18 0.420585 0.750000 0.459752
O O19 0.250000 0.896939 0.109215
O O20 0.419631 0.750000 0.102524
#
# Coordination Sequence:
#
# PCOD9452242 Si02
#       7
#     8   8   8   8   8   8   8
#     4  11  24  40  57  80 114 153 191 231 274 325
#     4   8  15  31  56  83 109 139 177 224 281 338
#     4  11  25  40  55  79 111 152 194 228 273 332
#     4   9  19  37  60  84 111 144 183 231 283 332
#     4  10  21  38  62  90 117 147 184 226 274 327
#     4  10  21  38  62  90 117 146 182 227 278 328
#     4  10  21  37  58  83 110 142 183 233 284 333
#
# _framework density 20.052873999999999
#
# number of rings (size 3 to 8) (size 9 to 14) (size 15 to 20)
#    0.000    2.143    0.000    3.429    0.000    7.429 
#    0.000    7.143    0.000    0.000    0.000    0.000 
#    0.000    0.000    0.000    0.000    0.000    0.000 
#
# Total GULP energy -312982.389373 kJ/mol
# GULP energy per Si atom -5588.971239 kJ/mol
# Density = 2.000723 g / cm^3
# Si number density = 20.052874 Si / 1000 Ang^3
#
#
#
# Elastic Constant Matrix: (Units=GPa)
#
#
# Indices 1 2 3 4 5 6 
#
# 1 54.4667 2.2652 26.6646 0.0000 0.0000 0.0000
# 2 2.2652 32.2145 -0.9041 0.0000 0.0000 0.0000
# 3 26.6646 -0.9041 76.7430 0.0000 0.0000 0.0000
# 4 0.0000 0.0000 0.0000 19.7492 0.0000 0.0000
# 5 0.0000 0.0000 0.0000 0.0000 31.2625 0.0000
# 6 0.0000 0.0000 0.0000 0.0000 0.0000 29.6052
#
#
#
# Elastic Compliance Matrix: (Units=1/GPa)
#
#
# Indices 1 2 3 4 5 6 
#
# 1 0.022224 -0.001780 -0.007743 0.000000 0.000000 0.000000
# 2 -0.001780 0.031195 0.000986 0.000000 0.000000 0.000000
# 3 -0.007743 0.000986 0.015732 0.000000 0.000000 0.000000
# 4 0.000000 0.000000 0.000000 0.050635 0.000000 0.000000
# 5 0.000000 0.000000 0.000000 0.000000 0.031987 0.000000
# 6 0.000000 0.000000 0.000000 0.000000 0.000000 0.033778
#
#
# Mechanical properties :
#
#
# Convention : Reuss Voigt Hill
#
# Bulk Modulus (GPa) = 19.20209 24.38618 21.79414
# Shear Modulus (GPa) = 22.72882 25.14994 23.93938
#
# Velocity S-wave (km/s) = 3.37032 3.54528 3.45891
# Velocity P-wave (km/s) = 4.97412 5.38015 5.18112
#
# Compressibility (1/GPa) = 0.05207767
#
# Stress axis : x y z
#
# Youngs Moduli (GPa) = 44.99543 32.05664 63.56296
#
# Poissons Ratio (x) = 0.05706 0.49216
# Poissons Ratio (y) = 0.08009 -0.06267
# Poissons Ratio (z) = 0.34840 -0.03161
#
# Static dielectric constant tensor:
#      x y z
#    x 1.653470 0.000000 0.000000 
#    y 0.000000 1.743880 0.000000 
#    z 0.000000 0.000000 1.685670 
# 
# From -- ./inp_files/29004.got.cif
#   From: 2010.05.17/outbox.cif.g08.bks.cpg/sg59_15_cif.got.tgz:29004.got - 2010.06.03 14:40:33.
