data_PCOD9452205
_publ_section_title
;
Structure prediction by ZEFSAII (Michael W. Deem and Ramdas Pophale) SiO2 
 PCOD9452205
Probable space group: P M M N
;
_chemical_formula_sum "Si O2"
_cell_formula_units_Z 64
_cell_length_a 19.864710
_cell_length_b 9.062004
_cell_length_c 20.323510
_cell_angle_alpha 90.000000
_cell_angle_beta 90.000000
_cell_angle_gamma 90.000000
_cell_volume 3658.517985
_symmetry_space_group_name_H-M "P M M N"
_symmetry_group_IT_number 59
_space_group.IT_coordinate_system_code '2'
_symmetry_cell_setting 'orthorhombic'
loop_
_space_group_symop_operation_xyz
x,y,z
1/2-x,1/2-y,z
1/2+x,-y,-z
-x,1/2+y,-z
-x,-y,-z
1/2+x,1/2+y,-z
1/2-x,y,z
x,1/2-y,z
loop_
_atom_site_type_symbol
_atom_site_label
_atom_site_fract_x
_atom_site_fract_y
_atom_site_fract_z
Si Si1 0.062828 0.572503 0.803426
Si Si2 0.671397 0.073565 0.963346
Si Si3 0.540403 0.425296 0.348167
Si Si4 0.827749 0.077961 0.736419
Si Si5 0.430190 0.426179 0.523146
Si Si6 0.883002 0.924280 0.615108
Si Si7 0.671308 0.574755 0.104522
Si Si8 0.586845 0.926096 0.848189
O O1 0.071655 0.750000 0.806595
O O2 0.057155 0.531624 0.726401
O O3 0.122817 0.491985 0.840617
O O4 0.991699 0.537496 0.838397
O O5 0.750000 0.041108 0.946607
O O6 0.663899 0.250000 0.965551
O O7 0.622068 0.004931 0.909518
O O8 0.657893 0.004149 0.034762
O O9 0.551426 0.250000 0.355477
O O10 0.581830 0.509907 0.404482
O O11 0.460681 0.449538 0.361902
O O12 0.750000 0.062001 0.756220
O O13 0.846216 0.250000 0.742375
O O14 0.837715 0.022300 0.662164
O O15 0.874273 0.980537 0.783293
O O16 0.500000 0.500000 0.500000
O O17 0.438454 0.250000 0.525774
O O18 0.379787 0.458066 0.462714
O O19 0.868879 0.750000 0.624531
O O20 0.750000 0.549006 0.120457
O O21 0.661052 0.750000 0.097734
O O22 0.593060 0.750000 0.854444
#
# Coordination Sequence:
#
# PCOD9452205 Si02
#       8
#     8   8   8   8   8   8   8   8
#     4  10  21  37  57  82 113 145 178 222 273 325
#     4  10  21  38  59  82 110 145 185 226 267 317
#     4   9  17  32  51  76 108 137 172 218 266 318
#     4  11  23  35  49  74 108 146 188 230 272 323
#     4   9  17  28  46  73 102 133 172 216 264 316
#     4   9  17  32  50  71 102 138 178 223 265 315
#     4  10  22  40  61  85 109 137 178 222 269 329
#     4  11  22  37  56  80 111 145 182 225 270 321
#
# _framework density 17.493423
#
# number of rings (size 3 to 8) (size 9 to 14) (size 15 to 20)
#    0.000    2.125    1.250    3.000    0.000    8.500 
#    0.000    0.000    0.000    0.750    0.000    0.000 
#    0.000    0.000    0.000    0.000    0.000    0.000 
#
# Total GULP energy -357109.169009 kJ/mol
# GULP energy per Si atom -5579.830766 kJ/mol
# Density = 1.745361 g / cm^3
# Si number density = 17.493423 Si / 1000 Ang^3
#
#
#
# Elastic Constant Matrix: (Units=GPa)
#
#
# Indices 1 2 3 4 5 6 
#
# 1 55.2842 42.8515 59.7828 0.0000 0.0000 0.0000
# 2 42.8515 53.8859 56.1864 0.0000 0.0000 0.0000
# 3 59.7828 56.1864 136.2738 0.0000 0.0000 0.0000
# 4 0.0000 0.0000 0.0000 38.0750 0.0000 0.0000
# 5 0.0000 0.0000 0.0000 0.0000 16.9307 0.0000
# 6 0.0000 0.0000 0.0000 0.0000 0.0000 25.5537
#
#
#
# Elastic Compliance Matrix: (Units=1/GPa)
#
#
# Indices 1 2 3 4 5 6 
#
# 1 0.054729 -0.032429 -0.010639 0.000000 0.000000 0.000000
# 2 -0.032429 0.051768 -0.007118 0.000000 0.000000 0.000000
# 3 -0.010639 -0.007118 0.014940 0.000000 0.000000 0.000000
# 4 0.000000 0.000000 0.000000 0.026264 0.000000 0.000000
# 5 0.000000 0.000000 0.000000 0.000000 0.059064 0.000000
# 6 0.000000 0.000000 0.000000 0.000000 0.000000 0.039133
#
#
# Mechanical properties :
#
#
# Convention : Reuss Voigt Hill
#
# Bulk Modulus (GPa) = 47.47019 62.56504 55.01762
# Shear Modulus (GPa) = 14.15268 21.88676 18.01972
#
# Velocity S-wave (km/s) = 2.84743 3.54099 3.21298
# Velocity P-wave (km/s) = 6.16485 7.24987 6.72927
#
# Compressibility (1/GPa) = 0.02106585
#
# Stress axis : x y z
#
# Youngs Moduli (GPa) = 18.27194 19.31714 66.93468
#
# Poissons Ratio (x) = 0.62643 0.71210
# Poissons Ratio (y) = 0.59254 0.47642
# Poissons Ratio (z) = 0.19439 0.13749
#
# Static dielectric constant tensor:
#      x y z
#    x 1.577350 0.000000 0.000000 
#    y 0.000000 1.578860 0.000000 
#    z 0.000000 0.000000 1.609940 
# 
# From -- ./inp_files/28246.got.cif
#   From: 2010.05.17/outbox.cif.g08.bks.cpg/sg59_15_cif.got.tgz:28246.got - 2010.06.03 14:40:33.
