data_PCOD9452694
_publ_section_title
;
Structure prediction by ZEFSAII (Michael W. Deem and Ramdas Pophale) SiO2 
 PCOD9452694
Probable space group: P M M N
;
_chemical_formula_sum "Si O2"
_cell_formula_units_Z 40
_cell_length_a 18.746606
_cell_length_b 10.004134
_cell_length_c 11.472765
_cell_angle_alpha 90.000000
_cell_angle_beta 90.000000
_cell_angle_gamma 90.000000
_cell_volume 2151.643174
_symmetry_space_group_name_H-M "P M M N"
_symmetry_group_IT_number 59
_space_group.IT_coordinate_system_code '2'
_symmetry_cell_setting 'orthorhombic'
loop_
_space_group_symop_operation_xyz
x,y,z
1/2-x,1/2-y,z
1/2+x,-y,-z
-x,1/2+y,-z
-x,-y,-z
1/2+x,1/2+y,-z
1/2-x,y,z
x,1/2-y,z
loop_
_atom_site_type_symbol
_atom_site_label
_atom_site_fract_x
_atom_site_fract_y
_atom_site_fract_z
Si Si1 0.570206 0.910401 0.974895
Si Si2 0.046748 0.250000 0.432353
Si Si3 0.899507 0.250000 0.572634
Si Si4 0.334829 0.750000 0.680044
Si Si5 0.107651 0.027353 0.777153
Si Si6 0.329690 0.250000 0.617375
Si Si7 0.557841 0.009782 0.726221
O O1 0.556240 0.750000 0.970959
O O2 0.592895 0.962248 0.847618
O O3 0.619239 0.942812 0.086197
O O4 0.500000 0.000000 0.000000
O O5 0.115255 0.250000 0.513057
O O6 0.047445 0.119130 0.353765
O O7 0.977368 0.250000 0.512821
O O8 0.848087 0.250000 0.460196
O O9 0.898298 0.379434 0.655635
O O10 0.250000 0.750000 0.702499
O O11 0.372875 0.621758 0.737966
O O12 0.154613 0.123098 0.697916
O O13 0.023650 0.058397 0.752099
O O14 0.250000 0.250000 0.573157
#
# Coordination Sequence:
#
# PCOD9452694 Si02
#       7
#     8   4   4   4   8   4   8
#     4  10  22  36  59  93 124 153 195 250 308 366
#     4  12  20  37  59  84 125 159 201 255 300 362
#     4  12  22  37  61  90 127 163 201 253 302 368
#     4  12  26  41  61  91 125 165 208 255 311 372
#     4  11  21  39  61  87 126 155 200 258 311 366
#     4  12  24  37  59  87 119 163 206 249 305 368
#     4  11  21  36  62  91 122 158 197 256 311 355
#
# _framework density 18.590443
#
# number of rings (size 3 to 8) (size 9 to 14) (size 15 to 20)
#    0.000    0.800    6.000    2.400    8.400    0.000 
#    0.000    0.000    0.000    7.200    0.000    0.000 
#    0.000    0.000    0.000    0.000    0.000    0.000 
#
# Total GULP energy -223316.066500 kJ/mol
# GULP energy per Si atom -5582.901662 kJ/mol
# Density = 1.854813 g / cm^3
# Si number density = 18.590443 Si / 1000 Ang^3
#
#
#
# Elastic Constant Matrix: (Units=GPa)
#
#
# Indices 1 2 3 4 5 6 
#
# 1 41.6768 -21.3386 4.3919 0.0000 0.0000 0.0000
# 2 -21.3386 125.8846 37.3841 0.0000 0.0000 0.0000
# 3 4.3919 37.3841 135.6910 0.0000 0.0000 0.0000
# 4 0.0000 0.0000 0.0000 39.6374 0.0000 0.0000
# 5 0.0000 0.0000 0.0000 0.0000 9.1552 0.0000
# 6 0.0000 0.0000 0.0000 0.0000 0.0000 -0.2985
#
#
#
# Elastic Compliance Matrix: (Units=1/GPa)
#
#
# Indices 1 2 3 4 5 6 
#
# 1 0.026928 0.005253 -0.002319 0.000000 0.000000 0.000000
# 2 0.005253 0.009676 -0.002836 0.000000 0.000000 0.000000
# 3 -0.002319 -0.002836 0.008226 0.000000 0.000000 0.000000
# 4 0.000000 0.000000 0.000000 0.025229 0.000000 0.000000
# 5 0.000000 0.000000 0.000000 0.000000 0.109228 0.000000
# 6 0.000000 0.000000 0.000000 0.000000 0.000000 -3.349536
#
#
# Mechanical properties :
#
#
# Convention : Reuss Voigt Hill
#
# Bulk Modulus (GPa) = 22.20866 38.23633 30.22249
# Shear Modulus (GPa) = -1.58457 28.55314 13.48429
#
# Velocity S-wave (km/s) = -0.92423 3.92331 2.69612
# Velocity P-wave (km/s) = 3.29139 6.41370 5.09749
#
# Compressibility (1/GPa) = 0.04502749
#
# Stress axis : x y z
#
# Youngs Moduli (GPa) = 37.13577 103.34351 121.56454
#
# Poissons Ratio (x) = -0.54289 0.28190
# Poissons Ratio (y) = -0.19508 0.34476
# Poissons Ratio (z) = 0.08611 0.29308
#
# Static dielectric constant tensor:
#      x y z
#    x 1.645060 0.000000 0.000000 
#    y 0.000000 1.618740 0.000000 
#    z 0.000000 0.000000 1.674800 
# 
# From -- ./inp_files/18191.got.cif
#   From: 2010.05.17/outbox.cif.g08.bks.cpg/sg59_10_cif.got.tgz:18191.got - 2010.06.03 14:40:33.
