data_PCOD9452106
_publ_section_title
;
Structure prediction by ZEFSAII (Michael W. Deem and Ramdas Pophale) SiO2 
 PCOD9452106
Probable space group: P M M N
;
_chemical_formula_sum "Si O2"
_cell_formula_units_Z 64
_cell_length_a 14.649538
_cell_length_b 8.017994
_cell_length_c 26.896756
_cell_angle_alpha 90.000000
_cell_angle_beta 90.000000
_cell_angle_gamma 90.000000
_cell_volume 3159.290480
_symmetry_space_group_name_H-M "P M M N"
_symmetry_group_IT_number 59
_space_group.IT_coordinate_system_code '2'
_symmetry_cell_setting 'orthorhombic'
loop_
_space_group_symop_operation_xyz
x,y,z
1/2-x,1/2-y,z
1/2+x,-y,-z
-x,1/2+y,-z
-x,-y,-z
1/2+x,1/2+y,-z
1/2-x,y,z
x,1/2-y,z
loop_
_atom_site_type_symbol
_atom_site_label
_atom_site_fract_x
_atom_site_fract_y
_atom_site_fract_z
Si Si1 0.146435 0.051746 0.140712
Si Si2 0.025806 0.048307 0.424370
Si Si3 0.450115 0.551864 0.240604
Si Si4 0.849267 0.952992 0.235618
Si Si5 0.853987 0.950154 0.481028
Si Si6 0.350920 0.051250 0.335985
Si Si7 0.981305 0.050263 0.943569
Si Si8 0.348173 0.452700 0.881007
O O1 0.250000 0.987460 0.146822
O O2 0.147978 0.250000 0.146891
O O3 0.080515 0.982807 0.184046
O O4 0.107307 0.012011 0.086067
O O5 0.024652 0.250000 0.424927
O O6 0.092903 0.991203 0.469237
O O7 0.071212 0.987465 0.373327
O O8 0.923291 0.991846 0.436427
O O9 0.451443 0.750000 0.246692
O O10 0.552081 0.487320 0.254094
O O11 0.378286 0.479372 0.279319
O O12 0.750000 0.010274 0.255534
O O13 0.849047 0.750000 0.239254
O O14 0.851660 0.995525 0.177004
O O15 0.750000 0.013496 0.476957
O O16 0.848642 0.750000 0.484557
O O17 0.250000 0.982844 0.346931
O O18 0.346782 0.250000 0.343876
O O19 0.979579 0.250000 0.941118
O O20 0.066729 0.983879 0.911501
O O21 0.000000 0.000000 0.000000
O O22 0.250000 0.507055 0.901327
O O23 0.350590 0.250000 0.882826
#
# Coordination Sequence:
#
# PCOD9452106 Si02
#       8
#     8   8   8   8   8   8   8   8
#     4  11  24  41  59  79 108 148 188 225 272 329
#     4   9  18  33  53  77 107 145 189 233 276 327
#     4  11  21  35  58  86 111 139 180 230 277 323
#     4   8  14  28  52  79 102 127 163 206 255 312
#     4   9  17  31  53  80 109 143 185 233 284 336
#     4  10  21  37  55  76 107 148 187 223 271 331
#     4  11  22  37  57  83 112 142 176 218 268 323
#     4   8  14  28  52  77  99 127 164 203 247 304
#
# _framework density 20.257712999999999
#
# number of rings (size 3 to 8) (size 9 to 14) (size 15 to 20)
#    0.000    2.375    1.250    2.625    0.000    5.500 
#    0.000    1.875    0.000    7.875    0.000    0.000 
#    0.000    0.000    0.000    0.000    0.000    0.000 
#
# Total GULP energy -356843.682497 kJ/mol
# GULP energy per Si atom -5575.682539 kJ/mol
# Density = 2.021161 g / cm^3
# Si number density = 20.257713 Si / 1000 Ang^3
#
#
#
# Elastic Constant Matrix: (Units=GPa)
#
#
# Indices 1 2 3 4 5 6 
#
# 1 140.9074 6.1455 17.7337 0.0000 0.0000 0.0000
# 2 6.1455 16.2908 -7.7372 0.0000 0.0000 0.0000
# 3 17.7337 -7.7372 54.4353 0.0000 0.0000 0.0000
# 4 0.0000 0.0000 0.0000 20.9051 0.0000 0.0000
# 5 0.0000 0.0000 0.0000 0.0000 20.8970 0.0000
# 6 0.0000 0.0000 0.0000 0.0000 0.0000 16.9334
#
#
#
# Elastic Compliance Matrix: (Units=1/GPa)
#
#
# Indices 1 2 3 4 5 6 
#
# 1 0.007681 -0.004382 -0.003125 0.000000 0.000000 0.000000
# 2 -0.004382 0.068328 0.011139 0.000000 0.000000 0.000000
# 3 -0.003125 0.011139 0.020972 0.000000 0.000000 0.000000
# 4 0.000000 0.000000 0.000000 0.047835 0.000000 0.000000
# 5 0.000000 0.000000 0.000000 0.000000 0.047854 0.000000
# 6 0.000000 0.000000 0.000000 0.000000 0.000000 0.059055
#
#
# Mechanical properties :
#
#
# Convention : Reuss Voigt Hill
#
# Bulk Modulus (GPa) = 9.59274 27.10195 18.34735
# Shear Modulus (GPa) = 17.90773 24.77987 21.34380
#
# Velocity S-wave (km/s) = 2.97643 3.50127 3.24946
# Velocity P-wave (km/s) = 4.06913 5.45461 4.81200
#
# Compressibility (1/GPa) = 0.10424547
#
# Stress axis : x y z
#
# Youngs Moduli (GPa) = 130.18639 14.63530 47.68298
#
# Poissons Ratio (x) = 0.06413 0.14902
# Poissons Ratio (y) = 0.57047 -0.53116
# Poissons Ratio (z) = 0.40686 -0.16303
#
# Static dielectric constant tensor:
#      x y z
#    x 1.770690 0.000000 0.000000 
#    y 0.000000 1.730010 0.000000 
#    z 0.000000 0.000000 1.704130 
# 
# From -- ./inp_files/32225.got.cif
#   From: 2010.05.17/outbox.cif.g08.bks.cpg/sg59_17_cif.got.tgz:32225.got - 2010.06.03 14:40:33.
