data_PCOD9452561
_publ_section_title
;
Structure prediction by ZEFSAII (Michael W. Deem and Ramdas Pophale) SiO2 
 PCOD9452561
Probable space group: P M M N
;
_chemical_formula_sum "Si O2"
_cell_formula_units_Z 44
_cell_length_a 13.959895
_cell_length_b 8.724936
_cell_length_c 18.671133
_cell_angle_alpha 90.000000
_cell_angle_beta 90.000000
_cell_angle_gamma 90.000000
_cell_volume 2274.128884
_symmetry_space_group_name_H-M "P M M N"
_symmetry_group_IT_number 59
_space_group.IT_coordinate_system_code '2'
_symmetry_cell_setting 'orthorhombic'
loop_
_space_group_symop_operation_xyz
x,y,z
1/2-x,1/2-y,z
1/2+x,-y,-z
-x,1/2+y,-z
-x,-y,-z
1/2+x,1/2+y,-z
1/2-x,y,z
x,1/2-y,z
loop_
_atom_site_type_symbol
_atom_site_label
_atom_site_fract_x
_atom_site_fract_y
_atom_site_fract_z
Si Si1 0.750000 0.431924 0.403656
Si Si2 0.396268 0.066358 0.486164
Si Si3 0.250000 0.420247 0.909601
Si Si4 0.250000 0.998184 0.749693
Si Si5 0.951613 0.067429 0.070000
Si Si6 0.641511 0.067234 0.669712
Si Si7 0.523115 0.072034 0.230294
O O1 0.750000 0.250000 0.383663
O O2 0.663134 0.477173 0.453903
O O3 0.750000 0.538603 0.333531
O O4 0.389367 0.250000 0.494607
O O5 0.500000 0.000000 0.500000
O O6 0.365091 0.019149 0.406287
O O7 0.250000 0.250000 0.940403
O O8 0.250000 0.408721 0.823114
O O9 0.157464 0.513521 0.931454
O O10 0.139169 0.931030 0.754665
O O11 0.958126 0.250000 0.069180
O O12 0.989899 0.015842 0.148173
O O13 0.000000 0.000000 0.000000
O O14 0.750000 0.036892 0.699587
O O15 0.634943 0.250000 0.657445
O O16 0.550124 0.016976 0.717796
O O17 0.495559 0.250000 0.235066
#
# Coordination Sequence:
#
# PCOD9452561 Si02
#       7
#     4   8   4   4   8   8   8
#     4  12  23  38  61  91 124 158 202 255 309 369
#     4  12  25  41  62  87 119 161 208 260 315 371
#     4  10  21  38  63  91 124 164 204 255 311 369
#     4  10  22  38  62  94 126 158 200 258 318 372
#     4  10  21  39  63  93 128 165 206 254 308 370
#     4  11  24  43  64  88 125 168 213 263 316 376
#     4  10  21  39  65  94 125 165 209 255 313 375
#
# _framework density 19.348068000000001
#
# number of rings (size 3 to 8) (size 9 to 14) (size 15 to 20)
#    0.000    1.273    0.909    5.182    0.000    8.364 
#    1.636    0.000    0.000    0.000    0.000    0.000 
#    0.000    0.000    0.000    0.000    0.000    0.000 
#
# Total GULP energy -245100.999917 kJ/mol
# GULP energy per Si atom -5570.477271 kJ/mol
# Density = 1.930403 g / cm^3
# Si number density = 19.348068 Si / 1000 Ang^3
#
#
#
# Elastic Constant Matrix: (Units=GPa)
#
#
# Indices 1 2 3 4 5 6 
#
# 1 122.7586 27.6699 53.9428 0.0000 0.0000 0.0000
# 2 27.6699 63.7165 18.5574 0.0000 0.0000 0.0000
# 3 53.9428 18.5574 126.0907 0.0000 0.0000 0.0000
# 4 0.0000 0.0000 0.0000 20.6440 0.0000 0.0000
# 5 0.0000 0.0000 0.0000 0.0000 57.0045 0.0000
# 6 0.0000 0.0000 0.0000 0.0000 0.0000 19.5407
#
#
#
# Elastic Compliance Matrix: (Units=1/GPa)
#
#
# Indices 1 2 3 4 5 6 
#
# 1 0.010718 -0.003468 -0.004075 0.000000 0.000000 0.000000
# 2 -0.003468 0.017519 -0.001095 0.000000 0.000000 0.000000
# 3 -0.004075 -0.001095 0.009835 0.000000 0.000000 0.000000
# 4 0.000000 0.000000 0.000000 0.048440 0.000000 0.000000
# 5 0.000000 0.000000 0.000000 0.000000 0.017542 0.000000
# 6 0.000000 0.000000 0.000000 0.000000 0.000000 0.051175
#
#
# Mechanical properties :
#
#
# Convention : Reuss Voigt Hill
#
# Bulk Modulus (GPa) = 48.08240 56.98953 52.53596
# Shear Modulus (GPa) = 27.86466 33.59755 30.73110
#
# Velocity S-wave (km/s) = 3.79908 4.17163 3.98971
# Velocity P-wave (km/s) = 6.64449 7.26100 6.95958
#
# Compressibility (1/GPa) = 0.02079763
#
# Stress axis : x y z
#
# Youngs Moduli (GPa) = 93.29774 57.07976 101.67477
#
# Poissons Ratio (x) = 0.19794 0.41433
# Poissons Ratio (y) = 0.32353 0.11132
# Poissons Ratio (z) = 0.38019 0.06249
#
# Static dielectric constant tensor:
#      x y z
#    x 1.652460 0.000000 0.000000 
#    y 0.000000 1.854920 0.000000 
#    z 0.000000 0.000000 1.666220 
# 
# From -- ./inp_files/27323.got.cif
#   From: 2010.05.17/outbox.cif.g08.bks.cpg/sg59_14_cif.got.tgz:27323.got - 2010.06.03 14:40:33.
