data_PCOD9452792
_publ_section_title
;
Structure prediction by ZEFSAII (Michael W. Deem and Ramdas Pophale) SiO2 
 PCOD9452792
Probable space group: P M M N
;
_chemical_formula_sum "Si O2"
_cell_formula_units_Z 64
_cell_length_a 15.081672
_cell_length_b 8.738562
_cell_length_c 26.790301
_cell_angle_alpha 90.000000
_cell_angle_beta 90.000000
_cell_angle_gamma 90.000000
_cell_volume 3530.750721
_symmetry_space_group_name_H-M "P M M N"
_symmetry_group_IT_number 59
_space_group.IT_coordinate_system_code '2'
_symmetry_cell_setting 'orthorhombic'
loop_
_space_group_symop_operation_xyz
x,y,z
1/2-x,1/2-y,z
1/2+x,-y,-z
-x,1/2+y,-z
-x,-y,-z
1/2+x,1/2+y,-z
1/2-x,y,z
x,1/2-y,z
loop_
_atom_site_type_symbol
_atom_site_label
_atom_site_fract_x
_atom_site_fract_y
_atom_site_fract_z
Si Si1 0.647741 0.063702 0.865685
Si Si2 0.648320 0.573478 0.392501
Si Si3 0.001482 0.932406 0.676145
Si Si4 0.852385 0.936317 0.134804
Si Si5 0.500572 0.434681 0.786490
Si Si6 0.349080 0.069495 0.399397
Si Si7 0.098425 0.931901 0.502964
Si Si8 0.499730 0.434782 0.944692
O O1 0.750000 0.010406 0.865869
O O2 0.650211 0.250000 0.865590
O O3 0.588026 0.017757 0.817917
O O4 0.587499 0.018523 0.913315
O O5 0.750000 0.570125 0.376399
O O6 0.618095 0.750000 0.394571
O O7 0.588161 0.481694 0.354193
O O8 0.641358 0.503312 0.447727
O O9 0.996964 0.750000 0.680404
O O10 0.920146 0.984125 0.640935
O O11 0.998983 0.003382 0.730821
O O12 0.750000 0.989359 0.134834
O O13 0.849917 0.750000 0.134952
O O14 0.912556 0.982274 0.182443
O O15 0.912193 0.981451 0.086945
O O16 0.500252 0.250000 0.785388
O O17 0.250000 0.055214 0.379247
O O18 0.366068 0.250000 0.409980
O O19 0.356418 0.981353 0.451447
O O20 0.096369 0.750000 0.507667
O O21 0.000000 0.000000 0.500000
O O22 0.499622 0.250000 0.946474
O O23 0.500000 0.500000 0.000000
#
# Coordination Sequence:
#
# PCOD9452792 Si02
#       8
#     8   8   8   8   8   8   8   8
#     4   8  15  30  51  73  99 136 179 219 261 312
#     4  11  24  41  61  84 111 144 181 223 270 323
#     4  11  23  38  57  81 112 146 176 219 274 328
#     4   8  15  30  51  72  96 132 175 213 254 307
#     4   9  18  33  54  76  98 129 175 225 264 309
#     4  10  22  40  59  80 109 146 183 218 264 323
#     4  12  23  37  60  86 113 145 180 221 269 322
#     4   9  17  29  47  73 104 136 171 212 257 308
#
# _framework density 18.126456999999998
#
# number of rings (size 3 to 8) (size 9 to 14) (size 15 to 20)
#    0.000    2.250    1.250    3.750    0.000    4.750 
#    0.000    3.750    0.000    1.500    0.000    0.000 
#    0.000    0.000    0.000    0.000    0.000    0.000 
#
# Total GULP energy -357031.836497 kJ/mol
# GULP energy per Si atom -5578.622445 kJ/mol
# Density = 1.808520 g / cm^3
# Si number density = 18.126457 Si / 1000 Ang^3
#
#
#
# Elastic Constant Matrix: (Units=GPa)
#
#
# Indices 1 2 3 4 5 6 
#
# 1 144.2080 14.0195 71.5219 0.0000 0.0000 0.0000
# 2 14.0195 15.7544 19.2845 0.0000 0.0000 0.0000
# 3 71.5219 19.2845 161.0737 0.0000 0.0000 0.0000
# 4 0.0000 0.0000 0.0000 32.9797 0.0000 0.0000
# 5 0.0000 0.0000 0.0000 0.0000 30.4815 0.0000
# 6 0.0000 0.0000 0.0000 0.0000 0.0000 15.5693
#
#
#
# Elastic Compliance Matrix: (Units=1/GPa)
#
#
# Indices 1 2 3 4 5 6 
#
# 1 0.009071 -0.003681 -0.003587 0.000000 0.000000 0.000000
# 2 -0.003681 0.075868 -0.007449 0.000000 0.000000 0.000000
# 3 -0.003587 -0.007449 0.008693 0.000000 0.000000 0.000000
# 4 0.000000 0.000000 0.000000 0.030322 0.000000 0.000000
# 5 0.000000 0.000000 0.000000 0.000000 0.032807 0.000000
# 6 0.000000 0.000000 0.000000 0.000000 0.000000 0.064229
#
#
# Mechanical properties :
#
#
# Convention : Reuss Voigt Hill
#
# Bulk Modulus (GPa) = 15.57683 58.96531 37.27107
# Shear Modulus (GPa) = 18.39425 30.22008 24.30716
#
# Velocity S-wave (km/s) = 3.18901 4.08754 3.66591
# Velocity P-wave (km/s) = 4.70869 7.40796 6.20684
#
# Compressibility (1/GPa) = 0.06419791
#
# Stress axis : x y z
#
# Youngs Moduli (GPa) = 110.23550 13.18078 115.03524
#
# Poissons Ratio (x) = 0.04852 0.41266
# Poissons Ratio (y) = 0.40582 0.85685
# Poissons Ratio (z) = 0.39545 0.09818
#
# Static dielectric constant tensor:
#      x y z
#    x 1.641150 0.000000 0.000000 
#    y 0.000000 1.612390 0.000000 
#    z 0.000000 0.000000 1.589120 
# 
# From -- ./inp_files/32263.got.cif
#   From: 2010.05.17/outbox.cif.g08.bks.cpg/sg59_17_cif.got.tgz:32263.got - 2010.06.03 14:40:33.
