data_PCOD9452483
_publ_section_title
;
Structure prediction by ZEFSAII (Michael W. Deem and Ramdas Pophale) SiO2 
 PCOD9452483
Probable space group: P M M N
;
_chemical_formula_sum "Si O2"
_cell_formula_units_Z 40
_cell_length_a 8.701131
_cell_length_b 14.577564
_cell_length_c 17.471878
_cell_angle_alpha 90.000000
_cell_angle_beta 90.000000
_cell_angle_gamma 90.000000
_cell_volume 2216.155615
_symmetry_space_group_name_H-M "P M M N"
_symmetry_group_IT_number 59
_space_group.IT_coordinate_system_code '2'
_symmetry_cell_setting 'orthorhombic'
loop_
_space_group_symop_operation_xyz
x,y,z
1/2-x,1/2-y,z
1/2+x,-y,-z
-x,1/2+y,-z
-x,-y,-z
1/2+x,1/2+y,-z
1/2-x,y,z
x,1/2-y,z
loop_
_atom_site_type_symbol
_atom_site_label
_atom_site_fract_x
_atom_site_fract_y
_atom_site_fract_z
Si Si1 0.566695 0.483634 0.876686
Si Si2 0.066959 0.442635 0.711752
Si Si3 0.934174 0.250000 0.656762
Si Si4 0.066256 0.056694 0.428314
Si Si5 0.934154 0.250000 0.474592
Si Si6 0.065054 0.356355 0.007169
O O1 0.750000 0.480157 0.865399
O O2 0.483117 0.472644 0.796260
O O3 0.527964 0.578724 0.920441
O O4 0.515098 0.402797 0.934196
O O5 0.250000 0.443131 0.704208
O O6 0.003732 0.341029 0.694030
O O7 0.993705 0.509625 0.648738
O O8 0.750000 0.250000 0.665634
O O9 0.968356 0.250000 0.565743
O O10 0.250000 0.053861 0.430557
O O11 0.005384 0.159547 0.437570
O O12 0.000000 0.000000 0.500000
O O13 0.750000 0.250000 0.466218
O O14 0.250000 0.361222 0.996304
O O15 0.022660 0.250000 0.017112
#
# Coordination Sequence:
#
# PCOD9452483 Si02
#       6
#     8   8   4   8   4   8
#     4  10  21  38  60  88 122 156 197 248 300 355
#     4  12  25  41  62  89 124 162 201 251 305 360
#     4  11  23  39  63  91 121 154 201 256 304 360
#     4  12  24  41  64  90 122 162 204 252 305 361
#     4  11  23  41  65  91 119 158 207 254 304 366
#     4   9  19  38  63  88 117 155 198 244 297 359
#
# _framework density 18.049275000000002
#
# number of rings (size 3 to 8) (size 9 to 14) (size 15 to 20)
#    0.000    1.200    2.000    4.800    1.400    2.000 
#    1.800    0.000    0.000    0.000    0.000    0.000 
#    0.000    0.000    0.000    0.000    0.000    0.000 
#
# Total GULP energy -223676.784609 kJ/mol
# GULP energy per Si atom -5591.919615 kJ/mol
# Density = 1.800819 g / cm^3
# Si number density = 18.049275 Si / 1000 Ang^3
#
#
#
# Elastic Constant Matrix: (Units=GPa)
#
#
# Indices 1 2 3 4 5 6 
#
# 1 117.2743 66.6098 70.8742 0.0000 0.0000 0.0000
# 2 66.6098 179.2446 79.3773 0.0000 0.0000 0.0000
# 3 70.8742 79.3773 136.2409 0.0000 0.0000 0.0000
# 4 0.0000 0.0000 0.0000 -2.5551 0.0000 0.0000
# 5 0.0000 0.0000 0.0000 0.0000 31.6061 0.0000
# 6 0.0000 0.0000 0.0000 0.0000 0.0000 28.4008
#
#
#
# Elastic Compliance Matrix: (Units=1/GPa)
#
#
# Indices 1 2 3 4 5 6 
#
# 1 0.013230 -0.002518 -0.005415 0.000000 0.000000 0.000000
# 2 -0.002518 0.007998 -0.003350 0.000000 0.000000 0.000000
# 3 -0.005415 -0.003350 0.012109 0.000000 0.000000 0.000000
# 4 0.000000 0.000000 0.000000 -0.391379 0.000000 0.000000
# 5 0.000000 0.000000 0.000000 0.000000 0.031639 0.000000
# 6 0.000000 0.000000 0.000000 0.000000 0.000000 0.035210
#
#
# Mechanical properties :
#
#
# Convention : Reuss Voigt Hill
#
# Bulk Modulus (GPa) = 92.84928 96.27584 94.56256
# Shear Modulus (GPa) = -18.86543 25.88361 3.50909
#
# Velocity S-wave (km/s) = -3.23649 3.79100 1.39585
# Velocity P-wave (km/s) = 6.13085 8.52165 7.42313
#
# Compressibility (1/GPa) = 0.01077014
#
# Stress axis : x y z
#
# Youngs Moduli (GPa) = 75.58557 125.02602 82.58524
#
# Poissons Ratio (x) = 0.31487 0.44721
# Poissons Ratio (y) = 0.19036 0.27665
# Poissons Ratio (z) = 0.40931 0.41883
#
# Static dielectric constant tensor:
#      x y z
#    x 1.604440 0.000000 0.000000 
#    y 0.000000 1.616250 0.000000 
#    z 0.000000 0.000000 1.585620 
# 
# From -- ./inp_files/19970.got.cif
#   From: 2010.05.17/outbox.cif.g08.bks.cpg/sg59_10_cif.got.tgz:19970.got - 2010.06.03 14:40:33.
