data_PCOD9452277
_publ_section_title
;
Structure prediction by ZEFSAII (Michael W. Deem and Ramdas Pophale) SiO2 
 PCOD9452277
Probable space group: P M M N
;
_chemical_formula_sum "Si O2"
_cell_formula_units_Z 56
_cell_length_a 15.144587
_cell_length_b 21.903350
_cell_length_c 8.613192
_cell_angle_alpha 90.000000
_cell_angle_beta 90.000000
_cell_angle_gamma 90.000000
_cell_volume 2857.143844
_symmetry_space_group_name_H-M "P M M N"
_symmetry_group_IT_number 59
_space_group.IT_coordinate_system_code '2'
_symmetry_cell_setting 'orthorhombic'
loop_
_space_group_symop_operation_xyz
x,y,z
1/2-x,1/2-y,z
1/2+x,-y,-z
-x,1/2+y,-z
-x,-y,-z
1/2+x,1/2+y,-z
1/2-x,y,z
x,1/2-y,z
loop_
_atom_site_type_symbol
_atom_site_label
_atom_site_fract_x
_atom_site_fract_y
_atom_site_fract_z
Si Si1 0.083429 0.980730 0.390217
Si Si2 0.649055 0.250000 0.299506
Si Si3 0.535775 0.360442 0.168071
Si Si4 0.533577 0.138726 0.798292
Si Si5 0.649098 0.597520 0.801679
Si Si6 0.152427 0.399853 0.826493
Si Si7 0.345854 0.536805 0.705105
Si Si8 0.648088 0.250000 0.670286
O O1 0.059706 0.927043 0.271358
O O2 0.149518 0.955364 0.520573
O O3 0.124834 0.037418 0.297294
O O4 0.000000 0.000000 0.500000
O O5 0.750000 0.250000 0.241758
O O6 0.596135 0.308839 0.241909
O O7 0.650934 0.250000 0.484812
O O8 0.433722 0.357052 0.222546
O O9 0.575673 0.425363 0.219241
O O10 0.542965 0.357560 0.983217
O O11 0.427819 0.142357 0.772011
O O12 0.593628 0.190906 0.725228
O O13 0.750000 0.616705 0.765522
O O14 0.645537 0.586570 0.988382
O O15 0.250000 0.374193 0.797354
O O16 0.146028 0.465298 0.743100
O O17 0.250000 0.557774 0.764728
O O18 0.750000 0.250000 0.727601
#
# Coordination Sequence:
#
# PCOD9452277 Si02
#       8
#     8   4   8   8   8   8   8   4
#     4  12  21  35  58  89 127 163 196 248 302 364
#     4  11  25  45  66  87 116 158 204 254 306 361
#     4  11  22  39  62  87 116 159 206 253 301 358
#     4  11  23  40  62  87 121 159 202 250 301 354
#     4  10  21  37  58  87 121 158 199 246 301 358
#     4   9  19  37  60  87 119 156 198 245 298 360
#     4  11  21  34  55  86 121 158 197 244 302 361
#     4  11  27  45  64  87 120 160 202 248 302 361
#
# _framework density 19.599992
#
# number of rings (size 3 to 8) (size 9 to 14) (size 15 to 20)
#    0.000    1.286    2.857    3.000    0.000    6.286 
#    0.000    0.714    0.000    4.286    0.000    0.000 
#    0.000    0.000    0.000    0.000    0.000    0.000 
#
# Total GULP energy -312554.004056 kJ/mol
# GULP energy per Si atom -5581.321501 kJ/mol
# Density = 1.955538 g / cm^3
# Si number density = 19.599992 Si / 1000 Ang^3
#
#
#
# Elastic Constant Matrix: (Units=GPa)
#
#
# Indices 1 2 3 4 5 6 
#
# 1 194.2343 57.3869 46.4834 0.0000 0.0000 0.0000
# 2 57.3869 58.7069 23.8951 0.0000 0.0000 0.0000
# 3 46.4834 23.8951 50.1650 0.0000 0.0000 0.0000
# 4 0.0000 0.0000 0.0000 33.6952 0.0000 0.0000
# 5 0.0000 0.0000 0.0000 0.0000 28.6037 0.0000
# 6 0.0000 0.0000 0.0000 0.0000 0.0000 2.3391
#
#
#
# Elastic Compliance Matrix: (Units=1/GPa)
#
#
# Indices 1 2 3 4 5 6 
#
# 1 0.008006 -0.005962 -0.004578 0.000000 0.000000 0.000000
# 2 -0.005962 0.025571 -0.006656 0.000000 0.000000 0.000000
# 3 -0.004578 -0.006656 0.027347 0.000000 0.000000 0.000000
# 4 0.000000 0.000000 0.000000 0.029678 0.000000 0.000000
# 5 0.000000 0.000000 0.000000 0.000000 0.034960 0.000000
# 6 0.000000 0.000000 0.000000 0.000000 0.000000 0.427511
#
#
# Mechanical properties :
#
#
# Convention : Reuss Voigt Hill
#
# Bulk Modulus (GPa) = 37.69127 62.07077 49.88102
# Shear Modulus (GPa) = 8.38493 24.61700 16.50097
#
# Velocity S-wave (km/s) = 2.07058 3.54781 2.90468
# Velocity P-wave (km/s) = 4.99884 6.96564 6.06253
#
# Compressibility (1/GPa) = 0.02653135
#
# Stress axis : x y z
#
# Youngs Moduli (GPa) = 124.91321 39.10704 36.56770
#
# Poissons Ratio (x) = 0.23316 0.16741
# Poissons Ratio (y) = 0.74475 0.24338
# Poissons Ratio (z) = 0.57186 0.26028
#
# Static dielectric constant tensor:
#      x y z
#    x 1.761720 0.000000 0.000000 
#    y 0.000000 1.687000 0.000000 
#    z 0.000000 0.000000 1.673720 
# 
# From -- ./inp_files/9419.got.cif
#   From: 2010.05.17/outbox.cif.g08.bks.cpg/sg59_5_cif.got.tgz:9419.got - 2010.06.03 14:40:33.
