data_PCOD9452364
_publ_section_title
;
Structure prediction by ZEFSAII (Michael W. Deem and Ramdas Pophale) SiO2 
 PCOD9452364
Probable space group: P M M N
;
_chemical_formula_sum "Si O2"
_cell_formula_units_Z 56
_cell_length_a 14.156715
_cell_length_b 22.150409
_cell_length_c 8.886739
_cell_angle_alpha 90.000000
_cell_angle_beta 90.000000
_cell_angle_gamma 90.000000
_cell_volume 2786.677198
_symmetry_space_group_name_H-M "P M M N"
_symmetry_group_IT_number 59
_space_group.IT_coordinate_system_code '2'
_symmetry_cell_setting 'orthorhombic'
loop_
_space_group_symop_operation_xyz
x,y,z
1/2-x,1/2-y,z
1/2+x,-y,-z
-x,1/2+y,-z
-x,-y,-z
1/2+x,1/2+y,-z
1/2-x,y,z
x,1/2-y,z
loop_
_atom_site_type_symbol
_atom_site_label
_atom_site_fract_x
_atom_site_fract_y
_atom_site_fract_z
Si Si1 0.638008 0.318090 0.500358
Si Si2 0.005941 0.140624 0.747504
Si Si3 0.137143 0.182095 0.009732
Si Si4 0.634629 0.947327 0.445658
Si Si5 0.855539 0.927531 0.783711
Si Si6 0.138110 0.927294 0.707921
Si Si7 0.587690 0.041378 0.956420
O O1 0.750000 0.328409 0.539380
O O2 0.631644 0.250000 0.440927
O O3 0.568408 0.324892 0.642208
O O4 0.605599 0.367378 0.377785
O O5 0.070545 0.177751 0.863841
O O6 0.080956 0.103741 0.647049
O O7 0.943892 0.092745 0.842124
O O8 0.250000 0.172209 0.974498
O O9 0.129753 0.250000 0.074195
O O10 0.103187 0.127305 0.118016
O O11 0.750000 0.942634 0.433452
O O12 0.604532 0.941725 0.619784
O O13 0.605615 0.011553 0.374481
O O14 0.750000 0.905486 0.753066
O O15 0.850505 0.990104 0.875110
O O16 0.250000 0.927108 0.687761
O O17 0.121449 0.931434 0.885876
O O18 0.500000 0.000000 0.000000
#
# Coordination Sequence:
#
# PCOD9452364 Si02
#       7
#     8   8   8   8   8   8   8
#     4  10  24  45  64  85 118 162 210 256 299 347
#     4  12  23  37  64  88 124 154 199 245 305 357
#     4  10  21  39  60  84 117 158 198 239 292 357
#     4  10  21  37  61  93 122 153 192 243 304 367
#     4  10  21  38  58  83 119 157 196 242 295 353
#     4  10  21  40  63  87 119 157 200 248 304 363
#     4  12  22  34  58  92 121 153 190 246 299 362
#
# _framework density 20.095617000000001
#
# number of rings (size 3 to 8) (size 9 to 14) (size 15 to 20)
#    0.000    1.429    2.857    2.143    2.000    5.714 
#    0.000    4.286    0.000    5.143    0.000    0.000 
#    0.000    0.000    0.000    0.000    0.000    0.000 
#
# Total GULP energy -312408.421763 kJ/mol
# GULP energy per Si atom -5578.721817 kJ/mol
# Density = 2.004988 g / cm^3
# Si number density = 20.095617 Si / 1000 Ang^3
#
#
#
# Elastic Constant Matrix: (Units=GPa)
#
#
# Indices 1 2 3 4 5 6 
#
# 1 64.4983 30.1495 19.4701 0.0000 0.0000 0.0000
# 2 30.1495 102.4628 47.7029 0.0000 0.0000 0.0000
# 3 19.4701 47.7029 121.0267 0.0000 0.0000 0.0000
# 4 0.0000 0.0000 0.0000 25.5632 0.0000 0.0000
# 5 0.0000 0.0000 0.0000 0.0000 23.8341 0.0000
# 6 0.0000 0.0000 0.0000 0.0000 0.0000 19.3343
#
#
#
# Elastic Compliance Matrix: (Units=1/GPa)
#
#
# Indices 1 2 3 4 5 6 
#
# 1 0.018074 -0.004856 -0.000994 0.000000 0.000000 0.000000
# 2 -0.004856 0.013258 -0.004444 0.000000 0.000000 0.000000
# 3 -0.000994 -0.004444 0.010174 0.000000 0.000000 0.000000
# 4 0.000000 0.000000 0.000000 0.039119 0.000000 0.000000
# 5 0.000000 0.000000 0.000000 0.000000 0.041957 0.000000
# 6 0.000000 0.000000 0.000000 0.000000 0.000000 0.051722
#
#
# Mechanical properties :
#
#
# Convention : Reuss Voigt Hill
#
# Bulk Modulus (GPa) = 47.80495 53.62589 50.71542
# Shear Modulus (GPa) = 24.76927 26.45733 25.61330
#
# Velocity S-wave (km/s) = 3.51461 3.63240 3.57399
# Velocity P-wave (km/s) = 6.34904 6.65851 6.50561
#
# Compressibility (1/GPa) = 0.02091833
#
# Stress axis : x y z
#
# Youngs Moduli (GPa) = 55.32808 75.42899 98.28721
#
# Poissons Ratio (x) = 0.36625 0.09768
# Poissons Ratio (y) = 0.26865 0.43682
# Poissons Ratio (z) = 0.05499 0.33523
#
# Static dielectric constant tensor:
#      x y z
#    x 2.630880 0.000000 0.000000 
#    y 0.000000 1.715510 0.000000 
#    z 0.000000 0.000000 1.657950 
# 
# From -- ./inp_files/9379.got.cif
#   From: 2010.05.17/outbox.cif.g08.bks.cpg/sg59_5_cif.got.tgz:9379.got - 2010.06.03 14:40:33.
