data_PCOD9452353
_publ_section_title
;
Structure prediction by ZEFSAII (Michael W. Deem and Ramdas Pophale) SiO2 
 PCOD9452353
Probable space group: P M M N
;
_chemical_formula_sum "Si O2"
_cell_formula_units_Z 64
_cell_length_a 15.468989
_cell_length_b 8.580227
_cell_length_c 24.207016
_cell_angle_alpha 90.000000
_cell_angle_beta 90.000000
_cell_angle_gamma 90.000000
_cell_volume 3212.935193
_symmetry_space_group_name_H-M "P M M N"
_symmetry_group_IT_number 59
_space_group.IT_coordinate_system_code '2'
_symmetry_cell_setting 'orthorhombic'
loop_
_space_group_symop_operation_xyz
x,y,z
1/2-x,1/2-y,z
1/2+x,-y,-z
-x,1/2+y,-z
-x,-y,-z
1/2+x,1/2+y,-z
1/2-x,y,z
x,1/2-y,z
loop_
_atom_site_type_symbol
_atom_site_label
_atom_site_fract_x
_atom_site_fract_y
_atom_site_fract_z
Si Si1 0.151455 0.066306 0.793854
Si Si2 0.516547 0.937141 0.417879
Si Si3 0.650461 0.926963 0.003001
Si Si4 0.983606 0.062351 0.294625
Si Si5 0.852040 0.061641 0.509229
Si Si6 0.156905 0.062853 0.233454
Si Si7 0.064384 0.570986 0.895918
Si Si8 0.617626 0.429969 0.885588
O O1 0.250000 0.046223 0.775864
O O2 0.136178 0.250000 0.803604
O O3 0.087468 0.002905 0.747386
O O4 0.135367 0.973955 0.850687
O O5 0.520170 0.750000 0.419226
O O6 0.421506 0.984048 0.442558
O O7 0.526510 0.998797 0.356080
O O8 0.595394 0.001601 0.455449
O O9 0.750000 0.931191 0.021286
O O10 0.617942 0.750000 0.009148
O O11 0.647375 0.975714 0.939315
O O12 0.596789 0.039920 0.042307
O O13 0.979651 0.250000 0.294915
O O14 0.076337 0.012028 0.269968
O O15 0.750000 0.010723 0.513510
O O16 0.850018 0.250000 0.507756
O O17 0.250000 0.022385 0.258374
O O18 0.151691 0.250000 0.227918
O O19 0.151896 0.992767 0.172293
O O20 0.037315 0.750000 0.888809
O O21 0.984820 0.457912 0.883807
O O22 0.639740 0.250000 0.892660
#
# Coordination Sequence:
#
# PCOD9452353 Si02
#       8
#     8   8   8   8   8   8   8   8
#     4  11  24  42  64  90 121 158 202 255 312 367
#     4  10  21  37  60  91 127 164 205 256 307 355
#     4  11  24  41  60  84 116 152 193 246 306 369
#     4  11  23  40  63  90 124 167 210 252 300 361
#     4   9  19  38  63  91 125 166 209 252 301 359
#     4  10  22  41  63  88 120 159 203 253 309 367
#     4  12  24  40  62  87 117 153 196 247 306 372
#     4  12  24  39  61  87 117 153 198 249 305 369
#
# _framework density 19.919481000000001
#
# number of rings (size 3 to 8) (size 9 to 14) (size 15 to 20)
#    0.000    1.250    1.250    4.875    0.000    7.500 
#    0.000    0.000    0.000    0.000    0.000    0.000 
#    0.000    0.000    0.000    0.000    0.000    0.000 
#
# Total GULP energy -357642.356745 kJ/mol
# GULP energy per Si atom -5588.161824 kJ/mol
# Density = 1.987414 g / cm^3
# Si number density = 19.919481 Si / 1000 Ang^3
#
#
#
# Elastic Constant Matrix: (Units=GPa)
#
#
# Indices 1 2 3 4 5 6 
#
# 1 104.9380 18.5328 10.8783 0.0000 0.0000 0.0000
# 2 18.5328 33.8237 9.0097 0.0000 0.0000 0.0000
# 3 10.8783 9.0097 75.4545 0.0000 0.0000 0.0000
# 4 0.0000 0.0000 0.0000 24.6329 0.0000 0.0000
# 5 0.0000 0.0000 0.0000 0.0000 14.3673 0.0000
# 6 0.0000 0.0000 0.0000 0.0000 0.0000 24.2889
#
#
#
# Elastic Compliance Matrix: (Units=1/GPa)
#
#
# Indices 1 2 3 4 5 6 
#
# 1 0.010604 -0.005581 -0.000862 0.000000 0.000000 0.000000
# 2 -0.005581 0.033473 -0.003192 0.000000 0.000000 0.000000
# 3 -0.000862 -0.003192 0.013759 0.000000 0.000000 0.000000
# 4 0.000000 0.000000 0.000000 0.040596 0.000000 0.000000
# 5 0.000000 0.000000 0.000000 0.000000 0.069602 0.000000
# 6 0.000000 0.000000 0.000000 0.000000 0.000000 0.041171
#
#
# Mechanical properties :
#
#
# Convention : Reuss Voigt Hill
#
# Bulk Modulus (GPa) = 25.93009 32.33973 29.13491
# Shear Modulus (GPa) = 20.71840 24.37755 22.54797
#
# Velocity S-wave (km/s) = 3.22857 3.50209 3.36811
# Velocity P-wave (km/s) = 5.19075 5.71168 5.45744
#
# Compressibility (1/GPa) = 0.03856523
#
# Stress axis : x y z
#
# Youngs Moduli (GPa) = 94.30026 29.87469 72.68214
#
# Poissons Ratio (x) = 0.16672 0.06269
# Poissons Ratio (y) = 0.52626 0.23202
# Poissons Ratio (z) = 0.08133 0.09537
#
# Static dielectric constant tensor:
#      x y z
#    x 1.742410 0.000000 0.000000 
#    y 0.000000 1.689060 0.000000 
#    z 0.000000 0.000000 1.661320 
# 
# From -- ./inp_files/31476.got.cif
#   From: 2010.05.17/outbox.cif.g08.bks.cpg/sg59_16_cif.got.tgz:31476.got - 2010.06.03 14:40:33.
