data_PCOD9452725
_publ_section_title
;
Structure prediction by ZEFSAII (Michael W. Deem and Ramdas Pophale) SiO2 
 PCOD9452725
Probable space group: P M M N
;
_chemical_formula_sum "Si O2"
_cell_formula_units_Z 48
_cell_length_a 29.211861
_cell_length_b 8.759771
_cell_length_c 10.191427
_cell_angle_alpha 90.000000
_cell_angle_beta 90.000000
_cell_angle_gamma 90.000000
_cell_volume 2607.876233
_symmetry_space_group_name_H-M "P M M N"
_symmetry_group_IT_number 59
_space_group.IT_coordinate_system_code '2'
_symmetry_cell_setting 'orthorhombic'
loop_
_space_group_symop_operation_xyz
x,y,z
1/2-x,1/2-y,z
1/2+x,-y,-z
-x,1/2+y,-z
-x,-y,-z
1/2+x,1/2+y,-z
1/2-x,y,z
x,1/2-y,z
loop_
_atom_site_type_symbol
_atom_site_label
_atom_site_fract_x
_atom_site_fract_y
_atom_site_fract_z
Si Si1 0.871000 0.931247 0.994058
Si Si2 0.802846 0.433978 0.486190
Si Si3 0.479400 0.431972 0.632776
Si Si4 0.881471 0.066805 0.282505
Si Si5 0.471664 0.430339 0.119776
Si Si6 0.803548 0.566774 0.767772
O O1 0.864725 0.750000 0.019656
O O2 0.918759 0.949115 0.917238
O O3 0.831953 0.985448 0.893952
O O4 0.873305 0.014765 0.133085
O O5 0.750000 0.484791 0.462544
O O6 0.802505 0.250000 0.489661
O O7 0.838843 0.481215 0.374689
O O8 0.817632 0.494577 0.628998
O O9 0.500000 0.500000 0.500000
O O10 0.477279 0.250000 0.625411
O O11 0.428845 0.495762 0.665271
O O12 0.512496 0.484255 0.750296
O O13 0.885281 0.250000 0.287417
O O14 0.481422 0.250000 0.133225
O O15 0.500000 0.500000 0.000000
O O16 0.750000 0.532676 0.785740
O O17 0.809186 0.750000 0.757820
#
# Coordination Sequence:
#
# PCOD9452725 Si02
#       6
#     8   8   8   8   8   8
#     4  10  22  38  58  86 118 155 193 239 293 348
#     4   9  20  39  60  85 118 153 192 241 295 351
#     4  12  26  43  62  87 120 157 199 248 296 351
#     4  11  23  39  60  88 119 155 199 243 293 353
#     4  11  22  39  61  87 120 158 197 240 291 349
#     4   9  19  37  60  87 117 150 193 241 291 350
#
# _framework density 18.405781000000001
#
# number of rings (size 3 to 8) (size 9 to 14) (size 15 to 20)
#    0.000    1.667    1.667    2.500    2.333    3.333 
#    0.000    0.000    0.000    0.000    0.000    0.000 
#    0.000    0.000    0.000    0.000    0.000    0.000 
#
# Total GULP energy -268139.394120 kJ/mol
# GULP energy per Si atom -5586.237377 kJ/mol
# Density = 1.836389 g / cm^3
# Si number density = 18.405781 Si / 1000 Ang^3
#
#
#
# Elastic Constant Matrix: (Units=GPa)
#
#
# Indices 1 2 3 4 5 6 
#
# 1 85.0983 55.1347 86.4797 0.0000 0.0000 0.0000
# 2 55.1347 76.3567 66.8768 0.0000 0.0000 0.0000
# 3 86.4797 66.8768 186.8266 0.0000 0.0000 0.0000
# 4 0.0000 0.0000 0.0000 38.4956 0.0000 0.0000
# 5 0.0000 0.0000 0.0000 0.0000 38.7422 0.0000
# 6 0.0000 0.0000 0.0000 0.0000 0.0000 21.5010
#
#
#
# Elastic Compliance Matrix: (Units=1/GPa)
#
#
# Indices 1 2 3 4 5 6 
#
# 1 0.029485 -0.013600 -0.008780 0.000000 0.000000 0.000000
# 2 -0.013600 0.025351 -0.002779 0.000000 0.000000 0.000000
# 3 -0.008780 -0.002779 0.010412 0.000000 0.000000 0.000000
# 4 0.000000 0.000000 0.000000 0.025977 0.000000 0.000000
# 5 0.000000 0.000000 0.000000 0.000000 0.025812 0.000000
# 6 0.000000 0.000000 0.000000 0.000000 0.000000 0.046509
#
#
# Mechanical properties :
#
#
# Convention : Reuss Voigt Hill
#
# Bulk Modulus (GPa) = 66.98545 85.02935 76.00740
# Shear Modulus (GPa) = 22.84763 29.06712 25.95737
#
# Velocity S-wave (km/s) = 3.52707 3.97827 3.75945
# Velocity P-wave (km/s) = 7.28421 8.20973 7.76078
#
# Compressibility (1/GPa) = 0.01492861
#
# Stress axis : x y z
#
# Youngs Moduli (GPa) = 33.91538 39.44611 96.04751
#
# Poissons Ratio (x) = 0.53648 0.84328
# Poissons Ratio (y) = 0.46126 0.26694
# Poissons Ratio (z) = 0.29777 0.10963
#
# Static dielectric constant tensor:
#      x y z
#    x 1.630920 0.000000 0.000000 
#    y 0.000000 1.622580 0.000000 
#    z 0.000000 0.000000 1.588880 
# 
# From -- ./inp_files/6274.got.cif
#   From: 2010.05.17/outbox.cif.g08.bks.cpg/sg59_4_cif.got.tgz:6274.got - 2010.06.03 14:40:33.
