data_PCOD9452279
_publ_section_title
;
Structure prediction by ZEFSAII (Michael W. Deem and Ramdas Pophale) SiO2 
 PCOD9452279
Probable space group: P M M N
;
_chemical_formula_sum "Si O2"
_cell_formula_units_Z 40
_cell_length_a 14.364163
_cell_length_b 14.366781
_cell_length_c 9.324978
_cell_angle_alpha 90.000000
_cell_angle_beta 90.000000
_cell_angle_gamma 90.000000
_cell_volume 1924.365721
_symmetry_space_group_name_H-M "P M M N"
_symmetry_group_IT_number 59
_space_group.IT_coordinate_system_code '2'
_symmetry_cell_setting 'orthorhombic'
loop_
_space_group_symop_operation_xyz
x,y,z
1/2-x,1/2-y,z
1/2+x,-y,-z
-x,1/2+y,-z
-x,-y,-z
1/2+x,1/2+y,-z
1/2-x,y,z
x,1/2-y,z
loop_
_atom_site_type_symbol
_atom_site_label
_atom_site_fract_x
_atom_site_fract_y
_atom_site_fract_z
Si Si1 0.750000 0.138817 0.508384
Si Si2 0.593656 0.642340 0.234743
Si Si3 0.643814 0.855413 0.558132
Si Si4 0.112583 0.993953 0.988565
Si Si5 0.596403 0.035786 0.693565
Si Si6 0.750000 0.139158 0.168417
O O1 0.750000 0.250000 0.529095
O O2 0.661800 0.092475 0.585986
O O3 0.750000 0.119603 0.338611
O O4 0.582910 0.750000 0.195140
O O5 0.646027 0.636997 0.386151
O O6 0.638021 0.583981 0.105733
O O7 0.494626 0.595606 0.272646
O O8 0.750000 0.869932 0.610001
O O9 0.614204 0.750000 0.593521
O O10 0.578874 0.935144 0.622549
O O11 0.159263 0.908287 0.903827
O O12 0.143019 0.985613 0.152831
O O13 0.000000 0.000000 0.000000
O O14 0.750000 0.250000 0.146662
#
# Coordination Sequence:
#
# PCOD9452279 Si02
#       6
#     4   8   8   8   8   4
#     4  11  23  39  66  99 130 171 223 274 334 397
#     4  10  22  40  62  90 128 172 216 261 325 394
#     4  10  21  37  58  87 122 165 211 262 319 380
#     4  10  24  41  64  98 136 175 223 274 341 400
#     4  11  21  39  62  93 127 167 212 275 321 390
#     4  11  25  45  70  97 136 185 229 280 340 409
#
# _framework density 20.786069999999999
#
# number of rings (size 3 to 8) (size 9 to 14) (size 15 to 20)
#    0.000    1.600    1.000    3.000    1.400    7.200 
#    0.000    7.000    0.000    0.000    0.000    0.000 
#    0.000    0.000    0.000    0.000    0.000    0.000 
#
# Total GULP energy -223334.688820 kJ/mol
# GULP energy per Si atom -5583.367220 kJ/mol
# Density = 2.073876 g / cm^3
# Si number density = 20.786070 Si / 1000 Ang^3
#
#
#
# Elastic Constant Matrix: (Units=GPa)
#
#
# Indices 1 2 3 4 5 6 
#
# 1 94.1097 41.0492 28.8409 0.0000 0.0000 0.0000
# 2 41.0492 174.1619 84.8678 0.0000 0.0000 0.0000
# 3 28.8409 84.8678 138.7493 0.0000 0.0000 0.0000
# 4 0.0000 0.0000 0.0000 7.2911 0.0000 0.0000
# 5 0.0000 0.0000 0.0000 0.0000 19.5386 0.0000
# 6 0.0000 0.0000 0.0000 0.0000 0.0000 27.8941
#
#
#
# Elastic Compliance Matrix: (Units=1/GPa)
#
#
# Indices 1 2 3 4 5 6 
#
# 1 0.011957 -0.002289 -0.001085 0.000000 0.000000 0.000000
# 2 -0.002289 0.008618 -0.004796 0.000000 0.000000 0.000000
# 3 -0.001085 -0.004796 0.010366 0.000000 0.000000 0.000000
# 4 0.000000 0.000000 0.000000 0.137154 0.000000 0.000000
# 5 0.000000 0.000000 0.000000 0.000000 0.051181 0.000000
# 6 0.000000 0.000000 0.000000 0.000000 0.000000 0.035850
#
#
# Mechanical properties :
#
#
# Convention : Reuss Voigt Hill
#
# Bulk Modulus (GPa) = 68.48762 79.61516 74.05139
# Shear Modulus (GPa) = 18.09408 27.76229 22.92818
#
# Velocity S-wave (km/s) = 2.95361 3.65858 3.32483
# Velocity P-wave (km/s) = 6.68222 7.49882 7.10226
#
# Compressibility (1/GPa) = 0.01460118
#
# Stress axis : x y z
#
# Youngs Moduli (GPa) = 83.63257 116.03289 96.46883
#
# Poissons Ratio (x) = 0.26566 0.10467
# Poissons Ratio (y) = 0.19148 0.46262
# Poissons Ratio (z) = 0.09074 0.55644
#
# Static dielectric constant tensor:
#      x y z
#    x 0.995600 0.000000 0.000000 
#    y 0.000000 1.724530 0.000000 
#    z 0.000000 0.000000 1.740520 
# 
# From -- ./inp_files/8655.got.cif
#   From: 2010.05.17/outbox.cif.g08.bks.cpg/sg59_5_cif.got.tgz:8655.got - 2010.06.03 14:40:33.
