data_PCOD9452925
_publ_section_title
;
Structure prediction by ZEFSAII (Michael W. Deem and Ramdas Pophale) SiO2 
 PCOD9452925
Probable space group: P M M N
;
_chemical_formula_sum "Si O2"
_cell_formula_units_Z 64
_cell_length_a 13.967978
_cell_length_b 24.619696
_cell_length_c 9.953740
_cell_angle_alpha 90.000000
_cell_angle_beta 90.000000
_cell_angle_gamma 90.000000
_cell_volume 3422.965491
_symmetry_space_group_name_H-M "P M M N"
_symmetry_group_IT_number 59
_space_group.IT_coordinate_system_code '2'
_symmetry_cell_setting 'orthorhombic'
loop_
_space_group_symop_operation_xyz
x,y,z
1/2-x,1/2-y,z
1/2+x,-y,-z
-x,1/2+y,-z
-x,-y,-z
1/2+x,1/2+y,-z
1/2-x,y,z
x,1/2-y,z
loop_
_atom_site_type_symbol
_atom_site_label
_atom_site_fract_x
_atom_site_fract_y
_atom_site_fract_z
Si Si1 0.855827 0.529006 0.666380
Si Si2 0.359055 0.592429 0.429277
Si Si3 0.971251 0.812836 0.768873
Si Si4 0.858532 0.643528 0.522796
Si Si5 0.040621 0.382689 0.745313
Si Si6 0.639478 0.106364 0.252244
Si Si7 0.860187 0.685068 0.033040
Si Si8 0.466184 0.995056 0.846813
O O1 0.750000 0.529557 0.730543
O O2 0.864632 0.472799 0.585951
O O3 0.863042 0.581091 0.572550
O O4 0.941717 0.528876 0.769756
O O5 0.250000 0.608950 0.396512
O O6 0.436161 0.617322 0.326472
O O7 0.376529 0.603792 0.586114
O O8 0.997637 0.750000 0.780973
O O9 0.928429 0.824281 0.621649
O O10 0.062320 0.850328 0.797968
O O11 0.888943 0.824909 0.878270
O O12 0.750000 0.663420 0.537210
O O13 0.890227 0.640904 0.369467
O O14 0.063903 0.346672 0.875042
O O15 0.057656 0.445600 0.786559
O O16 0.750000 0.120956 0.229198
O O17 0.616373 0.048462 0.183803
O O18 0.750000 0.667943 0.058335
O O19 0.866077 0.750000 0.056660
O O20 0.500000 0.000000 0.000000
#
# Coordination Sequence:
#
# PCOD9452925 Si02
#       8
#     8   8   8   8   8   8   8   8
#     4   9  18  33  55  80 114 155 194 233 283 353
#     4   9  18  35  59  87 121 160 199 243 299 354
#     4  11  23  42  63  85 115 158 208 255 307 368
#     4  11  21  35  59  90 118 150 198 252 306 361
#     4  11  21  36  61  92 126 157 201 253 303 364
#     4  11  22  39  61  88 120 159 204 253 305 355
#     4  10  23  43  63  84 118 161 198 242 308 378
#     4  11  22  36  55  87 127 163 200 243 303 365
#
# _framework density 18.697237000000001
#
# number of rings (size 3 to 8) (size 9 to 14) (size 15 to 20)
#    0.000    1.625    2.500    2.250    0.000    6.000 
#    0.000    3.125    0.000    1.125    0.000    0.000 
#    0.000    0.000    0.000    0.000    0.000    0.000 
#
# Total GULP energy -357219.106397 kJ/mol
# GULP energy per Si atom -5581.548537 kJ/mol
# Density = 1.865468 g / cm^3
# Si number density = 18.697237 Si / 1000 Ang^3
#
#
#
# Elastic Constant Matrix: (Units=GPa)
#
#
# Indices 1 2 3 4 5 6 
#
# 1 77.3670 31.9573 7.5305 0.0000 0.0000 0.0000
# 2 31.9573 45.7273 15.2952 0.0000 0.0000 0.0000
# 3 7.5305 15.2952 66.7019 0.0000 0.0000 0.0000
# 4 0.0000 0.0000 0.0000 11.7700 0.0000 0.0000
# 5 0.0000 0.0000 0.0000 0.0000 23.8999 0.0000
# 6 0.0000 0.0000 0.0000 0.0000 0.0000 24.3255
#
#
#
# Elastic Compliance Matrix: (Units=1/GPa)
#
#
# Indices 1 2 3 4 5 6 
#
# 1 0.018225 -0.013049 0.000935 0.000000 0.000000 0.000000
# 2 -0.013049 0.033029 -0.006101 0.000000 0.000000 0.000000
# 3 0.000935 -0.006101 0.016285 0.000000 0.000000 0.000000
# 4 0.000000 0.000000 0.000000 0.084962 0.000000 0.000000
# 5 0.000000 0.000000 0.000000 0.000000 0.041841 0.000000
# 6 0.000000 0.000000 0.000000 0.000000 0.000000 0.041109
#
#
# Mechanical properties :
#
#
# Convention : Reuss Voigt Hill
#
# Bulk Modulus (GPa) = 32.14503 33.26246 32.70375
# Shear Modulus (GPa) = 17.71477 20.99998 19.35737
#
# Velocity S-wave (km/s) = 3.08141 3.35499 3.22111
# Velocity P-wave (km/s) = 5.46716 5.73033 5.60029
#
# Compressibility (1/GPa) = 0.03110901
#
# Stress axis : x y z
#
# Youngs Moduli (GPa) = 54.87116 30.27642 61.40451
#
# Poissons Ratio (x) = 0.39508 -0.05740
# Poissons Ratio (y) = 0.71602 0.37460
# Poissons Ratio (z) = -0.05129 0.18470
#
# Static dielectric constant tensor:
#      x y z
#    x 1.651320 0.000000 0.000000 
#    y 0.000000 1.636630 0.000000 
#    z 0.000000 0.000000 1.694530 
# 
# From -- ./inp_files/9575.got.cif
#   From: 2010.05.17/outbox.cif.g08.bks.cpg/sg59_5_cif.got.tgz:9575.got - 2010.06.03 14:40:33.
