data_PCOD9452769
_publ_section_title
;
Structure prediction by ZEFSAII (Michael W. Deem and Ramdas Pophale) SiO2 
 PCOD9452769
Probable space group: P M M N
;
_chemical_formula_sum "Si O2"
_cell_formula_units_Z 64
_cell_length_a 18.074962
_cell_length_b 14.779658
_cell_length_c 12.348859
_cell_angle_alpha 90.000000
_cell_angle_beta 90.000000
_cell_angle_gamma 90.000000
_cell_volume 3298.895887
_symmetry_space_group_name_H-M "P M M N"
_symmetry_group_IT_number 59
_space_group.IT_coordinate_system_code '2'
_symmetry_cell_setting 'orthorhombic'
loop_
_space_group_symop_operation_xyz
x,y,z
1/2-x,1/2-y,z
1/2+x,-y,-z
-x,1/2+y,-z
-x,-y,-z
1/2+x,1/2+y,-z
1/2-x,y,z
x,1/2-y,z
loop_
_atom_site_type_symbol
_atom_site_label
_atom_site_fract_x
_atom_site_fract_y
_atom_site_fract_z
Si Si1 0.437491 0.558813 0.439824
Si Si2 0.163334 0.647809 0.823115
Si Si3 0.334396 0.502247 0.248612
Si Si4 0.667381 0.856278 0.931185
Si Si5 0.160818 0.517789 0.631431
Si Si6 0.867850 0.350934 0.935126
Si Si7 0.059224 0.143848 0.691335
Si Si8 0.527074 0.588150 0.067779
O O1 0.500000 0.500000 0.500000
O O2 0.394502 0.509926 0.342129
O O3 0.374517 0.572021 0.530254
O O4 0.485809 0.637361 0.383782
O O5 0.250000 0.656457 0.799643
O O6 0.130661 0.750000 0.816222
O O7 0.136031 0.575149 0.737118
O O8 0.156937 0.615480 0.946806
O O9 0.250000 0.506263 0.290234
O O10 0.343943 0.411824 0.178656
O O11 0.345556 0.582763 0.161202
O O12 0.750000 0.880276 0.972582
O O13 0.665524 0.750000 0.910546
O O14 0.602730 0.880767 0.013225
O O15 0.250000 0.512175 0.625825
O O16 0.124251 0.417632 0.638612
O O17 0.838240 0.250000 0.918558
O O18 0.956236 0.347794 0.943325
O O19 0.077518 0.250000 0.709787
O O20 0.040730 0.091657 0.803568
O O21 0.500000 0.500000 0.000000
#
# Coordination Sequence:
#
# PCOD9452769 Si02
#       8
#     8   8   8   8   8   8   8   8
#     4  10  22  42  62  84 117 160 212 262 315 365
#     4   9  19  36  57  86 122 158 202 257 318 382
#     4  11  22  38  62  90 122 161 206 259 318 381
#     4  10  22  39  59  88 126 165 205 252 310 379
#     4  10  22  40  64  89 119 162 214 265 319 379
#     4  11  21  35  58  89 124 161 200 251 313 382
#     4  11  23  39  60  89 128 167 207 262 321 383
#     4  12  21  37  60  89 125 168 209 251 305 373
#
# _framework density 19.400431000000001
#
# number of rings (size 3 to 8) (size 9 to 14) (size 15 to 20)
#    0.000    1.500    2.500    2.625    0.000    3.000 
#    0.000    2.500    0.000    5.250    0.000    0.000 
#    0.000    0.000    0.000    0.000    0.000    0.000 
#
# Total GULP energy -356771.701810 kJ/mol
# GULP energy per Si atom -5574.557841 kJ/mol
# Density = 1.935627 g / cm^3
# Si number density = 19.400431 Si / 1000 Ang^3
#
#
#
# Elastic Constant Matrix: (Units=GPa)
#
#
# Indices 1 2 3 4 5 6 
#
# 1 108.8674 39.4585 41.0282 0.0000 0.0000 0.0000
# 2 39.4585 74.4126 47.0917 0.0000 0.0000 0.0000
# 3 41.0282 47.0917 99.9522 0.0000 0.0000 0.0000
# 4 0.0000 0.0000 0.0000 2.8104 0.0000 0.0000
# 5 0.0000 0.0000 0.0000 0.0000 38.1710 0.0000
# 6 0.0000 0.0000 0.0000 0.0000 0.0000 24.8113
#
#
#
# Elastic Compliance Matrix: (Units=1/GPa)
#
#
# Indices 1 2 3 4 5 6 
#
# 1 0.011867 -0.004574 -0.002716 0.000000 0.000000 0.000000
# 2 -0.004574 0.020910 -0.007974 0.000000 0.000000 0.000000
# 3 -0.002716 -0.007974 0.014877 0.000000 0.000000 0.000000
# 4 0.000000 0.000000 0.000000 0.355817 0.000000 0.000000
# 5 0.000000 0.000000 0.000000 0.000000 0.026198 0.000000
# 6 0.000000 0.000000 0.000000 0.000000 0.000000 0.040304
#
#
# Mechanical properties :
#
#
# Convention : Reuss Voigt Hill
#
# Bulk Modulus (GPa) = 58.39242 59.82100 59.10671
# Shear Modulus (GPa) = 9.87733 23.53547 16.70640
#
# Velocity S-wave (km/s) = 2.25884 3.48680 2.93769
# Velocity P-wave (km/s) = 6.08005 6.86383 6.48379
#
# Compressibility (1/GPa) = 0.01712551
#
# Stress axis : x y z
#
# Youngs Moduli (GPa) = 84.26849 47.82317 67.21864
#
# Poissons Ratio (x) = 0.21872 0.18258
# Poissons Ratio (y) = 0.38541 0.53603
# Poissons Ratio (z) = 0.22890 0.38136
#
# Static dielectric constant tensor:
#      x y z
#    x 1.856650 0.000000 0.000000 
#    y 0.000000 1.694750 0.000000 
#    z 0.000000 0.000000 1.687540 
# 
# From -- ./inp_files/17856.got.cif
#   From: 2010.05.17/outbox.cif.g08.bks.cpg/sg59_9_cif.got.tgz:17856.got - 2010.06.03 14:40:33.
