data_PCOD9452058
_publ_section_title
;
Structure prediction by ZEFSAII (Michael W. Deem and Ramdas Pophale) SiO2 
 PCOD9452058
Probable space group: P M M N
;
_chemical_formula_sum "Si O2"
_cell_formula_units_Z 58
_cell_length_a 17.115522
_cell_length_b 9.538350
_cell_length_c 17.949728
_cell_angle_alpha 90.000000
_cell_angle_beta 90.000000
_cell_angle_gamma 90.000000
_cell_volume 2930.362010
_symmetry_space_group_name_H-M "P M M N"
_symmetry_group_IT_number 59
_space_group.IT_coordinate_system_code '2'
_symmetry_cell_setting 'orthorhombic'
loop_
_space_group_symop_operation_xyz
x,y,z
1/2-x,1/2-y,z
1/2+x,-y,-z
-x,1/2+y,-z
-x,-y,-z
1/2+x,1/2+y,-z
1/2-x,y,z
x,1/2-y,z
loop_
_atom_site_type_symbol
_atom_site_label
_atom_site_fract_x
_atom_site_fract_y
_atom_site_fract_z
Si Si1 0.549354 0.592034 0.377088
Si Si2 0.154570 0.412158 0.053307
Si Si3 0.341885 0.412142 0.766405
Si Si4 0.596259 0.909828 0.661691
Si Si5 0.167439 0.460137 0.493313
Si Si6 0.344603 0.912412 0.198837
Si Si7 0.345415 0.588376 0.909022
Si Si8 0.750000 0.250000 0.507638
O O1 0.516241 0.750000 0.371372
O O2 0.609474 0.572337 0.308756
O O3 0.483486 0.476144 0.368835
O O4 0.597030 0.579289 0.453345
O O5 0.250000 0.410532 0.052887
O O6 0.129019 0.250000 0.055071
O O7 0.130584 0.500397 0.125907
O O8 0.129389 0.494522 0.979106
O O9 0.250000 0.438569 0.751937
O O10 0.348873 0.250000 0.791913
O O11 0.369058 0.515388 0.831776
O O12 0.587379 0.750000 0.687492
O O13 0.653549 0.913736 0.591021
O O14 0.625812 0.008288 0.728116
O O15 0.250000 0.401697 0.522853
O O16 0.182968 0.626171 0.492444
O O17 0.250000 0.911951 0.200292
O O18 0.370425 0.750000 0.196180
O O19 0.250000 0.588120 0.909602
O O20 0.370586 0.750000 0.914780
#
# Coordination Sequence:
#
# PCOD9452058 Si02
#       8
#     8   8   8   8   8   8   8   2
#     4  11  24  40  61  84 117 155 193 237 285 341
#     4   9  16  28  49  78 112 146 185 233 283 335
#     4   9  18  34  55  81 111 148 190 234 283 335
#     4  12  26  39  59  85 117 153 193 238 283 340
#     4  10  23  41  65  88 116 148 188 232 286 338
#     4  10  21  36  58  83 114 151 190 237 288 342
#     4   9  16  27  46  77 112 146 185 231 283 334
#     4   8  24  40  66  92 116 148 178 248 276 352
#
# _framework density 19.792776
#
# number of rings (size 3 to 8) (size 9 to 14) (size 15 to 20)
#    0.414    1.655    0.000    3.310    2.897    6.897 
#    0.000    0.000    0.000    0.828    0.000    0.000 
#    0.000    0.000    0.000    0.000    0.000    0.000 
#
# Total GULP energy -323223.249822 kJ/mol
# GULP energy per Si atom -5572.814652 kJ/mol
# Density = 1.974773 g / cm^3
# Si number density = 19.792776 Si / 1000 Ang^3
#
#
#
# Elastic Constant Matrix: (Units=GPa)
#
#
# Indices 1 2 3 4 5 6 
#
# 1 24.3141 19.1399 3.8364 0.0000 0.0000 0.0000
# 2 19.1399 167.4422 46.2383 0.0000 0.0000 0.0000
# 3 3.8364 46.2383 99.0169 0.0000 0.0000 0.0000
# 4 0.0000 0.0000 0.0000 -45.6754 0.0000 0.0000
# 5 0.0000 0.0000 0.0000 0.0000 -16.0434 0.0000
# 6 0.0000 0.0000 0.0000 0.0000 0.0000 -18.7315
#
#
#
# Elastic Compliance Matrix: (Units=1/GPa)
#
#
# Indices 1 2 3 4 5 6 
#
# 1 0.045245 -0.005382 0.000760 0.000000 0.000000 0.000000
# 2 -0.005382 0.007496 -0.003292 0.000000 0.000000 0.000000
# 3 0.000760 -0.003292 0.011607 0.000000 0.000000 0.000000
# 4 0.000000 0.000000 0.000000 -0.021894 0.000000 0.000000
# 5 0.000000 0.000000 0.000000 0.000000 -0.062331 0.000000
# 6 0.000000 0.000000 0.000000 0.000000 0.000000 -0.053386
#
#
# Mechanical properties :
#
#
# Convention : Reuss Voigt Hill
#
# Bulk Modulus (GPa) = 20.60964 47.68915 34.14940
# Shear Modulus (GPa) = -121.18011 -1.31948 -61.24979
#
# Velocity S-wave (km/s) = -7.83309 -0.81737 -5.56891
# Velocity P-wave (km/s) = 8.44834 4.82242 4.90503
#
# Compressibility (1/GPa) = 0.04852097
#
# Stress axis : x y z
#
# Youngs Moduli (GPa) = 22.10198 133.39581 86.15359
#
# Poissons Ratio (x) = 0.71790 -0.06549
# Poissons Ratio (y) = 0.11895 0.28363
# Poissons Ratio (z) = -0.01680 0.43916
#
# Static dielectric constant tensor:
#      x y z
#    x 1.711460 0.000000 0.000000 
#    y 0.000000 1.686260 0.000000 
#    z 0.000000 0.000000 1.671810 
# 
# From -- ./inp_files/27904.got.cif
#   From: 2010.05.17/outbox.cif.g08.bks.cpg/sg59_14_cif.got.tgz:27904.got - 2010.06.03 14:40:33.
