data_PCOD9452899
_publ_section_title
;
Structure prediction by ZEFSAII (Michael W. Deem and Ramdas Pophale) SiO2 
 PCOD9452899
Probable space group: P M M N
;
_chemical_formula_sum "Si O2"
_cell_formula_units_Z 56
_cell_length_a 14.819177
_cell_length_b 21.669499
_cell_length_c 9.328520
_cell_angle_alpha 90.000000
_cell_angle_beta 90.000000
_cell_angle_gamma 90.000000
_cell_volume 2995.612974
_symmetry_space_group_name_H-M "P M M N"
_symmetry_group_IT_number 59
_space_group.IT_coordinate_system_code '2'
_symmetry_cell_setting 'orthorhombic'
loop_
_space_group_symop_operation_xyz
x,y,z
1/2-x,1/2-y,z
1/2+x,-y,-z
-x,1/2+y,-z
-x,-y,-z
1/2+x,1/2+y,-z
1/2-x,y,z
x,1/2-y,z
loop_
_atom_site_type_symbol
_atom_site_label
_atom_site_fract_x
_atom_site_fract_y
_atom_site_fract_z
Si Si1 0.000961 0.930930 0.937952
Si Si2 0.587162 0.536968 0.445391
Si Si3 0.643488 0.615469 0.721371
Si Si4 0.356290 0.822321 0.440124
Si Si5 0.641642 0.750000 0.285477
Si Si6 0.014471 0.138456 0.771835
Si Si7 0.358987 0.250000 0.373844
Si Si8 0.850679 0.416655 0.306607
O O1 0.080408 0.921578 0.823468
O O2 0.910308 0.916212 0.849611
O O3 0.009974 0.885211 0.071460
O O4 0.000000 0.000000 0.000000
O O5 0.500000 0.500000 0.500000
O O6 0.626659 0.576971 0.575513
O O7 0.556428 0.582440 0.319722
O O8 0.649704 0.483002 0.384849
O O9 0.750000 0.617134 0.749787
O O10 0.609668 0.685766 0.695197
O O11 0.250000 0.833784 0.403932
O O12 0.365279 0.750000 0.475972
O O13 0.426255 0.838008 0.313827
O O14 0.378907 0.865816 0.575379
O O15 0.750000 0.750000 0.265566
O O16 0.591265 0.809342 0.222830
O O17 0.621652 0.750000 0.456582
O O18 0.250000 0.250000 0.362530
O O19 0.750000 0.400984 0.257607
#
# Coordination Sequence:
#
# PCOD9452899 Si02
#       8
#     8   8   8   8   4   8   4   8
#     4  12  26  44  58  90 136 171 209 253 316 388
#     4  12  20  39  66  96 125 162 216 265 308 377
#     4  11  23  41  67  95 126 167 211 263 317 375
#     4  10  22  43  70  98 122 158 217 274 321 372
#     4  11  24  41  66 102 131 163 215 264 318 386
#     4  12  23  40  67  92 131 173 205 257 323 377
#     4   9  20  39  65  96 121 153 210 262 309 368
#     4  11  24  43  68  94 124 166 216 272 321 372
#
# _framework density 18.694004
#
# number of rings (size 3 to 8) (size 9 to 14) (size 15 to 20)
#    0.000    0.857    6.429    0.429    0.000    2.857 
#    1.286    0.714    0.000    0.000    0.000    0.000 
#    0.000    0.000    0.000    0.000    0.000    0.000 
#
# Total GULP energy -312957.966483 kJ/mol
# GULP energy per Si atom -5588.535116 kJ/mol
# Density = 1.865146 g / cm^3
# Si number density = 18.694004 Si / 1000 Ang^3
#
#
#
# Elastic Constant Matrix: (Units=GPa)
#
#
# Indices 1 2 3 4 5 6 
#
# 1 113.4443 52.2673 67.2103 0.0000 0.0000 0.0000
# 2 52.2673 139.5943 76.1486 0.0000 0.0000 0.0000
# 3 67.2103 76.1486 124.1177 0.0000 0.0000 0.0000
# 4 0.0000 0.0000 0.0000 29.8076 0.0000 0.0000
# 5 0.0000 0.0000 0.0000 0.0000 18.5630 0.0000
# 6 0.0000 0.0000 0.0000 0.0000 0.0000 27.2271
#
#
#
# Elastic Compliance Matrix: (Units=1/GPa)
#
#
# Indices 1 2 3 4 5 6 
#
# 1 0.013203 -0.001568 -0.006187 0.000000 0.000000 0.000000
# 2 -0.001568 0.010953 -0.005871 0.000000 0.000000 0.000000
# 3 -0.006187 -0.005871 0.015009 0.000000 0.000000 0.000000
# 4 0.000000 0.000000 0.000000 0.033549 0.000000 0.000000
# 5 0.000000 0.000000 0.000000 0.000000 0.053871 0.000000
# 6 0.000000 0.000000 0.000000 0.000000 0.000000 0.036728
#
#
# Mechanical properties :
#
#
# Convention : Reuss Voigt Hill
#
# Bulk Modulus (GPa) = 83.94423 85.37874 84.66149
# Shear Modulus (GPa) = 25.70204 27.22154 26.46179
#
# Velocity S-wave (km/s) = 3.71196 3.82011 3.76643
# Velocity P-wave (km/s) = 7.96074 8.07642 8.01879
#
# Compressibility (1/GPa) = 0.01191267
#
# Stress axis : x y z
#
# Youngs Moduli (GPa) = 75.73906 91.29589 66.62565
#
# Poissons Ratio (x) = 0.14319 0.41224
# Poissons Ratio (y) = 0.11879 0.39115
# Poissons Ratio (z) = 0.46863 0.53598
#
# Static dielectric constant tensor:
#      x y z
#    x 1.694880 0.000000 0.000000 
#    y 0.000000 1.653950 0.000000 
#    z 0.000000 0.000000 1.613500 
# 
# From -- ./inp_files/9406.got.cif
#   From: 2010.05.17/outbox.cif.g08.bks.cpg/sg59_5_cif.got.tgz:9406.got - 2010.06.03 14:40:33.
