data_PCOD9452271
_publ_section_title
;
Structure prediction by ZEFSAII (Michael W. Deem and Ramdas Pophale) SiO2 
 PCOD9452271
Probable space group: P M M N
;
_chemical_formula_sum "Si O2"
_cell_formula_units_Z 56
_cell_length_a 13.489956
_cell_length_b 9.519572
_cell_length_c 21.064267
_cell_angle_alpha 90.000000
_cell_angle_beta 90.000000
_cell_angle_gamma 90.000000
_cell_volume 2705.043834
_symmetry_space_group_name_H-M "P M M N"
_symmetry_group_IT_number 59
_space_group.IT_coordinate_system_code '2'
_symmetry_cell_setting 'orthorhombic'
loop_
_space_group_symop_operation_xyz
x,y,z
1/2-x,1/2-y,z
1/2+x,-y,-z
-x,1/2+y,-z
-x,-y,-z
1/2+x,1/2+y,-z
1/2-x,y,z
x,1/2-y,z
loop_
_atom_site_type_symbol
_atom_site_label
_atom_site_fract_x
_atom_site_fract_y
_atom_site_fract_z
Si Si1 0.439532 0.414425 0.286585
Si Si2 0.948482 0.414019 0.593299
Si Si3 0.129513 0.089383 0.903279
Si Si4 0.863490 0.414215 0.221420
Si Si5 0.629105 0.411321 0.975767
Si Si6 0.631018 0.409790 0.831753
Si Si7 0.864325 0.413973 0.453856
O O1 0.416399 0.250000 0.291799
O O2 0.405292 0.501058 0.347413
O O3 0.558598 0.431050 0.277861
O O4 0.398164 0.481119 0.222097
O O5 0.959653 0.250000 0.608864
O O6 0.054299 0.484721 0.576727
O O7 0.882479 0.424936 0.529783
O O8 0.250000 0.089056 0.904677
O O9 0.096985 0.250000 0.901113
O O10 0.105100 0.006834 0.838872
O O11 0.097354 0.013354 0.967838
O O12 0.750000 0.448020 0.238786
O O13 0.866593 0.250000 0.202242
O O14 0.750000 0.414186 0.975728
O O15 0.600790 0.250000 0.989424
O O16 0.598643 0.446677 0.903618
O O17 0.750000 0.405363 0.833548
O O18 0.597146 0.250000 0.816788
O O19 0.750000 0.445736 0.438565
O O20 0.884112 0.250000 0.436454
#
# Coordination Sequence:
#
# PCOD9452271 Si02
#       7
#     8   8   8   8   8   8   8
#     4  11  23  37  55  81 112 147 186 227 272 320
#     4  10  21  37  58  86 118 150 184 223 268 318
#     4   9  16  26  45  74 102 128 166 222 282 331
#     4   9  19  36  54  71  98 140 185 225 270 328
#     4   8  14  27  48  71  96 131 174 218 270 333
#     4   9  19  36  56  77 104 142 185 227 275 331
#     4   9  19  38  63  88 115 148 184 222 265 314
#
# _framework density 20.702069000000002
#
# number of rings (size 3 to 8) (size 9 to 14) (size 15 to 20)
#    0.000    2.714    0.000    2.143    0.000    5.714 
#    0.000    5.000    0.000    0.000    0.000    0.000 
#    0.000    0.000    0.000    0.000    0.000    0.000 
#
# Total GULP energy -312842.615429 kJ/mol
# GULP energy per Si atom -5586.475276 kJ/mol
# Density = 2.065495 g / cm^3
# Si number density = 20.702069 Si / 1000 Ang^3
#
#
#
# Elastic Constant Matrix: (Units=GPa)
#
#
# Indices 1 2 3 4 5 6 
#
# 1 45.5184 4.3599 -10.2598 0.0000 0.0000 0.0000
# 2 4.3599 93.4937 54.8007 0.0000 0.0000 0.0000
# 3 -10.2598 54.8007 80.4242 0.0000 0.0000 0.0000
# 4 0.0000 0.0000 0.0000 36.3866 0.0000 0.0000
# 5 0.0000 0.0000 0.0000 0.0000 9.9779 0.0000
# 6 0.0000 0.0000 0.0000 0.0000 0.0000 21.9557
#
#
#
# Elastic Compliance Matrix: (Units=1/GPa)
#
#
# Indices 1 2 3 4 5 6 
#
# 1 0.023858 -0.004823 0.006330 0.000000 0.000000 0.000000
# 2 -0.004823 0.018783 -0.013414 0.000000 0.000000 0.000000
# 3 0.006330 -0.013414 0.022382 0.000000 0.000000 0.000000
# 4 0.000000 0.000000 0.000000 0.027483 0.000000 0.000000
# 5 0.000000 0.000000 0.000000 0.000000 0.100221 0.000000
# 6 0.000000 0.000000 0.000000 0.000000 0.000000 0.045546
#
#
# Mechanical properties :
#
#
# Convention : Reuss Voigt Hill
#
# Bulk Modulus (GPa) = 24.26666 35.24866 29.75766
# Shear Modulus (GPa) = 18.12750 25.03307 21.58029
#
# Velocity S-wave (km/s) = 2.96233 3.48114 3.23216
# Velocity P-wave (km/s) = 4.84229 5.76380 5.32302
#
# Compressibility (1/GPa) = 0.04120881
#
# Stress axis : x y z
#
# Youngs Moduli (GPa) = 41.91507 53.23832 44.67886
#
# Poissons Ratio (x) = 0.25675 -0.28280
# Poissons Ratio (y) = 0.20214 0.59933
# Poissons Ratio (z) = -0.26531 0.71415
#
# Static dielectric constant tensor:
#      x y z
#    x 1.801310 0.000000 0.000000 
#    y 0.000000 1.693090 0.000000 
#    z 0.000000 0.000000 1.711670 
# 
# From -- ./inp_files/29086.got.cif
#   From: 2010.05.17/outbox.cif.g08.bks.cpg/sg59_15_cif.got.tgz:29086.got - 2010.06.03 14:40:33.
