data_PCOD9452787
_publ_section_title
;
Structure prediction by ZEFSAII (Michael W. Deem and Ramdas Pophale) SiO2 
 PCOD9452787
Probable space group: P M M N
;
_chemical_formula_sum "Si O2"
_cell_formula_units_Z 48
_cell_length_a 29.119812
_cell_length_b 8.998623
_cell_length_c 10.176221
_cell_angle_alpha 90.000000
_cell_angle_beta 90.000000
_cell_angle_gamma 90.000000
_cell_volume 2666.558736
_symmetry_space_group_name_H-M "P M M N"
_symmetry_group_IT_number 59
_space_group.IT_coordinate_system_code '2'
_symmetry_cell_setting 'orthorhombic'
loop_
_space_group_symop_operation_xyz
x,y,z
1/2-x,1/2-y,z
1/2+x,-y,-z
-x,1/2+y,-z
-x,-y,-z
1/2+x,1/2+y,-z
1/2-x,y,z
x,1/2-y,z
loop_
_atom_site_type_symbol
_atom_site_label
_atom_site_fract_x
_atom_site_fract_y
_atom_site_fract_z
Si Si1 0.196468 0.929416 0.512724
Si Si2 0.479640 0.428253 0.629923
Si Si3 0.876288 0.929370 0.289803
Si Si4 0.872385 0.572526 0.982915
Si Si5 0.466295 0.572053 0.106046
Si Si6 0.695008 0.076546 0.787467
O O1 0.250000 0.971855 0.533971
O O2 0.194309 0.750000 0.520608
O O3 0.183338 0.969754 0.362314
O O4 0.162266 0.000608 0.617163
O O5 0.500000 0.500000 0.500000
O O6 0.478874 0.250000 0.615670
O O7 0.427471 0.475247 0.664042
O O8 0.512716 0.464005 0.751954
O O9 0.873772 0.750000 0.298127
O O10 0.869511 0.970383 0.136699
O O11 0.877921 0.750000 0.977771
O O12 0.916390 0.494640 0.918436
O O13 0.829194 0.520443 0.897764
O O14 0.465707 0.750000 0.091504
O O15 0.500000 0.500000 0.000000
O O16 0.750000 0.068908 0.797946
O O17 0.681542 0.250000 0.803306
#
# Coordination Sequence:
#
# PCOD9452787 Si02
#       6
#     8   8   8   8   8   8
#     4   9  20  39  61  85 114 149 190 236 287 343
#     4  10  23  41  58  83 118 152 191 237 283 338
#     4  10  22  40  57  82 119 152 188 236 286 336
#     4  11  23  39  59  86 119 154 194 237 286 345
#     4  11  22  40  62  85 117 154 193 237 286 339
#     4   9  20  40  62  86 117 150 189 239 291 343
#
# _framework density 18.000729
#
# number of rings (size 3 to 8) (size 9 to 14) (size 15 to 20)
#    0.000    2.000    1.667    2.000    2.333    5.333 
#    0.000    5.000    0.000    0.000    0.000    0.000 
#    0.000    0.000    0.000    0.000    0.000    0.000 
#
# Total GULP energy -268019.661047 kJ/mol
# GULP energy per Si atom -5583.742938 kJ/mol
# Density = 1.795976 g / cm^3
# Si number density = 18.000729 Si / 1000 Ang^3
#
#
#
# Elastic Constant Matrix: (Units=GPa)
#
#
# Indices 1 2 3 4 5 6 
#
# 1 83.0618 33.3224 89.2227 0.0000 0.0000 0.0000
# 2 33.3224 36.8588 63.8001 0.0000 0.0000 0.0000
# 3 89.2227 63.8001 185.0463 0.0000 0.0000 0.0000
# 4 0.0000 0.0000 0.0000 36.5586 0.0000 0.0000
# 5 0.0000 0.0000 0.0000 0.0000 37.2343 0.0000
# 6 0.0000 0.0000 0.0000 0.0000 0.0000 37.4955
#
#
#
# Elastic Compliance Matrix: (Units=1/GPa)
#
#
# Indices 1 2 3 4 5 6 
#
# 1 0.025252 -0.004350 -0.010676 0.000000 0.000000 0.000000
# 2 -0.004350 0.068036 -0.021360 0.000000 0.000000 0.000000
# 3 -0.010676 -0.021360 0.017916 0.000000 0.000000 0.000000
# 4 0.000000 0.000000 0.000000 0.027353 0.000000 0.000000
# 5 0.000000 0.000000 0.000000 0.000000 0.026857 0.000000
# 6 0.000000 0.000000 0.000000 0.000000 0.000000 0.026670
#
#
# Mechanical properties :
#
#
# Convention : Reuss Voigt Hill
#
# Bulk Modulus (GPa) = 26.01976 75.29526 50.65751
# Shear Modulus (GPa) = 18.00719 30.16578 24.08648
#
# Velocity S-wave (km/s) = 3.16628 4.09811 3.66195
# Velocity P-wave (km/s) = 5.27762 8.01950 6.78844
#
# Compressibility (1/GPa) = 0.03843233
#
# Stress axis : x y z
#
# Youngs Moduli (GPa) = 39.60068 14.69809 55.81601
#
# Poissons Ratio (x) = 0.06394 0.59588
# Poissons Ratio (y) = 0.17227 1.19223
# Poissons Ratio (z) = 0.42277 0.31395
#
# Static dielectric constant tensor:
#      x y z
#    x 1.591310 0.000000 0.000000 
#    y 0.000000 1.604680 0.000000 
#    z 0.000000 0.000000 1.596440 
# 
# From -- ./inp_files/6201.got.cif
#   From: 2010.05.17/outbox.cif.g08.bks.cpg/sg59_4_cif.got.tgz:6201.got - 2010.06.03 14:40:33.
