data_PCOD9452440
_publ_section_title
;
Structure prediction by ZEFSAII (Michael W. Deem and Ramdas Pophale) SiO2 
 PCOD9452440
Probable space group: P M M N
;
_chemical_formula_sum "Si O2"
_cell_formula_units_Z 64
_cell_length_a 14.608446
_cell_length_b 8.823170
_cell_length_c 26.225130
_cell_angle_alpha 90.000000
_cell_angle_beta 90.000000
_cell_angle_gamma 90.000000
_cell_volume 3380.230501
_symmetry_space_group_name_H-M "P M M N"
_symmetry_group_IT_number 59
_space_group.IT_coordinate_system_code '2'
_symmetry_cell_setting 'orthorhombic'
loop_
_space_group_symop_operation_xyz
x,y,z
1/2-x,1/2-y,z
1/2+x,-y,-z
-x,1/2+y,-z
-x,-y,-z
1/2+x,1/2+y,-z
1/2-x,y,z
x,1/2-y,z
loop_
_atom_site_type_symbol
_atom_site_label
_atom_site_fract_x
_atom_site_fract_y
_atom_site_fract_z
Si Si1 0.534745 0.067862 0.272238
Si Si2 0.965994 0.567481 0.074974
Si Si3 0.354142 0.582336 0.418240
Si Si4 0.904838 0.928947 0.482440
Si Si5 0.643296 0.069630 0.373408
Si Si6 0.857175 0.933212 0.177065
Si Si7 0.143348 0.067062 0.027793
Si Si8 0.856390 0.066036 0.691337
O O1 0.531859 0.250000 0.271351
O O2 0.583496 0.019324 0.325313
O O3 0.595812 0.006768 0.226119
O O4 0.432025 0.001336 0.271139
O O5 0.974792 0.750000 0.074190
O O6 0.915282 0.523271 0.127007
O O7 0.066922 0.497829 0.066507
O O8 0.899419 0.525187 0.027574
O O9 0.250000 0.605831 0.402576
O O10 0.395249 0.750000 0.428563
O O11 0.348700 0.485767 0.468964
O O12 0.390802 0.514030 0.365615
O O13 0.904626 0.750000 0.480521
O O14 0.878665 0.992259 0.427348
O O15 0.000000 0.000000 0.500000
O O16 0.750000 0.043506 0.361704
O O17 0.629679 0.250000 0.380517
O O18 0.750000 0.975471 0.172488
O O19 0.860879 0.750000 0.181409
O O20 0.250000 0.017979 0.033448
O O21 0.143033 0.250000 0.031165
O O22 0.750000 0.021906 0.701328
O O23 0.860586 0.250000 0.691342
#
# Coordination Sequence:
#
# PCOD9452440 Si02
#       8
#     8   8   8   8   8   8   8   8
#     4  11  23  38  58  84 111 140 179 229 282 331
#     4   9  18  33  54  82 114 149 192 236 276 323
#     4   9  18  34  55  77 101 128 159 201 256 316
#     4  12  24  35  50  74 103 135 173 215 261 317
#     4  10  22  40  58  77 107 144 177 216 272 331
#     4  10  21  38  60  83 109 146 190 233 277 326
#     4   9  17  31  53  82 118 156 190 228 276 327
#     4   9  19  37  60  83 107 139 179 221 269 329
#
# _framework density 18.933619
#
# number of rings (size 3 to 8) (size 9 to 14) (size 15 to 20)
#    0.000    2.125    0.000    4.125    0.000    8.750 
#    0.000    1.875    0.000    3.000    0.000    0.000 
#    0.000    0.000    0.000    0.000    0.000    0.000 
#
# Total GULP energy -356694.307957 kJ/mol
# GULP energy per Si atom -5573.348562 kJ/mol
# Density = 1.889053 g / cm^3
# Si number density = 18.933619 Si / 1000 Ang^3
#
#
#
# Elastic Constant Matrix: (Units=GPa)
#
#
# Indices 1 2 3 4 5 6 
#
# 1 160.0315 45.8293 75.8203 0.0000 0.0000 0.0000
# 2 45.8293 26.4200 30.0873 0.0000 0.0000 0.0000
# 3 75.8203 30.0873 100.4690 0.0000 0.0000 0.0000
# 4 0.0000 0.0000 0.0000 25.4409 0.0000 0.0000
# 5 0.0000 0.0000 0.0000 0.0000 31.8581 0.0000
# 6 0.0000 0.0000 0.0000 0.0000 0.0000 25.8377
#
#
#
# Elastic Compliance Matrix: (Units=1/GPa)
#
#
# Indices 1 2 3 4 5 6 
#
# 1 0.013870 -0.018421 -0.004950 0.000000 0.000000 0.000000
# 2 -0.018421 0.081906 -0.010626 0.000000 0.000000 0.000000
# 3 -0.004950 -0.010626 0.016871 0.000000 0.000000 0.000000
# 4 0.000000 0.000000 0.000000 0.039307 0.000000 0.000000
# 5 0.000000 0.000000 0.000000 0.000000 0.031389 0.000000
# 6 0.000000 0.000000 0.000000 0.000000 0.000000 0.038703
#
#
# Mechanical properties :
#
#
# Convention : Reuss Voigt Hill
#
# Bulk Modulus (GPa) = 22.39597 65.59937 43.99767
# Shear Modulus (GPa) = 16.39747 25.63959 21.01853
#
# Velocity S-wave (km/s) = 2.94607 3.68392 3.33546
# Velocity P-wave (km/s) = 4.84012 7.26755 6.17430
#
# Compressibility (1/GPa) = 0.04465090
#
# Stress axis : x y z
#
# Youngs Moduli (GPa) = 72.10053 12.20915 59.27210
#
# Poissons Ratio (x) = 0.22491 0.29341
# Poissons Ratio (y) = 1.32818 0.62985
# Poissons Ratio (z) = 0.35691 0.12974
#
# Static dielectric constant tensor:
#      x y z
#    x 1.585730 0.000000 0.000000 
#    y 0.000000 1.653280 0.000000 
#    z 0.000000 0.000000 1.871570 
# 
# From -- ./inp_files/32139.got.cif
#   From: 2010.05.17/outbox.cif.g08.bks.cpg/sg59_17_cif.got.tgz:32139.got - 2010.06.03 14:40:33.
