data_PCOD9452558
_publ_section_title
;
Structure prediction by ZEFSAII (Michael W. Deem and Ramdas Pophale) SiO2 
 PCOD9452558
Probable space group: P M M N
;
_chemical_formula_sum "Si O2"
_cell_formula_units_Z 56
_cell_length_a 9.329820
_cell_length_b 21.743228
_cell_length_c 13.989333
_cell_angle_alpha 90.000000
_cell_angle_beta 90.000000
_cell_angle_gamma 90.000000
_cell_volume 2837.881737
_symmetry_space_group_name_H-M "P M M N"
_symmetry_group_IT_number 59
_space_group.IT_coordinate_system_code '2'
_symmetry_cell_setting 'orthorhombic'
loop_
_space_group_symop_operation_xyz
x,y,z
1/2-x,1/2-y,z
1/2+x,-y,-z
-x,1/2+y,-z
-x,-y,-z
1/2+x,1/2+y,-z
1/2-x,y,z
x,1/2-y,z
loop_
_atom_site_type_symbol
_atom_site_label
_atom_site_fract_x
_atom_site_fract_y
_atom_site_fract_z
Si Si1 0.580368 0.318458 0.191683
Si Si2 0.422412 0.316771 0.783237
Si Si3 0.581604 0.121390 0.386281
Si Si4 0.914478 0.935933 0.886557
Si Si5 0.918872 0.363213 0.606875
Si Si6 0.915456 0.942155 0.117189
Si Si7 0.080882 0.496826 0.398612
O O1 0.750000 0.324753 0.170346
O O2 0.533210 0.250000 0.163103
O O3 0.565636 0.326907 0.306312
O O4 0.495230 0.374250 0.144592
O O5 0.250000 0.318521 0.779093
O O6 0.464598 0.250000 0.824071
O O7 0.487513 0.323191 0.677676
O O8 0.468471 0.376815 0.842448
O O9 0.750000 0.103830 0.391359
O O10 0.540573 0.139888 0.494488
O O11 0.491507 0.062346 0.351791
O O12 0.750000 0.935452 0.853201
O O13 0.915481 0.938049 0.002167
O O14 0.992111 0.998663 0.854248
O O15 0.750000 0.348033 0.613835
O O16 0.937633 0.434369 0.640413
O O17 0.750000 0.951519 0.148407
O O18 0.250000 0.486686 0.410820
O O19 0.000000 0.500000 0.500000
#
# Coordination Sequence:
#
# PCOD9452558 Si02
#       7
#     8   8   8   8   8   8   8
#     4  10  22  39  58  83 117 156 195 233 282 346
#     4  10  22  38  56  81 112 149 191 230 275 334
#     4   9  19  35  54  77 108 150 194 233 277 331
#     4  10  21  38  63  91 116 143 184 238 289 340
#     4   9  19  34  52  78 111 147 187 232 280 329
#     4   9  20  40  63  86 114 150 186 227 284 348
#     4   9  17  30  49  75 105 137 180 232 282 330
#
# _framework density 19.733028000000001
#
# number of rings (size 3 to 8) (size 9 to 14) (size 15 to 20)
#    0.000    2.571    0.000    1.714    2.000    6.286 
#    0.000    2.857    0.000    0.000    0.000    0.000 
#    0.000    0.000    0.000    0.000    0.000    0.000 
#
# Total GULP energy -312378.236999 kJ/mol
# GULP energy per Si atom -5578.182804 kJ/mol
# Density = 1.968812 g / cm^3
# Si number density = 19.733028 Si / 1000 Ang^3
#
#
#
# Elastic Constant Matrix: (Units=GPa)
#
#
# Indices 1 2 3 4 5 6 
#
# 1 52.0144 74.1300 17.2359 0.0000 0.0000 0.0000
# 2 74.1300 172.0838 36.2298 0.0000 0.0000 0.0000
# 3 17.2359 36.2298 38.5095 0.0000 0.0000 0.0000
# 4 0.0000 0.0000 0.0000 18.4586 0.0000 0.0000
# 5 0.0000 0.0000 0.0000 0.0000 23.4858 0.0000
# 6 0.0000 0.0000 0.0000 0.0000 0.0000 18.1993
#
#
#
# Elastic Compliance Matrix: (Units=1/GPa)
#
#
# Indices 1 2 3 4 5 6 
#
# 1 0.050013 -0.020989 -0.002638 0.000000 0.000000 0.000000
# 2 -0.020989 0.016055 -0.005710 0.000000 0.000000 0.000000
# 3 -0.002638 -0.005710 0.032521 0.000000 0.000000 0.000000
# 4 0.000000 0.000000 0.000000 0.054175 0.000000 0.000000
# 5 0.000000 0.000000 0.000000 0.000000 0.042579 0.000000
# 6 0.000000 0.000000 0.000000 0.000000 0.000000 0.054947
#
#
# Mechanical properties :
#
#
# Convention : Reuss Voigt Hill
#
# Bulk Modulus (GPa) = 25.05409 57.53324 41.29367
# Shear Modulus (GPa) = 15.51497 21.02952 18.27225
#
# Velocity S-wave (km/s) = 2.80705 3.26805 3.04628
# Velocity P-wave (km/s) = 4.81976 6.59237 5.77449
#
# Compressibility (1/GPa) = 0.03991364
#
# Stress axis : x y z
#
# Youngs Moduli (GPa) = 19.99488 62.28596 30.74964
#
# Poissons Ratio (x) = 1.30732 0.08112
# Poissons Ratio (y) = 0.41967 0.17559
# Poissons Ratio (z) = 0.05275 0.35568
#
# Static dielectric constant tensor:
#      x y z
#    x 1.665420 0.000000 0.000000 
#    y 0.000000 1.716050 0.000000 
#    z 0.000000 0.000000 1.716000 
# 
# From -- ./inp_files/21042.got.cif
#   From: 2010.05.17/outbox.cif.g08.bks.cpg/sg59_11_cif.got.tgz:21042.got - 2010.06.03 14:40:33.
