data_PCOD9452928
_publ_section_title
;
Structure prediction by ZEFSAII (Michael W. Deem and Ramdas Pophale) SiO2 
 PCOD9452928
Probable space group: P M M N
;
_chemical_formula_sum "Si O2"
_cell_formula_units_Z 34
_cell_length_a 22.358832
_cell_length_b 7.533476
_cell_length_c 9.662530
_cell_angle_alpha 90.000000
_cell_angle_beta 90.000000
_cell_angle_gamma 90.000000
_cell_volume 1627.553889
_symmetry_space_group_name_H-M "P M M N"
_symmetry_group_IT_number 59
_space_group.IT_coordinate_system_code '2'
_symmetry_cell_setting 'orthorhombic'
loop_
_space_group_symop_operation_xyz
x,y,z
1/2-x,1/2-y,z
1/2+x,-y,-z
-x,1/2+y,-z
-x,-y,-z
1/2+x,1/2+y,-z
1/2-x,y,z
x,1/2-y,z
loop_
_atom_site_type_symbol
_atom_site_label
_atom_site_fract_x
_atom_site_fract_y
_atom_site_fract_z
Si Si1 0.817368 0.750000 0.252493
Si Si2 0.017252 0.459636 0.157489
Si Si3 0.750000 0.032789 0.748031
Si Si4 0.090504 0.965936 0.646063
Si Si5 0.621774 0.042719 0.652800
Si Si6 0.750000 0.750000 0.983768
O O1 0.750000 0.750000 0.311874
O O2 0.853063 0.574517 0.296144
O O3 0.806469 0.750000 0.087333
O O4 0.018627 0.250000 0.171444
O O5 0.081556 0.522200 0.211185
O O6 0.966467 0.524982 0.263877
O O7 0.000000 0.500000 0.000000
O O8 0.750000 0.250000 0.764410
O O9 0.688981 0.974464 0.671879
O O10 0.750000 0.926045 0.891465
O O11 0.096160 0.750000 0.658571
O O12 0.087466 0.021199 0.484439
O O13 0.629634 0.250000 0.628570
#
# Coordination Sequence:
#
# PCOD9452928 Si02
#       6
#     4   8   4   8   8   2
#     4  10  26  41  66  99 128 174 215 266 320 387
#     4  11  25  40  65  97 129 174 218 270 329 389
#     4  10  24  41  65  95 129 173 215 264 331 390
#     4  10  24  44  66  95 134 169 218 268 330 386
#     4  10  23  43  67  94 129 171 217 272 327 388
#     4  10  26  42  62  98 140 162 220 266 320 384
#
# _framework density 20.890246999999999
#
# number of rings (size 3 to 8) (size 9 to 14) (size 15 to 20)
#    0.353    1.412    0.000    1.412   11.529    1.412 
#    0.000    0.000    0.000    0.000    0.000    0.000 
#    0.000    0.000    0.000    0.000    0.000    0.000 
#
# Total GULP energy -189694.573180 kJ/mol
# GULP energy per Si atom -5579.252152 kJ/mol
# Density = 2.084270 g / cm^3
# Si number density = 20.890247 Si / 1000 Ang^3
#
#
#
# Elastic Constant Matrix: (Units=GPa)
#
#
# Indices 1 2 3 4 5 6 
#
# 1 140.9967 2.0064 50.4748 0.0000 0.0000 0.0000
# 2 2.0064 61.6504 -3.0517 0.0000 0.0000 0.0000
# 3 50.4748 -3.0517 135.0629 0.0000 0.0000 0.0000
# 4 0.0000 0.0000 0.0000 25.7688 0.0000 0.0000
# 5 0.0000 0.0000 0.0000 0.0000 40.4752 0.0000
# 6 0.0000 0.0000 0.0000 0.0000 0.0000 34.8747
#
#
#
# Elastic Compliance Matrix: (Units=1/GPa)
#
#
# Indices 1 2 3 4 5 6 
#
# 1 0.008199 -0.000419 -0.003073 0.000000 0.000000 0.000000
# 2 -0.000419 0.016260 0.000524 0.000000 0.000000 0.000000
# 3 -0.003073 0.000524 0.008564 0.000000 0.000000 0.000000
# 4 0.000000 0.000000 0.000000 0.038807 0.000000 0.000000
# 5 0.000000 0.000000 0.000000 0.000000 0.024706 0.000000
# 6 0.000000 0.000000 0.000000 0.000000 0.000000 0.028674
#
#
# Mechanical properties :
#
#
# Convention : Reuss Voigt Hill
#
# Bulk Modulus (GPa) = 36.91915 48.50768 42.71342
# Shear Modulus (GPa) = 35.66956 39.44246 37.55601
#
# Velocity S-wave (km/s) = 4.13664 4.34992 4.24462
# Velocity P-wave (km/s) = 6.36608 6.96417 6.67183
#
# Compressibility (1/GPa) = 0.02708621
#
# Stress axis : x y z
#
# Youngs Moduli (GPa) = 121.97283 61.50042 116.76304
#
# Poissons Ratio (x) = 0.02577 0.35886
# Poissons Ratio (y) = 0.05110 -0.06118
# Poissons Ratio (z) = 0.37487 -0.03222
#
# Static dielectric constant tensor:
#      x y z
#    x 1.756240 0.000000 0.000000 
#    y 0.000000 1.757810 0.000000 
#    z 0.000000 0.000000 1.739620 
# 
# From -- ./inp_files/10984.got.cif
#   From: 2010.05.17/outbox.cif.g08.bks.cpg/sg59_6_cif.got.tgz:10984.got - 2010.06.03 14:40:33.
