data_PCOD9452702
_publ_section_title
;
Structure prediction by ZEFSAII (Michael W. Deem and Ramdas Pophale) SiO2 
 PCOD9452702
Probable space group: P M M N
;
_chemical_formula_sum "Si O2"
_cell_formula_units_Z 48
_cell_length_a 17.122836
_cell_length_b 8.588130
_cell_length_c 17.549714
_cell_angle_alpha 90.000000
_cell_angle_beta 90.000000
_cell_angle_gamma 90.000000
_cell_volume 2580.740577
_symmetry_space_group_name_H-M "P M M N"
_symmetry_group_IT_number 59
_space_group.IT_coordinate_system_code '2'
_symmetry_cell_setting 'orthorhombic'
loop_
_space_group_symop_operation_xyz
x,y,z
1/2-x,1/2-y,z
1/2+x,-y,-z
-x,1/2+y,-z
-x,-y,-z
1/2+x,1/2+y,-z
1/2-x,y,z
x,1/2-y,z
loop_
_atom_site_type_symbol
_atom_site_label
_atom_site_fract_x
_atom_site_fract_y
_atom_site_fract_z
Si Si1 0.103072 0.937909 0.065498
Si Si2 0.250000 0.559823 0.165362
Si Si3 0.573750 0.562030 0.097986
Si Si4 0.659362 0.561569 0.252557
Si Si5 0.927674 0.063488 0.400982
Si Si6 0.750000 0.063284 0.659496
Si Si7 0.605110 0.563565 0.564610
O O1 0.103931 0.750000 0.063458
O O2 0.172776 0.990764 0.120051
O O3 0.017396 0.986669 0.095450
O O4 0.111595 0.999131 0.979606
O O5 0.250000 0.750000 0.165503
O O6 0.250000 0.509003 0.252827
O O7 0.575988 0.750000 0.095823
O O8 0.617252 0.510462 0.174461
O O9 0.750000 0.513603 0.253282
O O10 0.656915 0.750000 0.254563
O O11 0.614366 0.498616 0.326017
O O12 0.923691 0.250000 0.402956
O O13 0.019229 0.017000 0.404541
O O14 0.889555 0.997108 0.478074
O O15 0.750000 0.250000 0.658956
O O16 0.826449 0.003886 0.616019
O O17 0.609441 0.750000 0.564171
#
# Coordination Sequence:
#
# PCOD9452702 Si02
#       7
#     8   4   8   8   8   4   8
#     4   9  18  35  56  79 109 144 183 231 282 333
#     4   9  20  35  55  84 111 142 185 229 280 335
#     4   9  19  35  56  80 108 146 188 229 279 340
#     4  10  22  37  56  83 116 152 189 234 289 342
#     4  10  22  40  62  87 113 149 195 238 285 343
#     4  11  23  37  61  90 117 152 195 235 278 341
#     4  10  22  41  62  85 117 152 188 236 292 341
#
# _framework density 18.599312000000001
#
# number of rings (size 3 to 8) (size 9 to 14) (size 15 to 20)
#    0.000    2.333    0.000    1.250    4.667    3.000 
#    0.000    1.667    0.000    0.000    0.000    0.000 
#    0.000    0.000    0.000    0.000    0.000    0.000 
#
# Total GULP energy -268022.133237 kJ/mol
# GULP energy per Si atom -5583.794442 kJ/mol
# Density = 1.855698 g / cm^3
# Si number density = 18.599312 Si / 1000 Ang^3
#
#
#
# Elastic Constant Matrix: (Units=GPa)
#
#
# Indices 1 2 3 4 5 6 
#
# 1 129.1167 31.2790 137.0245 0.0000 0.0000 0.0000
# 2 31.2790 17.6424 37.3661 0.0000 0.0000 0.0000
# 3 137.0245 37.3661 220.4809 0.0000 0.0000 0.0000
# 4 0.0000 0.0000 0.0000 33.7788 0.0000 0.0000
# 5 0.0000 0.0000 0.0000 0.0000 30.6004 0.0000
# 6 0.0000 0.0000 0.0000 0.0000 0.0000 22.3977
#
#
#
# Elastic Compliance Matrix: (Units=1/GPa)
#
#
# Indices 1 2 3 4 5 6 
#
# 1 0.026165 -0.018639 -0.013102 0.000000 0.000000 0.000000
# 2 -0.018639 0.101697 -0.005651 0.000000 0.000000 0.000000
# 3 -0.013102 -0.005651 0.013636 0.000000 0.000000 0.000000
# 4 0.000000 0.000000 0.000000 0.029604 0.000000 0.000000
# 5 0.000000 0.000000 0.000000 0.000000 0.032679 0.000000
# 6 0.000000 0.000000 0.000000 0.000000 0.000000 0.044648
#
#
# Mechanical properties :
#
#
# Convention : Reuss Voigt Hill
#
# Bulk Modulus (GPa) = 14.98962 86.50880 50.74921
# Shear Modulus (GPa) = 14.47382 28.12674 21.30028
#
# Velocity S-wave (km/s) = 2.79263 3.89298 3.38778
# Velocity P-wave (km/s) = 4.29827 8.17434 6.53051
#
# Compressibility (1/GPa) = 0.06671284
#
# Stress axis : x y z
#
# Youngs Moduli (GPa) = 38.21925 9.83315 73.33530
#
# Poissons Ratio (x) = 0.18328 0.96085
# Poissons Ratio (y) = 0.71237 0.41444
# Poissons Ratio (z) = 0.50075 0.05557
#
# Static dielectric constant tensor:
#      x y z
#    x 1.636550 0.000000 0.000000 
#    y 0.000000 1.633960 0.000000 
#    z 0.000000 0.000000 1.602160 
# 
# From -- ./inp_files/20500.got.cif
#   From: 2010.05.17/outbox.cif.g08.bks.cpg/sg59_11_cif.got.tgz:20500.got - 2010.06.03 14:40:33.
