data_PCOD9452402
_publ_section_title
;
Structure prediction by ZEFSAII (Michael W. Deem and Ramdas Pophale) SiO2 
 PCOD9452402
Probable space group: P M M N
;
_chemical_formula_sum "Si O2"
_cell_formula_units_Z 56
_cell_length_a 8.906117
_cell_length_b 14.617789
_cell_length_c 21.898853
_cell_angle_alpha 90.000000
_cell_angle_beta 90.000000
_cell_angle_gamma 90.000000
_cell_volume 2850.962161
_symmetry_space_group_name_H-M "P M M N"
_symmetry_group_IT_number 59
_space_group.IT_coordinate_system_code '2'
_symmetry_cell_setting 'orthorhombic'
loop_
_space_group_symop_operation_xyz
x,y,z
1/2-x,1/2-y,z
1/2+x,-y,-z
-x,1/2+y,-z
-x,-y,-z
1/2+x,1/2+y,-z
1/2-x,y,z
x,1/2-y,z
loop_
_atom_site_type_symbol
_atom_site_label
_atom_site_fract_x
_atom_site_fract_y
_atom_site_fract_z
Si Si1 0.070669 0.858330 0.901576
Si Si2 0.929353 0.474921 0.216725
Si Si3 0.421043 0.361395 0.972758
Si Si4 0.928469 0.142681 0.844981
Si Si5 0.929331 0.858222 0.404522
Si Si6 0.070600 0.476549 0.343377
Si Si7 0.932530 0.855255 0.542388
O O1 0.250000 0.868326 0.909643
O O2 0.039413 0.750000 0.894253
O O3 0.025379 0.912277 0.840894
O O4 0.990192 0.892158 0.963079
O O5 0.750000 0.473934 0.221184
O O6 0.987488 0.576418 0.201404
O O7 0.000595 0.443360 0.280141
O O8 0.250000 0.393356 0.964898
O O9 0.419416 0.250000 0.975434
O O10 0.517610 0.383861 0.913177
O O11 0.750000 0.131515 0.839750
O O12 0.964814 0.250000 0.835949
O O13 0.750000 0.874205 0.399529
O O14 0.954309 0.750000 0.396534
O O15 0.979305 0.882667 0.473919
O O16 0.016167 0.920848 0.357204
O O17 0.250000 0.472200 0.340008
O O18 0.017326 0.417609 0.401762
O O19 0.750000 0.856944 0.541555
O O20 0.977994 0.750000 0.551989
#
# Coordination Sequence:
#
# PCOD9452402 Si02
#       7
#     8   8   8   8   8   8   8
#     4   9  19  37  58  79 106 140 179 224 270 315
#     4  11  24  39  55  77 107 146 187 222 263 319
#     4   9  17  31  55  85 111 137 173 218 270 325
#     4  10  21  38  59  81 107 139 177 225 275 320
#     4   9  18  35  59  83 108 141 179 218 263 316
#     4  11  22  35  54  80 111 144 178 221 267 313
#     4   8  16  33  57  84 111 140 176 217 264 317
#
# _framework density 19.642491
#
# number of rings (size 3 to 8) (size 9 to 14) (size 15 to 20)
#    0.000    2.429    0.000    3.000    0.000    5.714 
#    0.000    0.714    0.000    3.000    0.000    0.000 
#    0.000    0.000    0.000    0.000    0.000    0.000 
#
# Total GULP energy -312749.947295 kJ/mol
# GULP energy per Si atom -5584.820487 kJ/mol
# Density = 1.959778 g / cm^3
# Si number density = 19.642491 Si / 1000 Ang^3
#
#
#
# Elastic Constant Matrix: (Units=GPa)
#
#
# Indices 1 2 3 4 5 6 
#
# 1 26.8365 9.3537 9.1927 0.0000 0.0000 0.0000
# 2 9.3537 37.6071 11.9192 0.0000 0.0000 0.0000
# 3 9.1927 11.9192 61.4603 0.0000 0.0000 0.0000
# 4 0.0000 0.0000 0.0000 21.5190 0.0000 0.0000
# 5 0.0000 0.0000 0.0000 0.0000 34.5583 0.0000
# 6 0.0000 0.0000 0.0000 0.0000 0.0000 18.7239
#
#
#
# Elastic Compliance Matrix: (Units=1/GPa)
#
#
# Indices 1 2 3 4 5 6 
#
# 1 0.041951 -0.008998 -0.004529 0.000000 0.000000 0.000000
# 2 -0.008998 0.030262 -0.004523 0.000000 0.000000 0.000000
# 3 -0.004529 -0.004523 0.017825 0.000000 0.000000 0.000000
# 4 0.000000 0.000000 0.000000 0.046470 0.000000 0.000000
# 5 0.000000 0.000000 0.000000 0.000000 0.028937 0.000000
# 6 0.000000 0.000000 0.000000 0.000000 0.000000 0.053408
#
#
# Mechanical properties :
#
#
# Convention : Reuss Voigt Hill
#
# Bulk Modulus (GPa) = 18.54034 20.75945 19.64989
# Shear Modulus (GPa) = 18.31947 21.32281 19.82114
#
# Velocity S-wave (km/s) = 3.05724 3.29834 3.18007
# Velocity P-wave (km/s) = 4.68206 5.00968 4.84864
#
# Compressibility (1/GPa) = 0.05393645
#
# Stress axis : x y z
#
# Youngs Moduli (GPa) = 23.83755 33.04431 56.09997
#
# Poissons Ratio (x) = 0.29735 0.25410
# Poissons Ratio (y) = 0.21450 0.25374
# Poissons Ratio (z) = 0.10797 0.14946
#
# Static dielectric constant tensor:
#      x y z
#    x 1.654890 0.000000 0.000000 
#    y 0.000000 1.707180 0.000000 
#    z 0.000000 0.000000 1.677540 
# 
# From -- ./inp_files/28992.got.cif
#   From: 2010.05.17/outbox.cif.g08.bks.cpg/sg59_15_cif.got.tgz:28992.got - 2010.06.03 14:40:33.
