data_PCOD9452298
_publ_section_title
;
Structure prediction by ZEFSAII (Michael W. Deem and Ramdas Pophale) SiO2 
 PCOD9452298
Probable space group: P M M N
;
_chemical_formula_sum "Si O2"
_cell_formula_units_Z 24
_cell_length_a 17.781126
_cell_length_b 10.735189
_cell_length_c 6.347710
_cell_angle_alpha 90.000000
_cell_angle_beta 90.000000
_cell_angle_gamma 90.000000
_cell_volume 1211.674678
_symmetry_space_group_name_H-M "P M M N"
_symmetry_group_IT_number 59
_space_group.IT_coordinate_system_code '2'
_symmetry_cell_setting 'orthorhombic'
loop_
_space_group_symop_operation_xyz
x,y,z
1/2-x,1/2-y,z
1/2+x,-y,-z
-x,1/2+y,-z
-x,-y,-z
1/2+x,1/2+y,-z
1/2-x,y,z
x,1/2-y,z
loop_
_atom_site_type_symbol
_atom_site_label
_atom_site_fract_x
_atom_site_fract_y
_atom_site_fract_z
Si Si1 0.160351 0.388658 0.831777
Si Si2 0.584294 0.387099 0.427662
Si Si3 0.443512 0.036084 0.187034
O O1 0.250000 0.398235 0.838478
O O2 0.139940 0.250000 0.749965
O O3 0.127094 0.500813 0.691298
O O4 0.124866 0.400308 0.065610
O O5 0.615612 0.250000 0.384318
O O6 0.583905 0.419765 0.674574
O O7 0.497689 0.389679 0.346404
O O8 0.500000 0.000000 0.000000
#
# Coordination Sequence:
#
# PCOD9452298 Si02
#       3
#     8   8   8
#     4  10  22  39  58  82 114 153 194 234 281 340
#     4  10  21  37  59  87 116 147 188 239 290 338
#     4   9  20  36  58  84 113 147 186 230 280 337
#
# _framework density 19.807295
#
# number of rings (size 3 to 8) (size 9 to 14) (size 15 to 20)
#    0.000    2.333    0.000    1.000    0.000   20.667 
#    0.000    3.333    0.000    0.000    0.000    0.000 
#    0.000    0.000    0.000    0.000    0.000    0.000 
#
# Total GULP energy -133713.311143 kJ/mol
# GULP energy per Si atom -5571.387964 kJ/mol
# Density = 1.976221 g / cm^3
# Si number density = 19.807295 Si / 1000 Ang^3
#
#
#
# Elastic Constant Matrix: (Units=GPa)
#
#
# Indices 1 2 3 4 5 6 
#
# 1 80.2326 54.4797 28.5324 0.0000 0.0000 0.0000
# 2 54.4797 184.6941 52.7784 0.0000 0.0000 0.0000
# 3 28.5324 52.7784 93.0153 0.0000 0.0000 0.0000
# 4 0.0000 0.0000 0.0000 18.3527 0.0000 0.0000
# 5 0.0000 0.0000 0.0000 0.0000 15.3080 0.0000
# 6 0.0000 0.0000 0.0000 0.0000 0.0000 20.7650
#
#
#
# Elastic Compliance Matrix: (Units=1/GPa)
#
#
# Indices 1 2 3 4 5 6 
#
# 1 0.016127 -0.003991 -0.002683 0.000000 0.000000 0.000000
# 2 -0.003991 0.007450 -0.003003 0.000000 0.000000 0.000000
# 3 -0.002683 -0.003003 0.013278 0.000000 0.000000 0.000000
# 4 0.000000 0.000000 0.000000 0.054488 0.000000 0.000000
# 5 0.000000 0.000000 0.000000 0.000000 0.065325 0.000000
# 6 0.000000 0.000000 0.000000 0.000000 0.000000 0.048158
#
#
# Mechanical properties :
#
#
# Convention : Reuss Voigt Hill
#
# Bulk Modulus (GPa) = 57.13526 69.94699 63.54113
# Shear Modulus (GPa) = 21.73795 25.69526 23.71661
#
# Velocity S-wave (km/s) = 3.31641 3.60566 3.46405
# Velocity P-wave (km/s) = 6.60098 7.26118 6.93894
#
# Compressibility (1/GPa) = 0.01750233
#
# Stress axis : x y z
#
# Youngs Moduli (GPa) = 62.00603 134.23603 75.31387
#
# Poissons Ratio (x) = 0.53567 0.20205
# Poissons Ratio (y) = 0.24744 0.22616
# Poissons Ratio (z) = 0.16635 0.40310
#
# Static dielectric constant tensor:
#      x y z
#    x 1.693620 0.000000 0.000000 
#    y 0.000000 1.747270 0.000000 
#    z 0.000000 0.000000 1.722340 
# 
# From -- ./inp_files/927.got.cif
#   From: 2010.05.17/outbox.cif.g08.bks.cpg/sg59_1_cif.got.tgz:927.got - 2010.06.03 14:40:33.
