data_PCOD9452585
_publ_section_title
;
Structure prediction by ZEFSAII (Michael W. Deem and Ramdas Pophale) SiO2 
 PCOD9452585
Probable space group: P M M N
;
_chemical_formula_sum "Si O2"
_cell_formula_units_Z 56
_cell_length_a 19.572504
_cell_length_b 7.586270
_cell_length_c 17.204665
_cell_angle_alpha 90.000000
_cell_angle_beta 90.000000
_cell_angle_gamma 90.000000
_cell_volume 2554.588229
_symmetry_space_group_name_H-M "P M M N"
_symmetry_group_IT_number 59
_space_group.IT_coordinate_system_code '2'
_symmetry_cell_setting 'orthorhombic'
loop_
_space_group_symop_operation_xyz
x,y,z
1/2-x,1/2-y,z
1/2+x,-y,-z
-x,1/2+y,-z
-x,-y,-z
1/2+x,1/2+y,-z
1/2-x,y,z
x,1/2-y,z
loop_
_atom_site_type_symbol
_atom_site_label
_atom_site_fract_x
_atom_site_fract_y
_atom_site_fract_z
Si Si1 0.671198 0.464651 0.818727
Si Si2 0.826892 0.958177 0.355541
Si Si3 0.919088 0.040283 0.503716
Si Si4 0.056158 0.033522 0.751602
Si Si5 0.582157 0.035017 0.673949
Si Si6 0.170341 0.963245 0.007188
Si Si7 0.539501 0.946262 0.077916
O O1 0.750000 0.516354 0.809507
O O2 0.669244 0.250000 0.819110
O O3 0.626891 0.526550 0.746624
O O4 0.648874 0.518402 0.905296
O O5 0.750000 0.030974 0.363356
O O6 0.820276 0.750000 0.341515
O O7 0.872367 0.029526 0.284045
O O8 0.872961 0.974633 0.432983
O O9 0.912313 0.250000 0.502542
O O10 0.895704 0.974434 0.588836
O O11 0.000000 0.000000 0.500000
O O12 0.058729 0.250000 0.754887
O O13 0.036081 0.966354 0.837382
O O14 0.995879 0.986739 0.692177
O O15 0.585218 0.250000 0.673810
O O16 0.250000 0.008434 0.996811
O O17 0.164775 0.750000 0.002478
O O18 0.118905 0.045149 0.946030
O O19 0.513636 0.750000 0.091763
O O20 0.500000 0.000000 0.000000
#
# Coordination Sequence:
#
# PCOD9452585 Si02
#       7
#     8   8   8   8   8   8   8
#     4   8  14  26  47  75 103 134 174 218 263 314
#     4  10  21  39  61  83 111 148 192 240 287 334
#     4  11  21  35  58  84 113 147 184 228 280 338
#     4   9  18  34  55  78 103 142 191 232 274 330
#     4   9  16  28  51  77 102 134 177 224 264 315
#     4   9  18  34  55  77 106 144 182 224 277 332
#     4  11  22  35  56  83 112 144 186 238 284 334
#
# _framework density 21.921340000000001
#
# number of rings (size 3 to 8) (size 9 to 14) (size 15 to 20)
#    0.000    2.429    1.429    2.571    0.000    4.000 
#    0.000    4.286    0.000    0.857    0.000    0.000 
#    0.000    0.000    0.000    0.000    0.000    0.000 
#
# Total GULP energy -312498.392903 kJ/mol
# GULP energy per Si atom -5580.328445 kJ/mol
# Density = 2.187145 g / cm^3
# Si number density = 21.921340 Si / 1000 Ang^3
#
#
#
# Elastic Constant Matrix: (Units=GPa)
#
#
# Indices 1 2 3 4 5 6 
#
# 1 81.2703 -1.8104 40.5075 0.0000 0.0000 0.0000
# 2 -1.8104 45.0477 0.3610 0.0000 0.0000 0.0000
# 3 40.5075 0.3610 125.1192 0.0000 0.0000 0.0000
# 4 0.0000 0.0000 0.0000 14.1724 0.0000 0.0000
# 5 0.0000 0.0000 0.0000 0.0000 36.2711 0.0000
# 6 0.0000 0.0000 0.0000 0.0000 0.0000 13.3423
#
#
#
# Elastic Compliance Matrix: (Units=1/GPa)
#
#
# Indices 1 2 3 4 5 6 
#
# 1 0.014690 0.000628 -0.004758 0.000000 0.000000 0.000000
# 2 0.000628 0.022226 -0.000268 0.000000 0.000000 0.000000
# 3 -0.004758 -0.000268 0.009533 0.000000 0.000000 0.000000
# 4 0.000000 0.000000 0.000000 0.070560 0.000000 0.000000
# 5 0.000000 0.000000 0.000000 0.000000 0.027570 0.000000
# 6 0.000000 0.000000 0.000000 0.000000 0.000000 0.074950
#
#
# Mechanical properties :
#
#
# Convention : Reuss Voigt Hill
#
# Bulk Modulus (GPa) = 26.55626 36.61705 31.58666
# Shear Modulus (GPa) = 20.75768 26.91575 23.83672
#
# Velocity S-wave (km/s) = 3.08054 3.50785 3.30111
# Velocity P-wave (km/s) = 4.97932 5.75732 5.38240
#
# Compressibility (1/GPa) = 0.03765590
#
# Stress axis : x y z
#
# Youngs Moduli (GPa) = 68.07346 44.99216 104.89357
#
# Poissons Ratio (x) = -0.02828 0.49905
# Poissons Ratio (y) = -0.04278 0.02807
# Poissons Ratio (z) = 0.32387 0.01204
#
# Static dielectric constant tensor:
#      x y z
#    x 1.788310 0.000000 0.000000 
#    y 0.000000 1.854910 0.000000 
#    z 0.000000 0.000000 1.775430 
# 
# From -- ./inp_files/24277.got.cif
#   From: 2010.05.17/outbox.cif.g08.bks.cpg/sg59_13_cif.got.tgz:24277.got - 2010.06.03 14:40:33.
