data_PCOD9452248
_publ_section_title
;
Structure prediction by ZEFSAII (Michael W. Deem and Ramdas Pophale) SiO2 
 PCOD9452248
Probable space group: P M M N
;
_chemical_formula_sum "Si O2"
_cell_formula_units_Z 40
_cell_length_a 9.273744
_cell_length_b 14.369128
_cell_length_c 15.297922
_cell_angle_alpha 90.000000
_cell_angle_beta 90.000000
_cell_angle_gamma 90.000000
_cell_volume 2038.533998
_symmetry_space_group_name_H-M "P M M N"
_symmetry_group_IT_number 59
_space_group.IT_coordinate_system_code '2'
_symmetry_cell_setting 'orthorhombic'
loop_
_space_group_symop_operation_xyz
x,y,z
1/2-x,1/2-y,z
1/2+x,-y,-z
-x,1/2+y,-z
-x,-y,-z
1/2+x,1/2+y,-z
1/2-x,y,z
x,1/2-y,z
loop_
_atom_site_type_symbol
_atom_site_label
_atom_site_fract_x
_atom_site_fract_y
_atom_site_fract_z
Si Si1 0.922906 0.508723 0.407253
Si Si2 0.084589 0.638018 0.279126
Si Si3 0.916273 0.636720 0.106412
Si Si4 0.577771 0.142275 0.261725
Si Si5 0.916755 0.863249 0.912268
O O1 0.750000 0.513561 0.416660
O O2 0.959368 0.421475 0.344132
O O3 0.000000 0.500000 0.500000
O O4 0.985635 0.596528 0.354897
O O5 0.250000 0.606475 0.288237
O O6 0.083055 0.750000 0.282547
O O7 0.018177 0.609133 0.185772
O O8 0.750000 0.606185 0.120059
O O9 0.913266 0.750000 0.106457
O O10 0.965867 0.608009 0.009405
O O11 0.750000 0.139772 0.251562
O O12 0.534418 0.250000 0.275953
O O13 0.507992 0.107818 0.171351
O O14 0.750000 0.891048 0.902485
O O15 0.920682 0.750000 0.912405
#
# Coordination Sequence:
#
# PCOD9452248 Si02
#       5
#     8   8   8   8   8
#     4  11  24  41  60  82 109 142 182 230 284 337
#     4  10  21  37  58  84 113 146 185 229 275 324
#     4   8  14  27  49  78 112 147 181 219 265 317
#     4   9  19  36  57  81 110 143 178 220 271 325
#     4   8  14  26  48  79 112 145 180 218 262 315
#
# _framework density 19.621943999999999
#
# number of rings (size 3 to 8) (size 9 to 14) (size 15 to 20)
#    0.000    2.800    0.000    2.400    0.000    4.400 
#    0.000    7.000    0.000    0.000    0.000    0.000 
#    0.000    0.000    0.000    0.000    0.000    0.000 
#
# Total GULP energy -223269.269001 kJ/mol
# GULP energy per Si atom -5581.731725 kJ/mol
# Density = 1.957728 g / cm^3
# Si number density = 19.621944 Si / 1000 Ang^3
#
#
#
# Elastic Constant Matrix: (Units=GPa)
#
#
# Indices 1 2 3 4 5 6 
#
# 1 73.0974 26.9639 79.3935 0.0000 0.0000 0.0000
# 2 26.9639 56.4568 29.9464 0.0000 0.0000 0.0000
# 3 79.3935 29.9464 185.0246 0.0000 0.0000 0.0000
# 4 0.0000 0.0000 0.0000 32.3116 0.0000 0.0000
# 5 0.0000 0.0000 0.0000 0.0000 42.9545 0.0000
# 6 0.0000 0.0000 0.0000 0.0000 0.0000 16.6082
#
#
#
# Elastic Compliance Matrix: (Units=1/GPa)
#
#
# Indices 1 2 3 4 5 6 
#
# 1 0.028433 -0.007776 -0.010942 0.000000 0.000000 0.000000
# 2 -0.007776 0.021503 -0.000144 0.000000 0.000000 0.000000
# 3 -0.010942 -0.000144 0.010123 0.000000 0.000000 0.000000
# 4 0.000000 0.000000 0.000000 0.030949 0.000000 0.000000
# 5 0.000000 0.000000 0.000000 0.000000 0.023280 0.000000
# 6 0.000000 0.000000 0.000000 0.000000 0.000000 0.060211
#
#
# Mechanical properties :
#
#
# Convention : Reuss Voigt Hill
#
# Bulk Modulus (GPa) = 44.77087 65.24293 55.00690
# Shear Modulus (GPa) = 22.76167 30.25987 26.51077
#
# Velocity S-wave (km/s) = 3.40959 3.93127 3.67969
# Velocity P-wave (km/s) = 6.19408 7.34362 6.79321
#
# Compressibility (1/GPa) = 0.02233595
#
# Stress axis : x y z
#
# Youngs Moduli (GPa) = 35.17008 46.50605 98.78336
#
# Poissons Ratio (x) = 0.36162 1.08090
# Poissons Ratio (y) = 0.27347 0.01419
# Poissons Ratio (z) = 0.38483 0.00668
#
# Static dielectric constant tensor:
#      x y z
#    x 1.660210 0.000000 0.000000 
#    y 0.000000 1.751320 0.000000 
#    z 0.000000 0.000000 1.658890 
# 
# From -- ./inp_files/19842.got.cif
#   From: 2010.05.17/outbox.cif.g08.bks.cpg/sg59_10_cif.got.tgz:19842.got - 2010.06.03 14:40:33.
