data_PCOD9452337
_publ_section_title
;
Structure prediction by ZEFSAII (Michael W. Deem and Ramdas Pophale) SiO2 
 PCOD9452337
Probable space group: P M M N
;
_chemical_formula_sum "Si O2"
_cell_formula_units_Z 64
_cell_length_a 31.645722
_cell_length_b 18.353424
_cell_length_c 5.407447
_cell_angle_alpha 90.000000
_cell_angle_beta 90.000000
_cell_angle_gamma 90.000000
_cell_volume 3140.684982
_symmetry_space_group_name_H-M "P M M N"
_symmetry_group_IT_number 59
_space_group.IT_coordinate_system_code '2'
_symmetry_cell_setting 'orthorhombic'
loop_
_space_group_symop_operation_xyz
x,y,z
1/2-x,1/2-y,z
1/2+x,-y,-z
-x,1/2+y,-z
-x,-y,-z
1/2+x,1/2+y,-z
1/2-x,y,z
x,1/2-y,z
loop_
_atom_site_type_symbol
_atom_site_label
_atom_site_fract_x
_atom_site_fract_y
_atom_site_fract_z
Si Si1 0.701168 0.404193 0.865819
Si Si2 0.167735 0.835819 0.655555
Si Si3 0.544007 0.164296 0.791546
Si Si4 0.631669 0.976754 0.859734
Si Si5 0.597979 0.066654 0.475202
Si Si6 0.457328 0.534321 0.902708
Si Si7 0.092704 0.337774 0.043109
Si Si8 0.043498 0.162743 0.538622
O O1 0.750000 0.424140 0.835246
O O2 0.685665 0.366586 0.607377
O O3 0.671896 0.474501 0.928272
O O4 0.696143 0.351463 0.103574
O O5 0.159477 0.750000 0.632828
O O6 0.125539 0.883656 0.706310
O O7 0.546844 0.250000 0.823769
O O8 0.585023 0.127758 0.673483
O O9 0.504116 0.145281 0.617647
O O10 0.537843 0.120216 0.042474
O O11 0.625663 0.000293 0.574598
O O12 0.632378 0.891295 0.915415
O O13 0.586077 0.003564 0.973037
O O14 0.555102 0.029323 0.381422
O O15 0.500000 0.500000 0.000000
O O16 0.099979 0.250000 0.052710
O O17 0.061556 0.359284 0.272018
O O18 0.072061 0.355992 0.777602
O O19 0.044310 0.250000 0.527398
#
# Coordination Sequence:
#
# PCOD9452337 Si02
#       8
#     8   8   8   8   8   8   8   8
#     4  11  24  43  65  95 127 163 205 254 318 378
#     4  11  23  42  66  93 127 164 208 259 308 369
#     4  10  22  35  51  77 111 155 206 256 302 356
#     4  10  23  39  60  85 122 158 203 253 310 375
#     4  10  23  39  54  84 118 165 206 252 312 368
#     4  11  23  37  57  82 117 162 212 253 305 368
#     4  10  21  37  60  84 112 151 198 251 304 357
#     4   9  20  35  52  81 113 150 199 253 301 346
#
# _framework density 20.37772
#
# number of rings (size 3 to 8) (size 9 to 14) (size 15 to 20)
#    0.000    1.750    1.250    1.875    7.000    3.500 
#    0.000    0.000    0.000    0.375    0.000    0.000 
#    0.000    5.250    0.000    0.000    0.000    0.875 
#
# Total GULP energy -356656.286244 kJ/mol
# GULP energy per Si atom -5572.754473 kJ/mol
# Density = 2.033134 g / cm^3
# Si number density = 20.377720 Si / 1000 Ang^3
#
#
#
# Elastic Constant Matrix: (Units=GPa)
#
#
# Indices 1 2 3 4 5 6 
#
# 1 86.7875 42.1467 17.8744 0.0000 0.0000 0.0000
# 2 42.1467 119.1627 27.6424 0.0000 0.0000 0.0000
# 3 17.8744 27.6424 73.6484 0.0000 0.0000 0.0000
# 4 0.0000 0.0000 0.0000 25.2967 0.0000 0.0000
# 5 0.0000 0.0000 0.0000 0.0000 21.9119 0.0000
# 6 0.0000 0.0000 0.0000 0.0000 0.0000 21.6135
#
#
#
# Elastic Compliance Matrix: (Units=1/GPa)
#
#
# Indices 1 2 3 4 5 6 
#
# 1 0.014103 -0.004594 -0.001699 0.000000 0.000000 0.000000
# 2 -0.004594 0.010689 -0.002897 0.000000 0.000000 0.000000
# 3 -0.001699 -0.002897 0.015078 0.000000 0.000000 0.000000
# 4 0.000000 0.000000 0.000000 0.039531 0.000000 0.000000
# 5 0.000000 0.000000 0.000000 0.000000 0.045637 0.000000
# 6 0.000000 0.000000 0.000000 0.000000 0.000000 0.046267
#
#
# Mechanical properties :
#
#
# Convention : Reuss Voigt Hill
#
# Bulk Modulus (GPa) = 46.53204 50.54725 48.53965
# Shear Modulus (GPa) = 25.40033 26.56008 25.98021
#
# Velocity S-wave (km/s) = 3.53438 3.61416 3.57449
# Velocity P-wave (km/s) = 6.28809 6.50194 6.39591
#
# Compressibility (1/GPa) = 0.02149057
#
# Stress axis : x y z
#
# Youngs Moduli (GPa) = 70.90541 93.55600 66.32392
#
# Poissons Ratio (x) = 0.42981 0.11265
# Poissons Ratio (y) = 0.32575 0.19213
# Poissons Ratio (z) = 0.12043 0.27101
#
# Static dielectric constant tensor:
#      x y z
#    x 1.748470 0.000000 0.000000 
#    y 0.000000 1.735800 0.000000 
#    z 0.000000 0.000000 1.897850 
# 
# From -- ./inp_files/4649.got.cif
#   From: 2010.05.17/outbox.cif.g08.bks.cpg/sg59_3_cif.got.tgz:4649.got - 2010.06.03 14:40:33.
