data_PCOD9452828
_publ_section_title
;
Structure prediction by ZEFSAII (Michael W. Deem and Ramdas Pophale) SiO2 
 PCOD9452828
Probable space group: P M M N
;
_chemical_formula_sum "Si O2"
_cell_formula_units_Z 64
_cell_length_a 29.385229
_cell_length_b 8.379390
_cell_length_c 12.755788
_cell_angle_alpha 90.000000
_cell_angle_beta 90.000000
_cell_angle_gamma 90.000000
_cell_volume 3140.861430
_symmetry_space_group_name_H-M "P M M N"
_symmetry_group_IT_number 59
_space_group.IT_coordinate_system_code '2'
_symmetry_cell_setting 'orthorhombic'
loop_
_space_group_symop_operation_xyz
x,y,z
1/2-x,1/2-y,z
1/2+x,-y,-z
-x,1/2+y,-z
-x,-y,-z
1/2+x,1/2+y,-z
1/2-x,y,z
x,1/2-y,z
loop_
_atom_site_type_symbol
_atom_site_label
_atom_site_fract_x
_atom_site_fract_y
_atom_site_fract_z
Si Si1 0.303006 0.557062 0.072359
Si Si2 0.059222 0.935676 0.236265
Si Si3 0.550798 0.935591 0.990008
Si Si4 0.152645 0.440168 0.287667
Si Si5 0.118622 0.060901 0.652566
Si Si6 0.800617 0.555704 0.499334
Si Si7 0.517369 0.439048 0.387502
Si Si8 0.366609 0.938024 0.881447
O O1 0.250000 0.512885 0.069213
O O2 0.306482 0.750000 0.078310
O O3 0.329411 0.507138 0.966948
O O4 0.326710 0.487485 0.175609
O O5 0.058795 0.750000 0.207018
O O6 0.063879 0.038266 0.130899
O O7 0.104078 0.975271 0.303059
O O8 0.013880 0.979259 0.299017
O O9 0.553183 0.750000 0.018339
O O10 0.500000 0.000000 0.000000
O O11 0.584938 0.032653 0.063202
O O12 0.145766 0.250000 0.291968
O O13 0.186422 0.486117 0.381530
O O14 0.112529 0.250000 0.635719
O O15 0.158859 0.002042 0.576491
O O16 0.070215 0.979793 0.629657
O O17 0.133379 0.028279 0.771746
O O18 0.750000 0.498550 0.471790
O O19 0.799893 0.750000 0.493503
O O20 0.500000 0.500000 0.500000
O O21 0.510630 0.250000 0.380866
O O22 0.360199 0.750000 0.861957
#
# Coordination Sequence:
#
# PCOD9452828 Si02
#       8
#     8   8   8   8   8   8   8   8
#     4  10  22  40  62  89 126 171 215 266 329 390
#     4  12  24  40  62  91 128 168 210 261 320 382
#     4  12  24  40  62  90 123 162 210 258 314 379
#     4  11  21  37  64  96 128 164 212 270 327 388
#     4  11  23  41  65  92 127 169 216 267 321 383
#     4   9  20  39  63  92 125 162 206 262 323 379
#     4  12  25  43  65  93 128 169 217 265 321 385
#     4  11  23  41  62  88 127 169 212 263 321 381
#
# _framework density 20.376577000000001
#
# number of rings (size 3 to 8) (size 9 to 14) (size 15 to 20)
#    0.000    1.000    1.250    6.375    0.000    2.750 
#    0.000    1.875    0.000    4.125    0.000    0.000 
#    0.000    0.000    0.000    0.000    0.000    0.000 
#
# Total GULP energy -358098.476207 kJ/mol
# GULP energy per Si atom -5595.288691 kJ/mol
# Density = 2.033020 g / cm^3
# Si number density = 20.376577 Si / 1000 Ang^3
#
#
#
# Elastic Constant Matrix: (Units=GPa)
#
#
# Indices 1 2 3 4 5 6 
#
# 1 143.6249 4.9324 35.6928 0.0000 0.0000 0.0000
# 2 4.9324 37.2127 -7.6673 0.0000 0.0000 0.0000
# 3 35.6928 -7.6673 92.3560 0.0000 0.0000 0.0000
# 4 0.0000 0.0000 0.0000 25.6386 0.0000 0.0000
# 5 0.0000 0.0000 0.0000 0.0000 33.5419 0.0000
# 6 0.0000 0.0000 0.0000 0.0000 0.0000 24.6282
#
#
#
# Elastic Compliance Matrix: (Units=1/GPa)
#
#
# Indices 1 2 3 4 5 6 
#
# 1 0.007805 -0.001685 -0.003156 0.000000 0.000000 0.000000
# 2 -0.001685 0.027704 0.002951 0.000000 0.000000 0.000000
# 3 -0.003156 0.002951 0.012292 0.000000 0.000000 0.000000
# 4 0.000000 0.000000 0.000000 0.039004 0.000000 0.000000
# 5 0.000000 0.000000 0.000000 0.000000 0.029813 0.000000
# 6 0.000000 0.000000 0.000000 0.000000 0.000000 0.040604
#
#
# Mechanical properties :
#
#
# Convention : Reuss Voigt Hill
#
# Bulk Modulus (GPa) = 22.71628 37.67882 30.19755
# Shear Modulus (GPa) = 28.46152 32.77744 30.61948
#
# Velocity S-wave (km/s) = 3.74140 4.01507 3.88065
# Velocity P-wave (km/s) = 5.46228 6.32659 5.91026
#
# Compressibility (1/GPa) = 0.04402130
#
# Stress axis : x y z
#
# Youngs Moduli (GPa) = 128.12631 36.09601 81.35081
#
# Poissons Ratio (x) = 0.06081 0.25676
# Poissons Ratio (y) = 0.21587 -0.24007
# Poissons Ratio (z) = 0.40439 -0.10652
#
# Static dielectric constant tensor:
#      x y z
#    x 1.694050 0.000000 0.000000 
#    y 0.000000 1.692400 0.000000 
#    z 0.000000 0.000000 1.669980 
# 
# From -- ./inp_files/19367.got.cif
#   From: 2010.05.17/outbox.cif.g08.bks.cpg/sg59_10_cif.got.tgz:19367.got - 2010.06.03 14:40:33.
