data_PCOD9452368
_publ_section_title
;
Structure prediction by ZEFSAII (Michael W. Deem and Ramdas Pophale) SiO2 
 PCOD9452368
Probable space group: P M M N
;
_chemical_formula_sum "Si O2"
_cell_formula_units_Z 40
_cell_length_a 14.614074
_cell_length_b 17.691263
_cell_length_c 8.474793
_cell_angle_alpha 90.000000
_cell_angle_beta 90.000000
_cell_angle_gamma 90.000000
_cell_volume 2191.085073
_symmetry_space_group_name_H-M "P M M N"
_symmetry_group_IT_number 59
_space_group.IT_coordinate_system_code '2'
_symmetry_cell_setting 'orthorhombic'
loop_
_space_group_symop_operation_xyz
x,y,z
1/2-x,1/2-y,z
1/2+x,-y,-z
-x,1/2+y,-z
-x,-y,-z
1/2+x,1/2+y,-z
1/2-x,y,z
x,1/2-y,z
loop_
_atom_site_type_symbol
_atom_site_label
_atom_site_fract_x
_atom_site_fract_y
_atom_site_fract_z
Si Si1 0.750000 0.836152 0.490652
Si Si2 0.561232 0.971218 0.858212
Si Si3 0.449075 0.162273 0.352609
Si Si4 0.250000 0.838342 0.230714
Si Si5 0.250000 0.976193 0.006502
Si Si6 0.405164 0.580033 0.427673
Si Si7 0.750000 0.500627 0.363410
O O1 0.750000 0.750000 0.423825
O O2 0.843222 0.843708 0.591771
O O3 0.750000 0.908315 0.375849
O O4 0.539862 0.886573 0.805183
O O5 0.553110 0.022732 0.701287
O O6 0.500000 0.000000 0.000000
O O7 0.663420 0.981605 0.920266
O O8 0.471151 0.250000 0.332524
O O9 0.516438 0.124905 0.480828
O O10 0.250000 0.750000 0.197460
O O11 0.161699 0.863278 0.332907
O O12 0.250000 0.891358 0.076411
O O13 0.250000 0.976976 0.818401
O O14 0.338635 0.533113 0.545527
#
# Coordination Sequence:
#
# PCOD9452368 Si02
#       7
#     4   8   8   4   4   8   4
#     4  10  22  36  60  88 116 151 197 249 291 330
#     4  11  22  38  59  87 119 158 194 238 299 361
#     4  11  22  39  61  89 119 158 202 253 295 345
#     4   9  19  39  59  86 120 151 187 247 308 357
#     4  10  23  37  58  85 115 159 199 240 296 361
#     4  10  21  37  63  89 115 155 201 244 293 356
#     4  11  20  40  65  89 117 153 205 246 289 356
#
# _framework density 18.255794999999999
#
# number of rings (size 3 to 8) (size 9 to 14) (size 15 to 20)
#    0.000    1.600    2.000    3.600    2.800    0.000 
#    0.000   13.000    0.000    0.000    0.000    0.000 
#    0.000    0.000    0.000    0.000    0.000    0.000 
#
# Total GULP energy -223419.133711 kJ/mol
# GULP energy per Si atom -5585.478343 kJ/mol
# Density = 1.821424 g / cm^3
# Si number density = 18.255795 Si / 1000 Ang^3
#
#
#
# Elastic Constant Matrix: (Units=GPa)
#
#
# Indices 1 2 3 4 5 6 
#
# 1 108.2745 60.9168 48.9115 0.0000 0.0000 0.0000
# 2 60.9168 143.5900 91.2285 0.0000 0.0000 0.0000
# 3 48.9115 91.2285 140.9019 0.0000 0.0000 0.0000
# 4 0.0000 0.0000 0.0000 20.0742 0.0000 0.0000
# 5 0.0000 0.0000 0.0000 0.0000 22.6561 0.0000
# 6 0.0000 0.0000 0.0000 0.0000 0.0000 22.8124
#
#
#
# Elastic Compliance Matrix: (Units=1/GPa)
#
#
# Indices 1 2 3 4 5 6 
#
# 1 0.012319 -0.004263 -0.001516 0.000000 0.000000 0.000000
# 2 -0.004263 0.013306 -0.007135 0.000000 0.000000 0.000000
# 3 -0.001516 -0.007135 0.012243 0.000000 0.000000 0.000000
# 4 0.000000 0.000000 0.000000 0.049815 0.000000 0.000000
# 5 0.000000 0.000000 0.000000 0.000000 0.044138 0.000000
# 6 0.000000 0.000000 0.000000 0.000000 0.000000 0.043836
#
#
# Mechanical properties :
#
#
# Convention : Reuss Voigt Hill
#
# Bulk Modulus (GPa) = 83.06041 88.31999 85.69020
# Shear Modulus (GPa) = 24.33083 25.88917 25.11000
#
# Velocity S-wave (km/s) = 3.65468 3.76990 3.71273
# Velocity P-wave (km/s) = 7.96277 8.21180 8.08825
#
# Compressibility (1/GPa) = 0.01203943
#
# Stress axis : x y z
#
# Youngs Moduli (GPa) = 81.17459 75.15268 81.67651
#
# Poissons Ratio (x) = 0.32037 0.12384
# Poissons Ratio (y) = 0.34604 0.58280
# Poissons Ratio (z) = 0.12308 0.53625
#
# Static dielectric constant tensor:
#      x y z
#    x 1.629670 0.000000 0.000000 
#    y 0.000000 1.623920 0.000000 
#    z 0.000000 0.000000 1.603030 
# 
# From -- ./inp_files/8665.got.cif
#   From: 2010.05.17/outbox.cif.g08.bks.cpg/sg59_5_cif.got.tgz:8665.got - 2010.06.03 14:40:33.
