data_PCOD9452503
_publ_section_title
;
Structure prediction by ZEFSAII (Michael W. Deem and Ramdas Pophale) SiO2 
 PCOD9452503
Probable space group: P M M N
;
_chemical_formula_sum "Si O2"
_cell_formula_units_Z 56
_cell_length_a 20.023616
_cell_length_b 9.015028
_cell_length_c 16.106237
_cell_angle_alpha 90.000000
_cell_angle_beta 90.000000
_cell_angle_gamma 90.000000
_cell_volume 2907.392551
_symmetry_space_group_name_H-M "P M M N"
_symmetry_group_IT_number 59
_space_group.IT_coordinate_system_code '2'
_symmetry_cell_setting 'orthorhombic'
loop_
_space_group_symop_operation_xyz
x,y,z
1/2-x,1/2-y,z
1/2+x,-y,-z
-x,1/2+y,-z
-x,-y,-z
1/2+x,1/2+y,-z
1/2-x,y,z
x,1/2-y,z
loop_
_atom_site_type_symbol
_atom_site_label
_atom_site_fract_x
_atom_site_fract_y
_atom_site_fract_z
Si Si1 0.829508 0.922795 0.193737
Si Si2 0.413695 0.925753 0.664742
Si Si3 0.327614 0.426554 0.001730
Si Si4 0.045134 0.573066 0.070595
Si Si5 0.824726 0.072084 0.657956
Si Si6 0.327144 0.073301 0.522264
Si Si7 0.038151 0.571905 0.258769
O O1 0.750000 0.936476 0.208197
O O2 0.847886 0.750000 0.209352
O O3 0.870426 0.025539 0.255083
O O4 0.841078 0.953380 0.096376
O O5 0.415899 0.750000 0.656640
O O6 0.377542 0.997509 0.585703
O O7 0.486938 0.992039 0.680304
O O8 0.250000 0.461835 0.017641
O O9 0.336900 0.250000 0.015186
O O10 0.379513 0.519026 0.054961
O O11 0.040786 0.750000 0.064206
O O12 0.023426 0.530216 0.163513
O O13 0.000000 0.500000 0.000000
O O14 0.750000 0.034238 0.688759
O O15 0.826565 0.250000 0.644669
O O16 0.885544 0.034444 0.718429
O O17 0.834731 0.992047 0.569913
O O18 0.250000 0.044040 0.548315
O O19 0.336766 0.250000 0.521807
O O20 0.030274 0.750000 0.266083
#
# Coordination Sequence:
#
# PCOD9452503 Si02
#       7
#     8   8   8   8   8   8   8
#     4   9  18  34  55  78 109 150 190 229 280 339
#     4  12  24  35  53  83 116 149 189 234 275 323
#     4   9  19  36  57  81 110 145 185 232 287 342
#     4  11  23  38  58  83 113 151 193 236 284 340
#     4   9  19  39  65  88 110 139 182 235 282 326
#     4  10  21  38  61  87 116 151 185 219 270 334
#     4  10  23  41  59  81 112 151 188 227 283 341
#
# _framework density 19.261244999999999
#
# number of rings (size 3 to 8) (size 9 to 14) (size 15 to 20)
#    0.000    2.000    0.000    4.286    0.000   10.000 
#    0.000    2.857    0.000    1.714    0.000    0.000 
#    0.000    0.000    0.000    0.000    0.000    0.000 
#
# Total GULP energy -312938.982830 kJ/mol
# GULP energy per Si atom -5588.196122 kJ/mol
# Density = 1.921741 g / cm^3
# Si number density = 19.261245 Si / 1000 Ang^3
#
#
#
# Elastic Constant Matrix: (Units=GPa)
#
#
# Indices 1 2 3 4 5 6 
#
# 1 89.9707 39.3099 48.6153 0.0000 0.0000 0.0000
# 2 39.3099 45.2162 34.1454 0.0000 0.0000 0.0000
# 3 48.6153 34.1454 63.0975 0.0000 0.0000 0.0000
# 4 0.0000 0.0000 0.0000 26.3123 0.0000 0.0000
# 5 0.0000 0.0000 0.0000 0.0000 36.4484 0.0000
# 6 0.0000 0.0000 0.0000 0.0000 0.0000 29.8354
#
#
#
# Elastic Compliance Matrix: (Units=1/GPa)
#
#
# Indices 1 2 3 4 5 6 
#
# 1 0.021649 -0.010527 -0.010983 0.000000 0.000000 0.000000
# 2 -0.010527 0.042518 -0.014898 0.000000 0.000000 0.000000
# 3 -0.010983 -0.014898 0.032373 0.000000 0.000000 0.000000
# 4 0.000000 0.000000 0.000000 0.038005 0.000000 0.000000
# 5 0.000000 0.000000 0.000000 0.000000 0.027436 0.000000
# 6 0.000000 0.000000 0.000000 0.000000 0.000000 0.033517
#
#
# Mechanical properties :
#
#
# Convention : Reuss Voigt Hill
#
# Bulk Modulus (GPa) = 42.15232 49.15840 45.65536
# Shear Modulus (GPa) = 18.10129 23.60014 20.85071
#
# Velocity S-wave (km/s) = 3.06891 3.50418 3.29374
# Velocity P-wave (km/s) = 5.87279 6.47686 6.18220
#
# Compressibility (1/GPa) = 0.02372349
#
# Stress axis : x y z
#
# Youngs Moduli (GPa) = 46.19160 23.51931 30.88977
#
# Poissons Ratio (x) = 0.24758 0.33928
# Poissons Ratio (y) = 0.48625 0.46020
# Poissons Ratio (z) = 0.50734 0.35039
#
# Static dielectric constant tensor:
#      x y z
#    x 1.686060 0.000000 0.000000 
#    y 0.000000 1.635900 0.000000 
#    z 0.000000 0.000000 1.648080 
# 
# From -- ./inp_files/24209.got.cif
#   From: 2010.05.17/outbox.cif.g08.bks.cpg/sg59_13_cif.got.tgz:24209.got - 2010.06.03 14:40:33.
