data_PCOD9452843
_publ_section_title
;
Structure prediction by ZEFSAII (Michael W. Deem and Ramdas Pophale) SiO2 
 PCOD9452843
Probable space group: P M M N
;
_chemical_formula_sum "Si O2"
_cell_formula_units_Z 40
_cell_length_a 8.919014
_cell_length_b 15.732872
_cell_length_c 14.934112
_cell_angle_alpha 90.000000
_cell_angle_beta 90.000000
_cell_angle_gamma 90.000000
_cell_volume 2095.580068
_symmetry_space_group_name_H-M "P M M N"
_symmetry_group_IT_number 59
_space_group.IT_coordinate_system_code '2'
_symmetry_cell_setting 'orthorhombic'
loop_
_space_group_symop_operation_xyz
x,y,z
1/2-x,1/2-y,z
1/2+x,-y,-z
-x,1/2+y,-z
-x,-y,-z
1/2+x,1/2+y,-z
1/2-x,y,z
x,1/2-y,z
loop_
_atom_site_type_symbol
_atom_site_label
_atom_site_fract_x
_atom_site_fract_y
_atom_site_fract_z
Si Si1 0.572991 0.907171 0.397642
Si Si2 0.572883 0.110209 0.413239
Si Si3 0.930524 0.750000 0.712879
Si Si4 0.070138 0.413708 0.963827
Si Si5 0.076031 0.649434 0.214620
Si Si6 0.932036 0.750000 0.920522
O O1 0.750000 0.888744 0.398101
O O2 0.498807 0.874354 0.489237
O O3 0.494630 0.868874 0.310949
O O4 0.553528 0.009641 0.394747
O O5 0.750000 0.128705 0.415210
O O6 0.493471 0.168080 0.339353
O O7 0.750000 0.750000 0.709503
O O8 0.978941 0.750000 0.816879
O O9 0.250000 0.418051 0.965892
O O10 0.014315 0.397015 0.863429
O O11 0.020642 0.334176 0.025776
O O12 0.000000 0.500000 0.000000
O O13 0.250000 0.622927 0.213426
O O14 0.068559 0.750000 0.197000
O O15 0.750000 0.750000 0.920823
#
# Coordination Sequence:
#
# PCOD9452843 Si02
#       6
#     8   8   4   8   8   4
#     4  10  22  40  64  91 122 163 205 251 307 368
#     4  10  22  41  61  89 124 160 204 255 303 360
#     4  11  23  39  62  89 120 163 205 246 304 367
#     4  11  23  43  67  94 126 165 210 261 316 376
#     4  11  24  41  63  93 126 164 206 257 312 369
#     4   9  22  43  64  89 124 163 205 254 308 369
#
# _framework density 19.087793000000001
#
# number of rings (size 3 to 8) (size 9 to 14) (size 15 to 20)
#    0.000    1.600    1.000    2.700    4.200    3.600 
#    0.000    3.000    0.000    0.000    0.000    0.000 
#    0.000    0.000    0.000    0.000    0.000    0.000 
#
# Total GULP energy -223651.488242 kJ/mol
# GULP energy per Si atom -5591.287206 kJ/mol
# Density = 1.904435 g / cm^3
# Si number density = 19.087793 Si / 1000 Ang^3
#
#
#
# Elastic Constant Matrix: (Units=GPa)
#
#
# Indices 1 2 3 4 5 6 
#
# 1 93.9757 37.7056 35.1855 0.0000 0.0000 0.0000
# 2 37.7056 71.4273 37.3190 0.0000 0.0000 0.0000
# 3 35.1855 37.3190 118.8177 0.0000 0.0000 0.0000
# 4 0.0000 0.0000 0.0000 34.4180 0.0000 0.0000
# 5 0.0000 0.0000 0.0000 0.0000 32.9818 0.0000
# 6 0.0000 0.0000 0.0000 0.0000 0.0000 33.3943
#
#
#
# Elastic Compliance Matrix: (Units=1/GPa)
#
#
# Indices 1 2 3 4 5 6 
#
# 1 0.013955 -0.006230 -0.002176 0.000000 0.000000 0.000000
# 2 -0.006230 0.019530 -0.004289 0.000000 0.000000 0.000000
# 3 -0.002176 -0.004289 0.010408 0.000000 0.000000 0.000000
# 4 0.000000 0.000000 0.000000 0.029055 0.000000 0.000000
# 5 0.000000 0.000000 0.000000 0.000000 0.030320 0.000000
# 6 0.000000 0.000000 0.000000 0.000000 0.000000 0.029945
#
#
# Mechanical properties :
#
#
# Convention : Reuss Voigt Hill
#
# Bulk Modulus (GPa) = 54.04537 56.07123 55.05830
# Shear Modulus (GPa) = 30.34522 31.75951 31.05237
#
# Velocity S-wave (km/s) = 3.99152 4.08348 4.03776
# Velocity P-wave (km/s) = 7.04404 7.18834 7.11656
#
# Compressibility (1/GPa) = 0.01850297
#
# Stress axis : x y z
#
# Youngs Moduli (GPa) = 71.65700 51.20325 96.08209
#
# Poissons Ratio (x) = 0.31900 0.20906
# Poissons Ratio (y) = 0.44643 0.41212
# Poissons Ratio (z) = 0.15591 0.21962
#
# Static dielectric constant tensor:
#      x y z
#    x 1.640740 0.000000 0.000000 
#    y 0.000000 1.661150 0.000000 
#    z 0.000000 0.000000 1.621560 
# 
# From -- ./inp_files/19976.got.cif
#   From: 2010.05.17/outbox.cif.g08.bks.cpg/sg59_10_cif.got.tgz:19976.got - 2010.06.03 14:40:33.
