data_PCOD9452072
_publ_section_title
;
Structure prediction by ZEFSAII (Michael W. Deem and Ramdas Pophale) SiO2 
 PCOD9452072
Probable space group: P M M N
;
_chemical_formula_sum "Si O2"
_cell_formula_units_Z 48
_cell_length_a 27.534380
_cell_length_b 15.193960
_cell_length_c 6.116142
_cell_angle_alpha 90.000000
_cell_angle_beta 90.000000
_cell_angle_gamma 90.000000
_cell_volume 2558.726344
_symmetry_space_group_name_H-M "P M M N"
_symmetry_group_IT_number 59
_space_group.IT_coordinate_system_code '2'
_symmetry_cell_setting 'orthorhombic'
loop_
_space_group_symop_operation_xyz
x,y,z
1/2-x,1/2-y,z
1/2+x,-y,-z
-x,1/2+y,-z
-x,-y,-z
1/2+x,1/2+y,-z
1/2-x,y,z
x,1/2-y,z
loop_
_atom_site_type_symbol
_atom_site_label
_atom_site_fract_x
_atom_site_fract_y
_atom_site_fract_z
Si Si1 0.499324 0.750000 0.198225
Si Si2 0.195313 0.647738 0.450212
Si Si3 0.624862 0.460483 0.248996
Si Si4 0.547743 0.750000 0.696412
Si Si5 0.956179 0.063736 0.920840
Si Si6 0.194771 0.010510 0.129698
Si Si7 0.894899 0.927981 0.633880
O O1 0.521288 0.750000 0.451408
O O2 0.472521 0.844511 0.184250
O O3 0.524352 0.750000 0.946365
O O4 0.250000 0.637613 0.548688
O O5 0.188072 0.750000 0.402456
O O6 0.153085 0.608954 0.600734
O O7 0.195052 0.586816 0.236715
O O8 0.603712 0.542427 0.384064
O O9 0.580392 0.417358 0.120741
O O10 0.665803 0.500885 0.092984
O O11 0.579881 0.662538 0.686898
O O12 0.923760 0.005251 0.758308
O O13 0.000000 0.000000 0.000000
O O14 0.250000 0.040734 0.109369
O O15 0.160894 0.068613 0.287334
#
# Coordination Sequence:
#
# PCOD9452072 Si02
#       7
#     4   8   8   4   8   8   8
#     4  12  28  42  70  98 130 178 220 272 324 397
#     4   9  18  33  54  83 119 161 210 261 318 388
#     4  10  21  36  59  86 125 167 206 269 323 386
#     4  12  26  46  71  96 128 172 223 272 338 389
#     4  11  23  42  62  91 129 168 219 265 327 381
#     4   9  19  38  61  88 122 165 213 263 331 394
#     4  10  23  42  66  92 127 166 215 276 327 396
#
# _framework density 18.759333999999999
#
# number of rings (size 3 to 8) (size 9 to 14) (size 15 to 20)
#    0.000    1.833    1.667    1.500    5.833    2.667 
#   12.000    2.083    0.000    0.000    0.000    0.000 
#    0.000    0.000    0.000    0.000    0.000    0.000 
#
# Total GULP energy -267317.360956 kJ/mol
# GULP energy per Si atom -5569.111687 kJ/mol
# Density = 1.871664 g / cm^3
# Si number density = 18.759334 Si / 1000 Ang^3
#
#
#
# Elastic Constant Matrix: (Units=GPa)
#
#
# Indices 1 2 3 4 5 6 
#
# 1 85.3377 26.1854 21.6147 0.0000 0.0000 0.0000
# 2 26.1854 101.3309 10.0431 0.0000 0.0000 0.0000
# 3 21.6147 10.0431 65.7125 0.0000 0.0000 0.0000
# 4 0.0000 0.0000 0.0000 -0.3236 0.0000 0.0000
# 5 0.0000 0.0000 0.0000 0.0000 21.5396 0.0000
# 6 0.0000 0.0000 0.0000 0.0000 0.0000 156.3661
#
#
#
# Elastic Compliance Matrix: (Units=1/GPa)
#
#
# Indices 1 2 3 4 5 6 
#
# 1 0.013702 -0.003142 -0.004027 0.000000 0.000000 0.000000
# 2 -0.003142 0.010741 -0.000608 0.000000 0.000000 0.000000
# 3 -0.004027 -0.000608 0.016635 0.000000 0.000000 0.000000
# 4 0.000000 0.000000 0.000000 -3.090253 0.000000 0.000000
# 5 0.000000 0.000000 0.000000 0.000000 0.046426 0.000000
# 6 0.000000 0.000000 0.000000 0.000000 0.000000 0.006395
#
#
# Mechanical properties :
#
#
# Convention : Reuss Voigt Hill
#
# Bulk Modulus (GPa) = 39.17764 40.89638 40.03701
# Shear Modulus (GPa) = -1.68220 48.48561 23.40170
#
# Velocity S-wave (km/s) = -0.94799 5.08942 3.53579
# Velocity P-wave (km/s) = 4.44201 7.50894 6.16910
#
# Compressibility (1/GPa) = 0.02552476
#
# Stress axis : x y z
#
# Youngs Moduli (GPa) = 72.98146 93.10288 60.11315
#
# Poissons Ratio (x) = 0.29250 0.24207
# Poissons Ratio (y) = 0.22929 0.03656
# Poissons Ratio (z) = 0.29388 0.05662
#
# Static dielectric constant tensor:
#      x y z
#    x 1.676370 0.000000 0.000000 
#    y 0.000000 1.603230 0.000000 
#    z 0.000000 0.000000 1.734030 
# 
# From -- ./inp_files/2175.got.cif
#   From: 2010.05.17/outbox.cif.g08.bks.cpg/sg59_2_cif.got.tgz:2175.got - 2010.06.03 14:40:33.
