data_PCOD9452761
_publ_section_title
;
Structure prediction by ZEFSAII (Michael W. Deem and Ramdas Pophale) SiO2 
 PCOD9452761
Probable space group: P M M N
;
_chemical_formula_sum "Si O2"
_cell_formula_units_Z 64
_cell_length_a 26.626569
_cell_length_b 8.792719
_cell_length_c 13.456225
_cell_angle_alpha 90.000000
_cell_angle_beta 90.000000
_cell_angle_gamma 90.000000
_cell_volume 3150.370578
_symmetry_space_group_name_H-M "P M M N"
_symmetry_group_IT_number 59
_space_group.IT_coordinate_system_code '2'
_symmetry_cell_setting 'orthorhombic'
loop_
_space_group_symop_operation_xyz
x,y,z
1/2-x,1/2-y,z
1/2+x,-y,-z
-x,1/2+y,-z
-x,-y,-z
1/2+x,1/2+y,-z
1/2-x,y,z
x,1/2-y,z
loop_
_atom_site_type_symbol
_atom_site_label
_atom_site_fract_x
_atom_site_fract_y
_atom_site_fract_z
Si Si1 0.977050 0.922198 0.595107
Si Si2 0.010731 0.566528 0.107991
Si Si3 0.641686 0.922169 0.601879
Si Si4 0.644999 0.430313 0.391799
Si Si5 0.809670 0.578499 0.199097
Si Si6 0.310057 0.930893 0.008116
Si Si7 0.119038 0.433510 0.176673
Si Si8 0.948692 0.926314 0.283619
O O1 0.995479 0.750000 0.612375
O O2 0.918083 0.913465 0.585522
O O3 0.000000 0.000000 0.500000
O O4 0.995559 0.036901 0.678125
O O5 0.015707 0.750000 0.107967
O O6 0.063584 0.497378 0.149171
O O7 0.958882 0.532436 0.169804
O O8 0.000000 0.500000 0.000000
O O9 0.662696 0.750000 0.601000
O O10 0.642396 0.983977 0.715512
O O11 0.658773 0.009207 0.502123
O O12 0.648141 0.250000 0.392920
O O13 0.678159 0.500984 0.303662
O O14 0.589777 0.480646 0.351486
O O15 0.750000 0.588131 0.191347
O O16 0.830765 0.750000 0.196813
O O17 0.826237 0.485662 0.102053
O O18 0.250000 0.961999 0.019514
O O19 0.317246 0.750000 0.016847
O O20 0.342668 0.016365 0.090720
O O21 0.114548 0.250000 0.183391
O O22 0.936685 0.750000 0.296200
#
# Coordination Sequence:
#
# PCOD9452761 Si02
#       8
#     8   8   8   8   8   8   8   8
#     4  11  20  33  54  79 111 152 198 246 291 340
#     4  11  25  41  59  84 121 165 209 256 308 366
#     4  10  22  39  58  84 122 165 207 252 300 360
#     4  12  25  38  61  92 124 162 204 254 306 363
#     4  10  22  43  70  95 122 156 196 247 307 370
#     4  10  22  42  68  97 126 156 198 252 307 366
#     4  11  23  41  65  91 124 164 208 256 310 368
#     4  11  23  38  56  81 117 160 205 251 296 356
#
# _framework density 20.315072000000001
#
# number of rings (size 3 to 8) (size 9 to 14) (size 15 to 20)
#    0.000    1.250    2.500    3.375    1.750    4.500 
#    0.000    0.625    0.000    0.750    0.000    0.000 
#    0.000    0.000    0.000    0.000    0.000    0.000 
#
# Total GULP energy -356799.404376 kJ/mol
# GULP energy per Si atom -5574.990693 kJ/mol
# Density = 2.026883 g / cm^3
# Si number density = 20.315072 Si / 1000 Ang^3
#
#
#
# Elastic Constant Matrix: (Units=GPa)
#
#
# Indices 1 2 3 4 5 6 
#
# 1 34.4252 22.2561 23.8044 0.0000 0.0000 0.0000
# 2 22.2561 71.6033 47.9018 0.0000 0.0000 0.0000
# 3 23.8044 47.9018 162.4391 0.0000 0.0000 0.0000
# 4 0.0000 0.0000 0.0000 30.7392 0.0000 0.0000
# 5 0.0000 0.0000 0.0000 0.0000 34.0960 0.0000
# 6 0.0000 0.0000 0.0000 0.0000 0.0000 23.8859
#
#
#
# Elastic Compliance Matrix: (Units=1/GPa)
#
#
# Indices 1 2 3 4 5 6 
#
# 1 0.037178 -0.009855 -0.002542 0.000000 0.000000 0.000000
# 2 -0.009855 0.020011 -0.004457 0.000000 0.000000 0.000000
# 3 -0.002542 -0.004457 0.007843 0.000000 0.000000 0.000000
# 4 0.000000 0.000000 0.000000 0.032532 0.000000 0.000000
# 5 0.000000 0.000000 0.000000 0.000000 0.029329 0.000000
# 6 0.000000 0.000000 0.000000 0.000000 0.000000 0.041866
#
#
# Mechanical properties :
#
#
# Convention : Reuss Voigt Hill
#
# Bulk Modulus (GPa) = 31.92500 50.71023 41.31762
# Shear Modulus (GPa) = 23.48450 29.37792 26.43121
#
# Velocity S-wave (km/s) = 3.40371 3.80691 3.61094
# Velocity P-wave (km/s) = 5.58534 6.65879 6.14555
#
# Compressibility (1/GPa) = 0.03132341
#
# Stress axis : x y z
#
# Youngs Moduli (GPa) = 26.89787 49.97360 127.50390
#
# Poissons Ratio (x) = 0.49250 0.32411
# Poissons Ratio (y) = 0.26508 0.56825
# Poissons Ratio (z) = 0.06837 0.22272
#
# Static dielectric constant tensor:
#      x y z
#    x 1.760450 0.000000 0.000000 
#    y 0.000000 1.704580 0.000000 
#    z 0.000000 0.000000 1.811830 
# 
# From -- ./inp_files/19320.got.cif
#   From: 2010.05.17/outbox.cif.g08.bks.cpg/sg59_10_cif.got.tgz:19320.got - 2010.06.03 14:40:33.
