data_PCOD9452385
_publ_section_title
;
Structure prediction by ZEFSAII (Michael W. Deem and Ramdas Pophale) SiO2 
 PCOD9452385
Probable space group: P M M N
;
_chemical_formula_sum "Si O2"
_cell_formula_units_Z 40
_cell_length_a 19.556123
_cell_length_b 13.961260
_cell_length_c 6.926379
_cell_angle_alpha 90.000000
_cell_angle_beta 90.000000
_cell_angle_gamma 90.000000
_cell_volume 1891.096222
_symmetry_space_group_name_H-M "P M M N"
_symmetry_group_IT_number 59
_space_group.IT_coordinate_system_code '2'
_symmetry_cell_setting 'orthorhombic'
loop_
_space_group_symop_operation_xyz
x,y,z
1/2-x,1/2-y,z
1/2+x,-y,-z
-x,1/2+y,-z
-x,-y,-z
1/2+x,1/2+y,-z
1/2-x,y,z
x,1/2-y,z
loop_
_atom_site_type_symbol
_atom_site_label
_atom_site_fract_x
_atom_site_fract_y
_atom_site_fract_z
Si Si1 0.173764 0.009546 0.188553
Si Si2 0.951378 0.858221 0.900964
Si Si3 0.489496 0.141312 0.555337
Si Si4 0.388824 0.985106 0.577112
Si Si5 0.105787 0.636287 0.951746
O O1 0.250000 0.036511 0.128730
O O2 0.166978 0.014544 0.420532
O O3 0.114480 0.074374 0.092546
O O4 0.154877 0.903253 0.116696
O O5 0.935126 0.750000 0.963717
O O6 0.968962 0.854135 0.671330
O O7 0.025064 0.887588 0.989900
O O8 0.499647 0.250000 0.622849
O O9 0.556740 0.076343 0.550343
O O10 0.429155 0.079541 0.650509
O O11 0.371523 0.918128 0.756337
O O12 0.108550 0.750000 0.926178
#
# Coordination Sequence:
#
# PCOD9452385 Si02
#       5
#     8   8   8   8   8
#     4  11  23  36  53  81 113 143 178 220 272 332
#     4   8  16  34  59  82 105 139 181 225 273 319
#     4   8  14  28  54  84 106 128 170 223 266 313
#     4   9  18  34  54  76 105 140 174 212 266 321
#     4  10  21  38  58  79 106 142 187 231 266 312
#
# _framework density 21.151752999999999
#
# number of rings (size 3 to 8) (size 9 to 14) (size 15 to 20)
#    0.000    2.800    0.000    3.600    0.000    3.200 
#    0.000    3.000    0.000    0.000    0.000    2.800 
#    0.000    0.000    0.000    0.000    0.000    0.000 
#
# Total GULP energy -223249.627396 kJ/mol
# GULP energy per Si atom -5581.240685 kJ/mol
# Density = 2.110361 g / cm^3
# Si number density = 21.151753 Si / 1000 Ang^3
#
#
#
# Elastic Constant Matrix: (Units=GPa)
#
#
# Indices 1 2 3 4 5 6 
#
# 1 84.4247 17.6958 10.8310 0.0000 0.0000 0.0000
# 2 17.6958 97.8719 -7.4890 0.0000 0.0000 0.0000
# 3 10.8310 -7.4890 52.1092 0.0000 0.0000 0.0000
# 4 0.0000 0.0000 0.0000 25.8019 0.0000 0.0000
# 5 0.0000 0.0000 0.0000 0.0000 19.7998 0.0000
# 6 0.0000 0.0000 0.0000 0.0000 0.0000 9.6643
#
#
#
# Elastic Compliance Matrix: (Units=1/GPa)
#
#
# Indices 1 2 3 4 5 6 
#
# 1 0.012764 -0.002539 -0.003018 0.000000 0.000000 0.000000
# 2 -0.002539 0.010836 0.002085 0.000000 0.000000 0.000000
# 3 -0.003018 0.002085 0.020117 0.000000 0.000000 0.000000
# 4 0.000000 0.000000 0.000000 0.038757 0.000000 0.000000
# 5 0.000000 0.000000 0.000000 0.000000 0.050506 0.000000
# 6 0.000000 0.000000 0.000000 0.000000 0.000000 0.103474
#
#
# Mechanical properties :
#
#
# Convention : Reuss Voigt Hill
#
# Bulk Modulus (GPa) = 27.19298 30.72017 28.95657
# Shear Modulus (GPa) = 19.55761 25.27774 22.41767
#
# Velocity S-wave (km/s) = 3.04408 3.46072 3.25906
# Velocity P-wave (km/s) = 5.02387 5.52486 5.28031
#
# Compressibility (1/GPa) = 0.03677420
#
# Stress axis : x y z
#
# Youngs Moduli (GPa) = 78.34418 92.28503 49.70823
#
# Poissons Ratio (x) = 0.23429 0.15002
# Poissons Ratio (y) = 0.19890 -0.10364
# Poissons Ratio (z) = 0.23644 -0.19241
#
# Static dielectric constant tensor:
#      x y z
#    x 1.762510 0.000000 0.000000 
#    y 0.000000 1.779010 0.000000 
#    z 0.000000 0.000000 1.844230 
# 
# From -- ./inp_files/10116.got.cif
#   From: 2010.05.17/outbox.cif.g08.bks.cpg/sg59_6_cif.got.tgz:10116.got - 2010.06.03 14:40:33.
