data_PCOD9452267
_publ_section_title
;
Structure prediction by ZEFSAII (Michael W. Deem and Ramdas Pophale) SiO2 
 PCOD9452267
Probable space group: P M M N
;
_chemical_formula_sum "Si O2"
_cell_formula_units_Z 56
_cell_length_a 13.441322
_cell_length_b 9.320168
_cell_length_c 21.331418
_cell_angle_alpha 90.000000
_cell_angle_beta 90.000000
_cell_angle_gamma 90.000000
_cell_volume 2672.301478
_symmetry_space_group_name_H-M "P M M N"
_symmetry_group_IT_number 59
_space_group.IT_coordinate_system_code '2'
_symmetry_cell_setting 'orthorhombic'
loop_
_space_group_symop_operation_xyz
x,y,z
1/2-x,1/2-y,z
1/2+x,-y,-z
-x,1/2+y,-z
-x,-y,-z
1/2+x,1/2+y,-z
1/2-x,y,z
x,1/2-y,z
loop_
_atom_site_type_symbol
_atom_site_label
_atom_site_fract_x
_atom_site_fract_y
_atom_site_fract_z
Si Si1 0.369772 0.913458 0.151591
Si Si2 0.370729 0.914975 0.905821
Si Si3 0.636891 0.580857 0.454688
Si Si4 0.556734 0.918275 0.592593
Si Si5 0.871247 0.914550 0.970699
Si Si6 0.132748 0.577819 0.764380
Si Si7 0.952689 0.421176 0.712359
O O1 0.250000 0.910689 0.149647
O O2 0.405504 0.750000 0.140517
O O3 0.400475 0.956908 0.221552
O O4 0.403250 0.014966 0.094958
O O5 0.250000 0.914022 0.907120
O O6 0.402295 0.750000 0.910119
O O7 0.393794 0.968772 0.835831
O O8 0.402242 0.001049 0.966986
O O9 0.750000 0.543081 0.437239
O O10 0.620226 0.750000 0.439850
O O11 0.551238 0.484809 0.424256
O O12 0.622076 0.566042 0.529806
O O13 0.548237 0.750000 0.607048
O O14 0.596314 0.004580 0.652360
O O15 0.750000 0.918818 0.970020
O O16 0.900759 0.750000 0.975357
O O17 0.250000 0.553701 0.754235
O O18 0.115508 0.750000 0.759665
O O19 0.062728 0.488440 0.718999
O O20 0.954809 0.250000 0.705475
#
# Coordination Sequence:
#
# PCOD9452267 Si02
#       7
#     8   8   8   8   8   8   8
#     4   9  19  36  54  72 100 140 183 224 269 324
#     4   8  14  27  48  71  96 130 171 216 270 329
#     4   9  19  38  63  89 116 145 179 219 260 303
#     4  10  21  37  58  85 116 148 180 216 261 312
#     4   9  16  26  45  74 102 129 168 221 277 327
#     4   9  19  36  56  77 103 139 182 225 272 327
#     4  11  23  37  55  80 110 145 183 223 267 313
#
# _framework density 20.955721
#
# number of rings (size 3 to 8) (size 9 to 14) (size 15 to 20)
#    0.000    2.714    0.000    2.143    0.000    5.714 
#    0.000    2.143    0.000    0.000    0.000    0.000 
#    0.000    0.000    0.000    0.000    0.000    0.000 
#
# Total GULP energy -312848.985174 kJ/mol
# GULP energy per Si atom -5586.589021 kJ/mol
# Density = 2.090803 g / cm^3
# Si number density = 20.955721 Si / 1000 Ang^3
#
#
#
# Elastic Constant Matrix: (Units=GPa)
#
#
# Indices 1 2 3 4 5 6 
#
# 1 39.4567 -7.9615 -11.4972 0.0000 0.0000 0.0000
# 2 -7.9615 66.8045 46.0167 0.0000 0.0000 0.0000
# 3 -11.4972 46.0167 97.0086 0.0000 0.0000 0.0000
# 4 0.0000 0.0000 0.0000 40.0203 0.0000 0.0000
# 5 0.0000 0.0000 0.0000 0.0000 16.2989 0.0000
# 6 0.0000 0.0000 0.0000 0.0000 0.0000 15.4825
#
#
#
# Elastic Compliance Matrix: (Units=1/GPa)
#
#
# Indices 1 2 3 4 5 6 
#
# 1 0.026347 0.001469 0.002426 0.000000 0.000000 0.000000
# 2 0.001469 0.022316 -0.010412 0.000000 0.000000 0.000000
# 3 0.002426 -0.010412 0.015535 0.000000 0.000000 0.000000
# 4 0.000000 0.000000 0.000000 0.024987 0.000000 0.000000
# 5 0.000000 0.000000 0.000000 0.000000 0.061354 0.000000
# 6 0.000000 0.000000 0.000000 0.000000 0.000000 0.064589
#
#
# Mechanical properties :
#
#
# Convention : Reuss Voigt Hill
#
# Bulk Modulus (GPa) = 19.54480 28.48733 24.01606
# Shear Modulus (GPa) = 20.39011 26.14112 23.26562
#
# Velocity S-wave (km/s) = 3.12269 3.53575 3.33562
# Velocity P-wave (km/s) = 4.72743 5.50384 5.13034
#
# Compressibility (1/GPa) = 0.05116452
#
# Stress axis : x y z
#
# Youngs Moduli (GPa) = 37.95427 44.81108 64.37210
#
# Poissons Ratio (x) = -0.06583 -0.15615
# Poissons Ratio (y) = -0.05576 0.67022
# Poissons Ratio (z) = -0.09207 0.46656
#
# Static dielectric constant tensor:
#      x y z
#    x 1.784920 0.000000 0.000000 
#    y 0.000000 1.707150 0.000000 
#    z 0.000000 0.000000 1.751670 
# 
# From -- ./inp_files/30399.got.cif
#   From: 2010.05.17/outbox.cif.g08.bks.cpg/sg59_16_cif.got.tgz:30399.got - 2010.06.03 14:40:33.
