data_PCOD9452958
_publ_section_title
;
Structure prediction by ZEFSAII (Michael W. Deem and Ramdas Pophale) SiO2 
 PCOD9452958
Probable space group: P M M N
;
_chemical_formula_sum "Si O2"
_cell_formula_units_Z 30
_cell_length_a 14.153131
_cell_length_b 17.511013
_cell_length_c 5.038203
_cell_angle_alpha 90.000000
_cell_angle_beta 90.000000
_cell_angle_gamma 90.000000
_cell_volume 1248.646370
_symmetry_space_group_name_H-M "P M M N"
_symmetry_group_IT_number 59
_space_group.IT_coordinate_system_code '2'
_symmetry_cell_setting 'orthorhombic'
loop_
_space_group_symop_operation_xyz
x,y,z
1/2-x,1/2-y,z
1/2+x,-y,-z
-x,1/2+y,-z
-x,-y,-z
1/2+x,1/2+y,-z
1/2-x,y,z
x,1/2-y,z
loop_
_atom_site_type_symbol
_atom_site_label
_atom_site_fract_x
_atom_site_fract_y
_atom_site_fract_z
Si Si1 0.356956 0.868288 0.174009
Si Si2 0.903873 0.535289 0.886749
Si Si3 0.750000 0.631980 0.145596
Si Si4 0.983954 0.166370 0.334903
Si Si5 0.250000 0.250000 0.354989
O O1 0.250000 0.839555 0.186200
O O2 0.426840 0.835913 0.394263
O O3 0.353737 0.959792 0.220121
O O4 0.406580 0.848184 0.895273
O O5 0.840928 0.577065 0.107276
O O6 0.939226 0.600013 0.685133
O O7 0.000000 0.500000 0.000000
O O8 0.750000 0.684313 0.882397
O O9 0.750000 0.682947 0.407689
O O10 0.030214 0.250000 0.299481
#
# Coordination Sequence:
#
# PCOD9452958 Si02
#       5
#     8   8   4   8   2
#     4  11  23  44  69  96 132 178 230 285 344 410
#     4  10  24  47  73 102 138 185 236 288 347 415
#     4  11  24  50  72 106 145 186 236 294 355 426
#     4  11  25  41  65 100 135 176 224 284 347 416
#     4  10  28  42  72 114 144 188 230 294 364 426
#
# _framework density 24.026018000000001
#
# number of rings (size 3 to 8) (size 9 to 14) (size 15 to 20)
#    0.000    1.333    1.333    2.400    3.733   11.733 
#    0.000    0.000    0.000    0.000    0.000    0.000 
#    0.000    0.000    0.000    0.000    0.000    0.000 
#
# Total GULP energy -167460.319453 kJ/mol
# GULP energy per Si atom -5582.010648 kJ/mol
# Density = 2.397133 g / cm^3
# Si number density = 24.026018 Si / 1000 Ang^3
#
#
#
# Elastic Constant Matrix: (Units=GPa)
#
#
# Indices 1 2 3 4 5 6 
#
# 1 93.0227 25.1150 21.2338 0.0000 0.0000 0.0000
# 2 25.1150 193.3536 17.7384 0.0000 0.0000 0.0000
# 3 21.2338 17.7384 103.2733 0.0000 0.0000 0.0000
# 4 0.0000 0.0000 0.0000 20.1002 0.0000 0.0000
# 5 0.0000 0.0000 0.0000 0.0000 15.9229 0.0000
# 6 0.0000 0.0000 0.0000 0.0000 0.0000 68.4861
#
#
#
# Elastic Compliance Matrix: (Units=1/GPa)
#
#
# Indices 1 2 3 4 5 6 
#
# 1 0.011596 -0.001308 -0.002160 0.000000 0.000000 0.000000
# 2 -0.001308 0.005402 -0.000659 0.000000 0.000000 0.000000
# 3 -0.002160 -0.000659 0.010240 0.000000 0.000000 0.000000
# 4 0.000000 0.000000 0.000000 0.049751 0.000000 0.000000
# 5 0.000000 0.000000 0.000000 0.000000 0.062803 0.000000
# 6 0.000000 0.000000 0.000000 0.000000 0.000000 0.014602
#
#
# Mechanical properties :
#
#
# Convention : Reuss Voigt Hill
#
# Bulk Modulus (GPa) = 52.67208 57.53601 55.10404
# Shear Modulus (GPa) = 29.59009 42.60599 36.09804
#
# Velocity S-wave (km/s) = 3.51320 4.21566 3.88036
# Velocity P-wave (km/s) = 6.19898 6.90616 6.56210
#
# Compressibility (1/GPa) = 0.01898539
#
# Stress axis : x y z
#
# Youngs Moduli (GPa) = 86.23520 185.10855 97.65387
#
# Poissons Ratio (x) = 0.24215 0.21089
# Poissons Ratio (y) = 0.11281 0.06435
# Poissons Ratio (z) = 0.18623 0.12197
#
# Static dielectric constant tensor:
#      x y z
#    x 1.179370 0.000000 0.000000 
#    y 0.000000 2.018000 0.000000 
#    z 0.000000 0.000000 1.839310 
# 
# From -- ./inp_files/1791.got.cif
#   From: 2010.05.17/outbox.cif.g08.bks.cpg/sg59_1_cif.got.tgz:1791.got - 2010.06.03 14:40:33.
