data_PCOD9452141
_publ_section_title
;
Structure prediction by ZEFSAII (Michael W. Deem and Ramdas Pophale) SiO2 
 PCOD9452141
Probable space group: P M M N
;
_chemical_formula_sum "Si O2"
_cell_formula_units_Z 64
_cell_length_a 18.491977
_cell_length_b 7.911780
_cell_length_c 20.702097
_cell_angle_alpha 90.000000
_cell_angle_beta 90.000000
_cell_angle_gamma 90.000000
_cell_volume 3028.808994
_symmetry_space_group_name_H-M "P M M N"
_symmetry_group_IT_number 59
_space_group.IT_coordinate_system_code '2'
_symmetry_cell_setting 'orthorhombic'
loop_
_space_group_symop_operation_xyz
x,y,z
1/2-x,1/2-y,z
1/2+x,-y,-z
-x,1/2+y,-z
-x,-y,-z
1/2+x,1/2+y,-z
1/2-x,y,z
x,1/2-y,z
loop_
_atom_site_type_symbol
_atom_site_label
_atom_site_fract_x
_atom_site_fract_y
_atom_site_fract_z
Si Si1 0.667577 0.050382 0.903415
Si Si2 0.907031 0.944449 0.170612
Si Si3 0.420284 0.453344 0.974367
Si Si4 0.939873 0.558722 0.793156
Si Si5 0.669722 0.454404 0.682920
Si Si6 0.432136 0.048864 0.585814
Si Si7 0.906014 0.045502 0.554980
Si Si8 0.667611 0.957742 0.297833
O O1 0.750000 0.990904 0.896505
O O2 0.665711 0.250000 0.888275
O O3 0.612997 0.962344 0.854217
O O4 0.638015 0.022435 0.975295
O O5 0.883626 0.750000 0.162766
O O6 0.908356 0.018840 0.098549
O O7 0.857828 0.018313 0.227315
O O8 0.989229 0.947431 0.196649
O O9 0.416331 0.250000 0.974000
O O10 0.500000 0.500000 0.000000
O O11 0.965940 0.750000 0.789079
O O12 0.892272 0.514643 0.731039
O O13 0.750000 0.512684 0.702009
O O14 0.669486 0.250000 0.685349
O O15 0.650303 0.505811 0.609943
O O16 0.438683 0.250000 0.594709
O O17 0.514107 0.983532 0.577128
O O18 0.387398 0.982709 0.646628
O O19 0.393218 0.016078 0.517514
O O20 0.907465 0.250000 0.552985
O O21 0.750000 0.005797 0.311569
O O22 0.664733 0.750000 0.297407
#
# Coordination Sequence:
#
# PCOD9452141 Si02
#       8
#     8   8   8   8   8   8   8   8
#     4  11  24  41  61  85 117 156 194 236 290 349
#     4  10  21  38  62  86 113 151 191 233 281 341
#     4  11  22  37  61  89 118 152 193 242 290 346
#     4  12  24  37  58  85 114 148 188 238 287 341
#     4  10  21  37  56  78 109 149 188 228 279 339
#     4   9  17  31  53  79 108 143 183 234 283 326
#     4   9  18  33  53  77 107 145 190 232 275 337
#     4   9  18  34  57  85 114 147 191 237 283 339
#
# _framework density 21.130417999999999
#
# number of rings (size 3 to 8) (size 9 to 14) (size 15 to 20)
#    0.000    1.875    1.250    3.000    0.000    6.750 
#    0.000    4.375    0.000    1.125    0.000    0.000 
#    0.000    0.000    0.000    0.000    0.000    0.000 
#
# Total GULP energy -357561.488593 kJ/mol
# GULP energy per Si atom -5586.898259 kJ/mol
# Density = 2.108232 g / cm^3
# Si number density = 21.130418 Si / 1000 Ang^3
#
#
#
# Elastic Constant Matrix: (Units=GPa)
#
#
# Indices 1 2 3 4 5 6 
#
# 1 34.8428 -7.8676 2.8760 0.0000 0.0000 0.0000
# 2 -7.8676 29.2734 -5.4643 0.0000 0.0000 0.0000
# 3 2.8760 -5.4643 101.7431 0.0000 0.0000 0.0000
# 4 0.0000 0.0000 0.0000 24.2793 0.0000 0.0000
# 5 0.0000 0.0000 0.0000 0.0000 3.2133 0.0000
# 6 0.0000 0.0000 0.0000 0.0000 0.0000 7.5135
#
#
#
# Elastic Compliance Matrix: (Units=1/GPa)
#
#
# Indices 1 2 3 4 5 6 
#
# 1 0.030573 0.008137 -0.000427 0.000000 0.000000 0.000000
# 2 0.008137 0.036672 0.001740 0.000000 0.000000 0.000000
# 3 -0.000427 0.001740 0.009934 0.000000 0.000000 0.000000
# 4 0.000000 0.000000 0.000000 0.041187 0.000000 0.000000
# 5 0.000000 0.000000 0.000000 0.000000 0.311209 0.000000
# 6 0.000000 0.000000 0.000000 0.000000 0.000000 0.133094
#
#
# Mechanical properties :
#
#
# Convention : Reuss Voigt Hill
#
# Bulk Modulus (GPa) = 10.40813 16.10526 13.25669
# Shear Modulus (GPa) = 8.68362 18.75555 13.71959
#
# Velocity S-wave (km/s) = 2.02940 2.98251 2.55086
# Velocity P-wave (km/s) = 3.22918 4.41575 3.86824
#
# Compressibility (1/GPa) = 0.09607872
#
# Stress axis : x y z
#
# Youngs Moduli (GPa) = 32.70856 27.26844 100.66252
#
# Poissons Ratio (x) = -0.22189 0.04300
# Poissons Ratio (y) = -0.26616 -0.17511
# Poissons Ratio (z) = 0.01397 -0.04744
#
# Static dielectric constant tensor:
#      x y z
#    x 1.730550 0.000000 0.000000 
#    y 0.000000 1.778020 0.000000 
#    z 0.000000 0.000000 1.780820 
# 
# From -- ./inp_files/30763.got.cif
#   From: 2010.05.17/outbox.cif.g08.bks.cpg/sg59_16_cif.got.tgz:30763.got - 2010.06.03 14:40:33.
