data_PCOD9452545
_publ_section_title
;
Structure prediction by ZEFSAII (Michael W. Deem and Ramdas Pophale) SiO2 
 PCOD9452545
Probable space group: P M M N
;
_chemical_formula_sum "Si O2"
_cell_formula_units_Z 64
_cell_length_a 31.266846
_cell_length_b 8.768519
_cell_length_c 12.392077
_cell_angle_alpha 90.000000
_cell_angle_beta 90.000000
_cell_angle_gamma 90.000000
_cell_volume 3397.460571
_symmetry_space_group_name_H-M "P M M N"
_symmetry_group_IT_number 59
_space_group.IT_coordinate_system_code '2'
_symmetry_cell_setting 'orthorhombic'
loop_
_space_group_symop_operation_xyz
x,y,z
1/2-x,1/2-y,z
1/2+x,-y,-z
-x,1/2+y,-z
-x,-y,-z
1/2+x,1/2+y,-z
1/2-x,y,z
x,1/2-y,z
loop_
_atom_site_type_symbol
_atom_site_label
_atom_site_fract_x
_atom_site_fract_y
_atom_site_fract_z
Si Si1 0.198914 0.925853 0.256074
Si Si2 0.865435 0.569645 0.586560
Si Si3 0.893458 0.069386 0.367948
Si Si4 0.452365 0.567398 0.014578
Si Si5 0.940808 0.932423 0.755455
Si Si6 0.013868 0.068918 0.614917
Si Si7 0.700230 0.568200 0.975642
Si Si8 0.628610 0.432303 0.127140
O O1 0.250000 0.932436 0.266980
O O2 0.185024 0.750000 0.265632
O O3 0.176278 0.025963 0.346347
O O4 0.188416 0.989135 0.137497
O O5 0.867988 0.750000 0.565265
O O6 0.868462 0.479174 0.475069
O O7 0.904907 0.528973 0.666345
O O8 0.903345 0.250000 0.371696
O O9 0.870451 0.037921 0.254704
O O10 0.937118 0.974460 0.368883
O O11 0.455985 0.750000 0.014388
O O12 0.417660 0.522973 0.923193
O O13 0.500000 0.500000 0.000000
O O14 0.434136 0.509872 0.129149
O O15 0.941431 0.750000 0.768576
O O16 0.985298 0.991371 0.706820
O O17 0.007462 0.250000 0.614879
O O18 0.000000 0.000000 0.500000
O O19 0.750000 0.528880 0.000352
O O20 0.697785 0.750000 0.962069
O O21 0.666919 0.513925 0.064990
O O22 0.632680 0.250000 0.110404
#
# Coordination Sequence:
#
# PCOD9452545 Si02
#       8
#     8   8   8   8   8   8   8   8
#     4  10  21  38  62  90 120 153 189 236 295 356
#     4  11  23  38  59  87 118 152 193 240 290 348
#     4  11  23  40  61  85 119 159 201 249 295 351
#     4  11  23  39  59  85 119 157 200 247 300 359
#     4  11  23  38  57  84 117 151 195 244 294 350
#     4  12  23  37  58  84 115 155 200 246 296 347
#     4  10  21  38  63  94 123 153 194 245 301 362
#     4  10  23  41  61  87 119 159 203 248 302 361
#
# _framework density 18.837599999999998
#
# number of rings (size 3 to 8) (size 9 to 14) (size 15 to 20)
#    0.000    1.250    1.250    4.875    0.000    8.000 
#    0.000    0.625    0.000    0.750    0.000    0.000 
#    0.000    0.000    0.000    0.000    0.000    0.000 
#
# Total GULP energy -357866.373087 kJ/mol
# GULP energy per Si atom -5591.662079 kJ/mol
# Density = 1.879473 g / cm^3
# Si number density = 18.837600 Si / 1000 Ang^3
#
#
#
# Elastic Constant Matrix: (Units=GPa)
#
#
# Indices 1 2 3 4 5 6 
#
# 1 52.3006 20.3879 32.3168 0.0000 0.0000 0.0000
# 2 20.3879 43.0493 31.7215 0.0000 0.0000 0.0000
# 3 32.3168 31.7215 110.3897 0.0000 0.0000 0.0000
# 4 0.0000 0.0000 0.0000 28.0683 0.0000 0.0000
# 5 0.0000 0.0000 0.0000 0.0000 32.7125 0.0000
# 6 0.0000 0.0000 0.0000 0.0000 0.0000 31.3361
#
#
#
# Elastic Compliance Matrix: (Units=1/GPa)
#
#
# Indices 1 2 3 4 5 6 
#
# 1 0.025505 -0.008344 -0.005069 0.000000 0.000000 0.000000
# 2 -0.008344 0.032199 -0.006810 0.000000 0.000000 0.000000
# 3 -0.005069 -0.006810 0.012500 0.000000 0.000000 0.000000
# 4 0.000000 0.000000 0.000000 0.035627 0.000000 0.000000
# 5 0.000000 0.000000 0.000000 0.000000 0.030569 0.000000
# 6 0.000000 0.000000 0.000000 0.000000 0.000000 0.031912
#
#
# Mechanical properties :
#
#
# Convention : Reuss Voigt Hill
#
# Bulk Modulus (GPa) = 33.60453 41.62135 37.61294
# Shear Modulus (GPa) = 22.86476 26.51094 24.68785
#
# Velocity S-wave (km/s) = 3.48772 3.75552 3.62410
# Velocity P-wave (km/s) = 5.83924 6.39907 6.12555
#
# Compressibility (1/GPa) = 0.02975789
#
# Stress axis : x y z
#
# Youngs Moduli (GPa) = 39.20802 31.05707 80.00218
#
# Poissons Ratio (x) = 0.25914 0.40553
# Poissons Ratio (y) = 0.32715 0.54481
# Poissons Ratio (z) = 0.19874 0.21150
#
# Static dielectric constant tensor:
#      x y z
#    x 1.651630 0.000000 0.000000 
#    y 0.000000 1.633240 0.000000 
#    z 0.000000 0.000000 1.655610 
# 
# From -- ./inp_files/19213.got.cif
#   From: 2010.05.17/outbox.cif.g08.bks.cpg/sg59_10_cif.got.tgz:19213.got - 2010.06.03 14:40:33.
