data_PCOD9452510
_publ_section_title
;
Structure prediction by ZEFSAII (Michael W. Deem and Ramdas Pophale) SiO2 
 PCOD9452510
Probable space group: P M M N
;
_chemical_formula_sum "Si O2"
_cell_formula_units_Z 48
_cell_length_a 17.292329
_cell_length_b 8.866500
_cell_length_c 17.169876
_cell_angle_alpha 90.000000
_cell_angle_beta 90.000000
_cell_angle_gamma 90.000000
_cell_volume 2632.527198
_symmetry_space_group_name_H-M "P M M N"
_symmetry_group_IT_number 59
_space_group.IT_coordinate_system_code '2'
_symmetry_cell_setting 'orthorhombic'
loop_
_space_group_symop_operation_xyz
x,y,z
1/2-x,1/2-y,z
1/2+x,-y,-z
-x,1/2+y,-z
-x,-y,-z
1/2+x,1/2+y,-z
1/2-x,y,z
x,1/2-y,z
loop_
_atom_site_type_symbol
_atom_site_label
_atom_site_fract_x
_atom_site_fract_y
_atom_site_fract_z
Si Si1 0.397283 0.068702 0.062056
Si Si2 0.068718 0.569927 0.605722
Si Si3 0.340337 0.430724 0.749508
Si Si4 0.750000 0.568192 0.834667
Si Si5 0.594680 0.068578 0.573998
Si Si6 0.572187 0.069818 0.103373
Si Si7 0.750000 0.431963 0.663430
O O1 0.394628 0.250000 0.050631
O O2 0.326366 0.024565 0.116981
O O3 0.480543 0.032157 0.099942
O O4 0.393815 0.990250 0.978129
O O5 0.069961 0.750000 0.615205
O O6 0.120612 0.494547 0.671558
O O7 0.097440 0.533220 0.518146
O O8 0.980880 0.510138 0.609285
O O9 0.250000 0.473750 0.753131
O O10 0.345474 0.250000 0.749718
O O11 0.385585 0.495353 0.823839
O O12 0.750000 0.750000 0.827633
O O13 0.750000 0.497143 0.749729
O O14 0.585728 0.250000 0.580837
O O15 0.672819 0.022058 0.617216
O O16 0.579621 0.250000 0.107685
O O17 0.750000 0.250000 0.666792
#
# Coordination Sequence:
#
# PCOD9452510 Si02
#       7
#     8   8   8   4   8   8   4
#     4   9  20  39  60  84 117 155 190 233 291 344
#     4  10  21  38  63  88 116 153 196 243 293 347
#     4  11  25  41  59  85 119 156 195 239 293 349
#     4  10  22  38  58  85 118 153 194 239 284 341
#     4   9  20  39  61  86 119 156 193 239 295 348
#     4  10  21  38  61  88 116 150 195 239 288 346
#     4  10  22  38  58  87 118 153 196 239 286 341
#
# _framework density 18.233429000000001
#
# number of rings (size 3 to 8) (size 9 to 14) (size 15 to 20)
#    0.000    2.167    0.000    1.500    4.667    4.000 
#    0.000    0.000    0.000    0.000    0.000    0.000 
#    0.000    0.000    0.000    0.000    0.000    0.000 
#
# Total GULP energy -268117.128727 kJ/mol
# GULP energy per Si atom -5585.773515 kJ/mol
# Density = 1.819193 g / cm^3
# Si number density = 18.233429 Si / 1000 Ang^3
#
#
#
# Elastic Constant Matrix: (Units=GPa)
#
#
# Indices 1 2 3 4 5 6 
#
# 1 154.2521 53.3845 120.0187 0.0000 0.0000 0.0000
# 2 53.3845 37.3048 52.7965 0.0000 0.0000 0.0000
# 3 120.0187 52.7965 139.9798 0.0000 0.0000 0.0000
# 4 0.0000 0.0000 0.0000 38.1535 0.0000 0.0000
# 5 0.0000 0.0000 0.0000 0.0000 29.2371 0.0000
# 6 0.0000 0.0000 0.0000 0.0000 0.0000 28.0930
#
#
#
# Elastic Compliance Matrix: (Units=1/GPa)
#
#
# Indices 1 2 3 4 5 6 
#
# 1 0.021026 -0.009813 -0.014327 0.000000 0.000000 0.000000
# 2 -0.009813 0.062080 -0.015001 0.000000 0.000000 0.000000
# 3 -0.014327 -0.015001 0.025085 0.000000 0.000000 0.000000
# 4 0.000000 0.000000 0.000000 0.026210 0.000000 0.000000
# 5 0.000000 0.000000 0.000000 0.000000 0.034203 0.000000
# 6 0.000000 0.000000 0.000000 0.000000 0.000000 0.035596
#
#
# Mechanical properties :
#
#
# Convention : Reuss Voigt Hill
#
# Bulk Modulus (GPa) = 33.43371 87.10400 60.26885
# Shear Modulus (GPa) = 17.09684 26.11917 21.60801
#
# Velocity S-wave (km/s) = 3.06545 3.78893 3.44623
# Velocity P-wave (km/s) = 5.55928 8.18637 6.99722
#
# Compressibility (1/GPa) = 0.02990994
#
# Stress axis : x y z
#
# Youngs Moduli (GPa) = 47.55991 16.10832 39.86379
#
# Poissons Ratio (x) = 0.15807 0.57111
# Poissons Ratio (y) = 0.46671 0.59800
# Poissons Ratio (z) = 0.68137 0.24164
#
# Static dielectric constant tensor:
#      x y z
#    x 1.611390 0.000000 0.000000 
#    y 0.000000 1.611580 0.000000 
#    z 0.000000 0.000000 1.587680 
# 
# From -- ./inp_files/23716.got.cif
#   From: 2010.05.17/outbox.cif.g08.bks.cpg/sg59_12_cif.got.tgz:23716.got - 2010.06.03 14:40:33.
