data_PCOD9452471
_publ_section_title
;
Structure prediction by ZEFSAII (Michael W. Deem and Ramdas Pophale) SiO2 
 PCOD9452471
Probable space group: P M M N
;
_chemical_formula_sum "Si O2"
_cell_formula_units_Z 40
_cell_length_a 13.213734
_cell_length_b 15.790790
_cell_length_c 7.599899
_cell_angle_alpha 90.000000
_cell_angle_beta 90.000000
_cell_angle_gamma 90.000000
_cell_volume 1585.759196
_symmetry_space_group_name_H-M "P M M N"
_symmetry_group_IT_number 59
_space_group.IT_coordinate_system_code '2'
_symmetry_cell_setting 'orthorhombic'
loop_
_space_group_symop_operation_xyz
x,y,z
1/2-x,1/2-y,z
1/2+x,-y,-z
-x,1/2+y,-z
-x,-y,-z
1/2+x,1/2+y,-z
1/2-x,y,z
x,1/2-y,z
loop_
_atom_site_type_symbol
_atom_site_label
_atom_site_fract_x
_atom_site_fract_y
_atom_site_fract_z
Si Si1 0.371195 0.159471 0.198611
Si Si2 0.367318 0.750000 0.722858
Si Si3 0.626802 0.250000 0.699753
Si Si4 0.986831 0.899563 0.137555
Si Si5 0.132686 0.516554 0.303347
Si Si6 0.371257 0.940933 0.697824
O O1 0.250000 0.160171 0.175386
O O2 0.403983 0.250000 0.271032
O O3 0.392276 0.082175 0.326812
O O4 0.420649 0.143298 0.009886
O O5 0.250000 0.750000 0.782022
O O6 0.369119 0.750000 0.511047
O O7 0.403703 0.846821 0.772869
O O8 0.750000 0.250000 0.753312
O O9 0.556829 0.172332 0.768707
O O10 0.919165 0.968650 0.243897
O O11 0.082392 0.962872 0.113746
O O12 0.250000 0.530144 0.278442
O O13 0.108219 0.560089 0.487878
O O14 0.250000 0.945632 0.721944
#
# Coordination Sequence:
#
# PCOD9452471 Si02
#       6
#     8   4   4   8   8   8
#     4  10  22  41  59  82 121 165 203 253 316 372
#     4   9  18  36  58  84 124 163 198 246 317 371
#     4  11  22  36  61  92 124 161 207 256 308 377
#     4  12  21  38  62  95 118 160 213 257 309 370
#     4  10  21  38  60  86 120 160 206 253 308 370
#     4  10  21  38  62  93 125 163 207 263 313 367
#
# _framework density 25.224512000000001
#
# number of rings (size 3 to 8) (size 9 to 14) (size 15 to 20)
#    0.000    1.600    3.000    2.400    0.000    0.000 
#    3.600    0.000    0.000    0.000    0.000    1.400 
#    0.000    0.000    0.000    0.000    0.000    0.000 
#
# Total GULP energy -222761.992246 kJ/mol
# GULP energy per Si atom -5569.049806 kJ/mol
# Density = 2.516710 g / cm^3
# Si number density = 25.224512 Si / 1000 Ang^3
#
#
#
# Elastic Constant Matrix: (Units=GPa)
#
#
# Indices 1 2 3 4 5 6 
#
# 1 107.1991 49.7567 15.6826 0.0000 0.0000 0.0000
# 2 49.7567 149.6932 28.9979 0.0000 0.0000 0.0000
# 3 15.6826 28.9979 36.4237 0.0000 0.0000 0.0000
# 4 0.0000 0.0000 0.0000 32.3347 0.0000 0.0000
# 5 0.0000 0.0000 0.0000 0.0000 32.7172 0.0000
# 6 0.0000 0.0000 0.0000 0.0000 0.0000 49.3830
#
#
#
# Elastic Compliance Matrix: (Units=1/GPa)
#
#
# Indices 1 2 3 4 5 6 
#
# 1 0.011176 -0.003290 -0.002193 0.000000 0.000000 0.000000
# 2 -0.003290 0.008867 -0.005643 0.000000 0.000000 0.000000
# 3 -0.002193 -0.005643 0.032891 0.000000 0.000000 0.000000
# 4 0.000000 0.000000 0.000000 0.030927 0.000000 0.000000
# 5 0.000000 0.000000 0.000000 0.000000 0.030565 0.000000
# 6 0.000000 0.000000 0.000000 0.000000 0.000000 0.020250
#
#
# Mechanical properties :
#
#
# Convention : Reuss Voigt Hill
#
# Bulk Modulus (GPa) = 32.59102 53.57672 43.08387
# Shear Modulus (GPa) = 29.91245 36.14558 33.02901
#
# Velocity S-wave (km/s) = 3.44735 3.78955 3.62249
# Velocity P-wave (km/s) = 5.36601 6.35874 5.88335
#
# Compressibility (1/GPa) = 0.03068330
#
# Stress axis : x y z
#
# Youngs Moduli (GPa) = 89.47460 112.77749 30.40348
#
# Poissons Ratio (x) = 0.37106 0.06667
# Poissons Ratio (y) = 0.29439 0.17156
# Poissons Ratio (z) = 0.19619 0.63636
#
# Static dielectric constant tensor:
#      x y z
#    x 2.121500 0.000000 0.000000 
#    y 0.000000 2.326830 0.000000 
#    z 0.000000 0.000000 1.928170 
# 
# From -- ./inp_files/8630.got.cif
#   From: 2010.05.17/outbox.cif.g08.bks.cpg/sg59_5_cif.got.tgz:8630.got - 2010.06.03 14:40:33.
