data_PCOD9452682
_publ_section_title
;
Structure prediction by ZEFSAII (Michael W. Deem and Ramdas Pophale) SiO2 
 PCOD9452682
Probable space group: P M M N
;
_chemical_formula_sum "Si O2"
_cell_formula_units_Z 56
_cell_length_a 14.952149
_cell_length_b 30.907790
_cell_length_c 5.357248
_cell_angle_alpha 90.000000
_cell_angle_beta 90.000000
_cell_angle_gamma 90.000000
_cell_volume 2475.787241
_symmetry_space_group_name_H-M "P M M N"
_symmetry_group_IT_number 59
_space_group.IT_coordinate_system_code '2'
_symmetry_cell_setting 'orthorhombic'
loop_
_space_group_symop_operation_xyz
x,y,z
1/2-x,1/2-y,z
1/2+x,-y,-z
-x,1/2+y,-z
-x,-y,-z
1/2+x,1/2+y,-z
1/2-x,y,z
x,1/2-y,z
loop_
_atom_site_type_symbol
_atom_site_label
_atom_site_fract_x
_atom_site_fract_y
_atom_site_fract_z
Si Si1 0.651674 0.378675 0.336148
Si Si2 0.650240 0.057182 0.717028
Si Si3 0.561409 0.201314 0.121201
Si Si4 0.444579 0.299441 0.621220
Si Si5 0.351982 0.384192 0.778412
Si Si6 0.149452 0.032922 0.418362
Si Si7 0.005734 0.428081 0.081496
O O1 0.750000 0.393607 0.254558
O O2 0.651452 0.392858 0.626042
O O3 0.634793 0.332287 0.218704
O O4 0.565428 0.405407 0.257209
O O5 0.750000 0.049494 0.828425
O O6 0.560265 0.053043 0.873977
O O7 0.645621 0.018008 0.511283
O O8 0.597407 0.250000 0.115671
O O9 0.489065 0.199213 0.347462
O O10 0.516410 0.193981 0.848719
O O11 0.409219 0.250000 0.657062
O O12 0.376404 0.339551 0.640449
O O13 0.250000 0.382133 0.867644
O O14 0.361630 0.428763 0.618554
O O15 0.426648 0.391305 0.986010
O O16 0.250000 0.040205 0.315292
O O17 0.071706 0.039603 0.219173
#
# Coordination Sequence:
#
# PCOD9452682 Si02
#       7
#     8   8   8   8   8   8   8
#     4  11  24  40  62  91 129 172 217 272 334 398
#     4  10  23  41  61  90 126 167 219 275 335 401
#     4  10  21  41  69  99 132 173 219 272 335 402
#     4  10  21  41  69  99 132 173 219 272 335 402
#     4  11  24  40  62  91 129 172 217 272 334 398
#     4  10  23  41  61  90 126 167 219 275 335 401
#     4  12  21  38  63  88 122 168 217 274 331 396
#
# _framework density 22.619070000000001
#
# number of rings (size 3 to 8) (size 9 to 14) (size 15 to 20)
#    0.000    1.429    1.429    3.857    0.000    4.000 
#    0.000    2.857    0.000    5.143    0.000    0.000 
#    0.000    0.000    0.000    0.000    0.000    0.000 
#
# Total GULP energy -311914.340362 kJ/mol
# GULP energy per Si atom -5569.898935 kJ/mol
# Density = 2.256759 g / cm^3
# Si number density = 22.619070 Si / 1000 Ang^3
#
#
#
# Elastic Constant Matrix: (Units=GPa)
#
#
# Indices 1 2 3 4 5 6 
#
# 1 151.7010 21.1882 28.1654 0.0000 0.0000 0.0000
# 2 21.1882 80.1066 6.6024 0.0000 0.0000 0.0000
# 3 28.1654 6.6024 39.0576 0.0000 0.0000 0.0000
# 4 0.0000 0.0000 0.0000 24.7646 0.0000 0.0000
# 5 0.0000 0.0000 0.0000 0.0000 -259.2582 0.0000
# 6 0.0000 0.0000 0.0000 0.0000 0.0000 35.1534
#
#
#
# Elastic Compliance Matrix: (Units=1/GPa)
#
#
# Indices 1 2 3 4 5 6 
#
# 1 0.007814 -0.001625 -0.005360 0.000000 0.000000 0.000000
# 2 -0.001625 0.012998 -0.001025 0.000000 0.000000 0.000000
# 3 -0.005360 -0.001025 0.029642 0.000000 0.000000 0.000000
# 4 0.000000 0.000000 0.000000 0.040380 0.000000 0.000000
# 5 0.000000 0.000000 0.000000 0.000000 -0.003857 0.000000
# 6 0.000000 0.000000 0.000000 0.000000 0.000000 0.028447
#
#
# Mechanical properties :
#
#
# Convention : Reuss Voigt Hill
#
# Bulk Modulus (GPa) = 29.04228 42.53080 35.78654
# Shear Modulus (GPa) = 34.98408 -25.54076 4.72166
#
# Velocity S-wave (km/s) = 3.93703 -3.36396 1.44638
# Velocity P-wave (km/s) = 5.79090 1.93794 4.31800
#
# Compressibility (1/GPa) = 0.03443256
#
# Stress axis : x y z
#
# Youngs Moduli (GPa) = 127.97396 76.93670 33.73601
#
# Poissons Ratio (x) = 0.12503 0.18083
# Poissons Ratio (y) = 0.20796 0.03459
# Poissons Ratio (z) = 0.68597 0.07888
#
# Static dielectric constant tensor:
#      x y z
#    x 1.787020 0.000000 0.000000 
#    y 0.000000 1.883400 0.000000 
#    z 0.000000 0.000000 1.968730 
# 
# From -- ./inp_files/2311.got.cif
#   From: 2010.05.17/outbox.cif.g08.bks.cpg/sg59_2_cif.got.tgz:2311.got - 2010.06.03 14:40:33.
