data_PCOD9452756
_publ_section_title
;
Structure prediction by ZEFSAII (Michael W. Deem and Ramdas Pophale) SiO2 
 PCOD9452756
Probable space group: P M M N
;
_chemical_formula_sum "Si O2"
_cell_formula_units_Z 64
_cell_length_a 21.929663
_cell_length_b 7.410815
_cell_length_c 16.920640
_cell_angle_alpha 90.000000
_cell_angle_beta 90.000000
_cell_angle_gamma 90.000000
_cell_volume 2749.886160
_symmetry_space_group_name_H-M "P M M N"
_symmetry_group_IT_number 59
_space_group.IT_coordinate_system_code '2'
_symmetry_cell_setting 'orthorhombic'
loop_
_space_group_symop_operation_xyz
x,y,z
1/2-x,1/2-y,z
1/2+x,-y,-z
-x,1/2+y,-z
-x,-y,-z
1/2+x,1/2+y,-z
1/2-x,y,z
x,1/2-y,z
loop_
_atom_site_type_symbol
_atom_site_label
_atom_site_fract_x
_atom_site_fract_y
_atom_site_fract_z
Si Si1 0.900094 0.970299 0.834913
Si Si2 0.441806 0.543374 0.611613
Si Si3 0.814574 0.530901 0.971014
Si Si4 0.520890 0.035125 0.091018
Si Si5 0.679661 0.970102 0.685163
Si Si6 0.182078 0.956692 0.684430
Si Si7 0.343975 0.455464 0.860545
Si Si8 0.572392 0.969758 0.571904
O O1 0.899843 0.750000 0.832762
O O2 0.858325 0.028511 0.762420
O O3 0.969585 0.025325 0.846326
O O4 0.868307 0.030582 0.915882
O O5 0.444845 0.750000 0.641487
O O6 0.380631 0.460386 0.649636
O O7 0.431669 0.539306 0.517197
O O8 0.511143 0.470494 0.619282
O O9 0.750000 0.488456 0.932464
O O10 0.819229 0.750000 0.975945
O O11 0.816306 0.463310 0.059864
O O12 0.527290 0.250000 0.097332
O O13 0.584756 0.953999 0.117197
O O14 0.500000 0.000000 0.000000
O O15 0.750000 0.030702 0.682439
O O16 0.681535 0.750000 0.686728
O O17 0.635679 0.021854 0.612787
O O18 0.250000 0.033832 0.667571
O O19 0.183639 0.750000 0.654835
O O20 0.172299 0.953726 0.778641
O O21 0.322556 0.250000 0.851572
O O22 0.569827 0.750000 0.569046
#
# Coordination Sequence:
#
# PCOD9452756 Si02
#       8
#     8   8   8   8   8   8   8   8
#     4   9  17  29  48  74 105 139 177 220 270 324
#     4   9  19  36  57  79 108 145 182 219 266 329
#     4   9  16  28  47  71 101 137 177 220 265 317
#     4  11  21  35  55  79 107 143 189 238 287 336
#     4   9  17  29  49  80 111 137 172 220 269 318
#     4  10  22  39  58  82 111 146 188 231 279 337
#     4  11  22  36  53  80 112 145 186 231 282 335
#     4   9  18  33  55  82 111 140 176 221 270 322
#
# _framework density 23.273690999999999
#
# number of rings (size 3 to 8) (size 9 to 14) (size 15 to 20)
#    0.000    2.375    1.250    1.500    1.750    3.250 
#    0.000    0.000    0.000    0.000    0.000    0.000 
#    0.000    0.000    0.000    0.000    0.000    0.000 
#
# Total GULP energy -357195.929185 kJ/mol
# GULP energy per Si atom -5581.186394 kJ/mol
# Density = 2.322072 g / cm^3
# Si number density = 23.273691 Si / 1000 Ang^3
#
#
#
# Elastic Constant Matrix: (Units=GPa)
#
#
# Indices 1 2 3 4 5 6 
#
# 1 184.9608 0.7872 28.0128 0.0000 0.0000 0.0000
# 2 0.7872 83.5172 -8.8134 0.0000 0.0000 0.0000
# 3 28.0128 -8.8134 42.6476 0.0000 0.0000 0.0000
# 4 0.0000 0.0000 0.0000 10.9921 0.0000 0.0000
# 5 0.0000 0.0000 0.0000 0.0000 26.3826 0.0000
# 6 0.0000 0.0000 0.0000 0.0000 0.0000 -32.7586
#
#
#
# Elastic Compliance Matrix: (Units=1/GPa)
#
#
# Indices 1 2 3 4 5 6 
#
# 1 0.006023 -0.000485 -0.004056 0.000000 0.000000 0.000000
# 2 -0.000485 0.012280 0.002856 0.000000 0.000000 0.000000
# 3 -0.004056 0.002856 0.026703 0.000000 0.000000 0.000000
# 4 0.000000 0.000000 0.000000 0.090974 0.000000 0.000000
# 5 0.000000 0.000000 0.000000 0.000000 0.037904 0.000000
# 6 0.000000 0.000000 0.000000 0.000000 0.000000 -0.030526
#
#
# Mechanical properties :
#
#
# Convention : Reuss Voigt Hill
#
# Bulk Modulus (GPa) = 24.01826 39.01099 31.51463
# Shear Modulus (GPa) = 31.13224 20.33247 25.73236
#
# Velocity S-wave (km/s) = 3.66137 2.95892 3.32873
# Velocity P-wave (km/s) = 5.31192 5.33590 5.32392
#
# Compressibility (1/GPa) = 0.04163499
#
# Stress axis : x y z
#
# Youngs Moduli (GPa) = 166.03132 81.43624 37.44953
#
# Poissons Ratio (x) = 0.03948 0.15191
# Poissons Ratio (y) = 0.08050 -0.10696
# Poissons Ratio (z) = 0.67348 -0.23259
#
# Static dielectric constant tensor:
#      x y z
#    x 1.898250 0.000000 0.000000 
#    y 0.000000 1.886560 0.000000 
#    z 0.000000 0.000000 1.825030 
# 
# From -- ./inp_files/28203.got.cif
#   From: 2010.05.17/outbox.cif.g08.bks.cpg/sg59_15_cif.got.tgz:28203.got - 2010.06.03 14:40:33.
