data_PCOD9452604
_publ_section_title
;
Structure prediction by ZEFSAII (Michael W. Deem and Ramdas Pophale) SiO2 
 PCOD9452604
Probable space group: P M M N
;
_chemical_formula_sum "Si O2"
_cell_formula_units_Z 48
_cell_length_a 30.789969
_cell_length_b 8.674889
_cell_length_c 9.706508
_cell_angle_alpha 90.000000
_cell_angle_beta 90.000000
_cell_angle_gamma 90.000000
_cell_volume 2592.604049
_symmetry_space_group_name_H-M "P M M N"
_symmetry_group_IT_number 59
_space_group.IT_coordinate_system_code '2'
_symmetry_cell_setting 'orthorhombic'
loop_
_space_group_symop_operation_xyz
x,y,z
1/2-x,1/2-y,z
1/2+x,-y,-z
-x,1/2+y,-z
-x,-y,-z
1/2+x,1/2+y,-z
1/2-x,y,z
x,1/2-y,z
loop_
_atom_site_type_symbol
_atom_site_label
_atom_site_fract_x
_atom_site_fract_y
_atom_site_fract_z
Si Si1 0.325719 0.934343 0.159287
Si Si2 0.250000 0.066481 0.344653
Si Si3 0.250000 0.435743 0.662084
Si Si4 0.924188 0.934638 0.153473
Si Si5 0.926541 0.064416 0.849310
Si Si6 0.000744 0.934529 0.654131
Si Si7 0.328109 0.935605 0.842151
O O1 0.321581 0.750000 0.170555
O O2 0.376242 0.973828 0.183540
O O3 0.292359 0.009511 0.263550
O O4 0.315757 0.975763 0.000293
O O5 0.250000 0.250000 0.345273
O O6 0.250000 0.013652 0.502924
O O7 0.250000 0.250000 0.668373
O O8 0.207784 0.500340 0.739499
O O9 0.925882 0.750000 0.152972
O O10 0.875468 0.993028 0.183741
O O11 0.957558 0.002039 0.263880
O O12 0.935934 0.998262 0.001433
O O13 0.930741 0.250000 0.853219
O O14 0.959008 0.993897 0.738708
O O15 0.001496 0.750000 0.651623
O O16 0.000000 0.000000 0.500000
O O17 0.330869 0.750000 0.833733
#
# Coordination Sequence:
#
# PCOD9452604 Si02
#       7
#     8   4   4   8   8   8   8
#     4   9  20  38  61  85 112 145 188 236 285 339
#     4  11  24  37  54  82 118 153 190 233 282 340
#     4  11  24  39  54  82 120 157 194 237 290 352
#     4  11  22  39  63  90 118 153 195 242 292 348
#     4  10  21  40  63  89 118 152 195 244 292 346
#     4  12  25  41  60  86 120 158 196 240 293 351
#     4  10  21  39  62  88 114 148 194 244 293 346
#
# _framework density 18.514205
#
# number of rings (size 3 to 8) (size 9 to 14) (size 15 to 20)
#    0.000    1.500    0.000    6.500    0.000    8.667 
#    0.000    3.333    0.000    0.000    0.000    0.000 
#    0.000    0.000    0.000    0.000    0.000    0.000 
#
# Total GULP energy -268402.559232 kJ/mol
# GULP energy per Si atom -5591.719984 kJ/mol
# Density = 1.847207 g / cm^3
# Si number density = 18.514205 Si / 1000 Ang^3
#
#
#
# Elastic Constant Matrix: (Units=GPa)
#
#
# Indices 1 2 3 4 5 6 
#
# 1 139.1219 73.4663 140.1086 0.0000 0.0000 0.0000
# 2 73.4663 124.3108 83.7249 0.0000 0.0000 0.0000
# 3 140.1086 83.7249 192.0367 0.0000 0.0000 0.0000
# 4 0.0000 0.0000 0.0000 35.3156 0.0000 0.0000
# 5 0.0000 0.0000 0.0000 0.0000 -41.7870 0.0000
# 6 0.0000 0.0000 0.0000 0.0000 0.0000 35.9074
#
#
#
# Elastic Compliance Matrix: (Units=1/GPa)
#
#
# Indices 1 2 3 4 5 6 
#
# 1 0.028446 -0.004011 -0.019005 0.000000 0.000000 0.000000
# 2 -0.004011 0.011954 -0.002285 0.000000 0.000000 0.000000
# 3 -0.019005 -0.002285 0.020070 0.000000 0.000000 0.000000
# 4 0.000000 0.000000 0.000000 0.028316 0.000000 0.000000
# 5 0.000000 0.000000 0.000000 0.000000 -0.023931 0.000000
# 6 0.000000 0.000000 0.000000 0.000000 0.000000 0.027849
#
#
# Mechanical properties :
#
#
# Convention : Reuss Voigt Hill
#
# Bulk Modulus (GPa) = 101.35193 116.67433 109.01313
# Shear Modulus (GPa) = 34.10701 16.43184 25.26942
#
# Velocity S-wave (km/s) = 4.29675 2.98237 3.69842
# Velocity P-wave (km/s) = 8.91503 8.66112 8.78899
#
# Compressibility (1/GPa) = 0.00986661
#
# Stress axis : x y z
#
# Youngs Moduli (GPa) = 35.15398 83.65371 49.82572
#
# Poissons Ratio (x) = 0.33554 0.94696
# Poissons Ratio (y) = 0.14100 0.11387
# Poissons Ratio (z) = 0.66812 0.19118
#
# Static dielectric constant tensor:
#      x y z
#    x 1.624720 0.000000 0.000000 
#    y 0.000000 1.617490 0.000000 
#    z 0.000000 0.000000 1.610680 
# 
# From -- ./inp_files/12993.got.cif
#   From: 2010.05.17/outbox.cif.g08.bks.cpg/sg59_7_cif.got.tgz:12993.got - 2010.06.03 14:40:33.
