data_PCOD9452600
_publ_section_title
;
Structure prediction by ZEFSAII (Michael W. Deem and Ramdas Pophale) SiO2 
 PCOD9452600
Probable space group: P M M N
;
_chemical_formula_sum "Si O2"
_cell_formula_units_Z 32
_cell_length_a 13.541543
_cell_length_b 13.534067
_cell_length_c 9.323568
_cell_angle_alpha 90.000000
_cell_angle_beta 90.000000
_cell_angle_gamma 90.000000
_cell_volume 1708.750355
_symmetry_space_group_name_H-M "P M M N"
_symmetry_group_IT_number 59
_space_group.IT_coordinate_system_code '2'
_symmetry_cell_setting 'orthorhombic'
loop_
_space_group_symop_operation_xyz
x,y,z
1/2-x,1/2-y,z
1/2+x,-y,-z
-x,1/2+y,-z
-x,-y,-z
1/2+x,1/2+y,-z
1/2-x,y,z
x,1/2-y,z
loop_
_atom_site_type_symbol
_atom_site_label
_atom_site_fract_x
_atom_site_fract_y
_atom_site_fract_z
Si Si1 0.629998 0.750000 0.210805
Si Si2 0.027658 0.588147 0.108328
Si Si3 0.133812 0.250000 0.442884
Si Si4 0.641044 0.137917 0.158962
Si Si5 0.971644 0.951448 0.649479
O O1 0.750000 0.750000 0.179004
O O2 0.567017 0.843967 0.149824
O O3 0.619404 0.750000 0.384111
O O4 0.073932 0.536632 0.248661
O O5 0.103892 0.643114 0.004916
O O6 0.000000 0.500000 0.000000
O O7 0.250000 0.250000 0.414832
O O8 0.088027 0.350345 0.376953
O O9 0.750000 0.094262 0.162773
O O10 0.642460 0.250000 0.213780
O O11 0.569170 0.078299 0.262305
O O12 0.000000 0.000000 0.500000
#
# Coordination Sequence:
#
# PCOD9452600 Si02
#       5
#     4   8   4   8   8
#     4  11  22  41  67  94 126 166 213 263 319 381
#     4  10  22  38  62  93 126 165 205 259 318 376
#     4  11  24  41  63  96 130 168 211 261 319 381
#     4  10  21  39  62  86 120 163 205 250 309 372
#     4  11  22  40  65  92 129 163 205 265 318 372
#
# _framework density 18.727136000000002
#
# number of rings (size 3 to 8) (size 9 to 14) (size 15 to 20)
#    0.000    1.500    5.000    0.000    0.000    6.000 
#    0.000    8.750    0.000    4.500    0.000    0.000 
#    0.000    0.000    0.000    0.000    0.000    0.000 
#
# Total GULP energy -178152.947726 kJ/mol
# GULP energy per Si atom -5567.279616 kJ/mol
# Density = 1.868451 g / cm^3
# Si number density = 18.727136 Si / 1000 Ang^3
#
#
#
# Elastic Constant Matrix: (Units=GPa)
#
#
# Indices 1 2 3 4 5 6 
#
# 1 133.4181 49.6490 59.5620 0.0000 0.0000 0.0000
# 2 49.6490 121.1531 51.0217 0.0000 0.0000 0.0000
# 3 59.5620 51.0217 139.0291 0.0000 0.0000 0.0000
# 4 0.0000 0.0000 0.0000 39.6499 0.0000 0.0000
# 5 0.0000 0.0000 0.0000 0.0000 27.2353 0.0000
# 6 0.0000 0.0000 0.0000 0.0000 0.0000 5.4614
#
#
#
# Elastic Compliance Matrix: (Units=1/GPa)
#
#
# Indices 1 2 3 4 5 6 
#
# 1 0.009964 -0.002703 -0.003277 0.000000 0.000000 0.000000
# 2 -0.002703 0.010496 -0.002694 0.000000 0.000000 0.000000
# 3 -0.003277 -0.002694 0.009585 0.000000 0.000000 0.000000
# 4 0.000000 0.000000 0.000000 0.025221 0.000000 0.000000
# 5 0.000000 0.000000 0.000000 0.000000 0.036717 0.000000
# 6 0.000000 0.000000 0.000000 0.000000 0.000000 0.183104
#
#
# Mechanical properties :
#
#
# Convention : Reuss Voigt Hill
#
# Bulk Modulus (GPa) = 78.75409 79.34065 79.04737
# Shear Modulus (GPa) = 16.85389 30.02715 23.44052
#
# Velocity S-wave (km/s) = 3.00321 4.00860 3.54176
# Velocity P-wave (km/s) = 7.36006 7.99273 7.68291
#
# Compressibility (1/GPa) = 0.01269775
#
# Stress axis : x y z
#
# Youngs Moduli (GPa) = 100.36087 95.27122 104.32863
#
# Poissons Ratio (x) = 0.25756 0.34185
# Poissons Ratio (y) = 0.27132 0.28104
# Poissons Ratio (z) = 0.32885 0.25665
#
# Static dielectric constant tensor:
#      x y z
#    x 1.674630 0.000000 0.000000 
#    y 0.000000 3.247770 0.000000 
#    z 0.000000 0.000000 1.656940 
# 
# From -- ./inp_files/6860.got.cif
#   From: 2010.05.17/outbox.cif.g08.bks.cpg/sg59_4_cif.got.tgz:6860.got - 2010.06.03 14:40:33.
