data_PCOD9452718
_publ_section_title
;
Structure prediction by ZEFSAII (Michael W. Deem and Ramdas Pophale) SiO2 
 PCOD9452718
Probable space group: P M M N
;
_chemical_formula_sum "Si O2"
_cell_formula_units_Z 64
_cell_length_a 9.565902
_cell_length_b 21.156877
_cell_length_c 16.338805
_cell_angle_alpha 90.000000
_cell_angle_beta 90.000000
_cell_angle_gamma 90.000000
_cell_volume 3306.722711
_symmetry_space_group_name_H-M "P M M N"
_symmetry_group_IT_number 59
_space_group.IT_coordinate_system_code '2'
_symmetry_cell_setting 'orthorhombic'
loop_
_space_group_symop_operation_xyz
x,y,z
1/2-x,1/2-y,z
1/2+x,-y,-z
-x,1/2+y,-z
-x,-y,-z
1/2+x,1/2+y,-z
1/2-x,y,z
x,1/2-y,z
loop_
_atom_site_type_symbol
_atom_site_label
_atom_site_fract_x
_atom_site_fract_y
_atom_site_fract_z
Si Si1 0.588872 0.320257 0.277146
Si Si2 0.413825 0.440571 0.034066
Si Si3 0.410695 0.364006 0.611380
Si Si4 0.417633 0.674712 0.043015
Si Si5 0.587987 0.363667 0.459391
Si Si6 0.907874 0.173976 0.765731
Si Si7 0.910980 0.489770 0.365402
Si Si8 0.409849 0.062486 0.227360
O O1 0.750000 0.335576 0.256062
O O2 0.558531 0.250000 0.248367
O O3 0.578865 0.324153 0.375724
O O4 0.483870 0.370606 0.241564
O O5 0.250000 0.439720 0.007696
O O6 0.491297 0.375179 0.008519
O O7 0.500000 0.500000 0.000000
O O8 0.414879 0.450172 0.131636
O O9 0.250000 0.343169 0.612903
O O10 0.494277 0.338810 0.533014
O O11 0.486383 0.348952 0.696681
O O12 0.415037 0.439919 0.601306
O O13 0.250000 0.666646 0.028470
O O14 0.448445 0.750000 0.029592
O O15 0.442937 0.659636 0.139556
O O16 0.750000 0.365353 0.486051
O O17 0.547542 0.434535 0.428624
O O18 0.750000 0.149946 0.749419
O O19 0.903898 0.250000 0.760989
O O20 0.750000 0.474934 0.343007
O O21 0.005184 0.484965 0.284917
O O22 0.250000 0.063965 0.254883
#
# Coordination Sequence:
#
# PCOD9452718 Si02
#       8
#     8   8   8   8   8   8   8   8
#     4   9  19  37  60  83 110 148 190 230 277 335
#     4  11  25  41  60  90 125 158 196 245 298 353
#     4  11  22  33  52  83 112 141 183 234 283 331
#     4   9  20  41  66  89 116 154 199 244 294 356
#     4   9  18  34  53  76 109 148 187 227 274 332
#     4   9  20  39  59  79 107 145 188 230 275 336
#     4   9  20  37  55  77 109 146 185 227 277 336
#     4  10  22  38  56  83 114 145 184 230 279 334
#
# _framework density 19.354510999999999
#
# number of rings (size 3 to 8) (size 9 to 14) (size 15 to 20)
#    0.000    2.375    0.000    3.000    1.750    7.250 
#    0.000    5.000    0.000    0.000    0.000    0.000 
#    0.000    0.000    0.000    0.000    0.000    0.000 
#
# Total GULP energy -357086.302926 kJ/mol
# GULP energy per Si atom -5579.473483 kJ/mol
# Density = 1.931046 g / cm^3
# Si number density = 19.354511 Si / 1000 Ang^3
#
#
#
# Elastic Constant Matrix: (Units=GPa)
#
#
# Indices 1 2 3 4 5 6 
#
# 1 105.9818 24.0314 59.5447 0.0000 0.0000 0.0000
# 2 24.0314 40.1755 5.8124 0.0000 0.0000 0.0000
# 3 59.5447 5.8124 55.2190 0.0000 0.0000 0.0000
# 4 0.0000 0.0000 0.0000 2.4881 0.0000 0.0000
# 5 0.0000 0.0000 0.0000 0.0000 33.0155 0.0000
# 6 0.0000 0.0000 0.0000 0.0000 0.0000 17.2190
#
#
#
# Elastic Compliance Matrix: (Units=1/GPa)
#
#
# Indices 1 2 3 4 5 6 
#
# 1 0.029589 -0.013285 -0.030508 0.000000 0.000000 0.000000
# 2 -0.013285 0.031240 0.011037 0.000000 0.000000 0.000000
# 3 -0.030508 0.011037 0.049846 0.000000 0.000000 0.000000
# 4 0.000000 0.000000 0.000000 0.401908 0.000000 0.000000
# 5 0.000000 0.000000 0.000000 0.000000 0.030289 0.000000
# 6 0.000000 0.000000 0.000000 0.000000 0.000000 0.058075
#
#
# Mechanical properties :
#
#
# Convention : Reuss Voigt Hill
#
# Bulk Modulus (GPa) = 22.14184 42.23926 32.19055
# Shear Modulus (GPa) = 7.33662 18.01037 12.67350
#
# Velocity S-wave (km/s) = 1.94907 3.05380 2.56170
# Velocity P-wave (km/s) = 4.06573 5.85710 5.04162
#
# Compressibility (1/GPa) = 0.04516336
#
# Stress axis : x y z
#
# Youngs Moduli (GPa) = 33.79689 32.00976 20.06185
#
# Poissons Ratio (x) = 0.42525 0.61205
# Poissons Ratio (y) = 0.44899 -0.22143
# Poissons Ratio (z) = 1.03108 -0.35330
#
# Static dielectric constant tensor:
#      x y z
#    x 1.660760 0.000000 0.000000 
#    y 0.000000 1.716700 0.000000 
#    z 0.000000 0.000000 1.668990 
# 
# From -- ./inp_files/21501.got.cif
#   From: 2010.05.17/outbox.cif.g08.bks.cpg/sg59_11_cif.got.tgz:21501.got - 2010.06.03 14:40:33.
