data_PCOD9452103
_publ_section_title
;
Structure prediction by ZEFSAII (Michael W. Deem and Ramdas Pophale) SiO2 
 PCOD9452103
Probable space group: P M M N
;
_chemical_formula_sum "Si O2"
_cell_formula_units_Z 64
_cell_length_a 14.561547
_cell_length_b 8.244919
_cell_length_c 27.461493
_cell_angle_alpha 90.000000
_cell_angle_beta 90.000000
_cell_angle_gamma 90.000000
_cell_volume 3296.993224
_symmetry_space_group_name_H-M "P M M N"
_symmetry_group_IT_number 59
_space_group.IT_coordinate_system_code '2'
_symmetry_cell_setting 'orthorhombic'
loop_
_space_group_symop_operation_xyz
x,y,z
1/2-x,1/2-y,z
1/2+x,-y,-z
-x,1/2+y,-z
-x,-y,-z
1/2+x,1/2+y,-z
1/2-x,y,z
x,1/2-y,z
loop_
_atom_site_type_symbol
_atom_site_label
_atom_site_fract_x
_atom_site_fract_y
_atom_site_fract_z
Si Si1 0.144364 0.053187 0.139177
Si Si2 0.029238 0.054023 0.425786
Si Si3 0.449403 0.555571 0.238822
Si Si4 0.849758 0.945532 0.228622
Si Si5 0.855034 0.945491 0.479433
Si Si6 0.353433 0.054332 0.335100
Si Si7 0.020630 0.064332 0.053451
Si Si8 0.353718 0.441804 0.887412
O O1 0.250000 0.001204 0.143806
O O2 0.142369 0.250000 0.138488
O O3 0.098326 0.990649 0.089071
O O4 0.086363 0.999119 0.186068
O O5 0.028565 0.250000 0.425953
O O6 0.096207 0.000618 0.470131
O O7 0.073740 0.996583 0.375379
O O8 0.926535 0.996362 0.437618
O O9 0.451862 0.750000 0.238665
O O10 0.553395 0.493598 0.248947
O O11 0.383079 0.496807 0.281375
O O12 0.750000 0.008790 0.245622
O O13 0.847806 0.750000 0.235527
O O14 0.855580 0.972264 0.170410
O O15 0.750000 0.004131 0.474767
O O16 0.851870 0.750000 0.480579
O O17 0.250000 0.998184 0.346340
O O18 0.352716 0.250000 0.337123
O O19 0.046716 0.250000 0.046753
O O20 0.927948 0.044977 0.084525
O O21 0.000000 0.000000 0.000000
O O22 0.250000 0.472410 0.904519
O O23 0.373748 0.250000 0.894457
#
# Coordination Sequence:
#
# PCOD9452103 Si02
#       8
#     8   8   8   8   8   8   8   8
#     4  10  22  40  58  76 104 143 180 213 258 318
#     4   9  18  33  53  77 106 144 189 231 270 320
#     4  11  21  34  57  85 110 136 176 225 267 311
#     4   8  15  30  53  78 102 130 163 201 252 311
#     4   9  17  31  53  80 109 142 183 230 281 332
#     4  10  21  37  55  75 106 148 186 220 266 323
#     4  11  23  37  55  79 108 139 175 217 262 313
#     4   9  17  33  57  79 101 132 167 204 254 314
#
# _framework density 19.411625999999998
#
# number of rings (size 3 to 8) (size 9 to 14) (size 15 to 20)
#    0.000    2.375    1.250    2.250    0.000    5.500 
#    0.000    1.875    0.000    6.000    0.000    0.000 
#    0.000    0.000    0.000    0.000    0.000    0.000 
#
# Total GULP energy -356882.354623 kJ/mol
# GULP energy per Si atom -5576.286791 kJ/mol
# Density = 1.936744 g / cm^3
# Si number density = 19.411626 Si / 1000 Ang^3
#
#
#
# Elastic Constant Matrix: (Units=GPa)
#
#
# Indices 1 2 3 4 5 6 
#
# 1 137.9946 11.4989 36.4126 0.0000 0.0000 0.0000
# 2 11.4989 5.5549 7.5953 0.0000 0.0000 0.0000
# 3 36.4126 7.5953 72.3740 0.0000 0.0000 0.0000
# 4 0.0000 0.0000 0.0000 20.8403 0.0000 0.0000
# 5 0.0000 0.0000 0.0000 0.0000 3.3548 0.0000
# 6 0.0000 0.0000 0.0000 0.0000 0.0000 23.8336
#
#
#
# Elastic Compliance Matrix: (Units=1/GPa)
#
#
# Indices 1 2 3 4 5 6 
#
# 1 0.009321 -0.015041 -0.003111 0.000000 0.000000 0.000000
# 2 -0.015041 0.234451 -0.017037 0.000000 0.000000 0.000000
# 3 -0.003111 -0.017037 0.017170 0.000000 0.000000 0.000000
# 4 0.000000 0.000000 0.000000 0.047984 0.000000 0.000000
# 5 0.000000 0.000000 0.000000 0.000000 0.298077 0.000000
# 6 0.000000 0.000000 0.000000 0.000000 0.000000 0.041958
#
#
# Mechanical properties :
#
#
# Convention : Reuss Voigt Hill
#
# Bulk Modulus (GPa) = 5.24758 36.32635 20.78696
# Shear Modulus (GPa) = 6.38683 20.30019 13.34351
#
# Velocity S-wave (km/s) = 1.81586 3.23735 2.62467
# Velocity P-wave (km/s) = 2.66564 5.72086 4.46284
#
# Compressibility (1/GPa) = 0.19056419
#
# Stress axis : x y z
#
# Youngs Moduli (GPa) = 107.28560 4.26528 58.24000
#
# Poissons Ratio (x) = 0.06415 0.18119
# Poissons Ratio (y) = 1.61368 0.99225
# Poissons Ratio (z) = 0.33377 0.07267
#
# Static dielectric constant tensor:
#      x y z
#    x 1.706180 0.000000 0.000000 
#    y 0.000000 1.669100 0.000000 
#    z 0.000000 0.000000 1.660190 
# 
# From -- ./inp_files/32224.got.cif
#   From: 2010.05.17/outbox.cif.g08.bks.cpg/sg59_17_cif.got.tgz:32224.got - 2010.06.03 14:40:33.
