data_PCOD9452640
_publ_section_title
;
Structure prediction by ZEFSAII (Michael W. Deem and Ramdas Pophale) SiO2 
 PCOD9452640
Probable space group: P M M N
;
_chemical_formula_sum "Si O2"
_cell_formula_units_Z 48
_cell_length_a 15.354596
_cell_length_b 17.187351
_cell_length_c 9.353667
_cell_angle_alpha 90.000000
_cell_angle_beta 90.000000
_cell_angle_gamma 90.000000
_cell_volume 2468.477908
_symmetry_space_group_name_H-M "P M M N"
_symmetry_group_IT_number 59
_space_group.IT_coordinate_system_code '2'
_symmetry_cell_setting 'orthorhombic'
loop_
_space_group_symop_operation_xyz
x,y,z
1/2-x,1/2-y,z
1/2+x,-y,-z
-x,1/2+y,-z
-x,-y,-z
1/2+x,1/2+y,-z
1/2-x,y,z
x,1/2-y,z
loop_
_atom_site_type_symbol
_atom_site_label
_atom_site_fract_x
_atom_site_fract_y
_atom_site_fract_z
Si Si1 0.350555 0.917606 0.817362
Si Si2 0.149286 0.407459 0.905872
Si Si3 0.000979 0.417380 0.416828
Si Si4 0.996124 0.658973 0.289162
Si Si5 0.854429 0.656970 0.780323
Si Si6 0.153554 0.658199 0.104891
O O1 0.250000 0.910644 0.767572
O O2 0.419708 0.914982 0.691096
O O3 0.357955 0.999384 0.901947
O O4 0.367861 0.853715 0.938646
O O5 0.250000 0.386463 0.881271
O O6 0.089628 0.378359 0.777484
O O7 0.123619 0.370444 0.057820
O O8 0.000000 0.500000 0.500000
O O9 0.993501 0.355623 0.544238
O O10 0.087166 0.394208 0.327155
O O11 0.991045 0.750000 0.258664
O O12 0.078930 0.624271 0.204779
O O13 0.750000 0.645265 0.759966
O O14 0.871702 0.750000 0.764881
O O15 0.250000 0.624128 0.129257
O O16 0.158337 0.750000 0.134578
#
# Coordination Sequence:
#
# PCOD9452640 Si02
#       6
#     8   8   8   8   8   8
#     4  10  22  40  62  88 120 159 204 252 305 365
#     4  10  21  39  64  92 119 154 204 258 310 361
#     4  12  25  39  59  87 128 167 202 244 300 370
#     4  11  23  38  60  89 121 159 200 245 300 362
#     4  10  23  43  66  92 123 162 208 258 311 366
#     4   9  20  39  62  87 115 152 201 255 305 356
#
# _framework density 19.445181000000002
#
# number of rings (size 3 to 8) (size 9 to 14) (size 15 to 20)
#    0.000    1.667    1.667    2.000    2.333    7.000 
#    0.000    0.000    0.000    0.000    0.000    0.000 
#    0.000    0.000    0.000    0.000    0.000    0.000 
#
# Total GULP energy -267936.131192 kJ/mol
# GULP energy per Si atom -5582.002733 kJ/mol
# Density = 1.940092 g / cm^3
# Si number density = 19.445181 Si / 1000 Ang^3
#
#
#
# Elastic Constant Matrix: (Units=GPa)
#
#
# Indices 1 2 3 4 5 6 
#
# 1 86.4466 23.3204 61.8970 0.0000 0.0000 0.0000
# 2 23.3204 31.0127 5.0474 0.0000 0.0000 0.0000
# 3 61.8970 5.0474 90.7299 0.0000 0.0000 0.0000
# 4 0.0000 0.0000 0.0000 38.7545 0.0000 0.0000
# 5 0.0000 0.0000 0.0000 0.0000 -16.6971 0.0000
# 6 0.0000 0.0000 0.0000 0.0000 0.0000 24.3869
#
#
#
# Elastic Compliance Matrix: (Units=1/GPa)
#
#
# Indices 1 2 3 4 5 6 
#
# 1 0.031884 -0.020622 -0.020604 0.000000 0.000000 0.000000
# 2 -0.020622 0.045878 0.011517 0.000000 0.000000 0.000000
# 3 -0.020604 0.011517 0.024438 0.000000 0.000000 0.000000
# 4 0.000000 0.000000 0.000000 0.025803 0.000000 0.000000
# 5 0.000000 0.000000 0.000000 0.000000 -0.059891 0.000000
# 6 0.000000 0.000000 0.000000 0.000000 0.000000 0.041006
#
#
# Mechanical properties :
#
#
# Convention : Reuss Voigt Hill
#
# Bulk Modulus (GPa) = 23.37591 43.19097 33.28344
# Shear Modulus (GPa) = 27.35259 17.15049 22.25154
#
# Velocity S-wave (km/s) = 3.75460 2.97306 3.38645
# Velocity P-wave (km/s) = 5.55370 5.83483 5.69600
#
# Compressibility (1/GPa) = 0.04277908
#
# Stress axis : x y z
#
# Youngs Moduli (GPa) = 31.36360 21.79707 40.92047
#
# Poissons Ratio (x) = 0.44950 0.84314
# Poissons Ratio (y) = 0.64679 -0.47126
# Poissons Ratio (z) = 0.64623 -0.25103
#
# Static dielectric constant tensor:
#      x y z
#    x 1.702230 0.000000 0.000000 
#    y 0.000000 1.710100 0.000000 
#    z 0.000000 0.000000 1.642690 
# 
# From -- ./inp_files/8982.got.cif
#   From: 2010.05.17/outbox.cif.g08.bks.cpg/sg59_5_cif.got.tgz:8982.got - 2010.06.03 14:40:33.
