data_PCOD9452681
_publ_section_title
;
Structure prediction by ZEFSAII (Michael W. Deem and Ramdas Pophale) SiO2 
 PCOD9452681
Probable space group: P M M N
;
_chemical_formula_sum "Si O2"
_cell_formula_units_Z 26
_cell_length_a 7.695700
_cell_length_b 21.259994
_cell_length_c 7.065758
_cell_angle_alpha 90.000000
_cell_angle_beta 90.000000
_cell_angle_gamma 90.000000
_cell_volume 1156.032452
_symmetry_space_group_name_H-M "P M M N"
_symmetry_group_IT_number 59
_space_group.IT_coordinate_system_code '2'
_symmetry_cell_setting 'orthorhombic'
loop_
_space_group_symop_operation_xyz
x,y,z
1/2-x,1/2-y,z
1/2+x,-y,-z
-x,1/2+y,-z
-x,-y,-z
1/2+x,1/2+y,-z
1/2-x,y,z
x,1/2-y,z
loop_
_atom_site_type_symbol
_atom_site_label
_atom_site_fract_x
_atom_site_fract_y
_atom_site_fract_z
Si Si1 0.038330 0.321658 0.308596
Si Si2 0.956851 0.567366 0.414564
Si Si3 0.945833 0.155485 0.872965
Si Si4 0.750000 0.750000 0.239086
O O1 0.250000 0.320459 0.312254
O O2 0.983631 0.250000 0.356201
O O3 0.978199 0.376900 0.446088
O O4 0.980467 0.336945 0.095820
O O5 0.750000 0.570810 0.403715
O O6 0.000000 0.500000 0.500000
O O7 0.033146 0.585354 0.210210
O O8 0.750000 0.176684 0.833661
O O9 0.096967 0.196063 0.775216
#
# Coordination Sequence:
#
# PCOD9452681 Si02
#       4
#     8   8   8   2
#     4  10  21  41  69  98 131 173 221 279 338 391
#     4  11  25  44  68  96 138 183 227 277 333 400
#     4  12  24  42  71 101 136 174 220 274 339 396
#     4  12  22  44  66 106 140 166 216 280 330 402
#
# _framework density 22.490717
#
# number of rings (size 3 to 8) (size 9 to 14) (size 15 to 20)
#    0.000    0.923    4.615    1.385    2.154    3.692 
#    0.000    0.000    0.000    0.000    0.000    0.000 
#    0.000    0.000    0.000    0.000    0.000    0.000 
#
# Total GULP energy -144906.709278 kJ/mol
# GULP energy per Si atom -5573.334972 kJ/mol
# Density = 2.243953 g / cm^3
# Si number density = 22.490717 Si / 1000 Ang^3
#
#
#
# Elastic Constant Matrix: (Units=GPa)
#
#
# Indices 1 2 3 4 5 6 
#
# 1 125.7744 27.7849 10.5328 0.0000 0.0000 0.0000
# 2 27.7849 130.1824 62.6112 0.0000 0.0000 0.0000
# 3 10.5328 62.6112 79.2306 0.0000 0.0000 0.0000
# 4 0.0000 0.0000 0.0000 57.8695 0.0000 0.0000
# 5 0.0000 0.0000 0.0000 0.0000 16.5356 0.0000
# 6 0.0000 0.0000 0.0000 0.0000 0.0000 33.5574
#
#
#
# Elastic Compliance Matrix: (Units=1/GPa)
#
#
# Indices 1 2 3 4 5 6 
#
# 1 0.008356 -0.002015 0.000481 0.000000 0.000000 0.000000
# 2 -0.002015 0.012877 -0.009908 0.000000 0.000000 0.000000
# 3 0.000481 -0.009908 0.020387 0.000000 0.000000 0.000000
# 4 0.000000 0.000000 0.000000 0.017280 0.000000 0.000000
# 5 0.000000 0.000000 0.000000 0.000000 0.060476 0.000000
# 6 0.000000 0.000000 0.000000 0.000000 0.000000 0.029800
#
#
# Mechanical properties :
#
#
# Convention : Reuss Voigt Hill
#
# Bulk Modulus (GPa) = 53.37122 59.67169 56.52146
# Shear Modulus (GPa) = 28.04216 37.20974 32.62595
#
# Velocity S-wave (km/s) = 3.53488 4.07190 3.81286
# Velocity P-wave (km/s) = 6.35943 6.97829 6.67603
#
# Compressibility (1/GPa) = 0.01873669
#
# Stress axis : x y z
#
# Youngs Moduli (GPa) = 119.68112 77.65929 49.05094
#
# Poissons Ratio (x) = 0.15648 -0.02362
# Poissons Ratio (y) = 0.24114 0.48599
# Poissons Ratio (z) = -0.05762 0.76944
#
# Static dielectric constant tensor:
#      x y z
#    x 1.822650 0.000000 0.000000 
#    y 0.000000 2.024560 0.000000 
#    z 0.000000 0.000000 1.900610 
# 
# From -- ./inp_files/5179.got.cif
#   From: 2010.05.17/outbox.cif.g08.bks.cpg/sg59_3_cif.got.tgz:5179.got - 2010.06.03 14:40:33.
