data_PCOD9452523
_publ_section_title
;
Structure prediction by ZEFSAII (Michael W. Deem and Ramdas Pophale) SiO2 
 PCOD9452523
Probable space group: P M M N
;
_chemical_formula_sum "Si O2"
_cell_formula_units_Z 48
_cell_length_a 8.744614
_cell_length_b 25.504843
_cell_length_c 12.021533
_cell_angle_alpha 90.000000
_cell_angle_beta 90.000000
_cell_angle_gamma 90.000000
_cell_volume 2681.162591
_symmetry_space_group_name_H-M "P M M N"
_symmetry_group_IT_number 59
_space_group.IT_coordinate_system_code '2'
_symmetry_cell_setting 'orthorhombic'
loop_
_space_group_symop_operation_xyz
x,y,z
1/2-x,1/2-y,z
1/2+x,-y,-z
-x,1/2+y,-z
-x,-y,-z
1/2+x,1/2+y,-z
1/2-x,y,z
x,1/2-y,z
loop_
_atom_site_type_symbol
_atom_site_label
_atom_site_fract_x
_atom_site_fract_y
_atom_site_fract_z
Si Si1 0.432364 0.403817 0.758657
Si Si2 0.932570 0.097665 0.234352
Si Si3 0.432642 0.688456 0.378841
Si Si4 0.067174 0.498568 0.376185
Si Si5 0.067720 0.311806 0.378586
Si Si6 0.567214 0.558645 0.993917
O O1 0.250000 0.408072 0.741855
O O2 0.492245 0.348817 0.712308
O O3 0.514287 0.449648 0.689319
O O4 0.463908 0.413140 0.888791
O O5 0.750000 0.094780 0.236445
O O6 0.001047 0.051220 0.310294
O O7 0.990514 0.151886 0.286686
O O8 0.993259 0.088118 0.110163
O O9 0.250000 0.681247 0.380519
O O10 0.465280 0.750000 0.359414
O O11 0.500097 0.674573 0.500113
O O12 0.250000 0.495655 0.379937
O O13 0.000000 0.500000 0.500000
O O14 0.250000 0.320267 0.379438
O O15 0.038530 0.250000 0.359911
O O16 0.750000 0.555451 0.978521
O O17 0.500000 0.500000 0.000000
#
# Coordination Sequence:
#
# PCOD9452523 Si02
#       6
#     8   8   8   8   8   8
#     4  11  23  39  60  87 118 152 197 243 294 352
#     4  12  24  39  60  87 120 155 198 244 294 355
#     4  10  21  38  61  89 121 157 197 241 294 353
#     4  12  24  38  58  84 119 154 192 241 296 354
#     4  10  21  39  63  89 119 156 198 244 297 354
#     4  11  23  40  62  86 117 158 201 246 295 353
#
# _framework density 17.902681000000001
#
# number of rings (size 3 to 8) (size 9 to 14) (size 15 to 20)
#    0.000    1.000    1.667    6.000    0.000    4.000 
#    0.000    0.833    0.000    1.000    0.000    0.000 
#    0.000    0.000    0.000    0.000    0.000    0.000 
#
# Total GULP energy -268522.543185 kJ/mol
# GULP energy per Si atom -5594.219650 kJ/mol
# Density = 1.786193 g / cm^3
# Si number density = 17.902681 Si / 1000 Ang^3
#
#
#
# Elastic Constant Matrix: (Units=GPa)
#
#
# Indices 1 2 3 4 5 6 
#
# 1 142.0454 70.7503 100.3725 0.0000 0.0000 0.0000
# 2 70.7503 91.6800 83.7924 0.0000 0.0000 0.0000
# 3 100.3725 83.7924 167.1941 0.0000 0.0000 0.0000
# 4 0.0000 0.0000 0.0000 -11.0617 0.0000 0.0000
# 5 0.0000 0.0000 0.0000 0.0000 34.1409 0.0000
# 6 0.0000 0.0000 0.0000 0.0000 0.0000 28.8549
#
#
#
# Elastic Compliance Matrix: (Units=1/GPa)
#
#
# Indices 1 2 3 4 5 6 
#
# 1 0.013629 -0.005609 -0.005371 0.000000 0.000000 0.000000
# 2 -0.005609 0.022434 -0.007876 0.000000 0.000000 0.000000
# 3 -0.005371 -0.007876 0.013153 0.000000 0.000000 0.000000
# 4 0.000000 0.000000 0.000000 -0.090402 0.000000 0.000000
# 5 0.000000 0.000000 0.000000 0.000000 0.029290 0.000000
# 6 0.000000 0.000000 0.000000 0.000000 0.000000 0.034656
#
#
# Mechanical properties :
#
#
# Convention : Reuss Voigt Hill
#
# Bulk Modulus (GPa) = 86.92504 101.19443 94.05974
# Shear Modulus (GPa) = 77.75162 20.12044 48.93603
#
# Velocity S-wave (km/s) = 6.59731 3.35607 5.23391
# Velocity P-wave (km/s) = 10.32919 8.46552 9.44344
#
# Compressibility (1/GPa) = 0.01150417
#
# Stress axis : x y z
#
# Youngs Moduli (GPa) = 73.37402 44.57432 76.02872
#
# Poissons Ratio (x) = 0.25000 0.40835
# Poissons Ratio (y) = 0.41152 0.59884
# Poissons Ratio (z) = 0.39409 0.35109
#
# Static dielectric constant tensor:
#      x y z
#    x 1.596880 0.000000 0.000000 
#    y 0.000000 1.596290 0.000000 
#    z 0.000000 0.000000 1.583530 
# 
# From -- ./inp_files/14394.got.cif
#   From: 2010.05.17/outbox.cif.g08.bks.cpg/sg59_8_cif.got.tgz:14394.got - 2010.06.03 14:40:33.
