data_PCOD9452323
_publ_section_title
;
Structure prediction by ZEFSAII (Michael W. Deem and Ramdas Pophale) SiO2 
 PCOD9452323
Probable space group: P M M N
;
_chemical_formula_sum "Si O2"
_cell_formula_units_Z 64
_cell_length_a 14.059670
_cell_length_b 18.271319
_cell_length_c 12.596801
_cell_angle_alpha 90.000000
_cell_angle_beta 90.000000
_cell_angle_gamma 90.000000
_cell_volume 3235.976030
_symmetry_space_group_name_H-M "P M M N"
_symmetry_group_IT_number 59
_space_group.IT_coordinate_system_code '2'
_symmetry_cell_setting 'orthorhombic'
loop_
_space_group_symop_operation_xyz
x,y,z
1/2-x,1/2-y,z
1/2+x,-y,-z
-x,1/2+y,-z
-x,-y,-z
1/2+x,1/2+y,-z
1/2-x,y,z
x,1/2-y,z
loop_
_atom_site_type_symbol
_atom_site_label
_atom_site_fract_x
_atom_site_fract_y
_atom_site_fract_z
Si Si1 0.136730 0.335902 0.451179
Si Si2 0.940919 0.538034 0.693507
Si Si3 0.856403 0.433052 0.363198
Si Si4 0.143807 0.892667 0.392373
Si Si5 0.637180 0.836277 0.104050
Si Si6 0.472263 0.071749 0.064826
Si Si7 0.945767 0.835985 0.325071
Si Si8 0.358268 0.664127 0.845316
O O1 0.250000 0.341414 0.438785
O O2 0.109884 0.250000 0.440196
O O3 0.085473 0.387040 0.366154
O O4 0.107545 0.362391 0.568922
O O5 0.872995 0.474303 0.652212
O O6 0.935356 0.549339 0.818946
O O7 0.049999 0.519043 0.660234
O O8 0.750000 0.467120 0.356242
O O9 0.865278 0.399076 0.480255
O O10 0.861139 0.370979 0.272328
O O11 0.250000 0.866546 0.367084
O O12 0.057545 0.846571 0.344672
O O13 0.750000 0.842345 0.117868
O O14 0.613920 0.750000 0.089551
O O15 0.587244 0.865614 0.211396
O O16 0.601651 0.881621 0.003629
O O17 0.565647 0.120989 0.085188
O O18 0.500000 0.000000 0.000000
O O19 0.921775 0.750000 0.319728
O O20 0.250000 0.654661 0.884580
O O21 0.379858 0.750000 0.841190
#
# Coordination Sequence:
#
# PCOD9452323 Si02
#       8
#     8   8   8   8   8   8   8   8
#     4  10  21  37  59  89 121 155 197 246 306 372
#     4  11  22  39  60  85 124 162 200 249 309 367
#     4   9  19  34  56  87 121 154 196 244 295 361
#     4  11  22  37  57  88 126 162 198 239 296 371
#     4  10  22  42  66  89 115 157 215 268 310 359
#     4  11  24  41  61  88 123 163 208 260 314 365
#     4  10  21  39  61  86 119 156 197 249 306 367
#     4   9  19  38  64  92 121 157 204 256 311 371
#
# _framework density 19.777649
#
# number of rings (size 3 to 8) (size 9 to 14) (size 15 to 20)
#    0.000    1.875    1.250    2.250    0.000    6.250 
#    0.000    7.500    0.000    0.750    0.000    0.000 
#    0.000    0.000    0.000    0.000    0.000    0.000 
#
# Total GULP energy -357515.415519 kJ/mol
# GULP energy per Si atom -5586.178367 kJ/mol
# Density = 1.973263 g / cm^3
# Si number density = 19.777649 Si / 1000 Ang^3
#
#
#
# Elastic Constant Matrix: (Units=GPa)
#
#
# Indices 1 2 3 4 5 6 
#
# 1 74.8787 5.9756 38.6511 0.0000 0.0000 0.0000
# 2 5.9756 44.8273 24.4113 0.0000 0.0000 0.0000
# 3 38.6511 24.4113 99.8380 0.0000 0.0000 0.0000
# 4 0.0000 0.0000 0.0000 19.2780 0.0000 0.0000
# 5 0.0000 0.0000 0.0000 0.0000 25.8467 0.0000
# 6 0.0000 0.0000 0.0000 0.0000 0.0000 21.3206
#
#
#
# Elastic Compliance Matrix: (Units=1/GPa)
#
#
# Indices 1 2 3 4 5 6 
#
# 1 0.016777 0.001500 -0.006862 0.000000 0.000000 0.000000
# 2 0.001500 0.025869 -0.006906 0.000000 0.000000 0.000000
# 3 -0.006862 -0.006906 0.014361 0.000000 0.000000 0.000000
# 4 0.000000 0.000000 0.000000 0.051872 0.000000 0.000000
# 5 0.000000 0.000000 0.000000 0.000000 0.038690 0.000000
# 6 0.000000 0.000000 0.000000 0.000000 0.000000 0.046903
#
#
# Mechanical properties :
#
#
# Convention : Reuss Voigt Hill
#
# Bulk Modulus (GPa) = 30.79578 39.73554 35.26566
# Shear Modulus (GPa) = 21.75509 23.32280 22.53894
#
# Velocity S-wave (km/s) = 3.32020 3.43775 3.37948
# Velocity P-wave (km/s) = 5.50482 5.99101 5.75306
#
# Compressibility (1/GPa) = 0.03247198
#
# Stress axis : x y z
#
# Youngs Moduli (GPa) = 59.60463 38.65697 69.63160
#
# Poissons Ratio (x) = -0.05800 0.47781
# Poissons Ratio (y) = -0.08942 0.48087
# Poissons Ratio (z) = 0.40900 0.26696
#
# Static dielectric constant tensor:
#      x y z
#    x 1.701980 0.000000 0.000000 
#    y 0.000000 1.706650 0.000000 
#    z 0.000000 0.000000 1.665370 
# 
# From -- ./inp_files/17181.got.cif
#   From: 2010.05.17/outbox.cif.g08.bks.cpg/sg59_9_cif.got.tgz:17181.got - 2010.06.03 14:40:33.
