data_PCOD9452834
_publ_section_title
;
Structure prediction by ZEFSAII (Michael W. Deem and Ramdas Pophale) SiO2 
 PCOD9452834
Probable space group: P M M N
;
_chemical_formula_sum "Si O2"
_cell_formula_units_Z 64
_cell_length_a 31.623106
_cell_length_b 8.114351
_cell_length_c 12.319046
_cell_angle_alpha 90.000000
_cell_angle_beta 90.000000
_cell_angle_gamma 90.000000
_cell_volume 3161.079298
_symmetry_space_group_name_H-M "P M M N"
_symmetry_group_IT_number 59
_space_group.IT_coordinate_system_code '2'
_symmetry_cell_setting 'orthorhombic'
loop_
_space_group_symop_operation_xyz
x,y,z
1/2-x,1/2-y,z
1/2+x,-y,-z
-x,1/2+y,-z
-x,-y,-z
1/2+x,1/2+y,-z
1/2-x,y,z
x,1/2-y,z
loop_
_atom_site_type_symbol
_atom_site_label
_atom_site_fract_x
_atom_site_fract_y
_atom_site_fract_z
Si Si1 0.296879 0.548738 0.013120
Si Si2 0.088271 0.059802 0.247079
Si Si3 0.547694 0.052298 0.975907
Si Si4 0.181499 0.559378 0.254692
Si Si5 0.121924 0.946335 0.621255
Si Si6 0.796424 0.556147 0.509368
Si Si7 0.453297 0.948182 0.466061
Si Si8 0.376222 0.951508 0.868069
O O1 0.250000 0.500828 0.975057
O O2 0.298576 0.750000 0.015018
O O3 0.303162 0.494975 0.138000
O O4 0.335444 0.493068 0.937438
O O5 0.101527 0.250000 0.251087
O O6 0.063892 0.023528 0.136367
O O7 0.130707 0.952509 0.253168
O O8 0.059181 0.019746 0.349554
O O9 0.549656 0.250000 0.966791
O O10 0.580843 0.001594 0.069610
O O11 0.500000 0.000000 0.000000
O O12 0.194557 0.750000 0.263922
O O13 0.197517 0.469497 0.361871
O O14 0.116244 0.750000 0.630017
O O15 0.081885 0.008861 0.552419
O O16 0.124481 0.010969 0.744102
O O17 0.164677 0.977366 0.554494
O O18 0.750000 0.490285 0.478415
O O19 0.797488 0.750000 0.486551
O O20 0.450942 0.750000 0.460253
O O21 0.500000 0.000000 0.500000
O O22 0.374855 0.750000 0.866963
#
# Coordination Sequence:
#
# PCOD9452834 Si02
#       8
#     8   8   8   8   8   8   8   8
#     4   9  17  31  56  89 120 151 190 242 303 362
#     4  12  24  40  64  92 125 165 207 253 307 366
#     4  11  23  41  64  93 126 161 204 254 311 368
#     4  11  20  36  61  91 123 157 202 256 308 364
#     4  10  22  40  63  88 118 161 208 253 303 365
#     4  11  24  40  59  87 124 164 205 253 311 371
#     4  11  24  41  63  93 126 161 207 257 309 370
#     4   9  19  37  59  87 122 155 195 251 303 355
#
# _framework density 20.246248999999999
#
# number of rings (size 3 to 8) (size 9 to 14) (size 15 to 20)
#    0.000    1.500    2.500    3.000    1.750    2.500 
#    0.000    2.500    0.000    0.000    0.000    0.000 
#    0.000    0.000    0.000    0.000    0.000    0.000 
#
# Total GULP energy -357731.488570 kJ/mol
# GULP energy per Si atom -5589.554509 kJ/mol
# Density = 2.020017 g / cm^3
# Si number density = 20.246249 Si / 1000 Ang^3
#
#
#
# Elastic Constant Matrix: (Units=GPa)
#
#
# Indices 1 2 3 4 5 6 
#
# 1 160.4731 -7.2425 66.4225 0.0000 0.0000 0.0000
# 2 -7.2425 27.0972 5.1210 0.0000 0.0000 0.0000
# 3 66.4225 5.1210 146.3724 0.0000 0.0000 0.0000
# 4 0.0000 0.0000 0.0000 5.5922 0.0000 0.0000
# 5 0.0000 0.0000 0.0000 0.0000 33.3130 0.0000
# 6 0.0000 0.0000 0.0000 0.0000 0.0000 19.4793
#
#
#
# Elastic Compliance Matrix: (Units=1/GPa)
#
#
# Indices 1 2 3 4 5 6 
#
# 1 0.007878 0.002800 -0.003673 0.000000 0.000000 0.000000
# 2 0.002800 0.038145 -0.002605 0.000000 0.000000 0.000000
# 3 -0.003673 -0.002605 0.008590 0.000000 0.000000 0.000000
# 4 0.000000 0.000000 0.000000 0.178821 0.000000 0.000000
# 5 0.000000 0.000000 0.000000 0.000000 0.030018 0.000000
# 6 0.000000 0.000000 0.000000 0.000000 0.000000 0.051336
#
#
# Mechanical properties :
#
#
# Convention : Reuss Voigt Hill
#
# Bulk Modulus (GPa) = 20.98354 51.39384 36.18869
# Shear Modulus (GPa) = 14.80909 29.65301 22.23105
#
# Velocity S-wave (km/s) = 2.70746 3.83118 3.31725
# Velocity P-wave (km/s) = 4.49004 6.70896 5.70835
#
# Compressibility (1/GPa) = 0.04765640
#
# Stress axis : x y z
#
# Youngs Moduli (GPa) = 126.93139 26.21585 116.41679
#
# Poissons Ratio (x) = -0.07340 0.42760
# Poissons Ratio (y) = -0.35539 0.30327
# Poissons Ratio (z) = 0.46622 0.06829
#
# Static dielectric constant tensor:
#      x y z
#    x 1.693810 0.000000 0.000000 
#    y 0.000000 1.721820 0.000000 
#    z 0.000000 0.000000 1.663640 
# 
# From -- ./inp_files/15013.got.cif
#   From: 2010.05.17/outbox.cif.g08.bks.cpg/sg59_8_cif.got.tgz:15013.got - 2010.06.03 14:40:33.
