data_PCOD9452445
_publ_section_title
;
Structure prediction by ZEFSAII (Michael W. Deem and Ramdas Pophale) SiO2 
 PCOD9452445
Probable space group: P M M N
;
_chemical_formula_sum "Si O2"
_cell_formula_units_Z 48
_cell_length_a 8.753134
_cell_length_b 31.716710
_cell_length_c 9.153455
_cell_angle_alpha 90.000000
_cell_angle_beta 90.000000
_cell_angle_gamma 90.000000
_cell_volume 2541.187785
_symmetry_space_group_name_H-M "P M M N"
_symmetry_group_IT_number 59
_space_group.IT_coordinate_system_code '2'
_symmetry_cell_setting 'orthorhombic'
loop_
_space_group_symop_operation_xyz
x,y,z
1/2-x,1/2-y,z
1/2+x,-y,-z
-x,1/2+y,-z
-x,-y,-z
1/2+x,1/2+y,-z
1/2-x,y,z
x,1/2-y,z
loop_
_atom_site_type_symbol
_atom_site_label
_atom_site_fract_x
_atom_site_fract_y
_atom_site_fract_z
Si Si1 0.931882 0.250000 0.832924
Si Si2 0.434421 0.000113 0.662502
Si Si3 0.065535 0.416566 0.839983
Si Si4 0.065563 0.250000 0.157940
Si Si5 0.433153 0.915757 0.834983
Si Si6 0.434498 0.331144 0.670138
Si Si7 0.565567 0.665035 0.670015
O O1 0.750000 0.250000 0.833568
O O2 0.993302 0.208722 0.750239
O O3 0.993574 0.250000 0.998142
O O4 0.250000 0.000497 0.654022
O O5 0.481486 0.958183 0.749903
O O6 0.500000 0.000000 0.500000
O O7 0.482271 0.041911 0.750590
O O8 0.250000 0.417183 0.851956
O O9 0.022930 0.374350 0.752005
O O10 0.996336 0.416231 0.001006
O O11 0.250000 0.250000 0.143141
O O12 0.022381 0.291913 0.247265
O O13 0.250000 0.914719 0.838858
O O14 0.494452 0.875041 0.749963
O O15 0.250000 0.327028 0.676466
O O16 0.478820 0.333025 0.500026
O O17 0.750000 0.661401 0.676084
#
# Coordination Sequence:
#
# PCOD9452445 Si02
#       7
#     4   8   8   4   8   8   8
#     4  12  25  38  56  84 118 152 183 226 288 344
#     4  10  22  39  59  85 115 149 190 235 283 335
#     4  10  21  38  60  84 112 151 196 235 274 330
#     4  10  21  38  60  84 110 146 193 236 274 326
#     4  11  23  37  56  86 121 151 183 230 286 339
#     4  10  21  39  62  85 110 145 193 240 277 326
#     4  10  21  39  63  86 110 147 192 235 280 331
#
# _framework density 18.888802999999999
#
# number of rings (size 3 to 8) (size 9 to 14) (size 15 to 20)
#    0.000    1.667    0.000    4.250    0.000   10.667 
#    0.000    0.833    0.000    0.000    0.000    0.000 
#    0.000    0.000    0.000    0.000    0.000    0.000 
#
# Total GULP energy -268389.859249 kJ/mol
# GULP energy per Si atom -5591.455401 kJ/mol
# Density = 1.884581 g / cm^3
# Si number density = 18.888803 Si / 1000 Ang^3
#
#
#
# Elastic Constant Matrix: (Units=GPa)
#
#
# Indices 1 2 3 4 5 6 
#
# 1 20.1717 57.8276 55.5479 0.0000 0.0000 0.0000
# 2 57.8276 240.6051 150.6152 0.0000 0.0000 0.0000
# 3 55.5479 150.6152 243.1517 0.0000 0.0000 0.0000
# 4 0.0000 0.0000 0.0000 44.4410 0.0000 0.0000
# 5 0.0000 0.0000 0.0000 0.0000 25.1391 0.0000
# 6 0.0000 0.0000 0.0000 0.0000 0.0000 15.8477
#
#
#
# Elastic Compliance Matrix: (Units=1/GPa)
#
#
# Indices 1 2 3 4 5 6 
#
# 1 0.266060 -0.042299 -0.034580 0.000000 0.000000 0.000000
# 2 -0.042299 0.013513 0.001293 0.000000 0.000000 0.000000
# 3 -0.034580 0.001293 0.011212 0.000000 0.000000 0.000000
# 4 0.000000 0.000000 0.000000 0.022502 0.000000 0.000000
# 5 0.000000 0.000000 0.000000 0.000000 0.039779 0.000000
# 6 0.000000 0.000000 0.000000 0.000000 0.000000 0.063101
#
#
# Mechanical properties :
#
#
# Convention : Reuss Voigt Hill
#
# Bulk Modulus (GPa) = 7.16269 114.65666 60.90967
# Shear Modulus (GPa) = 8.14496 33.08143 20.61320
#
# Velocity S-wave (km/s) = 2.07880 4.18949 3.30705
# Velocity P-wave (km/s) = 3.09227 9.17796 6.84825
#
# Compressibility (1/GPa) = 0.13961245
#
# Stress axis : x y z
#
# Youngs Moduli (GPa) = 3.75855 74.00172 89.19214
#
# Poissons Ratio (x) = 3.13019 3.08428
# Poissons Ratio (y) = 0.15898 -0.11530
# Poissons Ratio (z) = 0.12997 -0.09566
#
# Static dielectric constant tensor:
#      x y z
#    x 1.637660 0.000000 0.000000 
#    y 0.000000 1.630090 0.000000 
#    z 0.000000 0.000000 1.609040 
# 
# From -- ./inp_files/6371.got.cif
#   From: 2010.05.17/outbox.cif.g08.bks.cpg/sg59_4_cif.got.tgz:6371.got - 2010.06.03 14:40:33.
