data_PCOD9452280
_publ_section_title
;
Structure prediction by ZEFSAII (Michael W. Deem and Ramdas Pophale) SiO2 
 PCOD9452280
Probable space group: P M M N
;
_chemical_formula_sum "Si O2"
_cell_formula_units_Z 56
_cell_length_a 8.504427
_cell_length_b 23.366017
_cell_length_c 14.239167
_cell_angle_alpha 90.000000
_cell_angle_beta 90.000000
_cell_angle_gamma 90.000000
_cell_volume 2829.530173
_symmetry_space_group_name_H-M "P M M N"
_symmetry_group_IT_number 59
_space_group.IT_coordinate_system_code '2'
_symmetry_cell_setting 'orthorhombic'
loop_
_space_group_symop_operation_xyz
x,y,z
1/2-x,1/2-y,z
1/2+x,-y,-z
-x,1/2+y,-z
-x,-y,-z
1/2+x,1/2+y,-z
1/2-x,y,z
x,1/2-y,z
loop_
_atom_site_type_symbol
_atom_site_label
_atom_site_fract_x
_atom_site_fract_y
_atom_site_fract_z
Si Si1 0.437922 0.123892 0.197154
Si Si2 0.564402 0.465261 0.349179
Si Si3 0.560369 0.923997 0.452258
Si Si4 0.562196 0.356440 0.854772
Si Si5 0.940513 0.250000 0.980282
Si Si6 0.560775 0.685198 0.343353
Si Si7 0.063427 0.436127 0.003702
Si Si8 0.060994 0.750000 0.806034
O O1 0.250000 0.129845 0.193367
O O2 0.480875 0.073554 0.270999
O O3 0.495932 0.101717 0.093642
O O4 0.504933 0.186596 0.227415
O O5 0.750000 0.463512 0.329606
O O6 0.526287 0.439968 0.452164
O O7 0.518052 0.531893 0.367503
O O8 0.750000 0.929670 0.465894
O O9 0.521901 0.859473 0.424457
O O10 0.750000 0.361548 0.857901
O O11 0.509713 0.304748 0.922226
O O12 0.508851 0.340190 0.751705
O O13 0.484854 0.410230 0.903735
O O14 0.750000 0.250000 0.983525
O O15 0.997361 0.250000 0.085918
O O16 0.750000 0.685920 0.334670
O O17 0.505827 0.750000 0.358339
O O18 0.250000 0.437168 0.012849
O O19 0.000000 0.500000 0.000000
O O20 0.250000 0.750000 0.801171
#
# Coordination Sequence:
#
# PCOD9452280 Si02
#       8
#     8   8   8   8   4   8   8   4
#     4  11  24  41  61  89 122 158 201 248 300 359
#     4  10  21  39  64  90 115 153 201 249 305 365
#     4   9  20  40  63  87 117 154 198 251 307 363
#     4  11  21  37  58  84 117 156 198 241 291 347
#     4   9  18  33  55  80 111 152 193 235 284 336
#     4  10  21  37  58  88 122 159 201 247 302 362
#     4  11  25  41  58  86 121 159 202 248 297 348
#     4  11  21  39  63  86 117 158 203 247 298 358
#
# _framework density 19.791271999999999
#
# number of rings (size 3 to 8) (size 9 to 14) (size 15 to 20)
#    0.000    1.714    2.143    1.929    2.000    2.857 
#    1.286    0.000    0.000    0.000    0.000    0.000 
#    0.000    0.000    0.000    0.000    0.000    0.000 
#
# Total GULP energy -312441.069369 kJ/mol
# GULP energy per Si atom -5579.304810 kJ/mol
# Density = 1.974623 g / cm^3
# Si number density = 19.791272 Si / 1000 Ang^3
#
#
#
# Elastic Constant Matrix: (Units=GPa)
#
#
# Indices 1 2 3 4 5 6 
#
# 1 19.0702 38.5658 14.2018 0.0000 0.0000 0.0000
# 2 38.5658 126.6764 12.7059 0.0000 0.0000 0.0000
# 3 14.2018 12.7059 27.6180 0.0000 0.0000 0.0000
# 4 0.0000 0.0000 0.0000 26.5160 0.0000 0.0000
# 5 0.0000 0.0000 0.0000 0.0000 27.2744 0.0000
# 6 0.0000 0.0000 0.0000 0.0000 0.0000 24.7112
#
#
#
# Elastic Compliance Matrix: (Units=1/GPa)
#
#
# Indices 1 2 3 4 5 6 
#
# 1 0.305279 -0.080929 -0.119749 0.000000 0.000000 0.000000
# 2 -0.080929 0.029730 0.027938 0.000000 0.000000 0.000000
# 3 -0.119749 0.027938 0.084933 0.000000 0.000000 0.000000
# 4 0.000000 0.000000 0.000000 0.037713 0.000000 0.000000
# 5 0.000000 0.000000 0.000000 0.000000 0.036664 0.000000
# 6 0.000000 0.000000 0.000000 0.000000 0.000000 0.040468
#
#
# Mechanical properties :
#
#
# Convention : Reuss Voigt Hill
#
# Bulk Modulus (GPa) = 13.42974 33.81240 23.62107
# Shear Modulus (GPa) = 5.52432 22.89307 14.20870
#
# Velocity S-wave (km/s) = 1.67253 3.40476 2.68232
# Velocity P-wave (km/s) = 3.24503 5.70772 4.64264
#
# Compressibility (1/GPa) = 0.07446160
#
# Stress axis : x y z
#
# Youngs Moduli (GPa) = 3.27569 33.63581 11.77401
#
# Poissons Ratio (x) = 2.72211 1.40993
# Poissons Ratio (y) = 0.26510 -0.32894
# Poissons Ratio (z) = 0.39226 -0.93971
#
# Static dielectric constant tensor:
#      x y z
#    x 1.673010 0.000000 0.000000 
#    y 0.000000 1.729640 0.000000 
#    z 0.000000 0.000000 1.680480 
# 
# From -- ./inp_files/21094.got.cif
#   From: 2010.05.17/outbox.cif.g08.bks.cpg/sg59_11_cif.got.tgz:21094.got - 2010.06.03 14:40:33.
