data_PCOD9452693
_publ_section_title
;
Structure prediction by ZEFSAII (Michael W. Deem and Ramdas Pophale) SiO2 
 PCOD9452693
Probable space group: P M M N
;
_chemical_formula_sum "Si O2"
_cell_formula_units_Z 56
_cell_length_a 19.713270
_cell_length_b 14.004914
_cell_length_c 10.750032
_cell_angle_alpha 90.000000
_cell_angle_beta 90.000000
_cell_angle_gamma 90.000000
_cell_volume 2967.897333
_symmetry_space_group_name_H-M "P M M N"
_symmetry_group_IT_number 59
_space_group.IT_coordinate_system_code '2'
_symmetry_cell_setting 'orthorhombic'
loop_
_space_group_symop_operation_xyz
x,y,z
1/2-x,1/2-y,z
1/2+x,-y,-z
-x,1/2+y,-z
-x,-y,-z
1/2+x,1/2+y,-z
1/2-x,y,z
x,1/2-y,z
loop_
_atom_site_type_symbol
_atom_site_label
_atom_site_fract_x
_atom_site_fract_y
_atom_site_fract_z
Si Si1 0.827013 0.004770 0.419692
Si Si2 0.437733 0.363650 0.291366
Si Si3 0.826055 0.364461 0.182201
Si Si4 0.534169 0.133932 0.066148
Si Si5 0.049983 0.635418 0.205594
Si Si6 0.548660 0.635720 0.428159
Si Si7 0.828507 0.020753 0.705379
O O1 0.750000 0.966301 0.409240
O O2 0.882811 0.922874 0.404458
O O3 0.835383 0.084705 0.314836
O O4 0.832930 0.046637 0.558730
O O5 0.427729 0.250000 0.282800
O O6 0.484975 0.396156 0.177727
O O7 0.470475 0.382639 0.427409
O O8 0.366784 0.419216 0.285165
O O9 0.750000 0.388038 0.136128
O O10 0.829520 0.250000 0.197134
O O11 0.888584 0.394782 0.096285
O O12 0.532496 0.250000 0.068871
O O13 0.516632 0.105448 0.925520
O O14 0.053828 0.750000 0.206004
O O15 0.124869 0.592768 0.218020
O O16 0.007064 0.606415 0.326822
O O17 0.559409 0.750000 0.416024
O O18 0.750000 0.018022 0.741461
#
# Coordination Sequence:
#
# PCOD9452693 Si02
#       7
#     8   8   8   8   8   8   8
#     4   9  19  34  53  80 110 139 174 219 265 310
#     4   9  19  36  59  82 104 137 180 223 263 311
#     4   9  18  32  51  76 106 140 177 214 255 312
#     4   9  19  35  55  79 105 138 178 217 262 312
#     4  10  22  37  54  79 111 143 174 218 270 317
#     4   9  19  35  56  80 105 138 178 218 264 316
#     4  10  22  36  53  80 109 141 180 218 266 320
#
# _framework density 18.868576999999998
#
# number of rings (size 3 to 8) (size 9 to 14) (size 15 to 20)
#    0.000    2.714    0.000    0.000    4.000    3.714 
#    0.000    5.714    0.000    0.000    0.000    4.000 
#    0.000    0.000    0.000    0.000    0.000    0.000 
#
# Total GULP energy -312390.647542 kJ/mol
# GULP energy per Si atom -5578.404420 kJ/mol
# Density = 1.882563 g / cm^3
# Si number density = 18.868577 Si / 1000 Ang^3
#
#
#
# Elastic Constant Matrix: (Units=GPa)
#
#
# Indices 1 2 3 4 5 6 
#
# 1 95.5629 7.1067 62.7674 0.0000 0.0000 0.0000
# 2 7.1067 31.0893 26.7376 0.0000 0.0000 0.0000
# 3 62.7674 26.7376 105.8333 0.0000 0.0000 0.0000
# 4 0.0000 0.0000 0.0000 21.4761 0.0000 0.0000
# 5 0.0000 0.0000 0.0000 0.0000 19.3832 0.0000
# 6 0.0000 0.0000 0.0000 0.0000 0.0000 26.5292
#
#
#
# Elastic Compliance Matrix: (Units=1/GPa)
#
#
# Indices 1 2 3 4 5 6 
#
# 1 0.018119 0.006516 -0.012392 0.000000 0.000000 0.000000
# 2 0.006516 0.043437 -0.014838 0.000000 0.000000 0.000000
# 3 -0.012392 -0.014838 0.020547 0.000000 0.000000 0.000000
# 4 0.000000 0.000000 0.000000 0.046563 0.000000 0.000000
# 5 0.000000 0.000000 0.000000 0.000000 0.051591 0.000000
# 6 0.000000 0.000000 0.000000 0.000000 0.000000 0.037694
#
#
# Mechanical properties :
#
#
# Convention : Reuss Voigt Hill
#
# Bulk Modulus (GPa) = 24.58571 47.30099 35.94335
# Shear Modulus (GPa) = 18.31906 22.53596 20.42751
#
# Velocity S-wave (km/s) = 3.11927 3.45971 3.29389
# Velocity P-wave (km/s) = 5.10210 6.40956 5.79284
#
# Compressibility (1/GPa) = 0.04067404
#
# Stress axis : x y z
#
# Youngs Moduli (GPa) = 55.19005 23.02172 48.66862
#
# Poissons Ratio (x) = -0.15000 0.60311
# Poissons Ratio (y) = -0.35961 0.72216
# Poissons Ratio (z) = 0.68393 0.34160
#
# Static dielectric constant tensor:
#      x y z
#    x 1.639480 0.000000 0.000000 
#    y 0.000000 1.656850 0.000000 
#    z 0.000000 0.000000 1.674360 
# 
# From -- ./inp_files/11408.got.cif
#   From: 2010.05.17/outbox.cif.g08.bks.cpg/sg59_6_cif.got.tgz:11408.got - 2010.06.03 14:40:33.
