data_PCOD9452501
_publ_section_title
;
Structure prediction by ZEFSAII (Michael W. Deem and Ramdas Pophale) SiO2 
 PCOD9452501
Probable space group: P M M N
;
_chemical_formula_sum "Si O2"
_cell_formula_units_Z 40
_cell_length_a 10.104843
_cell_length_b 31.894529
_cell_length_c 6.226235
_cell_angle_alpha 90.000000
_cell_angle_beta 90.000000
_cell_angle_gamma 90.000000
_cell_volume 2006.648348
_symmetry_space_group_name_H-M "P M M N"
_symmetry_group_IT_number 59
_space_group.IT_coordinate_system_code '2'
_symmetry_cell_setting 'orthorhombic'
loop_
_space_group_symop_operation_xyz
x,y,z
1/2-x,1/2-y,z
1/2+x,-y,-z
-x,1/2+y,-z
-x,-y,-z
1/2+x,1/2+y,-z
1/2-x,y,z
x,1/2-y,z
loop_
_atom_site_type_symbol
_atom_site_label
_atom_site_fract_x
_atom_site_fract_y
_atom_site_fract_z
Si Si1 0.103284 0.995576 0.191289
Si Si2 0.396960 0.868264 0.858657
Si Si3 0.506772 0.930092 0.520615
Si Si4 0.401201 0.799341 0.499257
Si Si5 0.402386 0.355843 0.763832
O O1 0.250000 0.992965 0.100860
O O2 0.071782 0.955463 0.338368
O O3 0.088732 0.035728 0.346478
O O4 0.000000 0.000000 0.000000
O O5 0.250000 0.870313 0.957530
O O6 0.413717 0.905704 0.687888
O O7 0.408280 0.825565 0.720148
O O8 0.515513 0.869797 0.027235
O O9 0.591459 0.894432 0.403198
O O10 0.250000 0.805780 0.416220
O O11 0.420372 0.750000 0.531882
O O12 0.511042 0.818704 0.342281
O O13 0.250000 0.344946 0.808124
#
# Coordination Sequence:
#
# PCOD9452501 Si02
#       5
#     8   8   8   8   8
#     4  11  24  40  60  86 115 150 194 243 293 344
#     4  10  21  38  61  87 115 152 197 241 285 338
#     4  10  23  40  60  82 115 155 196 239 285 342
#     4   9  20  40  63  86 115 153 195 236 279 334
#     4  11  23  38  59  88 120 153 189 234 290 347
#
# _framework density 19.933734999999999
#
# number of rings (size 3 to 8) (size 9 to 14) (size 15 to 20)
#    0.000    1.800    0.000    3.000    0.000   15.600 
#    0.000    2.000    0.000    0.000    0.000    0.000 
#    0.000    0.000    0.000    0.000    0.000    0.000 
#
# Total GULP energy -223507.149596 kJ/mol
# GULP energy per Si atom -5587.678740 kJ/mol
# Density = 1.988837 g / cm^3
# Si number density = 19.933735 Si / 1000 Ang^3
#
#
#
# Elastic Constant Matrix: (Units=GPa)
#
#
# Indices 1 2 3 4 5 6 
#
# 1 175.9015 31.9619 53.0309 0.0000 0.0000 0.0000
# 2 31.9619 106.6623 15.4167 0.0000 0.0000 0.0000
# 3 53.0309 15.4167 67.5120 0.0000 0.0000 0.0000
# 4 0.0000 0.0000 0.0000 12.2595 0.0000 0.0000
# 5 0.0000 0.0000 0.0000 0.0000 27.4994 0.0000
# 6 0.0000 0.0000 0.0000 0.0000 0.0000 1.3685
#
#
#
# Elastic Compliance Matrix: (Units=1/GPa)
#
#
# Indices 1 2 3 4 5 6 
#
# 1 0.007667 -0.001476 -0.005686 0.000000 0.000000 0.000000
# 2 -0.001476 0.009979 -0.001120 0.000000 0.000000 0.000000
# 3 -0.005686 -0.001120 0.019534 0.000000 0.000000 0.000000
# 4 0.000000 0.000000 0.000000 0.081570 0.000000 0.000000
# 5 0.000000 0.000000 0.000000 0.000000 0.036364 0.000000
# 6 0.000000 0.000000 0.000000 0.000000 0.000000 0.730707
#
#
# Mechanical properties :
#
#
# Convention : Reuss Voigt Hill
#
# Bulk Modulus (GPa) = 48.50006 61.21054 54.85530
# Shear Modulus (GPa) = 5.49900 24.86989 15.18445
#
# Velocity S-wave (km/s) = 1.66272 3.53601 2.76297
# Velocity P-wave (km/s) = 5.29808 6.88802 6.14469
#
# Compressibility (1/GPa) = 0.02061853
#
# Stress axis : x y z
#
# Youngs Moduli (GPa) = 130.42458 100.20617 51.19285
#
# Poissons Ratio (x) = 0.14788 0.29107
# Poissons Ratio (y) = 0.19247 0.05732
# Poissons Ratio (z) = 0.74155 0.11220
#
# Static dielectric constant tensor:
#      x y z
#    x 1.684860 0.000000 0.000000 
#    y 0.000000 1.696910 0.000000 
#    z 0.000000 0.000000 1.695980 
# 
# From -- ./inp_files/1510.got.cif
#   From: 2010.05.17/outbox.cif.g08.bks.cpg/sg59_1_cif.got.tgz:1510.got - 2010.06.03 14:40:33.
