data_PCOD9452229
_publ_section_title
;
Structure prediction by ZEFSAII (Michael W. Deem and Ramdas Pophale) SiO2 
 PCOD9452229
Probable space group: P M M N
;
_chemical_formula_sum "Si O2"
_cell_formula_units_Z 56
_cell_length_a 23.460553
_cell_length_b 8.270307
_cell_length_c 14.426469
_cell_angle_alpha 90.000000
_cell_angle_beta 90.000000
_cell_angle_gamma 90.000000
_cell_volume 2799.109724
_symmetry_space_group_name_H-M "P M M N"
_symmetry_group_IT_number 59
_space_group.IT_coordinate_system_code '2'
_symmetry_cell_setting 'orthorhombic'
loop_
_space_group_symop_operation_xyz
x,y,z
1/2-x,1/2-y,z
1/2+x,-y,-z
-x,1/2+y,-z
-x,-y,-z
1/2+x,1/2+y,-z
1/2-x,y,z
x,1/2-y,z
loop_
_atom_site_type_symbol
_atom_site_label
_atom_site_fract_x
_atom_site_fract_y
_atom_site_fract_z
Si Si1 0.655903 0.937474 0.628397
Si Si2 0.750000 0.567534 0.305404
Si Si3 0.075956 0.555140 0.062814
Si Si4 0.377720 0.944665 0.695833
Si Si5 0.750000 0.070919 0.499120
Si Si6 0.962170 0.445184 0.140918
Si Si7 0.685565 0.445791 0.832193
Si Si8 0.434947 0.944607 0.499909
O O1 0.670420 0.750000 0.614915
O O2 0.696268 0.046332 0.564338
O O3 0.666774 0.985120 0.733487
O O4 0.593782 0.974957 0.589695
O O5 0.750000 0.750000 0.271660
O O6 0.687810 0.492483 0.281930
O O7 0.750000 0.556019 0.417086
O O8 0.073966 0.750000 0.061452
O O9 0.138502 0.503501 0.093811
O O10 0.028053 0.497670 0.135655
O O11 0.061733 0.497774 0.959021
O O12 0.379206 0.750000 0.695003
O O13 0.422669 0.002034 0.774265
O O14 0.400507 0.996404 0.593697
O O15 0.750000 0.250000 0.456560
O O16 0.960751 0.250000 0.142530
O O17 0.750000 0.496512 0.853341
O O18 0.684882 0.250000 0.826199
O O19 0.431599 0.750000 0.494257
O O20 0.500000 0.000000 0.500000
#
# Coordination Sequence:
#
# PCOD9452229 Si02
#       8
#     8   4   8   8   4   8   8   8
#     4  12  24  38  58  85 115 152 197 240 284 345
#     4  12  24  38  60  87 116 155 202 247 292 346
#     4   9  19  37  61  89 116 150 196 245 299 354
#     4  10  22  40  61  85 118 159 197 240 298 357
#     4  12  22  38  60  81 112 153 194 237 284 342
#     4   9  19  38  62  89 116 150 196 243 297 358
#     4  10  21  37  57  84 120 159 197 243 299 356
#     4  11  24  40  58  84 121 159 196 242 293 347
#
# _framework density 20.006360999999998
#
# number of rings (size 3 to 8) (size 9 to 14) (size 15 to 20)
#    0.000    1.571    2.143    3.000    2.000    1.714 
#    1.286    0.000    0.000    0.000    0.000    0.000 
#    0.000    0.000    0.000    0.000    0.000    0.000 
#
# Total GULP energy -312643.008331 kJ/mol
# GULP energy per Si atom -5582.910863 kJ/mol
# Density = 1.996083 g / cm^3
# Si number density = 20.006361 Si / 1000 Ang^3
#
#
#
# Elastic Constant Matrix: (Units=GPa)
#
#
# Indices 1 2 3 4 5 6 
#
# 1 155.1402 15.6053 40.5860 0.0000 0.0000 0.0000
# 2 15.6053 27.9757 10.7197 0.0000 0.0000 0.0000
# 3 40.5860 10.7197 53.4100 0.0000 0.0000 0.0000
# 4 0.0000 0.0000 0.0000 15.3656 0.0000 0.0000
# 5 0.0000 0.0000 0.0000 0.0000 -164.5148 0.0000
# 6 0.0000 0.0000 0.0000 0.0000 0.0000 6.1059
#
#
#
# Elastic Compliance Matrix: (Units=1/GPa)
#
#
# Indices 1 2 3 4 5 6 
#
# 1 0.008187 -0.002365 -0.005747 0.000000 0.000000 0.000000
# 2 -0.002365 0.039406 -0.006112 0.000000 0.000000 0.000000
# 3 -0.005747 -0.006112 0.024317 0.000000 0.000000 0.000000
# 4 0.000000 0.000000 0.000000 0.065081 0.000000 0.000000
# 5 0.000000 0.000000 0.000000 0.000000 -0.006078 0.000000
# 6 0.000000 0.000000 0.000000 0.000000 0.000000 0.163775
#
#
# Mechanical properties :
#
#
# Convention : Reuss Voigt Hill
#
# Bulk Modulus (GPa) = 23.00808 41.14978 32.07893
# Shear Modulus (GPa) = 14.80947 -17.30100 -1.24577
#
# Velocity S-wave (km/s) = 2.72368 -2.94390 -0.78996
# Velocity P-wave (km/s) = 4.62781 3.00959 3.90348
#
# Compressibility (1/GPa) = 0.04346300
#
# Stress axis : x y z
#
# Youngs Moduli (GPa) = 122.14437 25.37658 41.12408
#
# Poissons Ratio (x) = 0.06001 0.23633
# Poissons Ratio (y) = 0.28885 0.25135
# Poissons Ratio (z) = 0.70192 0.15510
#
# Static dielectric constant tensor:
#      x y z
#    x 1.744340 0.000000 0.000000 
#    y 0.000000 1.692700 0.000000 
#    z 0.000000 0.000000 1.694000 
# 
# From -- ./inp_files/24317.got.cif
#   From: 2010.05.17/outbox.cif.g08.bks.cpg/sg59_13_cif.got.tgz:24317.got - 2010.06.03 14:40:33.
