data_PCOD9452527
_publ_section_title
;
Structure prediction by ZEFSAII (Michael W. Deem and Ramdas Pophale) SiO2 
 PCOD9452527
Probable space group: P M M N
;
_chemical_formula_sum "Si O2"
_cell_formula_units_Z 56
_cell_length_a 9.127926
_cell_length_b 22.759727
_cell_length_c 14.549804
_cell_angle_alpha 90.000000
_cell_angle_beta 90.000000
_cell_angle_gamma 90.000000
_cell_volume 3022.708742
_symmetry_space_group_name_H-M "P M M N"
_symmetry_group_IT_number 59
_space_group.IT_coordinate_system_code '2'
_symmetry_cell_setting 'orthorhombic'
loop_
_space_group_symop_operation_xyz
x,y,z
1/2-x,1/2-y,z
1/2+x,-y,-z
-x,1/2+y,-z
-x,-y,-z
1/2+x,1/2+y,-z
1/2-x,y,z
x,1/2-y,z
loop_
_atom_site_type_symbol
_atom_site_label
_atom_site_fract_x
_atom_site_fract_y
_atom_site_fract_z
Si Si1 0.924409 0.683418 0.684091
Si Si2 0.578872 0.450576 0.622782
Si Si3 0.078733 0.927754 0.594409
Si Si4 0.923430 0.870259 0.879860
Si Si5 0.420739 0.820213 0.060934
Si Si6 0.078600 0.511967 0.903126
Si Si7 0.921108 0.607341 0.214257
O O1 0.750000 0.677544 0.666373
O O2 0.969239 0.750000 0.660641
O O3 0.945331 0.672104 0.792991
O O4 0.009503 0.632296 0.631242
O O5 0.750000 0.454241 0.647266
O O6 0.505440 0.514799 0.631343
O O7 0.567108 0.431653 0.516300
O O8 0.496707 0.405239 0.688719
O O9 0.250000 0.931650 0.619824
O O10 0.750000 0.878115 0.894797
O O11 0.998239 0.932556 0.858466
O O12 0.996747 0.845966 0.972199
O O13 0.250000 0.837748 0.058323
O O14 0.429733 0.750000 0.058641
O O15 0.496102 0.845294 0.152184
O O16 0.250000 0.525081 0.917560
O O17 0.067696 0.453949 0.841745
O O18 0.000000 0.500000 0.000000
O O19 0.750000 0.621888 0.224300
#
# Coordination Sequence:
#
# PCOD9452527 Si02
#       7
#     8   8   8   8   8   8   8
#     4  10  22  39  59  85 118 157 198 239 289 349
#     4  10  21  38  62  89 118 152 188 235 294 350
#     4  10  21  38  61  90 119 149 190 238 290 348
#     4  11  22  37  58  84 115 153 194 237 285 340
#     4  11  24  40  58  80 110 151 195 238 284 337
#     4  11  22  35  54  83 116 150 188 234 287 340
#     4  11  23  38  59  87 116 149 191 237 284 339
#
# _framework density 18.526430000000001
#
# number of rings (size 3 to 8) (size 9 to 14) (size 15 to 20)
#    0.000    1.429    1.429    3.857    0.000    8.857 
#    0.000    0.714    0.000    0.857    0.000    0.000 
#    0.000    0.000    0.000    0.000    0.000    0.000 
#
# Total GULP energy -313097.260202 kJ/mol
# GULP energy per Si atom -5591.022504 kJ/mol
# Density = 1.848426 g / cm^3
# Si number density = 18.526430 Si / 1000 Ang^3
#
#
#
# Elastic Constant Matrix: (Units=GPa)
#
#
# Indices 1 2 3 4 5 6 
#
# 1 120.8853 37.3832 39.5280 0.0000 0.0000 0.0000
# 2 37.3832 66.0711 9.6150 0.0000 0.0000 0.0000
# 3 39.5280 9.6150 44.5980 0.0000 0.0000 0.0000
# 4 0.0000 0.0000 0.0000 24.5777 0.0000 0.0000
# 5 0.0000 0.0000 0.0000 0.0000 31.8022 0.0000
# 6 0.0000 0.0000 0.0000 0.0000 0.0000 30.3036
#
#
#
# Elastic Compliance Matrix: (Units=1/GPa)
#
#
# Indices 1 2 3 4 5 6 
#
# 1 0.013730 -0.006192 -0.010834 0.000000 0.000000 0.000000
# 2 -0.006192 0.018418 0.001517 0.000000 0.000000 0.000000
# 3 -0.010834 0.001517 0.031698 0.000000 0.000000 0.000000
# 4 0.000000 0.000000 0.000000 0.040687 0.000000 0.000000
# 5 0.000000 0.000000 0.000000 0.000000 0.031444 0.000000
# 6 0.000000 0.000000 0.000000 0.000000 0.000000 0.032999
#
#
# Mechanical properties :
#
#
# Convention : Reuss Voigt Hill
#
# Bulk Modulus (GPa) = 30.46179 44.95633 37.70906
# Shear Modulus (GPa) = 23.70389 27.00524 25.35457
#
# Velocity S-wave (km/s) = 3.58084 3.82207 3.70342
# Velocity P-wave (km/s) = 5.79436 6.61788 6.21977
#
# Compressibility (1/GPa) = 0.03282801
#
# Stress axis : x y z
#
# Youngs Moduli (GPa) = 72.83537 54.29557 31.54795
#
# Poissons Ratio (x) = 0.33618 0.34179
# Poissons Ratio (y) = 0.45097 -0.04786
# Poissons Ratio (z) = 0.78909 -0.08237
#
# Static dielectric constant tensor:
#      x y z
#    x 1.624070 0.000000 0.000000 
#    y 0.000000 1.619800 0.000000 
#    z 0.000000 0.000000 1.635950 
# 
# From -- ./inp_files/21086.got.cif
#   From: 2010.05.17/outbox.cif.g08.bks.cpg/sg59_11_cif.got.tgz:21086.got - 2010.06.03 14:40:33.
