data_PCOD9452035
_publ_section_title
;
Structure prediction by ZEFSAII (Michael W. Deem and Ramdas Pophale) SiO2 
 PCOD9452035
Probable space group: P M M N
;
_chemical_formula_sum "Si O2"
_cell_formula_units_Z 56
_cell_length_a 9.282030
_cell_length_b 21.848748
_cell_length_c 14.592579
_cell_angle_alpha 90.000000
_cell_angle_beta 90.000000
_cell_angle_gamma 90.000000
_cell_volume 2959.385738
_symmetry_space_group_name_H-M "P M M N"
_symmetry_group_IT_number 59
_space_group.IT_coordinate_system_code '2'
_symmetry_cell_setting 'orthorhombic'
loop_
_space_group_symop_operation_xyz
x,y,z
1/2-x,1/2-y,z
1/2+x,-y,-z
-x,1/2+y,-z
-x,-y,-z
1/2+x,1/2+y,-z
1/2-x,y,z
x,1/2-y,z
loop_
_atom_site_type_symbol
_atom_site_label
_atom_site_fract_x
_atom_site_fract_y
_atom_site_fract_z
Si Si1 0.577219 0.571182 0.757448
Si Si2 0.408660 0.179139 0.747278
Si Si3 0.412932 0.654310 0.429726
Si Si4 0.422068 0.677882 0.073815
Si Si5 0.410774 0.511243 0.409323
Si Si6 0.080327 0.320932 0.382608
Si Si7 0.576027 0.441342 0.048456
O O1 0.750000 0.565773 0.776004
O O2 0.533870 0.519759 0.682914
O O3 0.551894 0.634686 0.702978
O O4 0.487414 0.564043 0.849371
O O5 0.250000 0.149992 0.742064
O O6 0.391018 0.250000 0.771171
O O7 0.486686 0.179704 0.649880
O O8 0.505386 0.156134 0.830981
O O9 0.250000 0.679050 0.430177
O O10 0.403157 0.583492 0.402364
O O11 0.485362 0.661984 0.528955
O O12 0.250000 0.678387 0.086159
O O13 0.461351 0.750000 0.051406
O O14 0.456360 0.624230 0.001051
O O15 0.500000 0.500000 0.500000
O O16 0.250000 0.485313 0.423000
O O17 0.250000 0.327739 0.406586
O O18 0.054570 0.250000 0.359891
O O19 0.750000 0.449323 0.047582
O O20 0.500000 0.500000 0.000000
#
# Coordination Sequence:
#
# PCOD9452035 Si02
#       7
#     8   8   8   8   8   8   8
#     4  10  22  41  61  85 119 155 193 243 298 352
#     4  10  21  36  56  85 118 152 192 236 286 348
#     4  11  22  34  54  85 119 156 197 239 287 343
#     4   9  20  41  65  87 116 155 199 249 305 362
#     4  10  21  37  58  83 113 151 193 236 284 340
#     4  10  21  38  60  86 118 158 201 243 291 348
#     4  11  25  43  65  93 123 156 198 250 306 363
#
# _framework density 18.922844999999999
#
# number of rings (size 3 to 8) (size 9 to 14) (size 15 to 20)
#    0.000    1.857    1.429    1.714    2.000    6.286 
#    0.000    0.000    0.000    0.000    0.000    0.000 
#    0.000    0.000    0.000    0.000    0.000    0.000 
#
# Total GULP energy -312198.795493 kJ/mol
# GULP energy per Si atom -5574.978491 kJ/mol
# Density = 1.887978 g / cm^3
# Si number density = 18.922845 Si / 1000 Ang^3
#
#
#
# Elastic Constant Matrix: (Units=GPa)
#
#
# Indices 1 2 3 4 5 6 
#
# 1 78.1257 42.4250 73.9283 0.0000 0.0000 0.0000
# 2 42.4250 117.1105 55.6381 0.0000 0.0000 0.0000
# 3 73.9283 55.6381 157.3625 0.0000 0.0000 0.0000
# 4 0.0000 0.0000 0.0000 30.2949 0.0000 0.0000
# 5 0.0000 0.0000 0.0000 0.0000 29.2552 0.0000
# 6 0.0000 0.0000 0.0000 0.0000 0.0000 20.5103
#
#
#
# Elastic Compliance Matrix: (Units=1/GPa)
#
#
# Indices 1 2 3 4 5 6 
#
# 1 0.024587 -0.004110 -0.010098 0.000000 0.000000 0.000000
# 2 -0.004110 0.010950 -0.001941 0.000000 0.000000 0.000000
# 3 -0.010098 -0.001941 0.011785 0.000000 0.000000 0.000000
# 4 0.000000 0.000000 0.000000 0.033009 0.000000 0.000000
# 5 0.000000 0.000000 0.000000 0.000000 0.034182 0.000000
# 6 0.000000 0.000000 0.000000 0.000000 0.000000 0.048756
#
#
# Mechanical properties :
#
#
# Convention : Reuss Voigt Hill
#
# Bulk Modulus (GPa) = 66.55532 77.39795 71.97664
# Shear Modulus (GPa) = 24.92861 28.05257 26.49059
#
# Velocity S-wave (km/s) = 3.63351 3.85446 3.74562
# Velocity P-wave (km/s) = 7.26990 7.79743 7.53828
#
# Compressibility (1/GPa) = 0.01502509
#
# Stress axis : x y z
#
# Youngs Moduli (GPa) = 40.67227 91.32633 84.85470
#
# Poissons Ratio (x) = 0.37531 0.85684
# Poissons Ratio (y) = 0.16715 0.16469
# Poissons Ratio (z) = 0.41070 0.17725
#
# Static dielectric constant tensor:
#      x y z
#    x 1.697090 0.000000 0.000000 
#    y 0.000000 1.710600 0.000000 
#    z 0.000000 0.000000 1.620820 
# 
# From -- ./inp_files/21039.got.cif
#   From: 2010.05.17/outbox.cif.g08.bks.cpg/sg59_11_cif.got.tgz:21039.got - 2010.06.03 14:40:33.
