data_PCOD9452054
_publ_section_title
;
Structure prediction by ZEFSAII (Michael W. Deem and Ramdas Pophale) SiO2 
 PCOD9452054
Probable space group: P M M N
;
_chemical_formula_sum "Si O2"
_cell_formula_units_Z 56
_cell_length_a 14.628945
_cell_length_b 8.193755
_cell_length_c 22.318280
_cell_angle_alpha 90.000000
_cell_angle_beta 90.000000
_cell_angle_gamma 90.000000
_cell_volume 2675.202755
_symmetry_space_group_name_H-M "P M M N"
_symmetry_group_IT_number 59
_space_group.IT_coordinate_system_code '2'
_symmetry_cell_setting 'orthorhombic'
loop_
_space_group_symop_operation_xyz
x,y,z
1/2-x,1/2-y,z
1/2+x,-y,-z
-x,1/2+y,-z
-x,-y,-z
1/2+x,1/2+y,-z
1/2-x,y,z
x,1/2-y,z
loop_
_atom_site_type_symbol
_atom_site_label
_atom_site_fract_x
_atom_site_fract_y
_atom_site_fract_z
Si Si1 0.049129 0.560555 0.208384
Si Si2 0.354267 0.553481 0.329813
Si Si3 0.649351 0.058014 0.221253
Si Si4 0.346003 0.943773 0.635243
Si Si5 0.949145 0.942690 0.919177
Si Si6 0.020233 0.445503 0.432660
Si Si7 0.353331 0.556628 0.963893
O O1 0.074604 0.750000 0.204607
O O2 0.085568 0.495510 0.272538
O O3 0.082698 0.472203 0.148558
O O4 0.939740 0.541078 0.204983
O O5 0.250000 0.499406 0.321753
O O6 0.356920 0.750000 0.328749
O O7 0.392569 0.501071 0.394440
O O8 0.750000 0.008191 0.198491
O O9 0.636462 0.250000 0.205471
O O10 0.652300 0.046241 0.293344
O O11 0.250000 0.014836 0.613299
O O12 0.345660 0.750000 0.621332
O O13 0.435349 0.014451 0.605906
O O14 0.949262 0.750000 0.932223
O O15 0.054942 0.003102 0.928904
O O16 0.883247 0.027215 0.967303
O O17 0.021306 0.250000 0.431898
O O18 0.000000 0.500000 0.500000
O O19 0.250000 0.490776 0.952638
O O20 0.348403 0.750000 0.951832
#
# Coordination Sequence:
#
# PCOD9452054 Si02
#       7
#     8   8   8   8   8   8   8
#     4  11  22  36  57  85 119 155 194 242 295 347
#     4  10  23  43  62  81 112 156 201 244 293 346
#     4   9  17  32  55  80 107 142 183 227 281 345
#     4   8  15  30  53  78 103 136 176 217 270 335
#     4  10  21  36  57  87 119 153 197 242 289 347
#     4  11  22  37  60  87 116 148 189 237 288 346
#     4   9  19  38  61  83 113 154 197 242 292 343
#
# _framework density 20.932991999999999
#
# number of rings (size 3 to 8) (size 9 to 14) (size 15 to 20)
#    0.000    2.286    1.429    2.143    0.000    3.714 
#    0.000    4.286    0.000    1.286    0.000    0.000 
#    0.000    0.000    0.000    0.000    0.000    0.000 
#
# Total GULP energy -312200.931415 kJ/mol
# GULP energy per Si atom -5575.016632 kJ/mol
# Density = 2.088535 g / cm^3
# Si number density = 20.932992 Si / 1000 Ang^3
#
#
#
# Elastic Constant Matrix: (Units=GPa)
#
#
# Indices 1 2 3 4 5 6 
#
# 1 90.5389 8.3161 35.6112 0.0000 0.0000 0.0000
# 2 8.3161 13.1404 11.4424 0.0000 0.0000 0.0000
# 3 35.6112 11.4424 109.8185 0.0000 0.0000 0.0000
# 4 0.0000 0.0000 0.0000 21.7461 0.0000 0.0000
# 5 0.0000 0.0000 0.0000 0.0000 -145.7488 0.0000
# 6 0.0000 0.0000 0.0000 0.0000 0.0000 22.1645
#
#
#
# Elastic Compliance Matrix: (Units=1/GPa)
#
#
# Indices 1 2 3 4 5 6 
#
# 1 0.012951 -0.004992 -0.003679 0.000000 0.000000 0.000000
# 2 -0.004992 0.085619 -0.007302 0.000000 0.000000 0.000000
# 3 -0.003679 -0.007302 0.011060 0.000000 0.000000 0.000000
# 4 0.000000 0.000000 0.000000 0.045985 0.000000 0.000000
# 5 0.000000 0.000000 0.000000 0.000000 -0.006861 0.000000
# 6 0.000000 0.000000 0.000000 0.000000 0.000000 0.045117
#
#
# Mechanical properties :
#
#
# Convention : Reuss Voigt Hill
#
# Bulk Modulus (GPa) = 12.87294 36.02636 24.44965
# Shear Modulus (GPa) = 19.86393 -9.82575 5.01909
#
# Velocity S-wave (km/s) = 3.08381 -2.16889 1.55013
# Velocity P-wave (km/s) = 4.34083 3.31294 3.86124
#
# Compressibility (1/GPa) = 0.07768231
#
# Stress axis : x y z
#
# Youngs Moduli (GPa) = 77.21584 11.67963 90.41662
#
# Poissons Ratio (x) = 0.05831 0.33268
# Poissons Ratio (y) = 0.38547 0.66024
# Poissons Ratio (z) = 0.28411 0.08529
#
# Static dielectric constant tensor:
#      x y z
#    x 1.807270 0.000000 0.000000 
#    y 0.000000 1.763060 0.000000 
#    z 0.000000 0.000000 1.769300 
# 
# From -- ./inp_files/30366.got.cif
#   From: 2010.05.17/outbox.cif.g08.bks.cpg/sg59_16_cif.got.tgz:30366.got - 2010.06.03 14:40:33.
