data_PCOD9452037
_publ_section_title
;
Structure prediction by ZEFSAII (Michael W. Deem and Ramdas Pophale) SiO2 
 PCOD9452037
Probable space group: P M M N
;
_chemical_formula_sum "Si O2"
_cell_formula_units_Z 48
_cell_length_a 7.687031
_cell_length_b 9.101399
_cell_length_c 35.340367
_cell_angle_alpha 90.000000
_cell_angle_beta 90.000000
_cell_angle_gamma 90.000000
_cell_volume 2472.508776
_symmetry_space_group_name_H-M "P M M N"
_symmetry_group_IT_number 59
_space_group.IT_coordinate_system_code '2'
_symmetry_cell_setting 'orthorhombic'
loop_
_space_group_symop_operation_xyz
x,y,z
1/2-x,1/2-y,z
1/2+x,-y,-z
-x,1/2+y,-z
-x,-y,-z
1/2+x,1/2+y,-z
1/2-x,y,z
x,1/2-y,z
loop_
_atom_site_type_symbol
_atom_site_label
_atom_site_fract_x
_atom_site_fract_y
_atom_site_fract_z
Si Si1 0.042077 0.414934 0.885337
Si Si2 0.458290 0.417006 0.538744
Si Si3 0.046630 0.574589 0.809065
Si Si4 0.041677 0.925637 0.616536
Si Si5 0.543479 0.914350 0.961753
Si Si6 0.250000 0.426376 0.251108
Si Si7 0.750000 0.426432 0.667517
O O1 0.250000 0.406281 0.881516
O O2 0.971145 0.250000 0.887778
O O3 0.982551 0.496954 0.847434
O O4 0.009297 0.501381 0.923898
O O5 0.500000 0.500000 0.500000
O O6 0.250000 0.407557 0.540838
O O7 0.528030 0.250000 0.539221
O O8 0.511459 0.509676 0.575539
O O9 0.250000 0.536324 0.801864
O O10 0.039194 0.750000 0.815182
O O11 0.919725 0.540122 0.774352
O O12 0.250000 0.951890 0.622104
O O13 0.014424 0.750000 0.617682
O O14 0.920152 0.006396 0.646828
O O15 0.750000 0.902979 0.960554
O O16 0.468013 0.750000 0.962493
O O17 0.500000 0.000000 0.000000
O O18 0.250000 0.250000 0.259004
O O19 0.250000 0.517115 0.289501
O O20 0.750000 0.250000 0.664965
#
# Coordination Sequence:
#
# PCOD9452037 Si02
#       7
#     8   8   8   8   8   4   4
#     4  10  21  37  58  85 116 150 189 234 288 349
#     4  10  21  36  56  85 121 161 205 254 309 368
#     4   9  19  37  61  88 120 157 196 245 302 354
#     4  10  22  42  66  90 121 163 213 264 314 372
#     4  11  24  39  56  80 111 148 192 239 287 341
#     4  10  22  40  62  90 122 156 206 256 298 368
#     4  12  26  42  64  94 128 168 208 256 320 384
#
# _framework density 19.41348
#
# number of rings (size 3 to 8) (size 9 to 14) (size 15 to 20)
#    0.000    1.833    0.000    3.250    2.333    7.667 
#    0.000    1.667    0.000    0.000    0.000    0.000 
#    0.000    0.000    0.000    0.000    0.000    0.000 
#
# Total GULP energy -268120.779022 kJ/mol
# GULP energy per Si atom -5585.849563 kJ/mol
# Density = 1.936929 g / cm^3
# Si number density = 19.413480 Si / 1000 Ang^3
#
#
#
# Elastic Constant Matrix: (Units=GPa)
#
#
# Indices 1 2 3 4 5 6 
#
# 1 75.5955 57.0220 60.1447 0.0000 0.0000 0.0000
# 2 57.0220 156.5689 115.0880 0.0000 0.0000 0.0000
# 3 60.1447 115.0880 196.7205 0.0000 0.0000 0.0000
# 4 0.0000 0.0000 0.0000 41.2231 0.0000 0.0000
# 5 0.0000 0.0000 0.0000 0.0000 36.0435 0.0000
# 6 0.0000 0.0000 0.0000 0.0000 0.0000 21.5406
#
#
#
# Elastic Compliance Matrix: (Units=1/GPa)
#
#
# Indices 1 2 3 4 5 6 
#
# 1 0.019281 -0.004718 -0.003135 0.000000 0.000000 0.000000
# 2 -0.004718 0.012360 -0.005789 0.000000 0.000000 0.000000
# 3 -0.003135 -0.005789 0.009428 0.000000 0.000000 0.000000
# 4 0.000000 0.000000 0.000000 0.024258 0.000000 0.000000
# 5 0.000000 0.000000 0.000000 0.000000 0.027744 0.000000
# 6 0.000000 0.000000 0.000000 0.000000 0.000000 0.046424
#
#
# Mechanical properties :
#
#
# Convention : Reuss Voigt Hill
#
# Bulk Modulus (GPa) = 72.53250 99.26606 85.89928
# Shear Modulus (GPa) = 29.17581 32.87012 31.02297
#
# Velocity S-wave (km/s) = 3.88088 4.11927 4.00185
# Velocity P-wave (km/s) = 7.58451 8.59465 8.10533
#
# Compressibility (1/GPa) = 0.01378692
#
# Stress axis : x y z
#
# Youngs Moduli (GPa) = 51.86422 80.90424 106.06226
#
# Poissons Ratio (x) = 0.38169 0.33249
# Poissons Ratio (y) = 0.24469 0.61397
# Poissons Ratio (z) = 0.16259 0.46834
#
# Static dielectric constant tensor:
#      x y z
#    x 1.691410 0.000000 0.000000 
#    y 0.000000 1.692060 0.000000 
#    z 0.000000 0.000000 1.508850 
# 
# From -- ./inp_files/33035.got.cif
#   From: 2010.05.17/outbox.cif.g08.bks.cpg/sg59_17_cif.got.tgz:33035.got - 2010.06.03 14:40:33.
