data_PCOD9452568
_publ_section_title
;
Structure prediction by ZEFSAII (Michael W. Deem and Ramdas Pophale) SiO2 
 PCOD9452568
Probable space group: P M M N
;
_chemical_formula_sum "Si O2"
_cell_formula_units_Z 56
_cell_length_a 15.569716
_cell_length_b 30.636181
_cell_length_c 5.245184
_cell_angle_alpha 90.000000
_cell_angle_beta 90.000000
_cell_angle_gamma 90.000000
_cell_volume 2501.935131
_symmetry_space_group_name_H-M "P M M N"
_symmetry_group_IT_number 59
_space_group.IT_coordinate_system_code '2'
_symmetry_cell_setting 'orthorhombic'
loop_
_space_group_symop_operation_xyz
x,y,z
1/2-x,1/2-y,z
1/2+x,-y,-z
-x,1/2+y,-z
-x,-y,-z
1/2+x,1/2+y,-z
1/2-x,y,z
x,1/2-y,z
loop_
_atom_site_type_symbol
_atom_site_label
_atom_site_fract_x
_atom_site_fract_y
_atom_site_fract_z
Si Si1 0.851065 0.486630 0.057873
Si Si2 0.587921 0.918534 0.016590
Si Si3 0.155474 0.798654 0.790744
Si Si4 0.981836 0.700695 0.462471
Si Si5 0.847813 0.627710 0.533838
Si Si6 0.150526 0.571105 0.453003
Si Si7 0.435426 0.638111 0.122742
O O1 0.750000 0.499677 0.091677
O O2 0.908361 0.529772 0.048589
O O3 0.873334 0.456141 0.297764
O O4 0.856079 0.460187 0.794313
O O5 0.624302 0.897003 0.275581
O O6 0.494528 0.896871 0.980598
O O7 0.642400 0.904826 0.771275
O O8 0.250000 0.801475 0.666820
O O9 0.153000 0.750000 0.918219
O O10 0.072915 0.799373 0.608846
O O11 0.142850 0.840274 0.973512
O O12 0.951002 0.750000 0.445086
O O13 0.004915 0.679292 0.191173
O O14 0.911526 0.668299 0.577934
O O15 0.750000 0.642317 0.509314
O O16 0.250000 0.584203 0.482305
O O17 0.094989 0.613075 0.377190
#
# Coordination Sequence:
#
# PCOD9452568 Si02
#       7
#     8   8   8   8   8   8   8
#     4  10  21  39  58  87 124 166 214 265 315 376
#     4  11  23  39  66  94 129 170 215 266 318 383
#     4  10  21  39  64  91 122 165 213 263 322 385
#     4  10  23  42  63  92 130 167 211 267 322 386
#     4  11  22  40  66  98 129 170 217 263 319 381
#     4  10  23  38  60  89 125 168 214 263 320 378
#     4  11  23  39  61  90 129 164 214 265 327 378
#
# _framework density 22.382673
#
# number of rings (size 3 to 8) (size 9 to 14) (size 15 to 20)
#    0.000    1.571    1.429    3.000    2.000    3.714 
#    0.000    1.429    0.000    1.714    0.000    0.000 
#    0.000    0.000    0.000    0.000    0.000    0.000 
#
# Total GULP energy -313135.942219 kJ/mol
# GULP energy per Si atom -5591.713254 kJ/mol
# Density = 2.233173 g / cm^3
# Si number density = 22.382673 Si / 1000 Ang^3
#
#
#
# Elastic Constant Matrix: (Units=GPa)
#
#
# Indices 1 2 3 4 5 6 
#
# 1 104.5252 47.0176 19.5231 0.0000 0.0000 0.0000
# 2 47.0176 116.8195 31.3705 0.0000 0.0000 0.0000
# 3 19.5231 31.3705 99.3604 0.0000 0.0000 0.0000
# 4 0.0000 0.0000 0.0000 25.9903 0.0000 0.0000
# 5 0.0000 0.0000 0.0000 0.0000 27.8020 0.0000
# 6 0.0000 0.0000 0.0000 0.0000 0.0000 36.6229
#
#
#
# Elastic Compliance Matrix: (Units=1/GPa)
#
#
# Indices 1 2 3 4 5 6 
#
# 1 0.011754 -0.004491 -0.000891 0.000000 0.000000 0.000000
# 2 -0.004491 0.011069 -0.002612 0.000000 0.000000 0.000000
# 3 -0.000891 -0.002612 0.011064 0.000000 0.000000 0.000000
# 4 0.000000 0.000000 0.000000 0.038476 0.000000 0.000000
# 5 0.000000 0.000000 0.000000 0.000000 0.035969 0.000000
# 6 0.000000 0.000000 0.000000 0.000000 0.000000 0.027305
#
#
# Mechanical properties :
#
#
# Convention : Reuss Voigt Hill
#
# Bulk Modulus (GPa) = 55.87450 57.39193 56.63322
# Shear Modulus (GPa) = 31.72719 32.93597 32.33158
#
# Velocity S-wave (km/s) = 3.76904 3.84017 3.80477
# Velocity P-wave (km/s) = 6.63011 6.73494 6.68273
#
# Compressibility (1/GPa) = 0.01789725
#
# Stress axis : x y z
#
# Youngs Moduli (GPa) = 85.07834 90.33898 90.38050
#
# Poissons Ratio (x) = 0.40574 0.08057
# Poissons Ratio (y) = 0.38211 0.23611
# Poissons Ratio (z) = 0.07584 0.23600
#
# Static dielectric constant tensor:
#      x y z
#    x 1.709960 0.000000 0.000000 
#    y 0.000000 1.806640 0.000000 
#    z 0.000000 0.000000 1.844760 
# 
# From -- ./inp_files/2327.got.cif
#   From: 2010.05.17/outbox.cif.g08.bks.cpg/sg59_2_cif.got.tgz:2327.got - 2010.06.03 14:40:33.
