data_PCOD9452107
_publ_section_title
;
Structure prediction by ZEFSAII (Michael W. Deem and Ramdas Pophale) SiO2 
 PCOD9452107
Probable space group: P M M N
;
_chemical_formula_sum "Si O2"
_cell_formula_units_Z 48
_cell_length_a 8.616324
_cell_length_b 10.232709
_cell_length_c 30.228560
_cell_angle_alpha 90.000000
_cell_angle_beta 90.000000
_cell_angle_gamma 90.000000
_cell_volume 2665.201839
_symmetry_space_group_name_H-M "P M M N"
_symmetry_group_IT_number 59
_space_group.IT_coordinate_system_code '2'
_symmetry_cell_setting 'orthorhombic'
loop_
_space_group_symop_operation_xyz
x,y,z
1/2-x,1/2-y,z
1/2+x,-y,-z
-x,1/2+y,-z
-x,-y,-z
1/2+x,1/2+y,-z
1/2-x,y,z
x,1/2-y,z
loop_
_atom_site_type_symbol
_atom_site_label
_atom_site_fract_x
_atom_site_fract_y
_atom_site_fract_z
Si Si1 0.561366 0.250000 0.963793
Si Si2 0.062278 0.100939 0.803118
Si Si3 0.071604 0.091481 0.365276
Si Si4 0.938188 0.597935 0.536880
Si Si5 0.936385 0.250000 0.065629
Si Si6 0.563682 0.019699 0.898591
Si Si7 0.063653 0.899873 0.728140
O O1 0.750000 0.250000 0.964409
O O2 0.511984 0.122854 0.936202
O O3 0.508929 0.250000 0.014440
O O4 0.250000 0.093616 0.805608
O O5 0.020514 0.250000 0.791439
O O6 0.995015 0.066678 0.850996
O O7 0.008213 0.997486 0.766269
O O8 0.250000 0.048091 0.361489
O O9 0.071651 0.250000 0.366235
O O10 0.009734 0.054269 0.413743
O O11 0.982851 0.053607 0.320907
O O12 0.750000 0.596201 0.537293
O O13 0.985065 0.750000 0.529578
O O14 0.000000 0.500000 0.500000
O O15 0.750000 0.250000 0.066116
O O16 0.997643 0.378684 0.089599
O O17 0.750000 0.016489 0.898446
O O18 0.250000 0.896120 0.730340
O O19 0.006853 0.750000 0.734328
#
# Coordination Sequence:
#
# PCOD9452107 Si02
#       7
#     4   8   8   8   4   8   8
#     4   9  20  39  61  83 113 145 179 221 266 315
#     4  10  21  37  55  77 107 144 179 213 265 327
#     4   8  15  30  50  72 100 133 170 215 265 316
#     4   9  18  32  50  74 105 140 179 222 267 317
#     4  11  23  39  59  85 113 145 181 221 266 315
#     4  11  22  39  59  84 113 143 179 224 269 315
#     4   9  18  32  52  77 102 131 172 221 264 311
#
# _framework density 18.009893999999999
#
# number of rings (size 3 to 8) (size 9 to 14) (size 15 to 20)
#    0.000    2.500    0.833    2.250    1.167    1.667 
#    0.000    5.000    0.000    3.000    0.000    0.000 
#    0.000    0.000    0.000    0.000    0.000    0.000 
#
# Total GULP energy -267682.382619 kJ/mol
# GULP energy per Si atom -5576.716305 kJ/mol
# Density = 1.796890 g / cm^3
# Si number density = 18.009894 Si / 1000 Ang^3
#
#
#
# Elastic Constant Matrix: (Units=GPa)
#
#
# Indices 1 2 3 4 5 6 
#
# 1 13.0167 25.2809 23.8618 0.0000 0.0000 0.0000
# 2 25.2809 111.2896 59.9670 0.0000 0.0000 0.0000
# 3 23.8618 59.9670 126.2709 0.0000 0.0000 0.0000
# 4 0.0000 0.0000 0.0000 36.7658 0.0000 0.0000
# 5 0.0000 0.0000 0.0000 0.0000 31.6141 0.0000
# 6 0.0000 0.0000 0.0000 0.0000 0.0000 8.6423
#
#
#
# Elastic Compliance Matrix: (Units=1/GPa)
#
#
# Indices 1 2 3 4 5 6 
#
# 1 0.162394 -0.027354 -0.017697 0.000000 0.000000 0.000000
# 2 -0.027354 0.016683 -0.002754 0.000000 0.000000 0.000000
# 3 -0.017697 -0.002754 0.012572 0.000000 0.000000 0.000000
# 4 0.000000 0.000000 0.000000 0.027199 0.000000 0.000000
# 5 0.000000 0.000000 0.000000 0.000000 0.031631 0.000000
# 6 0.000000 0.000000 0.000000 0.000000 0.000000 0.115709
#
#
# Mechanical properties :
#
#
# Convention : Reuss Voigt Hill
#
# Bulk Modulus (GPa) = 10.41251 52.08851 31.25051
# Shear Modulus (GPa) = 10.12532 24.83563 17.48047
#
# Velocity S-wave (km/s) = 2.37367 3.71752 3.11883
# Velocity P-wave (km/s) = 3.64781 6.88560 5.50990
#
# Compressibility (1/GPa) = 0.09603829
#
# Stress axis : x y z
#
# Youngs Moduli (GPa) = 6.15787 59.94037 79.54401
#
# Poissons Ratio (x) = 1.63960 1.40773
# Poissons Ratio (y) = 0.16844 0.21905
# Poissons Ratio (z) = 0.10898 0.16507
#
# Static dielectric constant tensor:
#      x y z
#    x 1.614540 0.000000 0.000000 
#    y 0.000000 1.604920 0.000000 
#    z 0.000000 0.000000 1.609440 
# 
# From -- ./inp_files/32954.got.cif
#   From: 2010.05.17/outbox.cif.g08.bks.cpg/sg59_17_cif.got.tgz:32954.got - 2010.06.03 14:40:33.
