data_PCOD9452111
_publ_section_title
;
Structure prediction by ZEFSAII (Michael W. Deem and Ramdas Pophale) SiO2 
 PCOD9452111
Probable space group: P M M N
;
_chemical_formula_sum "Si O2"
_cell_formula_units_Z 48
_cell_length_a 29.302488
_cell_length_b 8.153009
_cell_length_c 10.577798
_cell_angle_alpha 90.000000
_cell_angle_beta 90.000000
_cell_angle_gamma 90.000000
_cell_volume 2527.072419
_symmetry_space_group_name_H-M "P M M N"
_symmetry_group_IT_number 59
_space_group.IT_coordinate_system_code '2'
_symmetry_cell_setting 'orthorhombic'
loop_
_space_group_symop_operation_xyz
x,y,z
1/2-x,1/2-y,z
1/2+x,-y,-z
-x,1/2+y,-z
-x,-y,-z
1/2+x,1/2+y,-z
1/2-x,y,z
x,1/2-y,z
loop_
_atom_site_type_symbol
_atom_site_label
_atom_site_fract_x
_atom_site_fract_y
_atom_site_fract_z
Si Si1 0.052510 0.445488 0.000251
Si Si2 0.800823 0.051963 0.350108
Si Si3 0.895713 0.448330 0.251602
Si Si4 0.801124 0.948477 0.640664
Si Si5 0.105973 0.446743 0.245459
Si Si6 0.052324 0.946702 0.494022
O O1 0.052144 0.250000 0.009625
O O2 0.080297 0.512285 0.121639
O O3 0.078227 0.493793 0.872237
O O4 0.000000 0.500000 0.000000
O O5 0.750000 0.992420 0.315006
O O6 0.800279 0.250000 0.345711
O O7 0.843224 0.995129 0.265544
O O8 0.809233 0.002644 0.495863
O O9 0.895934 0.250000 0.250545
O O10 0.921962 0.502050 0.378659
O O11 0.750000 0.003858 0.676621
O O12 0.801330 0.750000 0.642328
O O13 0.842700 0.008561 0.727354
O O14 0.109089 0.250000 0.232095
O O15 0.076529 0.483820 0.369881
O O16 0.055021 0.750000 0.488665
O O17 0.000000 0.000000 0.500000
#
# Coordination Sequence:
#
# PCOD9452111 Si02
#       6
#     8   8   8   8   8   8
#     4  11  24  40  57  78 107 148 189 228 276 329
#     4   9  17  32  55  82 112 143 176 220 272 322
#     4  10  21  37  55  80 111 143 181 224 270 325
#     4   9  17  31  54  82 110 140 174 217 271 325
#     4  10  21  37  55  79 110 141 179 225 272 324
#     4  11  22  35  54  81 108 138 180 228 277 325
#
# _framework density 18.994312000000001
#
# number of rings (size 3 to 8) (size 9 to 14) (size 15 to 20)
#    0.000    2.000    1.667    2.000    0.000    7.333 
#    0.000    0.833    0.000    1.000    0.000    0.000 
#    0.000    0.000    0.000    0.000    0.000    0.000 
#
# Total GULP energy -267940.608352 kJ/mol
# GULP energy per Si atom -5582.096007 kJ/mol
# Density = 1.895108 g / cm^3
# Si number density = 18.994312 Si / 1000 Ang^3
#
#
#
# Elastic Constant Matrix: (Units=GPa)
#
#
# Indices 1 2 3 4 5 6 
#
# 1 207.6997 13.1480 96.7749 0.0000 0.0000 0.0000
# 2 13.1480 8.3386 5.4324 0.0000 0.0000 0.0000
# 3 96.7749 5.4324 138.1396 0.0000 0.0000 0.0000
# 4 0.0000 0.0000 0.0000 25.2822 0.0000 0.0000
# 5 0.0000 0.0000 0.0000 0.0000 33.3748 0.0000
# 6 0.0000 0.0000 0.0000 0.0000 0.0000 21.0796
#
#
#
# Elastic Compliance Matrix: (Units=1/GPa)
#
#
# Indices 1 2 3 4 5 6 
#
# 1 0.007742 -0.008902 -0.005074 0.000000 0.000000 0.000000
# 2 -0.008902 0.133313 0.000994 0.000000 0.000000 0.000000
# 3 -0.005074 0.000994 0.010754 0.000000 0.000000 0.000000
# 4 0.000000 0.000000 0.000000 0.039553 0.000000 0.000000
# 5 0.000000 0.000000 0.000000 0.000000 0.029963 0.000000
# 6 0.000000 0.000000 0.000000 0.000000 0.000000 0.047439
#
#
# Mechanical properties :
#
#
# Convention : Reuss Voigt Hill
#
# Bulk Modulus (GPa) = 7.94628 64.98763 36.46695
# Shear Modulus (GPa) = 14.85102 31.86884 23.35993
#
# Velocity S-wave (km/s) = 2.79922 4.10055 3.51071
# Velocity P-wave (km/s) = 3.82624 7.53046 5.97277
#
# Compressibility (1/GPa) = 0.12584506
#
# Stress axis : x y z
#
# Youngs Moduli (GPa) = 129.16131 7.50117 92.98447
#
# Poissons Ratio (x) = 0.06678 0.47179
# Poissons Ratio (y) = 1.14981 -0.09241
# Poissons Ratio (z) = 0.65534 -0.00746
#
# Static dielectric constant tensor:
#      x y z
#    x 1.684550 0.000000 0.000000 
#    y 0.000000 1.674830 0.000000 
#    z 0.000000 0.000000 1.628410 
# 
# From -- ./inp_files/6311.got.cif
#   From: 2010.05.17/outbox.cif.g08.bks.cpg/sg59_4_cif.got.tgz:6311.got - 2010.06.03 14:40:33.
