data_PCOD9452518
_publ_section_title
;
Structure prediction by ZEFSAII (Michael W. Deem and Ramdas Pophale) SiO2 
 PCOD9452518
Probable space group: P M M N
;
_chemical_formula_sum "Si O2"
_cell_formula_units_Z 48
_cell_length_a 18.621316
_cell_length_b 8.603886
_cell_length_c 15.935898
_cell_angle_alpha 90.000000
_cell_angle_beta 90.000000
_cell_angle_gamma 90.000000
_cell_volume 2553.180735
_symmetry_space_group_name_H-M "P M M N"
_symmetry_group_IT_number 59
_space_group.IT_coordinate_system_code '2'
_symmetry_cell_setting 'orthorhombic'
loop_
_space_group_symop_operation_xyz
x,y,z
1/2-x,1/2-y,z
1/2+x,-y,-z
-x,1/2+y,-z
-x,-y,-z
1/2+x,1/2+y,-z
1/2-x,y,z
x,1/2-y,z
loop_
_atom_site_type_symbol
_atom_site_label
_atom_site_fract_x
_atom_site_fract_y
_atom_site_fract_z
Si Si1 0.101406 0.565072 0.470188
Si Si2 0.250000 0.436789 0.420936
Si Si3 0.750000 0.561389 0.773641
Si Si4 0.833467 0.063316 0.065264
Si Si5 0.461591 0.065890 0.823289
Si Si6 0.018526 0.565674 0.640351
Si Si7 0.385482 0.437041 0.114109
O O1 0.094011 0.750000 0.459416
O O2 0.181467 0.507715 0.465214
O O3 0.068532 0.524799 0.560941
O O4 0.059248 0.480017 0.395257
O O5 0.250000 0.250000 0.424468
O O6 0.250000 0.485391 0.323114
O O7 0.750000 0.750000 0.776320
O O8 0.822752 0.511239 0.821160
O O9 0.750000 0.017848 0.081480
O O10 0.835750 0.250000 0.060023
O O11 0.891275 0.007723 0.133696
O O12 0.859591 0.992422 0.977026
O O13 0.459516 0.250000 0.835383
O O14 0.463411 0.022741 0.725136
O O15 0.536047 0.001926 0.862852
O O16 0.022282 0.750000 0.655931
O O17 0.389394 0.250000 0.116094
#
# Coordination Sequence:
#
# PCOD9452518 Si02
#       7
#     8   4   4   8   8   8   8
#     4  10  21  38  61  88 121 159 199 248 303 360
#     4  11  21  35  57  88 123 160 201 243 296 359
#     4   9  20  35  57  88 121 158 195 243 298 353
#     4  11  24  43  64  88 121 161 204 252 309 362
#     4  12  25  40  62  92 122 158 207 253 301 362
#     4  10  21  40  63  87 118 158 202 249 303 359
#     4  11  21  39  64  90 123 160 203 249 304 361
#
# _framework density 18.800077999999999
#
# number of rings (size 3 to 8) (size 9 to 14) (size 15 to 20)
#    0.000    1.333    0.833    5.250    0.000    4.333 
#    1.500    2.500    0.000    0.000    0.000    0.000 
#    0.000    0.000    0.000    0.000    0.000    0.000 
#
# Total GULP energy -268293.321123 kJ/mol
# GULP energy per Si atom -5589.444190 kJ/mol
# Density = 1.875729 g / cm^3
# Si number density = 18.800078 Si / 1000 Ang^3
#
#
#
# Elastic Constant Matrix: (Units=GPa)
#
#
# Indices 1 2 3 4 5 6 
#
# 1 139.3473 25.4520 47.3204 0.0000 0.0000 0.0000
# 2 25.4520 51.7326 20.2785 0.0000 0.0000 0.0000
# 3 47.3204 20.2785 41.8730 0.0000 0.0000 0.0000
# 4 0.0000 0.0000 0.0000 30.5548 0.0000 0.0000
# 5 0.0000 0.0000 0.0000 0.0000 18.1686 0.0000
# 6 0.0000 0.0000 0.0000 0.0000 0.0000 17.8116
#
#
#
# Elastic Compliance Matrix: (Units=1/GPa)
#
#
# Indices 1 2 3 4 5 6 
#
# 1 0.011666 -0.000706 -0.012842 0.000000 0.000000 0.000000
# 2 -0.000706 0.023902 -0.010778 0.000000 0.000000 0.000000
# 3 -0.012842 -0.010778 0.043614 0.000000 0.000000 0.000000
# 4 0.000000 0.000000 0.000000 0.032728 0.000000 0.000000
# 5 0.000000 0.000000 0.000000 0.000000 0.055040 0.000000
# 6 0.000000 0.000000 0.000000 0.000000 0.000000 0.056143
#
#
# Mechanical properties :
#
#
# Convention : Reuss Voigt Hill
#
# Bulk Modulus (GPa) = 32.75365 46.56161 39.65763
# Shear Modulus (GPa) = 17.73537 22.63380 20.18458
#
# Velocity S-wave (km/s) = 3.07476 3.47352 3.28020
# Velocity P-wave (km/s) = 5.48320 6.39590 5.95706
#
# Compressibility (1/GPa) = 0.03053095
#
# Stress axis : x y z
#
# Youngs Moduli (GPa) = 85.71749 41.83722 22.92832
#
# Poissons Ratio (x) = 0.02953 0.29445
# Poissons Ratio (y) = 0.06049 0.24712
# Poissons Ratio (z) = 1.10080 0.45092
#
# Static dielectric constant tensor:
#      x y z
#    x 1.624610 0.000000 0.000000 
#    y 0.000000 1.638090 0.000000 
#    z 0.000000 0.000000 1.625530 
# 
# From -- ./inp_files/23758.got.cif
#   From: 2010.05.17/outbox.cif.g08.bks.cpg/sg59_12_cif.got.tgz:23758.got - 2010.06.03 14:40:33.
