data_PCOD9452430
_publ_section_title
;
Structure prediction by ZEFSAII (Michael W. Deem and Ramdas Pophale) SiO2 
 PCOD9452430
Probable space group: P M M N
;
_chemical_formula_sum "Si O2"
_cell_formula_units_Z 48
_cell_length_a 8.601418
_cell_length_b 14.860840
_cell_length_c 20.924853
_cell_angle_alpha 90.000000
_cell_angle_beta 90.000000
_cell_angle_gamma 90.000000
_cell_volume 2674.704618
_symmetry_space_group_name_H-M "P M M N"
_symmetry_group_IT_number 59
_space_group.IT_coordinate_system_code '2'
_symmetry_cell_setting 'orthorhombic'
loop_
_space_group_symop_operation_xyz
x,y,z
1/2-x,1/2-y,z
1/2+x,-y,-z
-x,1/2+y,-z
-x,-y,-z
1/2+x,1/2+y,-z
1/2-x,y,z
x,1/2-y,z
loop_
_atom_site_type_symbol
_atom_site_label
_atom_site_fract_x
_atom_site_fract_y
_atom_site_fract_z
Si Si1 0.936805 0.059330 0.824750
Si Si2 0.939183 0.250000 0.479595
Si Si3 0.937886 0.056866 0.679367
Si Si4 0.435460 0.942534 0.940320
Si Si5 0.936492 0.750000 0.128304
Si Si6 0.563329 0.054252 0.438828
Si Si7 0.436164 0.250000 0.023164
Si Si8 0.939189 0.250000 0.627648
O O1 0.750000 0.057826 0.829465
O O2 0.981977 0.035880 0.752099
O O3 0.994525 0.159834 0.841014
O O4 0.007138 0.991210 0.876199
O O5 0.750000 0.250000 0.480354
O O6 0.988634 0.342192 0.446261
O O7 0.989338 0.250000 0.553726
O O8 0.750000 0.054633 0.675155
O O9 0.989047 0.158527 0.661926
O O10 0.004662 0.990957 0.625995
O O11 0.250000 0.943654 0.942959
O O12 0.496489 0.840928 0.946706
O O13 0.500000 0.000000 0.000000
O O14 0.750000 0.750000 0.134742
O O15 0.973971 0.750000 0.052596
O O16 0.750000 0.051510 0.440842
O O17 0.500000 0.000000 0.500000
O O18 0.250000 0.250000 0.029254
O O19 0.750000 0.250000 0.627944
#
# Coordination Sequence:
#
# PCOD9452430 Si02
#       8
#     8   4   8   8   4   8   4   4
#     4  11  23  39  61  88 122 162 202 244 301 364
#     4   9  18  33  56  82 112 148 188 231 284 343
#     4  10  21  38  59  85 116 155 195 236 289 350
#     4  12  24  40  63  90 121 159 202 248 298 355
#     4  11  22  36  60  91 125 157 194 248 301 356
#     4  11  21  36  58  83 113 152 194 240 289 346
#     4  11  23  40  63  93 122 154 198 251 300 353
#     4   9  15  31  57  82 115 151 186 228 283 348
#
# _framework density 17.945906999999998
#
# number of rings (size 3 to 8) (size 9 to 14) (size 15 to 20)
#    0.000    1.333    3.333    3.500    0.000    3.333 
#    0.000    3.750    0.000    4.000    0.000    0.000 
#    0.000    0.000    0.000    0.000    0.000    0.000 
#
# Total GULP energy -268262.366175 kJ/mol
# GULP energy per Si atom -5588.799295 kJ/mol
# Density = 1.790506 g / cm^3
# Si number density = 17.945907 Si / 1000 Ang^3
#
#
#
# Elastic Constant Matrix: (Units=GPa)
#
#
# Indices 1 2 3 4 5 6 
#
# 1 63.2298 47.4962 58.4294 0.0000 0.0000 0.0000
# 2 47.4962 173.0214 104.5064 0.0000 0.0000 0.0000
# 3 58.4294 104.5064 181.6611 0.0000 0.0000 0.0000
# 4 0.0000 0.0000 0.0000 18.8660 0.0000 0.0000
# 5 0.0000 0.0000 0.0000 0.0000 29.2829 0.0000
# 6 0.0000 0.0000 0.0000 0.0000 0.0000 29.7110
#
#
#
# Elastic Compliance Matrix: (Units=1/GPa)
#
#
# Indices 1 2 3 4 5 6 
#
# 1 0.023403 -0.002878 -0.005872 0.000000 0.000000 0.000000
# 2 -0.002878 0.009211 -0.004373 0.000000 0.000000 0.000000
# 3 -0.005872 -0.004373 0.009909 0.000000 0.000000 0.000000
# 4 0.000000 0.000000 0.000000 0.053005 0.000000 0.000000
# 5 0.000000 0.000000 0.000000 0.000000 0.034150 0.000000
# 6 0.000000 0.000000 0.000000 0.000000 0.000000 0.033658
#
#
# Mechanical properties :
#
#
# Convention : Reuss Voigt Hill
#
# Bulk Modulus (GPa) = 61.43438 93.19737 77.31588
# Shear Modulus (GPa) = 25.63998 29.40400 27.52199
#
# Velocity S-wave (km/s) = 3.78396 4.05221 3.92038
# Velocity P-wave (km/s) = 7.30743 8.59878 7.97927
#
# Compressibility (1/GPa) = 0.01627753
#
# Stress axis : x y z
#
# Youngs Moduli (GPa) = 42.72953 108.56345 100.91496
#
# Poissons Ratio (x) = 0.31242 0.59255
# Poissons Ratio (y) = 0.12296 0.44135
# Poissons Ratio (z) = 0.25090 0.47480
#
# Static dielectric constant tensor:
#      x y z
#    x 1.611690 0.000000 0.000000 
#    y 0.000000 1.596930 0.000000 
#    z 0.000000 0.000000 1.592350 
# 
# From -- ./inp_files/25700.got.cif
#   From: 2010.05.17/outbox.cif.g08.bks.cpg/sg59_13_cif.got.tgz:25700.got - 2010.06.03 14:40:33.
