data_PCOD9452926
_publ_section_title
;
Structure prediction by ZEFSAII (Michael W. Deem and Ramdas Pophale) SiO2 
 PCOD9452926
Probable space group: P M M N
;
_chemical_formula_sum "Si O2"
_cell_formula_units_Z 48
_cell_length_a 8.750444
_cell_length_b 19.356571
_cell_length_c 15.376504
_cell_angle_alpha 90.000000
_cell_angle_beta 90.000000
_cell_angle_gamma 90.000000
_cell_volume 2604.450575
_symmetry_space_group_name_H-M "P M M N"
_symmetry_group_IT_number 59
_space_group.IT_coordinate_system_code '2'
_symmetry_cell_setting 'orthorhombic'
loop_
_space_group_symop_operation_xyz
x,y,z
1/2-x,1/2-y,z
1/2+x,-y,-z
-x,1/2+y,-z
-x,-y,-z
1/2+x,1/2+y,-z
1/2-x,y,z
x,1/2-y,z
loop_
_atom_site_type_symbol
_atom_site_label
_atom_site_fract_x
_atom_site_fract_y
_atom_site_fract_z
Si Si1 0.066504 0.830670 0.131715
Si Si2 0.932214 0.073623 0.530026
Si Si3 0.433524 0.330649 0.381676
Si Si4 0.566877 0.073336 0.031044
Si Si5 0.932135 0.925709 0.280611
Si Si6 0.433059 0.072544 0.219306
O O1 0.250000 0.836990 0.144379
O O2 0.027835 0.750000 0.127614
O O3 0.983671 0.869282 0.210379
O O4 0.029074 0.870069 0.042144
O O5 0.750000 0.068495 0.533733
O O6 0.983853 0.130394 0.460226
O O7 0.997864 0.089808 0.625112
O O8 0.000000 0.000000 0.500000
O O9 0.250000 0.336420 0.394571
O O10 0.473153 0.250000 0.377399
O O11 0.469918 0.370476 0.292197
O O12 0.750000 0.067824 0.037439
O O13 0.498186 0.090577 0.124889
O O14 0.500000 0.000000 0.000000
O O15 0.750000 0.929231 0.286362
O O16 0.996636 0.999628 0.249181
O O17 0.250000 0.065170 0.214311
#
# Coordination Sequence:
#
# PCOD9452926 Si02
#       6
#     8   8   8   8   8   8
#     4  10  23  43  64  89 125 166 208 258 314 369
#     4  12  24  40  65  94 125 164 209 258 310 371
#     4  10  23  43  65  92 128 167 208 257 310 366
#     4  11  22  37  62  92 124 162 208 258 307 368
#     4  12  24  39  64  94 124 162 209 259 309 370
#     4  11  22  38  63  92 126 165 208 257 307 368
#
# _framework density 18.42999
#
# number of rings (size 3 to 8) (size 9 to 14) (size 15 to 20)
#    0.000    1.000    3.333    4.000    0.000    3.333 
#    0.000    0.000    0.000    0.000    0.000    0.000 
#    0.000    0.000    0.000    0.000    0.000    0.000 
#
# Total GULP energy -268500.119706 kJ/mol
# GULP energy per Si atom -5593.752494 kJ/mol
# Density = 1.838804 g / cm^3
# Si number density = 18.429990 Si / 1000 Ang^3
#
#
#
# Elastic Constant Matrix: (Units=GPa)
#
#
# Indices 1 2 3 4 5 6 
#
# 1 103.7000 84.8696 99.6476 0.0000 0.0000 0.0000
# 2 84.8696 166.5033 102.3669 0.0000 0.0000 0.0000
# 3 99.6476 102.3669 212.2799 0.0000 0.0000 0.0000
# 4 0.0000 0.0000 0.0000 32.8266 0.0000 0.0000
# 5 0.0000 0.0000 0.0000 0.0000 39.0565 0.0000
# 6 0.0000 0.0000 0.0000 0.0000 0.0000 21.3931
#
#
#
# Elastic Compliance Matrix: (Units=1/GPa)
#
#
# Indices 1 2 3 4 5 6 
#
# 1 0.022050 -0.006930 -0.007009 0.000000 0.000000 0.000000
# 2 -0.006930 0.010715 -0.001914 0.000000 0.000000 0.000000
# 3 -0.007009 -0.001914 0.008924 0.000000 0.000000 0.000000
# 4 0.000000 0.000000 0.000000 0.030463 0.000000 0.000000
# 5 0.000000 0.000000 0.000000 0.000000 0.025604 0.000000
# 6 0.000000 0.000000 0.000000 0.000000 0.000000 0.046744
#
#
# Mechanical properties :
#
#
# Convention : Reuss Voigt Hill
#
# Bulk Modulus (GPa) = 100.17058 117.36129 108.76593
# Shear Modulus (GPa) = 27.85014 31.69518 29.77266
#
# Velocity S-wave (km/s) = 3.89154 4.15150 4.02362
# Velocity P-wave (km/s) = 8.64072 9.31653 8.98498
#
# Compressibility (1/GPa) = 0.00998297
#
# Stress axis : x y z
#
# Youngs Moduli (GPa) = 45.35226 93.32702 112.06235
#
# Poissons Ratio (x) = 0.64678 0.78539
# Poissons Ratio (y) = 0.31430 0.21448
# Poissons Ratio (z) = 0.31785 0.17862
#
# Static dielectric constant tensor:
#      x y z
#    x 1.617390 0.000000 0.000000 
#    y 0.000000 1.601980 0.000000 
#    z 0.000000 0.000000 1.613860 
# 
# From -- ./inp_files/20324.got.cif
#   From: 2010.05.17/outbox.cif.g08.bks.cpg/sg59_11_cif.got.tgz:20324.got - 2010.06.03 14:40:33.
