data_PCOD9452467
_publ_section_title
;
Structure prediction by ZEFSAII (Michael W. Deem and Ramdas Pophale) SiO2 
 PCOD9452467
Probable space group: P M M N
;
_chemical_formula_sum "Si O2"
_cell_formula_units_Z 48
_cell_length_a 8.941703
_cell_length_b 15.532430
_cell_length_c 17.732774
_cell_angle_alpha 90.000000
_cell_angle_beta 90.000000
_cell_angle_gamma 90.000000
_cell_volume 2462.840716
_symmetry_space_group_name_H-M "P M M N"
_symmetry_group_IT_number 59
_space_group.IT_coordinate_system_code '2'
_symmetry_cell_setting 'orthorhombic'
loop_
_space_group_symop_operation_xyz
x,y,z
1/2-x,1/2-y,z
1/2+x,-y,-z
-x,1/2+y,-z
-x,-y,-z
1/2+x,1/2+y,-z
1/2-x,y,z
x,1/2-y,z
loop_
_atom_site_type_symbol
_atom_site_label
_atom_site_fract_x
_atom_site_fract_y
_atom_site_fract_z
Si Si1 0.417258 0.147863 0.149972
Si Si2 0.070837 0.850872 0.695546
Si Si3 0.927962 0.093441 0.998140
Si Si4 0.429821 0.004745 0.582632
Si Si5 0.581899 0.647845 0.155130
Si Si6 0.928819 0.147287 0.689282
O O1 0.250000 0.110898 0.139718
O O2 0.403727 0.250000 0.159340
O O3 0.493798 0.117788 0.227089
O O4 0.515035 0.134887 0.075637
O O5 0.250000 0.852820 0.706193
O O6 0.030486 0.750000 0.680458
O O7 0.032837 0.917542 0.629347
O O8 0.750000 0.092723 0.995536
O O9 0.993839 0.134239 0.922197
O O10 0.000000 0.000000 0.000000
O O11 0.250000 0.011083 0.578743
O O12 0.495342 0.086867 0.627147
O O13 0.500000 0.000000 0.500000
O O14 0.750000 0.610048 0.150981
O O15 0.596296 0.750000 0.164086
O O16 0.493716 0.618662 0.229331
O O17 0.750000 0.137036 0.688170
O O18 0.960284 0.250000 0.678472
#
# Coordination Sequence:
#
# PCOD9452467 Si02
#       6
#     8   8   8   8   8   8
#     4  10  21  38  60  86 117 154 197 246 299 357
#     4   9  20  40  64  89 120 161 205 249 302 366
#     4  12  25  38  55  82 118 159 203 250 299 354
#     4  11  24  41  64  94 127 162 203 254 311 373
#     4  10  21  39  62  87 118 156 200 250 302 359
#     4  10  22  41  65  92 124 165 210 255 308 370
#
# _framework density 19.48969
#
# number of rings (size 3 to 8) (size 9 to 14) (size 15 to 20)
#    0.000    1.667    0.000    4.000    2.333    7.000 
#    0.000    1.667    0.000    0.000    0.000    0.000 
#    0.000    0.000    0.000    0.000    0.000    0.000 
#
# Total GULP energy -268074.494467 kJ/mol
# GULP energy per Si atom -5584.885301 kJ/mol
# Density = 1.944533 g / cm^3
# Si number density = 19.489690 Si / 1000 Ang^3
#
#
#
# Elastic Constant Matrix: (Units=GPa)
#
#
# Indices 1 2 3 4 5 6 
#
# 1 138.1990 53.3603 98.8432 0.0000 0.0000 0.0000
# 2 53.3603 68.8251 64.2879 0.0000 0.0000 0.0000
# 3 98.8432 64.2879 205.8701 0.0000 0.0000 0.0000
# 4 0.0000 0.0000 0.0000 35.0265 0.0000 0.0000
# 5 0.0000 0.0000 0.0000 0.0000 39.2287 0.0000
# 6 0.0000 0.0000 0.0000 0.0000 0.0000 27.5965
#
#
#
# Elastic Compliance Matrix: (Units=1/GPa)
#
#
# Indices 1 2 3 4 5 6 
#
# 1 0.012444 -0.005742 -0.004181 0.000000 0.000000 0.000000
# 2 -0.005742 0.023162 -0.004476 0.000000 0.000000 0.000000
# 3 -0.004181 -0.004476 0.008263 0.000000 0.000000 0.000000
# 4 0.000000 0.000000 0.000000 0.028550 0.000000 0.000000
# 5 0.000000 0.000000 0.000000 0.000000 0.025492 0.000000
# 6 0.000000 0.000000 0.000000 0.000000 0.000000 0.036236
#
#
# Mechanical properties :
#
#
# Convention : Reuss Voigt Hill
#
# Bulk Modulus (GPa) = 66.35752 93.98631 80.17192
# Shear Modulus (GPa) = 29.76743 33.46386 31.61565
#
# Velocity S-wave (km/s) = 3.91236 4.14817 4.03199
# Velocity P-wave (km/s) = 7.38446 8.44224 7.93100
#
# Compressibility (1/GPa) = 0.01506988
#
# Stress axis : x y z
#
# Youngs Moduli (GPa) = 80.36278 43.17355 121.02323
#
# Poissons Ratio (x) = 0.24789 0.50605
# Poissons Ratio (y) = 0.46142 0.54173
# Poissons Ratio (z) = 0.33603 0.19326
#
# Static dielectric constant tensor:
#      x y z
#    x 1.695450 0.000000 0.000000 
#    y 0.000000 1.661180 0.000000 
#    z 0.000000 0.000000 1.744430 
# 
# From -- ./inp_files/25406.got.cif
#   From: 2010.05.17/outbox.cif.g08.bks.cpg/sg59_13_cif.got.tgz:25406.got - 2010.06.03 14:40:33.
