data_PCOD9452892
_publ_section_title
;
Structure prediction by ZEFSAII (Michael W. Deem and Ramdas Pophale) SiO2 
 PCOD9452892
Probable space group: P M M N
;
_chemical_formula_sum "Si O2"
_cell_formula_units_Z 64
_cell_length_a 15.265290
_cell_length_b 22.310324
_cell_length_c 7.768800
_cell_angle_alpha 90.000000
_cell_angle_beta 90.000000
_cell_angle_gamma 90.000000
_cell_volume 2645.847918
_symmetry_space_group_name_H-M "P M M N"
_symmetry_group_IT_number 59
_space_group.IT_coordinate_system_code '2'
_symmetry_cell_setting 'orthorhombic'
loop_
_space_group_symop_operation_xyz
x,y,z
1/2-x,1/2-y,z
1/2+x,-y,-z
-x,1/2+y,-z
-x,-y,-z
1/2+x,1/2+y,-z
1/2-x,y,z
x,1/2-y,z
loop_
_atom_site_type_symbol
_atom_site_label
_atom_site_fract_x
_atom_site_fract_y
_atom_site_fract_z
Si Si1 0.411221 0.929348 0.934411
Si Si2 0.620835 0.685193 0.790835
Si Si3 0.070042 0.053340 0.792956
Si Si4 0.924055 0.313566 0.255599
Si Si5 0.534289 0.316321 0.659765
Si Si6 0.158285 0.336320 0.826320
Si Si7 0.854350 0.936308 0.566872
Si Si8 0.154636 0.566729 0.280270
O O1 0.382555 0.871385 0.828344
O O2 0.423503 0.982722 0.802330
O O3 0.499115 0.929590 0.057112
O O4 0.340969 0.944661 0.077430
O O5 0.641077 0.750000 0.702668
O O6 0.518140 0.686241 0.834766
O O7 0.638138 0.623833 0.685091
O O8 0.660681 0.686015 0.979752
O O9 0.152668 0.092110 0.849246
O O10 0.075165 0.068748 0.588441
O O11 0.877969 0.250000 0.228180
O O12 0.953809 0.316659 0.453934
O O13 0.566327 0.250000 0.719565
O O14 0.593730 0.373989 0.706397
O O15 0.250000 0.319955 0.736606
O O16 0.066430 0.320025 0.730738
O O17 0.750000 0.939020 0.517695
O O18 0.874885 0.001828 0.648277
O O19 0.250000 0.580668 0.355303
#
# Coordination Sequence:
#
# PCOD9452892 Si02
#       8
#     8   8   8   8   8   8   8   8
#     4  11  23  42  69 102 133 181 240 293 357 425
#     4  11  23  40  65  98 140 189 237 285 345 420
#     4  11  23  41  67 100 136 181 236 289 348 416
#     4  10  22  42  68  98 137 185 236 293 353 417
#     4  11  24  45  73 104 141 185 239 297 354 426
#     4  12  24  42  69 104 145 187 233 286 352 424
#     4  11  25  43  66 100 142 184 234 295 355 423
#     4  11  25  45  71 104 138 179 233 299 366 425
#
# _framework density 24.188844
#
# number of rings (size 3 to 8) (size 9 to 14) (size 15 to 20)
#    0.000    1.000    2.500    3.375    1.750    6.000 
#    0.000    2.500    0.000    8.250    0.000    0.000 
#    0.000    0.000    0.000    0.000    0.000    0.000 
#
# Total GULP energy -356291.916397 kJ/mol
# GULP energy per Si atom -5567.061194 kJ/mol
# Density = 2.413379 g / cm^3
# Si number density = 24.188844 Si / 1000 Ang^3
#
#
#
# Elastic Constant Matrix: (Units=GPa)
#
#
# Indices 1 2 3 4 5 6 
#
# 1 78.3769 41.0793 10.0892 0.0000 0.0000 0.0000
# 2 41.0793 227.7196 74.0048 0.0000 0.0000 0.0000
# 3 10.0892 74.0048 104.0269 0.0000 0.0000 0.0000
# 4 0.0000 0.0000 0.0000 39.6803 0.0000 0.0000
# 5 0.0000 0.0000 0.0000 0.0000 6.5525 0.0000
# 6 0.0000 0.0000 0.0000 0.0000 0.0000 -17.6032
#
#
#
# Elastic Compliance Matrix: (Units=1/GPa)
#
#
# Indices 1 2 3 4 5 6 
#
# 1 0.014118 -0.002734 0.000576 0.000000 0.000000 0.000000
# 2 -0.002734 0.006241 -0.004175 0.000000 0.000000 0.000000
# 3 0.000576 -0.004175 0.012527 0.000000 0.000000 0.000000
# 4 0.000000 0.000000 0.000000 0.025201 0.000000 0.000000
# 5 0.000000 0.000000 0.000000 0.000000 0.152614 0.000000
# 6 0.000000 0.000000 0.000000 0.000000 0.000000 -0.056808
#
#
# Mechanical properties :
#
#
# Convention : Reuss Voigt Hill
#
# Bulk Modulus (GPa) = 49.45645 73.38556 61.42101
# Shear Modulus (GPa) = 28.85173 24.72258 26.78716
#
# Velocity S-wave (km/s) = 3.45740 3.20044 3.33140
# Velocity P-wave (km/s) = 6.03560 6.63789 6.34390
#
# Compressibility (1/GPa) = 0.02021981
#
# Stress axis : x y z
#
# Youngs Moduli (GPa) = 70.83344 160.22294 79.82683
#
# Poissons Ratio (x) = 0.43802 -0.04595
# Poissons Ratio (y) = 0.19364 0.33327
# Poissons Ratio (z) = -0.04077 0.66892
#
# Static dielectric constant tensor:
#      x y z
#    x 2.034430 0.000000 0.000000 
#    y 0.000000 2.058620 0.000000 
#    z 0.000000 0.000000 1.972360 
# 
# From -- ./inp_files/10658.got.cif
#   From: 2010.05.17/outbox.cif.g08.bks.cpg/sg59_6_cif.got.tgz:10658.got - 2010.06.03 14:40:33.
