data_PCOD9452089
_publ_section_title
;
Structure prediction by ZEFSAII (Michael W. Deem and Ramdas Pophale) SiO2 
 PCOD9452089
Probable space group: P M M N
;
_chemical_formula_sum "Si O2"
_cell_formula_units_Z 64
_cell_length_a 22.571512
_cell_length_b 16.742496
_cell_length_c 10.152135
_cell_angle_alpha 90.000000
_cell_angle_beta 90.000000
_cell_angle_gamma 90.000000
_cell_volume 3836.526835
_symmetry_space_group_name_H-M "P M M N"
_symmetry_group_IT_number 59
_space_group.IT_coordinate_system_code '2'
_symmetry_cell_setting 'orthorhombic'
loop_
_space_group_symop_operation_xyz
x,y,z
1/2-x,1/2-y,z
1/2+x,-y,-z
-x,1/2+y,-z
-x,-y,-z
1/2+x,1/2+y,-z
1/2-x,y,z
x,1/2-y,z
loop_
_atom_site_type_symbol
_atom_site_label
_atom_site_fract_x
_atom_site_fract_y
_atom_site_fract_z
Si Si1 0.919073 0.940114 0.731812
Si Si2 0.525780 0.655480 0.488955
Si Si3 0.385695 0.842564 0.547288
Si Si4 0.403605 0.598468 0.833937
Si Si5 0.026339 0.156700 0.046596
Si Si6 0.179749 0.656657 0.059496
Si Si7 0.680063 0.440105 0.673959
Si Si8 0.027640 0.060044 0.776455
O O1 0.940530 0.887874 0.607945
O O2 0.925071 0.886805 0.862530
O O3 0.856080 0.979875 0.706137
O O4 0.966668 0.011859 0.750472
O O5 0.538088 0.750000 0.486321
O O6 0.455279 0.645365 0.514144
O O7 0.540684 0.612928 0.351422
O O8 0.370956 0.750000 0.522209
O O9 0.378945 0.862761 0.700839
O O10 0.347189 0.899604 0.455586
O O11 0.464184 0.642954 0.877184
O O12 0.423370 0.507997 0.803315
O O13 0.357906 0.608733 0.952432
O O14 0.037721 0.250000 0.032088
O O15 0.021441 0.113485 0.906348
O O16 0.250000 0.651396 0.032053
O O17 0.162371 0.750000 0.055503
O O18 0.169659 0.620241 0.203818
O O19 0.750000 0.452977 0.660913
#
# Coordination Sequence:
#
# PCOD9452089 Si02
#       8
#     8   8   8   8   8   8   8   8
#     4  11  20  36  55  78 110 143 178 220 271 322
#     4  11  21  35  55  81 110 144 179 220 276 327
#     4  11  21  34  54  80 111 145 180 217 264 323
#     4  11  21  34  54  78 109 144 178 220 266 320
#     4  11  21  33  52  80 110 140 176 221 272 323
#     4  10  21  37  54  75 108 148 186 221 260 314
#     4  11  23  38  56  79 108 145 186 224 261 310
#     4  11  20  33  53  80 112 140 176 222 267 323
#
# _framework density 16.681754999999999
#
# number of rings (size 3 to 8) (size 9 to 14) (size 15 to 20)
#    0.000    1.125    3.750    6.375    0.000    1.250 
#    0.000    0.000    0.000    1.500    0.000    0.000 
#    0.000    5.000    0.000    0.000    0.000    0.000 
#
# Total GULP energy -357651.908172 kJ/mol
# GULP energy per Si atom -5588.311065 kJ/mol
# Density = 1.664379 g / cm^3
# Si number density = 16.681755 Si / 1000 Ang^3
#
#
#
# Elastic Constant Matrix: (Units=GPa)
#
#
# Indices 1 2 3 4 5 6 
#
# 1 51.7668 29.5949 24.0629 0.0000 0.0000 0.0000
# 2 29.5949 96.3772 41.0815 0.0000 0.0000 0.0000
# 3 24.0629 41.0815 95.5701 0.0000 0.0000 0.0000
# 4 0.0000 0.0000 0.0000 20.7492 0.0000 0.0000
# 5 0.0000 0.0000 0.0000 0.0000 14.1174 0.0000
# 6 0.0000 0.0000 0.0000 0.0000 0.0000 20.8233
#
#
#
# Elastic Compliance Matrix: (Units=1/GPa)
#
#
# Indices 1 2 3 4 5 6 
#
# 1 0.024390 -0.005965 -0.003577 0.000000 0.000000 0.000000
# 2 -0.005965 0.014162 -0.004586 0.000000 0.000000 0.000000
# 3 -0.003577 -0.004586 0.013335 0.000000 0.000000 0.000000
# 4 0.000000 0.000000 0.000000 0.048195 0.000000 0.000000
# 5 0.000000 0.000000 0.000000 0.000000 0.070835 0.000000
# 6 0.000000 0.000000 0.000000 0.000000 0.000000 0.048023
#
#
# Mechanical properties :
#
#
# Convention : Reuss Voigt Hill
#
# Bulk Modulus (GPa) = 42.31478 48.13252 45.22365
# Shear Modulus (GPa) = 19.60221 21.06965 20.33593
#
# Velocity S-wave (km/s) = 3.43165 3.55778 3.49528
# Velocity P-wave (km/s) = 6.41269 6.76706 6.59225
#
# Compressibility (1/GPa) = 0.02363241
#
# Stress axis : x y z
#
# Youngs Moduli (GPa) = 41.00007 70.60989 74.98814
#
# Poissons Ratio (x) = 0.42118 0.26823
# Poissons Ratio (y) = 0.24456 0.34389
# Poissons Ratio (z) = 0.14666 0.32381
#
# Static dielectric constant tensor:
#      x y z
#    x 1.544760 0.000000 0.000000 
#    y 0.000000 1.559060 0.000000 
#    z 0.000000 0.000000 1.557310 
# 
# From -- ./inp_files/11618.got.cif
#   From: 2010.05.17/outbox.cif.g08.bks.cpg/sg59_6_cif.got.tgz:11618.got - 2010.06.03 14:40:33.
