data_PCOD9452456
_publ_section_title
;
Structure prediction by ZEFSAII (Michael W. Deem and Ramdas Pophale) SiO2 
 PCOD9452456
Probable space group: P M M N
;
_chemical_formula_sum "Si O2"
_cell_formula_units_Z 48
_cell_length_a 29.442105
_cell_length_b 8.693898
_cell_length_c 10.244479
_cell_angle_alpha 90.000000
_cell_angle_beta 90.000000
_cell_angle_gamma 90.000000
_cell_volume 2622.245050
_symmetry_space_group_name_H-M "P M M N"
_symmetry_group_IT_number 59
_space_group.IT_coordinate_system_code '2'
_symmetry_cell_setting 'orthorhombic'
loop_
_space_group_symop_operation_xyz
x,y,z
1/2-x,1/2-y,z
1/2+x,-y,-z
-x,1/2+y,-z
-x,-y,-z
1/2+x,1/2+y,-z
1/2-x,y,z
x,1/2-y,z
loop_
_atom_site_type_symbol
_atom_site_label
_atom_site_fract_x
_atom_site_fract_y
_atom_site_fract_z
Si Si1 0.878374 0.062464 0.714774
Si Si2 0.302970 0.066793 0.773413
Si Si3 0.019785 0.934689 0.366333
Si Si4 0.030117 0.565667 0.883113
Si Si5 0.129974 0.935122 0.984357
Si Si6 0.697418 0.435756 0.507471
O O1 0.878384 0.250000 0.715641
O O2 0.928163 0.015260 0.663214
O O3 0.837795 0.012727 0.618822
O O4 0.871039 0.012948 0.864654
O O5 0.250000 0.026447 0.789995
O O6 0.307128 0.250000 0.764178
O O7 0.331079 0.005994 0.895521
O O8 0.317518 0.993945 0.635095
O O9 0.019561 0.750000 0.370020
O O10 0.000000 0.000000 0.500000
O O11 0.988204 0.993054 0.249307
O O12 0.025949 0.750000 0.877781
O O13 0.082027 0.527435 0.916674
O O14 0.000000 0.500000 0.000000
O O15 0.134712 0.750000 0.984951
O O16 0.750000 0.485446 0.529712
O O17 0.697241 0.250000 0.506125
#
# Coordination Sequence:
#
# PCOD9452456 Si02
#       6
#     8   8   8   8   8   8
#     4   9  19  37  58  83 114 146 186 237 284 331
#     4  10  22  39  57  83 118 150 185 233 286 341
#     4  11  23  40  58  84 120 156 196 243 289 345
#     4  11  22  39  61  86 117 156 196 240 291 345
#     4  10  21  38  60  85 113 150 192 235 284 340
#     4   9  18  35  60  85 109 144 188 232 282 340
#
# _framework density 18.304925000000001
#
# number of rings (size 3 to 8) (size 9 to 14) (size 15 to 20)
#    0.000    2.000    1.667    1.500    2.333    3.000 
#    0.000    3.333    0.000    2.000    0.000    0.000 
#    0.000    0.000    0.000    0.000    0.000    0.000 
#
# Total GULP energy -268000.332983 kJ/mol
# GULP energy per Si atom -5583.340270 kJ/mol
# Density = 1.826326 g / cm^3
# Si number density = 18.304925 Si / 1000 Ang^3
#
#
#
# Elastic Constant Matrix: (Units=GPa)
#
#
# Indices 1 2 3 4 5 6 
#
# 1 114.9284 36.7016 108.2864 0.0000 0.0000 0.0000
# 2 36.7016 18.6121 38.0489 0.0000 0.0000 0.0000
# 3 108.2864 38.0489 207.9238 0.0000 0.0000 0.0000
# 4 0.0000 0.0000 0.0000 28.5206 0.0000 0.0000
# 5 0.0000 0.0000 0.0000 0.0000 41.7584 0.0000
# 6 0.0000 0.0000 0.0000 0.0000 0.0000 27.0078
#
#
#
# Elastic Compliance Matrix: (Units=1/GPa)
#
#
# Indices 1 2 3 4 5 6 
#
# 1 0.029362 -0.042561 -0.007504 0.000000 0.000000 0.000000
# 2 -0.042561 0.147533 -0.004832 0.000000 0.000000 0.000000
# 3 -0.007504 -0.004832 0.009602 0.000000 0.000000 0.000000
# 4 0.000000 0.000000 0.000000 0.035062 0.000000 0.000000
# 5 0.000000 0.000000 0.000000 0.000000 0.023947 0.000000
# 6 0.000000 0.000000 0.000000 0.000000 0.000000 0.037026
#
#
# Mechanical properties :
#
#
# Convention : Reuss Voigt Hill
#
# Bulk Modulus (GPa) = 13.03708 78.61535 45.82622
# Shear Modulus (GPa) = 11.96474 30.01920 20.99197
#
# Velocity S-wave (km/s) = 2.55940 4.05403 3.39011
# Velocity P-wave (km/s) = 3.98393 8.05943 6.35712
#
# Compressibility (1/GPa) = 0.07670431
#
# Stress axis : x y z
#
# Youngs Moduli (GPa) = 34.05708 6.77813 104.15000
#
# Poissons Ratio (x) = 0.28848 0.78149
# Poissons Ratio (y) = 1.44950 0.50326
# Poissons Ratio (z) = 0.25555 0.03275
#
# Static dielectric constant tensor:
#      x y z
#    x 1.617660 0.000000 0.000000 
#    y 0.000000 1.624670 0.000000 
#    z 0.000000 0.000000 1.587140 
# 
# From -- ./inp_files/6285.got.cif
#   From: 2010.05.17/outbox.cif.g08.bks.cpg/sg59_4_cif.got.tgz:6285.got - 2010.06.03 14:40:33.
