data_PCOD9452262
_publ_section_title
;
Structure prediction by ZEFSAII (Michael W. Deem and Ramdas Pophale) SiO2 
 PCOD9452262
Probable space group: P M M N
;
_chemical_formula_sum "Si O2"
_cell_formula_units_Z 64
_cell_length_a 8.882077
_cell_length_b 20.689195
_cell_length_c 19.014334
_cell_angle_alpha 90.000000
_cell_angle_beta 90.000000
_cell_angle_gamma 90.000000
_cell_volume 3494.131497
_symmetry_space_group_name_H-M "P M M N"
_symmetry_group_IT_number 59
_space_group.IT_coordinate_system_code '2'
_symmetry_cell_setting 'orthorhombic'
loop_
_space_group_symop_operation_xyz
x,y,z
1/2-x,1/2-y,z
1/2+x,-y,-z
-x,1/2+y,-z
-x,-y,-z
1/2+x,1/2+y,-z
1/2-x,y,z
x,1/2-y,z
loop_
_atom_site_type_symbol
_atom_site_label
_atom_site_fract_x
_atom_site_fract_y
_atom_site_fract_z
Si Si1 0.431381 0.058021 0.455084
Si Si2 0.569310 0.941577 0.707840
Si Si3 0.930643 0.175095 0.042867
Si Si4 0.929987 0.559368 0.042654
Si Si5 0.569228 0.824397 0.446735
Si Si6 0.069267 0.674906 0.792893
Si Si7 0.070308 0.825610 0.294887
Si Si8 0.569416 0.560773 0.206560
O O1 0.250000 0.053024 0.456894
O O2 0.478281 0.055602 0.373808
O O3 0.473268 0.125276 0.492854
O O4 0.500000 0.000000 0.500000
O O5 0.750000 0.945447 0.710852
O O6 0.513989 0.875392 0.743391
O O7 0.498935 0.001065 0.750422
O O8 0.750000 0.168001 0.035654
O O9 0.968151 0.250000 0.028255
O O10 0.967096 0.162014 0.124935
O O11 0.012558 0.125287 0.992487
O O12 0.750000 0.555833 0.038367
O O13 0.973196 0.556045 0.124622
O O14 0.000000 0.500000 0.000000
O O15 0.750000 0.828328 0.436216
O O16 0.532495 0.750000 0.464605
O O17 0.489090 0.840788 0.373298
O O18 0.250000 0.667537 0.785575
O O19 0.032401 0.750000 0.778253
O O20 0.250000 0.833930 0.292450
O O21 0.035456 0.750000 0.281325
O O22 0.992213 0.873392 0.240423
O O23 0.750000 0.559061 0.211722
#
# Coordination Sequence:
#
# PCOD9452262 Si02
#       8
#     8   8   8   8   8   8   8   8
#     4  10  22  37  54  79 109 141 179 225 274 324
#     4  11  23  37  56  84 114 143 182 233 280 321
#     4   9  19  37  60  84 112 146 182 223 272 325
#     4  11  24  39  57  82 111 144 184 230 275 324
#     4   9  18  35  58  80 106 144 183 217 263 325
#     4   9  19  37  59  83 113 149 186 221 264 325
#     4  10  21  37  58  85 114 142 178 227 276 321
#     4  11  24  40  57  79 110 148 187 225 270 329
#
# _framework density 18.316426
#
# number of rings (size 3 to 8) (size 9 to 14) (size 15 to 20)
#    0.000    2.000    0.000    3.750    0.000   11.250 
#    0.000    5.000    0.000    1.500    0.000    0.000 
#    0.000    0.000    0.000    0.000    0.000    0.000 
#
# Total GULP energy -357566.413762 kJ/mol
# GULP energy per Si atom -5586.975215 kJ/mol
# Density = 1.827474 g / cm^3
# Si number density = 18.316426 Si / 1000 Ang^3
#
#
#
# Elastic Constant Matrix: (Units=GPa)
#
#
# Indices 1 2 3 4 5 6 
#
# 1 40.9331 53.4718 67.2916 0.0000 0.0000 0.0000
# 2 53.4718 122.9088 123.3114 0.0000 0.0000 0.0000
# 3 67.2916 123.3114 187.6122 0.0000 0.0000 0.0000
# 4 0.0000 0.0000 0.0000 41.6861 0.0000 0.0000
# 5 0.0000 0.0000 0.0000 0.0000 26.5033 0.0000
# 6 0.0000 0.0000 0.0000 0.0000 0.0000 34.9107
#
#
#
# Elastic Compliance Matrix: (Units=1/GPa)
#
#
# Indices 1 2 3 4 5 6 
#
# 1 0.067767 -0.014964 -0.014471 0.000000 0.000000 0.000000
# 2 -0.014964 0.027193 -0.012506 0.000000 0.000000 0.000000
# 3 -0.014471 -0.012506 0.018740 0.000000 0.000000 0.000000
# 4 0.000000 0.000000 0.000000 0.023989 0.000000 0.000000
# 5 0.000000 0.000000 0.000000 0.000000 0.037731 0.000000
# 6 0.000000 0.000000 0.000000 0.000000 0.000000 0.028645
#
#
# Mechanical properties :
#
#
# Convention : Reuss Voigt Hill
#
# Bulk Modulus (GPa) = 33.53578 93.28928 63.41253
# Shear Modulus (GPa) = 16.78488 27.77863 22.28176
#
# Velocity S-wave (km/s) = 3.03047 3.89858 3.49161
# Velocity P-wave (km/s) = 5.53117 8.44439 7.13798
#
# Compressibility (1/GPa) = 0.02981890
#
# Stress axis : x y z
#
# Youngs Moduli (GPa) = 14.75637 36.77396 53.36062
#
# Poissons Ratio (x) = 0.55028 0.77219
# Poissons Ratio (y) = 0.22081 0.66733
# Poissons Ratio (z) = 0.21354 0.45990
#
# Static dielectric constant tensor:
#      x y z
#    x 1.607200 0.000000 0.000000 
#    y 0.000000 1.613590 0.000000 
#    z 0.000000 0.000000 1.603900 
# 
# From -- ./inp_files/26185.got.cif
#   From: 2010.05.17/outbox.cif.g08.bks.cpg/sg59_14_cif.got.tgz:26185.got - 2010.06.03 14:40:33.
