data_PCOD9452530
_publ_section_title
;
Structure prediction by ZEFSAII (Michael W. Deem and Ramdas Pophale) SiO2 
 PCOD9452530
Probable space group: P M M N
;
_chemical_formula_sum "Si O2"
_cell_formula_units_Z 40
_cell_length_a 25.749291
_cell_length_b 8.663704
_cell_length_c 9.431765
_cell_angle_alpha 90.000000
_cell_angle_beta 90.000000
_cell_angle_gamma 90.000000
_cell_volume 2104.078084
_symmetry_space_group_name_H-M "P M M N"
_symmetry_group_IT_number 59
_space_group.IT_coordinate_system_code '2'
_symmetry_cell_setting 'orthorhombic'
loop_
_space_group_symop_operation_xyz
x,y,z
1/2-x,1/2-y,z
1/2+x,-y,-z
-x,1/2+y,-z
-x,-y,-z
1/2+x,1/2+y,-z
1/2-x,y,z
x,1/2-y,z
loop_
_atom_site_type_symbol
_atom_site_label
_atom_site_fract_x
_atom_site_fract_y
_atom_site_fract_z
Si Si1 0.250000 0.937506 0.836688
Si Si2 0.850174 0.064282 0.345140
Si Si3 0.438586 0.934206 0.157028
Si Si4 0.059972 0.065363 0.845766
Si Si5 0.750000 0.435959 0.836229
Si Si6 0.846810 0.933730 0.660888
O O1 0.250000 0.750000 0.838149
O O2 0.301462 0.985578 0.752217
O O3 0.250000 0.988022 0.999817
O O4 0.851517 0.250000 0.348634
O O5 0.902309 0.001032 0.273141
O O6 0.843551 0.001075 0.503015
O O7 0.431299 0.750000 0.164957
O O8 0.499328 0.969640 0.183173
O O9 0.400769 0.016080 0.266971
O O10 0.426439 0.990959 0.997733
O O11 0.065338 0.250000 0.855364
O O12 0.750000 0.250000 0.832999
O O13 0.699372 0.497201 0.755862
O O14 0.842572 0.750000 0.656696
#
# Coordination Sequence:
#
# PCOD9452530 Si02
#       6
#     4   8   8   8   4   8
#     4   9  21  39  62  88 112 147 194 239 284 348
#     4  11  22  39  62  87 119 159 200 243 298 359
#     4  10  21  39  62  87 118 159 202 244 297 359
#     4  10  21  38  61  90 121 153 197 252 301 350
#     4  11  22  41  66  90 118 153 196 243 298 362
#     4  12  25  40  59  88 123 157 199 250 299 347
#
# _framework density 19.010702999999999
#
# number of rings (size 3 to 8) (size 9 to 14) (size 15 to 20)
#    0.000    1.400    0.000    5.700    0.000    5.600 
#    0.000    4.500    0.000    0.000    0.000    0.000 
#    0.000    0.000    0.000    0.000    0.000    0.000 
#
# Total GULP energy -223732.677095 kJ/mol
# GULP energy per Si atom -5593.316927 kJ/mol
# Density = 1.896743 g / cm^3
# Si number density = 19.010703 Si / 1000 Ang^3
#
#
#
# Elastic Constant Matrix: (Units=GPa)
#
#
# Indices 1 2 3 4 5 6 
#
# 1 88.0245 36.3838 82.4506 0.0000 0.0000 0.0000
# 2 36.3838 70.0534 38.5511 0.0000 0.0000 0.0000
# 3 82.4506 38.5511 168.5756 0.0000 0.0000 0.0000
# 4 0.0000 0.0000 0.0000 32.6695 0.0000 0.0000
# 5 0.0000 0.0000 0.0000 0.0000 -154.0013 0.0000
# 6 0.0000 0.0000 0.0000 0.0000 0.0000 32.1066
#
#
#
# Elastic Compliance Matrix: (Units=1/GPa)
#
#
# Indices 1 2 3 4 5 6 
#
# 1 0.023430 -0.006707 -0.009926 0.000000 0.000000 0.000000
# 2 -0.006707 0.018250 -0.000893 0.000000 0.000000 0.000000
# 3 -0.009926 -0.000893 0.010991 0.000000 0.000000 0.000000
# 4 0.000000 0.000000 0.000000 0.030610 0.000000 0.000000
# 5 0.000000 0.000000 0.000000 0.000000 -0.006493 0.000000
# 6 0.000000 0.000000 0.000000 0.000000 0.000000 0.031146
#
#
# Mechanical properties :
#
#
# Convention : Reuss Voigt Hill
#
# Bulk Modulus (GPa) = 56.75629 71.26941 64.01285
# Shear Modulus (GPa) = 33.58918 -6.56051 13.51434
#
# Velocity S-wave (km/s) = 4.20796 -1.85969 2.66913
# Velocity P-wave (km/s) = 7.31635 5.74101 6.57602
#
# Compressibility (1/GPa) = 0.01761919
#
# Stress axis : x y z
#
# Youngs Moduli (GPa) = 42.68049 54.79579 90.98256
#
# Poissons Ratio (x) = 0.36749 0.90308
# Poissons Ratio (y) = 0.28624 0.08127
# Poissons Ratio (z) = 0.42364 0.04895
#
# Static dielectric constant tensor:
#      x y z
#    x 1.648310 0.000000 0.000000 
#    y 0.000000 1.637330 0.000000 
#    z 0.000000 0.000000 1.620140 
# 
# From -- ./inp_files/12450.got.cif
#   From: 2010.05.17/outbox.cif.g08.bks.cpg/sg59_7_cif.got.tgz:12450.got - 2010.06.03 14:40:33.
