data_PCOD9452142
_publ_section_title
;
Structure prediction by ZEFSAII (Michael W. Deem and Ramdas Pophale) SiO2 
 PCOD9452142
Probable space group: P M M N
;
_chemical_formula_sum "Si O2"
_cell_formula_units_Z 64
_cell_length_a 18.821412
_cell_length_b 8.693379
_cell_length_c 20.590553
_cell_angle_alpha 90.000000
_cell_angle_beta 90.000000
_cell_angle_gamma 90.000000
_cell_volume 3369.060623
_symmetry_space_group_name_H-M "P M M N"
_symmetry_group_IT_number 59
_space_group.IT_coordinate_system_code '2'
_symmetry_cell_setting 'orthorhombic'
loop_
_space_group_symop_operation_xyz
x,y,z
1/2-x,1/2-y,z
1/2+x,-y,-z
-x,1/2+y,-z
-x,-y,-z
1/2+x,1/2+y,-z
1/2-x,y,z
x,1/2-y,z
loop_
_atom_site_type_symbol
_atom_site_label
_atom_site_fract_x
_atom_site_fract_y
_atom_site_fract_z
Si Si1 0.571031 0.064877 0.083349
Si Si2 0.332625 0.434542 0.409412
Si Si3 0.409992 0.434729 0.055163
Si Si4 0.420225 0.933536 0.673810
Si Si5 0.831503 0.934954 0.816307
Si Si6 0.168588 0.937922 0.796979
Si Si7 0.071890 0.931229 0.295223
Si Si8 0.427659 0.066965 0.530753
O O1 0.571490 0.250000 0.085077
O O2 0.488095 0.016466 0.081643
O O3 0.616452 0.010038 0.144958
O O4 0.602150 0.009415 0.014699
O O5 0.250000 0.475694 0.404029
O O6 0.339055 0.250000 0.398363
O O7 0.380293 0.519862 0.356611
O O8 0.364474 0.467645 0.480343
O O9 0.411647 0.250000 0.047097
O O10 0.352540 0.472164 0.109838
O O11 0.416488 0.750000 0.668505
O O12 0.362737 0.985418 0.727203
O O13 0.497539 0.980622 0.700221
O O14 0.413144 0.002790 0.602159
O O15 0.750000 0.974496 0.802110
O O16 0.839666 0.750000 0.808058
O O17 0.884612 0.018642 0.767965
O O18 0.250000 0.987038 0.806342
O O19 0.167856 0.750000 0.797845
O O20 0.058767 0.750000 0.296242
O O21 0.435882 0.250000 0.534894
O O22 0.500000 0.000000 0.500000
#
# Coordination Sequence:
#
# PCOD9452142 Si02
#       8
#     8   8   8   8   8   8   8   8
#     4   9  17  32  55  80 108 145 188 238 285 331
#     4  10  22  40  61  84 114 153 190 227 282 347
#     4   9  18  33  53  79 110 146 190 233 279 341
#     4  11  22  38  62  86 114 152 192 236 284 340
#     4  10  21  37  56  78 110 151 189 227 279 342
#     4   9  19  36  58  85 115 150 195 241 289 345
#     4  12  24  37  57  84 114 147 189 239 284 335
#     4  11  22  38  61  88 117 150 190 234 282 338
#
# _framework density 18.996393000000001
#
# number of rings (size 3 to 8) (size 9 to 14) (size 15 to 20)
#    0.000    1.875    1.250    3.000    0.000    6.000 
#    0.000    3.750    0.000    2.625    0.000    0.000 
#    0.000    0.000    0.000    0.000    0.000    0.000 
#
# Total GULP energy -357494.543035 kJ/mol
# GULP energy per Si atom -5585.852235 kJ/mol
# Density = 1.895316 g / cm^3
# Si number density = 18.996393 Si / 1000 Ang^3
#
#
#
# Elastic Constant Matrix: (Units=GPa)
#
#
# Indices 1 2 3 4 5 6 
#
# 1 47.7650 7.0079 20.7290 0.0000 0.0000 0.0000
# 2 7.0079 14.4990 17.3797 0.0000 0.0000 0.0000
# 3 20.7290 17.3797 107.8989 0.0000 0.0000 0.0000
# 4 0.0000 0.0000 0.0000 35.5033 0.0000 0.0000
# 5 0.0000 0.0000 0.0000 0.0000 -13.8068 0.0000
# 6 0.0000 0.0000 0.0000 0.0000 0.0000 12.3079
#
#
#
# Elastic Compliance Matrix: (Units=1/GPa)
#
#
# Indices 1 2 3 4 5 6 
#
# 1 0.023457 -0.007356 -0.003321 0.000000 0.000000 0.000000
# 2 -0.007356 0.087780 -0.012726 0.000000 0.000000 0.000000
# 3 -0.003321 -0.012726 0.011956 0.000000 0.000000 0.000000
# 4 0.000000 0.000000 0.000000 0.028166 0.000000 0.000000
# 5 0.000000 0.000000 0.000000 0.000000 -0.072428 0.000000
# 6 0.000000 0.000000 0.000000 0.000000 0.000000 0.081248
#
#
# Mechanical properties :
#
#
# Convention : Reuss Voigt Hill
#
# Bulk Modulus (GPa) = 13.09149 28.93291 21.01220
# Shear Modulus (GPa) = 21.51023 15.13730 18.32377
#
# Velocity S-wave (km/s) = 3.36867 2.82592 3.10916
# Velocity P-wave (km/s) = 4.69437 5.09034 4.89636
#
# Compressibility (1/GPa) = 0.07638551
#
# Stress axis : x y z
#
# Youngs Moduli (GPa) = 42.63210 11.39215 83.64105
#
# Poissons Ratio (x) = 0.08380 0.27781
# Poissons Ratio (y) = 0.31360 1.06441
# Poissons Ratio (z) = 0.14160 0.14497
#
# Static dielectric constant tensor:
#      x y z
#    x 1.647910 0.000000 0.000000 
#    y 0.000000 1.646320 0.000000 
#    z 0.000000 0.000000 1.647790 
# 
# From -- ./inp_files/30748.got.cif
#   From: 2010.05.17/outbox.cif.g08.bks.cpg/sg59_16_cif.got.tgz:30748.got - 2010.06.03 14:40:33.
