data_PCOD9452853
_publ_section_title
;
Structure prediction by ZEFSAII (Michael W. Deem and Ramdas Pophale) SiO2 
 PCOD9452853
Probable space group: P M M N
;
_chemical_formula_sum "Si O2"
_cell_formula_units_Z 40
_cell_length_a 29.882242
_cell_length_b 9.359494
_cell_length_c 7.037337
_cell_angle_alpha 90.000000
_cell_angle_beta 90.000000
_cell_angle_gamma 90.000000
_cell_volume 1968.221165
_symmetry_space_group_name_H-M "P M M N"
_symmetry_group_IT_number 59
_space_group.IT_coordinate_system_code '2'
_symmetry_cell_setting 'orthorhombic'
loop_
_space_group_symop_operation_xyz
x,y,z
1/2-x,1/2-y,z
1/2+x,-y,-z
-x,1/2+y,-z
-x,-y,-z
1/2+x,1/2+y,-z
1/2-x,y,z
x,1/2-y,z
loop_
_atom_site_type_symbol
_atom_site_label
_atom_site_fract_x
_atom_site_fract_y
_atom_site_fract_z
Si Si1 0.698469 0.084480 0.144137
Si Si2 0.028677 0.911911 0.227984
Si Si3 0.553982 0.087472 0.320073
Si Si4 0.872198 0.081756 0.808289
Si Si5 0.640534 0.919592 0.418751
O O1 0.750000 0.064178 0.087547
O O2 0.693246 0.250000 0.207442
O O3 0.683651 0.979205 0.310323
O O4 0.664284 0.062619 0.971003
O O5 0.015204 0.750000 0.177196
O O6 0.040331 0.909744 0.455351
O O7 0.076323 0.948424 0.133344
O O8 0.988379 0.022823 0.209895
O O9 0.564407 0.250000 0.263127
O O10 0.597299 0.987763 0.314226
O O11 0.871854 0.250000 0.750914
O O12 0.860793 0.983301 0.630092
O O13 0.637989 0.750000 0.418927
#
# Coordination Sequence:
#
# PCOD9452853 Si02
#       5
#     8   8   8   8   8
#     4  10  22  41  63  84 108 142 187 237 284 333
#     4   8  14  26  47  77 111 143 179 227 278 326
#     4   9  16  28  49  77 110 148 189 227 266 322
#     4   9  19  37  60  85 113 148 190 233 279 333
#     4  11  22  36  57  85 118 152 185 226 279 335
#
# _framework density 20.322918000000001
#
# number of rings (size 3 to 8) (size 9 to 14) (size 15 to 20)
#    0.000    2.600    0.000    3.600    0.000    6.800 
#    0.000    3.000    0.000    0.000    0.000    0.000 
#    0.000    0.000    0.000    0.000    0.000    0.000 
#
# Total GULP energy -223548.394270 kJ/mol
# GULP energy per Si atom -5588.709857 kJ/mol
# Density = 2.027666 g / cm^3
# Si number density = 20.322918 Si / 1000 Ang^3
#
#
#
# Elastic Constant Matrix: (Units=GPa)
#
#
# Indices 1 2 3 4 5 6 
#
# 1 119.2657 71.1753 34.1400 0.0000 0.0000 0.0000
# 2 71.1753 129.5406 54.6203 0.0000 0.0000 0.0000
# 3 34.1400 54.6203 57.9980 0.0000 0.0000 0.0000
# 4 0.0000 0.0000 0.0000 16.2299 0.0000 0.0000
# 5 0.0000 0.0000 0.0000 0.0000 32.6500 0.0000
# 6 0.0000 0.0000 0.0000 0.0000 0.0000 30.1086
#
#
#
# Elastic Compliance Matrix: (Units=1/GPa)
#
#
# Indices 1 2 3 4 5 6 
#
# 1 0.012552 -0.006271 -0.001482 0.000000 0.000000 0.000000
# 2 -0.006271 0.015937 -0.011318 0.000000 0.000000 0.000000
# 3 -0.001482 -0.011318 0.028773 0.000000 0.000000 0.000000
# 4 0.000000 0.000000 0.000000 0.061615 0.000000 0.000000
# 5 0.000000 0.000000 0.000000 0.000000 0.030628 0.000000
# 6 0.000000 0.000000 0.000000 0.000000 0.000000 0.033213
#
#
# Mechanical properties :
#
#
# Convention : Reuss Voigt Hill
#
# Bulk Modulus (GPa) = 52.30272 69.63063 60.96668
# Shear Modulus (GPa) = 22.00381 25.58893 23.79637
#
# Velocity S-wave (km/s) = 3.29402 3.55225 3.42557
# Velocity P-wave (km/s) = 6.34501 7.15270 6.76093
#
# Compressibility (1/GPa) = 0.01911946
#
# Stress axis : x y z
#
# Youngs Moduli (GPa) = 79.67124 62.74541 34.75486
#
# Poissons Ratio (x) = 0.39350 0.05151
# Poissons Ratio (y) = 0.49965 0.39334
# Poissons Ratio (z) = 0.11809 0.71013
#
# Static dielectric constant tensor:
#      x y z
#    x 1.714850 0.000000 0.000000 
#    y 0.000000 1.676330 0.000000 
#    z 0.000000 0.000000 1.785690 
# 
# From -- ./inp_files/6038.got.cif
#   From: 2010.05.17/outbox.cif.g08.bks.cpg/sg59_4_cif.got.tgz:6038.got - 2010.06.03 14:40:33.
