data_PCOD9452862
_publ_section_title
;
Structure prediction by ZEFSAII (Michael W. Deem and Ramdas Pophale) SiO2 
 PCOD9452862
Probable space group: P M M N
;
_chemical_formula_sum "Si O2"
_cell_formula_units_Z 56
_cell_length_a 16.286687
_cell_length_b 8.682117
_cell_length_c 20.037142
_cell_angle_alpha 90.000000
_cell_angle_beta 90.000000
_cell_angle_gamma 90.000000
_cell_volume 2833.310429
_symmetry_space_group_name_H-M "P M M N"
_symmetry_group_IT_number 59
_space_group.IT_coordinate_system_code '2'
_symmetry_cell_setting 'orthorhombic'
loop_
_space_group_symop_operation_xyz
x,y,z
1/2-x,1/2-y,z
1/2+x,-y,-z
-x,1/2+y,-z
-x,-y,-z
1/2+x,1/2+y,-z
1/2-x,y,z
x,1/2-y,z
loop_
_atom_site_type_symbol
_atom_site_label
_atom_site_fract_x
_atom_site_fract_y
_atom_site_fract_z
Si Si1 0.915138 0.069817 0.211611
Si Si2 0.849222 0.571384 0.077639
Si Si3 0.499724 0.065187 0.574431
Si Si4 0.659223 0.437840 0.658106
Si Si5 0.344786 0.064473 0.068665
Si Si6 0.840888 0.065757 0.351519
Si Si7 0.411400 0.931463 0.203407
O O1 0.937573 0.250000 0.213289
O O2 0.852803 0.040934 0.272209
O O3 0.879564 0.026340 0.139749
O O4 0.995752 0.968898 0.223594
O O5 0.750000 0.570702 0.075970
O O6 0.875431 0.750000 0.086588
O O7 0.876497 0.514243 0.004330
O O8 0.501417 0.250000 0.572850
O O9 0.581769 0.011430 0.613890
O O10 0.500000 0.000000 0.500000
O O11 0.417187 0.010817 0.611404
O O12 0.750000 0.486649 0.635175
O O13 0.657872 0.250000 0.657666
O O14 0.644579 0.486009 0.734941
O O15 0.250000 0.012788 0.076023
O O16 0.344594 0.250000 0.066646
O O17 0.393428 0.009235 0.132805
O O18 0.750000 0.012257 0.372269
O O19 0.845222 0.250000 0.362961
O O20 0.399251 0.750000 0.195644
#
# Coordination Sequence:
#
# PCOD9452862 Si02
#       7
#     8   8   8   8   8   8   8
#     4  11  22  36  57  84 117 153 198 252 304 357
#     4   9  19  36  56  78 109 150 196 246 301 362
#     4  11  23  41  65  94 128 162 200 245 294 355
#     4   9  19  37  61  88 119 156 197 242 295 352
#     4   9  19  36  55  78 111 150 193 245 305 361
#     4  10  22  41  64  90 123 163 204 249 304 361
#     4  11  21  35  57  84 114 150 199 250 298 358
#
# _framework density 19.764865
#
# number of rings (size 3 to 8) (size 9 to 14) (size 15 to 20)
#    0.000    2.000    1.429    3.000    0.000    4.286 
#    0.000    2.857    0.000    3.857    0.000    0.000 
#    0.000    0.000    0.000    0.000    0.000    0.000 
#
# Total GULP energy -312646.280018 kJ/mol
# GULP energy per Si atom -5582.969286 kJ/mol
# Density = 1.971988 g / cm^3
# Si number density = 19.764865 Si / 1000 Ang^3
#
#
#
# Elastic Constant Matrix: (Units=GPa)
#
#
# Indices 1 2 3 4 5 6 
#
# 1 116.3253 14.8545 55.2125 0.0000 0.0000 0.0000
# 2 14.8545 18.4776 27.5227 0.0000 0.0000 0.0000
# 3 55.2125 27.5227 128.1399 0.0000 0.0000 0.0000
# 4 0.0000 0.0000 0.0000 28.6256 0.0000 0.0000
# 5 0.0000 0.0000 0.0000 0.0000 13.3870 0.0000
# 6 0.0000 0.0000 0.0000 0.0000 0.0000 19.6582
#
#
#
# Elastic Compliance Matrix: (Units=1/GPa)
#
#
# Indices 1 2 3 4 5 6 
#
# 1 0.010891 -0.002596 -0.004135 0.000000 0.000000 0.000000
# 2 -0.002596 0.080198 -0.016107 0.000000 0.000000 0.000000
# 3 -0.004135 -0.016107 0.013045 0.000000 0.000000 0.000000
# 4 0.000000 0.000000 0.000000 0.034934 0.000000 0.000000
# 5 0.000000 0.000000 0.000000 0.000000 0.074699 0.000000
# 6 0.000000 0.000000 0.000000 0.000000 0.000000 0.050869
#
#
# Mechanical properties :
#
#
# Convention : Reuss Voigt Hill
#
# Bulk Modulus (GPa) = 17.10629 50.90247 34.00438
# Shear Modulus (GPa) = 15.16079 23.35771 19.25925
#
# Velocity S-wave (km/s) = 2.77258 3.44143 3.12495
# Velocity P-wave (km/s) = 4.35009 6.44990 5.50111
#
# Compressibility (1/GPa) = 0.05845802
#
# Stress axis : x y z
#
# Youngs Moduli (GPa) = 91.82141 12.46912 76.65687
#
# Poissons Ratio (x) = 0.03237 0.31697
# Poissons Ratio (y) = 0.23839 1.23470
# Poissons Ratio (z) = 0.37967 0.20084
#
# Static dielectric constant tensor:
#      x y z
#    x 1.701840 0.000000 0.000000 
#    y 0.000000 1.676420 0.000000 
#    z 0.000000 0.000000 1.687680 
# 
# From -- ./inp_files/30301.got.cif
#   From: 2010.05.17/outbox.cif.g08.bks.cpg/sg59_16_cif.got.tgz:30301.got - 2010.06.03 14:40:33.
