data_PCOD9452696
_publ_section_title
;
Structure prediction by ZEFSAII (Michael W. Deem and Ramdas Pophale) SiO2 
 PCOD9452696
Probable space group: P M M N
;
_chemical_formula_sum "Si O2"
_cell_formula_units_Z 64
_cell_length_a 24.884470
_cell_length_b 14.852990
_cell_length_c 7.858123
_cell_angle_alpha 90.000000
_cell_angle_beta 90.000000
_cell_angle_gamma 90.000000
_cell_volume 2904.431287
_symmetry_space_group_name_H-M "P M M N"
_symmetry_group_IT_number 59
_space_group.IT_coordinate_system_code '2'
_symmetry_cell_setting 'orthorhombic'
loop_
_space_group_symop_operation_xyz
x,y,z
1/2-x,1/2-y,z
1/2+x,-y,-z
-x,1/2+y,-z
-x,-y,-z
1/2+x,1/2+y,-z
1/2-x,y,z
x,1/2-y,z
loop_
_atom_site_type_symbol
_atom_site_label
_atom_site_fract_x
_atom_site_fract_y
_atom_site_fract_z
Si Si1 0.972536 0.859623 0.695461
Si Si2 0.191442 0.532552 0.794226
Si Si3 0.645935 0.649662 0.199323
Si Si4 0.087808 0.852589 0.295327
Si Si5 0.808558 0.467448 0.794226
Si Si6 0.354065 0.149662 0.199322
Si Si7 0.527464 0.640377 0.304539
Si Si8 0.912192 0.147411 0.295327
O O1 0.977167 0.750000 0.694072
O O2 0.916682 0.878670 0.786861
O O3 0.966256 0.890385 0.500000
O O4 0.030142 0.891127 0.766149
O O5 0.250000 0.565855 0.736955
O O6 0.181067 0.431168 0.728761
O O7 0.140522 0.591788 0.745231
O O8 0.192017 0.529700 0.000000
O O9 0.651751 0.750000 0.274951
O O10 0.583318 0.621330 0.213139
O O11 0.659145 0.656668 0.000000
O O12 0.094136 0.750000 0.232523
O O13 0.140522 0.908212 0.254769
O O14 0.082143 0.849293 0.500000
O O15 0.030142 0.891127 0.233851
O O16 0.750000 0.434145 0.736955
O O17 0.818933 0.568832 0.728761
O O18 0.348249 0.250000 0.274950
O O19 0.522833 0.750000 0.305928
O O20 0.905864 0.250000 0.232523
#
# Coordination Sequence:
#
# PCOD9452696 Si02
#       8
#     8   8   8   8   8   8   8   8
#     4   8  15  30  52  77 103 129 160 201 251 305
#     4  10  22  37  51  72 102 135 173 213 251 293
#     4   9  18  33  53  76 102 133 168 206 249 298
#     4   9  19  36  56  77 102 133 167 204 250 303
#     4  10  22  37  51  72 102 135 173 213 251 293
#     4   9  18  33  53  76 102 133 168 206 249 298
#     4   8  15  30  52  77 103 129 160 201 251 305
#     4   9  19  36  56  77 102 133 167 204 250 303
#
# _framework density 22.035295000000001
#
# number of rings (size 3 to 8) (size 9 to 14) (size 15 to 20)
#    0.000    3.000    0.000    1.500    0.000    5.000 
#    0.000   12.500    0.000    0.000    0.000    5.250 
#    0.000    0.000    0.000    0.000    0.000    0.000 
#
# Total GULP energy -356967.472845 kJ/mol
# GULP energy per Si atom -5577.616763 kJ/mol
# Density = 2.198514 g / cm^3
# Si number density = 22.035295 Si / 1000 Ang^3
#
#
#
# Elastic Constant Matrix: (Units=GPa)
#
#
# Indices 1 2 3 4 5 6 
#
# 1 52.8529 7.5510 -7.4574 0.0000 0.0000 0.0000
# 2 7.5510 44.1854 -1.3338 0.0000 0.0000 0.0000
# 3 -7.4574 -1.3338 20.4625 0.0000 0.0000 0.0000
# 4 0.0000 0.0000 0.0000 -98.9637 0.0000 0.0000
# 5 0.0000 0.0000 0.0000 0.0000 24.2931 0.0000
# 6 0.0000 0.0000 0.0000 0.0000 0.0000 20.4842
#
#
#
# Elastic Compliance Matrix: (Units=1/GPa)
#
#
# Indices 1 2 3 4 5 6 
#
# 1 0.020407 -0.003269 0.007224 0.000000 0.000000 0.000000
# 2 -0.003269 0.023200 0.000321 0.000000 0.000000 0.000000
# 3 0.007224 0.000321 0.051523 0.000000 0.000000 0.000000
# 4 0.000000 0.000000 0.000000 -0.010105 0.000000 0.000000
# 5 0.000000 0.000000 0.000000 0.000000 0.041164 0.000000
# 6 0.000000 0.000000 0.000000 0.000000 0.000000 0.048818
#
#
# Mechanical properties :
#
#
# Convention : Reuss Voigt Hill
#
# Bulk Modulus (GPa) = 9.64494 12.78005 11.21250
# Shear Modulus (GPa) = 24.87345 -2.92122 10.97611
#
# Velocity S-wave (km/s) = 3.36341 -1.15264 2.23427
# Velocity P-wave (km/s) = 4.41247 2.01022 3.42862
#
# Compressibility (1/GPa) = 0.10368135
#
# Stress axis : x y z
#
# Youngs Moduli (GPa) = 49.00325 43.10290 19.40864
#
# Poissons Ratio (x) = 0.14092 -0.14021
# Poissons Ratio (y) = 0.16021 -0.00622
# Poissons Ratio (z) = -0.35400 -0.01382
#
# Static dielectric constant tensor:
#      x y z
#    x 1.810380 0.000000 0.000000 
#    y 0.000000 1.844490 0.000000 
#    z 0.000000 0.000000 1.834240 
# 
# From -- ./inp_files/12231.got.cif
#   From: 2010.05.17/outbox.cif.g08.bks.cpg/sg59_7_cif.got.tgz:12231.got - 2010.06.03 14:40:33.
