data_PCOD9452238
_publ_section_title
;
Structure prediction by ZEFSAII (Michael W. Deem and Ramdas Pophale) SiO2 
 PCOD9452238
Probable space group: P M M N
;
_chemical_formula_sum "Si O2"
_cell_formula_units_Z 56
_cell_length_a 21.235477
_cell_length_b 18.127555
_cell_length_c 5.717743
_cell_angle_alpha 90.000000
_cell_angle_beta 90.000000
_cell_angle_gamma 90.000000
_cell_volume 2201.029600
_symmetry_space_group_name_H-M "P M M N"
_symmetry_group_IT_number 59
_space_group.IT_coordinate_system_code '2'
_symmetry_cell_setting 'orthorhombic'
loop_
_space_group_symop_operation_xyz
x,y,z
1/2-x,1/2-y,z
1/2+x,-y,-z
-x,1/2+y,-z
-x,-y,-z
1/2+x,1/2+y,-z
1/2-x,y,z
x,1/2-y,z
loop_
_atom_site_type_symbol
_atom_site_label
_atom_site_fract_x
_atom_site_fract_y
_atom_site_fract_z
Si Si1 0.507538 0.903698 0.343834
Si Si2 0.182283 0.554912 0.789498
Si Si3 0.000807 0.168297 0.161209
Si Si4 0.840686 0.893551 0.346881
Si Si5 0.853144 0.865391 0.835073
Si Si6 0.898261 0.468063 0.823727
Si Si7 0.322250 0.666398 0.403720
O O1 0.485181 0.869126 0.588723
O O2 0.582814 0.901285 0.343798
O O3 0.466687 0.976994 0.288740
O O4 0.487703 0.863128 0.098951
O O5 0.250000 0.551157 0.923625
O O6 0.183660 0.477973 0.646859
O O7 0.182402 0.633407 0.663969
O O8 0.113953 0.549484 0.906994
O O9 0.973975 0.250000 0.170040
O O10 0.077502 0.169450 0.162213
O O11 0.823140 0.849171 0.581907
O O12 0.824056 0.857547 0.094328
O O13 0.864144 0.953592 0.812102
O O14 0.862491 0.398945 0.710710
O O15 0.250000 0.666676 0.314645
O O16 0.346350 0.750000 0.386901
#
# Coordination Sequence:
#
# PCOD9452238 Si02
#       7
#     8   8   8   8   8   8   8
#     4  10  23  35  60  83 118 155 191 239 299 353
#     4  10  21  37  58  80 110 149 194 247 292 344
#     4  10  21  38  54  82 119 155 191 231 287 358
#     4   9  18  36  54  86 112 142 189 234 293 351
#     4   9  19  33  58  80 110 148 188 235 289 348
#     4  11  22  37  57  81 113 148 203 244 299 346
#     4  10  22  39  56  77 110 154 199 245 295 339
#
# _framework density 25.442639
#
# number of rings (size 3 to 8) (size 9 to 14) (size 15 to 20)
#    0.000    2.143    1.429    0.857    2.000    9.143 
#    0.000    1.429    0.000    0.000    0.000    0.000 
#    0.000  153.143    0.000    0.000    0.000    0.000 
#
# Total GULP energy -311899.428364 kJ/mol
# GULP energy per Si atom -5569.632649 kJ/mol
# Density = 2.538473 g / cm^3
# Si number density = 25.442639 Si / 1000 Ang^3
#
#
#
# Elastic Constant Matrix: (Units=GPa)
#
#
# Indices 1 2 3 4 5 6 
#
# 1 94.2990 -4.2083 20.3158 0.0000 0.0000 0.0000
# 2 -4.2083 63.9866 27.7639 0.0000 0.0000 0.0000
# 3 20.3158 27.7639 182.1913 0.0000 0.0000 0.0000
# 4 0.0000 0.0000 0.0000 9.5894 0.0000 0.0000
# 5 0.0000 0.0000 0.0000 0.0000 -30.3407 0.0000
# 6 0.0000 0.0000 0.0000 0.0000 0.0000 18.3985
#
#
#
# Elastic Compliance Matrix: (Units=1/GPa)
#
#
# Indices 1 2 3 4 5 6 
#
# 1 0.010972 0.001341 -0.001428 0.000000 0.000000 0.000000
# 2 0.001341 0.016899 -0.002725 0.000000 0.000000 0.000000
# 3 -0.001428 -0.002725 0.006063 0.000000 0.000000 0.000000
# 4 0.000000 0.000000 0.000000 0.104282 0.000000 0.000000
# 5 0.000000 0.000000 0.000000 0.000000 -0.032959 0.000000
# 6 0.000000 0.000000 0.000000 0.000000 0.000000 0.054352
#
#
# Mechanical properties :
#
#
# Convention : Reuss Voigt Hill
#
# Bulk Modulus (GPa) = 35.32180 47.57996 41.45088
# Shear Modulus (GPa) = 28.62554 19.30312 23.96433
#
# Velocity S-wave (km/s) = 3.35789 2.75742 3.07236
# Velocity P-wave (km/s) = 5.38024 5.37395 5.37709
#
# Compressibility (1/GPa) = 0.02831113
#
# Stress axis : x y z
#
# Youngs Moduli (GPa) = 91.14078 59.17596 164.93018
#
# Poissons Ratio (x) = -0.07936 0.23550
# Poissons Ratio (y) = -0.12223 0.44939
# Poissons Ratio (z) = 0.13014 0.16124
#
# Static dielectric constant tensor:
#      x y z
#    x 2.302100 0.000000 0.000000 
#    y 0.000000 2.009750 0.000000 
#    z 0.000000 0.000000 2.191960 
# 
# From -- ./inp_files/3847.got.cif
#   From: 2010.05.17/outbox.cif.g08.bks.cpg/sg59_2_cif.got.tgz:3847.got - 2010.06.03 14:40:33.
