data_PCOD9452398
_publ_section_title
;
Structure prediction by ZEFSAII (Michael W. Deem and Ramdas Pophale) SiO2 
 PCOD9452398
Probable space group: P M M N
;
_chemical_formula_sum "Si O2"
_cell_formula_units_Z 64
_cell_length_a 8.830094
_cell_length_b 14.358637
_cell_length_c 26.730203
_cell_angle_alpha 90.000000
_cell_angle_beta 90.000000
_cell_angle_gamma 90.000000
_cell_volume 3389.072036
_symmetry_space_group_name_H-M "P M M N"
_symmetry_group_IT_number 59
_space_group.IT_coordinate_system_code '2'
_symmetry_cell_setting 'orthorhombic'
loop_
_space_group_symop_operation_xyz
x,y,z
1/2-x,1/2-y,z
1/2+x,-y,-z
-x,1/2+y,-z
-x,-y,-z
1/2+x,1/2+y,-z
1/2-x,y,z
x,1/2-y,z
loop_
_atom_site_type_symbol
_atom_site_label
_atom_site_fract_x
_atom_site_fract_y
_atom_site_fract_z
Si Si1 0.931147 0.640161 0.923334
Si Si2 0.930428 0.641548 0.132396
Si Si3 0.065375 0.958379 0.626626
Si Si4 0.068629 0.032809 0.177587
Si Si5 0.077537 0.863406 0.026830
Si Si6 0.426969 0.638476 0.524449
Si Si7 0.067799 0.144743 0.581630
Si Si8 0.066602 0.858650 0.728509
O O1 0.750000 0.632224 0.929081
O O2 0.966636 0.750000 0.917355
O O3 0.977406 0.586695 0.873349
O O4 0.008016 0.605117 0.974262
O O5 0.750000 0.633896 0.135704
O O6 0.972720 0.750000 0.139981
O O7 0.008395 0.571769 0.170947
O O8 0.983883 0.614080 0.076460
O O9 0.250000 0.954618 0.626856
O O10 0.016509 0.907832 0.575475
O O11 0.015662 0.906321 0.676594
O O12 0.019237 0.066117 0.620894
O O13 0.250000 0.033771 0.180381
O O14 0.999864 0.085578 0.224828
O O15 0.250000 0.895886 0.032797
O O16 0.078337 0.750000 0.024417
O O17 0.250000 0.613245 0.517686
O O18 0.435297 0.750000 0.530563
O O19 0.515633 0.615076 0.473880
O O20 0.250000 0.147296 0.581930
O O21 0.011537 0.250000 0.590912
O O22 0.250000 0.862681 0.730406
O O23 0.022662 0.750000 0.729988
#
# Coordination Sequence:
#
# PCOD9452398 Si02
#       8
#     8   8   8   8   8   8   8   8
#     4   9  18  33  52  75 106 143 179 214 258 317
#     4  10  21  38  59  81 107 140 178 219 262 314
#     4   9  17  31  51  73  99 135 178 218 259 312
#     4  11  23  38  57  80 107 140 177 221 274 325
#     4   9  17  30  51  80 111 141 174 215 263 313
#     4   9  16  27  46  72 101 134 172 213 258 309
#     4   9  17  29  46  71 104 138 170 208 256 310
#     4  10  21  38  59  80 103 134 176 225 271 318
#
# _framework density 18.884225000000001
#
# number of rings (size 3 to 8) (size 9 to 14) (size 15 to 20)
#    0.000    2.500    0.000    2.250    0.000    6.000 
#    0.000    3.125    0.000    3.750    0.000    0.000 
#    0.000    0.000    0.000    0.000    0.000    0.000 
#
# Total GULP energy -357251.878920 kJ/mol
# GULP energy per Si atom -5582.060608 kJ/mol
# Density = 1.884124 g / cm^3
# Si number density = 18.884225 Si / 1000 Ang^3
#
#
#
# Elastic Constant Matrix: (Units=GPa)
#
#
# Indices 1 2 3 4 5 6 
#
# 1 20.2083 32.4891 26.9024 0.0000 0.0000 0.0000
# 2 32.4891 121.3466 90.6458 0.0000 0.0000 0.0000
# 3 26.9024 90.6458 119.0812 0.0000 0.0000 0.0000
# 4 0.0000 0.0000 0.0000 35.5442 0.0000 0.0000
# 5 0.0000 0.0000 0.0000 0.0000 27.5173 0.0000
# 6 0.0000 0.0000 0.0000 0.0000 0.0000 17.2360
#
#
#
# Elastic Compliance Matrix: (Units=1/GPa)
#
#
# Indices 1 2 3 4 5 6 
#
# 1 0.087914 -0.020172 -0.004506 0.000000 0.000000 0.000000
# 2 -0.020172 0.023732 -0.013508 0.000000 0.000000 0.000000
# 3 -0.004506 -0.013508 0.019698 0.000000 0.000000 0.000000
# 4 0.000000 0.000000 0.000000 0.028134 0.000000 0.000000
# 5 0.000000 0.000000 0.000000 0.000000 0.036341 0.000000
# 6 0.000000 0.000000 0.000000 0.000000 0.000000 0.058018
#
#
# Mechanical properties :
#
#
# Convention : Reuss Voigt Hill
#
# Bulk Modulus (GPa) = 18.19101 62.30119 40.24610
# Shear Modulus (GPa) = 14.34586 23.43277 18.88932
#
# Velocity S-wave (km/s) = 2.75921 3.52641 3.16614
# Velocity P-wave (km/s) = 4.45026 7.04582 5.89272
#
# Compressibility (1/GPa) = 0.05497221
#
# Stress axis : x y z
#
# Youngs Moduli (GPa) = 11.37475 42.13730 50.76656
#
# Poissons Ratio (x) = 0.84998 0.22877
# Poissons Ratio (y) = 0.22945 0.68575
# Poissons Ratio (z) = 0.05126 0.56919
#
# Static dielectric constant tensor:
#      x y z
#    x 1.521500 0.000000 0.000000 
#    y 0.000000 1.698710 0.000000 
#    z 0.000000 0.000000 1.617290 
# 
# From -- ./inp_files/31592.got.cif
#   From: 2010.05.17/outbox.cif.g08.bks.cpg/sg59_16_cif.got.tgz:31592.got - 2010.06.03 14:40:33.
