data_PCOD9452077
_publ_section_title
;
Structure prediction by ZEFSAII (Michael W. Deem and Ramdas Pophale) SiO2 
 PCOD9452077
Probable space group: P M M N
;
_chemical_formula_sum "Si O2"
_cell_formula_units_Z 58
_cell_length_a 14.619468
_cell_length_b 15.773605
_cell_length_c 9.973545
_cell_angle_alpha 90.000000
_cell_angle_beta 90.000000
_cell_angle_gamma 90.000000
_cell_volume 2299.916567
_symmetry_space_group_name_H-M "P M M N"
_symmetry_group_IT_number 59
_space_group.IT_coordinate_system_code '2'
_symmetry_cell_setting 'orthorhombic'
loop_
_space_group_symop_operation_xyz
x,y,z
1/2-x,1/2-y,z
1/2+x,-y,-z
-x,1/2+y,-z
-x,-y,-z
1/2+x,1/2+y,-z
1/2-x,y,z
x,1/2-y,z
loop_
_atom_site_type_symbol
_atom_site_label
_atom_site_fract_x
_atom_site_fract_y
_atom_site_fract_z
Si Si1 0.612430 0.339310 0.255583
Si Si2 0.854617 0.657715 0.423578
Si Si3 0.357843 0.652798 0.323193
Si Si4 0.646948 0.021385 0.457824
Si Si5 0.250000 0.250000 0.918150
Si Si6 0.398232 0.598471 0.021051
Si Si7 0.393082 0.342140 0.265965
Si Si8 0.381586 0.407491 0.993338
O O1 0.640667 0.250000 0.316451
O O2 0.653024 0.415740 0.335102
O O3 0.631983 0.341031 0.098834
O O4 0.502526 0.347539 0.274395
O O5 0.750000 0.660007 0.371552
O O6 0.894721 0.750000 0.385532
O O7 0.896522 0.565393 0.398919
O O8 0.854794 0.655182 0.585867
O O9 0.250000 0.656496 0.355074
O O10 0.393281 0.750000 0.340678
O O11 0.395101 0.578399 0.422287
O O12 0.367459 0.624055 0.168969
O O13 0.750000 0.996989 0.501155
O O14 0.329083 0.328477 0.926070
O O15 0.509214 0.602782 0.024596
O O16 0.365760 0.506461 0.965820
O O17 0.368523 0.250000 0.208813
O O18 0.360174 0.404946 0.153399
#
# Coordination Sequence:
#
# PCOD9452077 Si02
#       8
#     8   8   8   8   2   8   8   8
#     4  10  21  37  61  87 119 164 209 264 326 403
#     4   9  18  31  54  81 113 153 199 253 319 381
#     4  10  21  36  60  90 125 166 216 281 340 401
#     4  10  21  38  58  88 122 157 210 273 326 397
#     4  12  24  36  68 100 136 186 236 280 340 422
#     4  10  22  41  63  92 138 171 220 276 344 400
#     4   9  17  32  54  87 121 156 206 257 313 391
#     4  10  22  37  60  94 133 177 220 280 334 406
#
# _framework density 25.218304
#
# number of rings (size 3 to 8) (size 9 to 14) (size 15 to 20)
#    0.000    2.207    0.690    1.655    3.862    1.931 
#    0.000    0.000    1.517    0.000    0.000    0.000 
#    0.000    4.414    0.000    0.000    0.000    0.000 
#
# Total GULP energy -323208.244512 kJ/mol
# GULP energy per Si atom -5572.555940 kJ/mol
# Density = 2.516091 g / cm^3
# Si number density = 25.218304 Si / 1000 Ang^3
#
#
#
# Elastic Constant Matrix: (Units=GPa)
#
#
# Indices 1 2 3 4 5 6 
#
# 1 106.4687 39.8336 -1.5221 0.0000 0.0000 0.0000
# 2 39.8336 245.7653 47.1918 0.0000 0.0000 0.0000
# 3 -1.5221 47.1918 77.4327 0.0000 0.0000 0.0000
# 4 0.0000 0.0000 0.0000 53.9164 0.0000 0.0000
# 5 0.0000 0.0000 0.0000 0.0000 6.0088 0.0000
# 6 0.0000 0.0000 0.0000 0.0000 0.0000 31.3957
#
#
#
# Elastic Compliance Matrix: (Units=1/GPa)
#
#
# Indices 1 2 3 4 5 6 
#
# 1 0.010123 -0.001902 0.001358 0.000000 0.000000 0.000000
# 2 -0.001902 0.004965 -0.003064 0.000000 0.000000 0.000000
# 3 0.001358 -0.003064 0.014808 0.000000 0.000000 0.000000
# 4 0.000000 0.000000 0.000000 0.018547 0.000000 0.000000
# 5 0.000000 0.000000 0.000000 0.000000 0.166422 0.000000
# 6 0.000000 0.000000 0.000000 0.000000 0.000000 0.031851
#
#
# Mechanical properties :
#
#
# Convention : Reuss Voigt Hill
#
# Bulk Modulus (GPa) = 44.08685 66.74147 55.41416
# Shear Modulus (GPa) = 19.12100 41.20841 30.16471
#
# Velocity S-wave (km/s) = 2.75657 4.04675 3.46228
# Velocity P-wave (km/s) = 5.25848 6.95398 6.16479
#
# Compressibility (1/GPa) = 0.02268250
#
# Stress axis : x y z
#
# Youngs Moduli (GPa) = 98.78235 201.39430 67.52998
#
# Poissons Ratio (x) = 0.38295 -0.09170
# Poissons Ratio (y) = 0.18784 0.20688
# Poissons Ratio (z) = -0.13413 0.61698
#
# Static dielectric constant tensor:
#      x y z
#    x 2.040960 0.000000 0.000000 
#    y 0.000000 -1.855760 0.000000 
#    z 0.000000 0.000000 1.962060 
# 
# From -- ./inp_files/17793.got.cif
#   From: 2010.05.17/outbox.cif.g08.bks.cpg/sg59_9_cif.got.tgz:17793.got - 2010.06.03 14:40:33.
