data_PCOD9452326
_publ_section_title
;
Structure prediction by ZEFSAII (Michael W. Deem and Ramdas Pophale) SiO2 
 PCOD9452326
Probable space group: P M M N
;
_chemical_formula_sum "Si O2"
_cell_formula_units_Z 40
_cell_length_a 8.778232
_cell_length_b 23.177818
_cell_length_c 10.250846
_cell_angle_alpha 90.000000
_cell_angle_beta 90.000000
_cell_angle_gamma 90.000000
_cell_volume 2085.639830
_symmetry_space_group_name_H-M "P M M N"
_symmetry_group_IT_number 59
_space_group.IT_coordinate_system_code '2'
_symmetry_cell_setting 'orthorhombic'
loop_
_space_group_symop_operation_xyz
x,y,z
1/2-x,1/2-y,z
1/2+x,-y,-z
-x,1/2+y,-z
-x,-y,-z
1/2+x,1/2+y,-z
1/2-x,y,z
x,1/2-y,z
loop_
_atom_site_type_symbol
_atom_site_label
_atom_site_fract_x
_atom_site_fract_y
_atom_site_fract_z
Si Si1 0.431477 0.008986 0.354742
Si Si2 0.070023 0.315169 0.509168
Si Si3 0.069190 0.870489 0.736617
Si Si4 0.934029 0.317164 0.983371
Si Si5 0.432227 0.395375 0.754346
O O1 0.250000 0.007878 0.365225
O O2 0.485909 0.069686 0.296029
O O3 0.500000 0.000000 0.500000
O O4 0.490367 0.957313 0.263195
O O5 0.250000 0.321809 0.478885
O O6 0.045405 0.250000 0.556090
O O7 0.031662 0.359949 0.622436
O O8 0.974847 0.327905 0.380557
O O9 0.250000 0.880684 0.737475
O O10 0.025608 0.842223 0.874329
O O11 0.750000 0.319123 0.971297
O O12 0.980718 0.250000 0.970746
O O13 0.007192 0.357756 0.874174
O O14 0.250000 0.401849 0.762958
#
# Coordination Sequence:
#
# PCOD9452326 Si02
#       5
#     8   8   8   8   8
#     4  12  24  41  65  94 127 164 207 261 317 374
#     4  10  21  37  59  89 123 160 207 261 313 370
#     4  11  23  40  64  92 124 167 212 259 314 372
#     4  10  23  43  64  91 129 169 211 258 310 372
#     4  11  23  40  64  93 125 166 211 259 314 371
#
# _framework density 19.178768000000002
#
# number of rings (size 3 to 8) (size 9 to 14) (size 15 to 20)
#    0.000    1.200    2.000    4.200    0.000    5.600 
#    0.000    0.000    0.000    0.000    0.000    0.000 
#    0.000    0.000    0.000    0.000    0.000    0.000 
#
# Total GULP energy -223688.765424 kJ/mol
# GULP energy per Si atom -5592.219136 kJ/mol
# Density = 1.913512 g / cm^3
# Si number density = 19.178768 Si / 1000 Ang^3
#
#
#
# Elastic Constant Matrix: (Units=GPa)
#
#
# Indices 1 2 3 4 5 6 
#
# 1 41.9114 13.3216 19.7667 0.0000 0.0000 0.0000
# 2 13.3216 82.4545 -5.5030 0.0000 0.0000 0.0000
# 3 19.7667 -5.5030 65.9373 0.0000 0.0000 0.0000
# 4 0.0000 0.0000 0.0000 35.6212 0.0000 0.0000
# 5 0.0000 0.0000 0.0000 0.0000 33.6600 0.0000
# 6 0.0000 0.0000 0.0000 0.0000 0.0000 30.4146
#
#
#
# Elastic Compliance Matrix: (Units=1/GPa)
#
#
# Indices 1 2 3 4 5 6 
#
# 1 0.030073 -0.005491 -0.009474 0.000000 0.000000 0.000000
# 2 -0.005491 0.013198 0.002748 0.000000 0.000000 0.000000
# 3 -0.009474 0.002748 0.018235 0.000000 0.000000 0.000000
# 4 0.000000 0.000000 0.000000 0.028073 0.000000 0.000000
# 5 0.000000 0.000000 0.000000 0.000000 0.029709 0.000000
# 6 0.000000 0.000000 0.000000 0.000000 0.000000 0.032879
#
#
# Mechanical properties :
#
#
# Convention : Reuss Voigt Hill
#
# Bulk Modulus (GPa) = 26.97391 27.27487 27.12439
# Shear Modulus (GPa) = 26.46070 30.78702 28.62386
#
# Velocity S-wave (km/s) = 3.71844 4.01092 3.86745
# Velocity P-wave (km/s) = 5.70357 5.97514 5.84093
#
# Compressibility (1/GPa) = 0.03707285
#
# Stress axis : x y z
#
# Youngs Moduli (GPa) = 33.25216 75.76668 54.83887
#
# Poissons Ratio (x) = 0.41603 0.51952
# Poissons Ratio (y) = 0.18259 -0.15068
# Poissons Ratio (z) = 0.31502 -0.20818
#
# Static dielectric constant tensor:
#      x y z
#    x 1.667560 0.000000 0.000000 
#    y 0.000000 1.661980 0.000000 
#    z 0.000000 0.000000 1.634820 
# 
# From -- ./inp_files/5654.got.cif
#   From: 2010.05.17/outbox.cif.g08.bks.cpg/sg59_3_cif.got.tgz:5654.got - 2010.06.03 14:40:33.
