data_PCOD9452040
_publ_section_title
;
Structure prediction by ZEFSAII (Michael W. Deem and Ramdas Pophale) SiO2 
 PCOD9452040
Probable space group: P M M N
;
_chemical_formula_sum "Si O2"
_cell_formula_units_Z 56
_cell_length_a 14.467245
_cell_length_b 8.674348
_cell_length_c 22.473850
_cell_angle_alpha 90.000000
_cell_angle_beta 90.000000
_cell_angle_gamma 90.000000
_cell_volume 2820.331483
_symmetry_space_group_name_H-M "P M M N"
_symmetry_group_IT_number 59
_space_group.IT_coordinate_system_code '2'
_symmetry_cell_setting 'orthorhombic'
loop_
_space_group_symop_operation_xyz
x,y,z
1/2-x,1/2-y,z
1/2+x,-y,-z
-x,1/2+y,-z
-x,-y,-z
1/2+x,1/2+y,-z
1/2-x,y,z
x,1/2-y,z
loop_
_atom_site_type_symbol
_atom_site_label
_atom_site_fract_x
_atom_site_fract_y
_atom_site_fract_z
Si Si1 0.645200 0.076034 0.127488
Si Si2 0.141914 0.935802 0.170324
Si Si3 0.948373 0.564642 0.709744
Si Si4 0.848801 0.431529 0.270616
Si Si5 0.453188 0.566094 0.412473
Si Si6 0.015584 0.927230 0.064130
Si Si7 0.642899 0.064415 0.462576
O O1 0.750000 0.062532 0.105776
O O2 0.611463 0.250000 0.113153
O O3 0.647723 0.063887 0.198811
O O4 0.579633 0.950603 0.099516
O O5 0.250000 0.969796 0.167435
O O6 0.129482 0.750000 0.172935
O O7 0.090936 0.993457 0.110471
O O8 0.099572 0.005424 0.230464
O O9 0.949339 0.750000 0.711515
O O10 0.910153 0.506147 0.647111
O O11 0.054173 0.502770 0.709337
O O12 0.750000 0.498725 0.290279
O O13 0.847715 0.250000 0.287524
O O14 0.457136 0.750000 0.407089
O O15 0.389737 0.528758 0.469832
O O16 0.557759 0.503802 0.424264
O O17 0.039365 0.750000 0.054642
O O18 0.000000 0.000000 0.000000
O O19 0.750000 0.015179 0.451526
O O20 0.640934 0.250000 0.454855
#
# Coordination Sequence:
#
# PCOD9452040 Si02
#       7
#     8   8   8   8   8   8   8
#     4   9  17  33  57  81 107 141 179 221 277 341
#     4  10  23  43  62  81 112 155 198 241 292 346
#     4  11  21  35  59  88 119 153 194 240 286 343
#     4   8  15  29  51  78 107 141 178 218 272 337
#     4  10  21  36  56  86 121 155 194 240 294 350
#     4  11  23  38  59  85 114 148 191 240 292 347
#     4   9  19  38  61  82 110 154 203 247 292 343
#
# _framework density 19.855822
#
# number of rings (size 3 to 8) (size 9 to 14) (size 15 to 20)
#    0.000    2.286    1.429    2.143    0.000    3.714 
#    0.000    4.286    0.000    1.286    0.000    0.000 
#    0.000    0.000    0.000    0.000    0.000    0.000 
#
# Total GULP energy -312260.701014 kJ/mol
# GULP energy per Si atom -5576.083947 kJ/mol
# Density = 1.981063 g / cm^3
# Si number density = 19.855822 Si / 1000 Ang^3
#
#
#
# Elastic Constant Matrix: (Units=GPa)
#
#
# Indices 1 2 3 4 5 6 
#
# 1 76.4083 22.8076 44.9499 0.0000 0.0000 0.0000
# 2 22.8076 21.5151 33.6939 0.0000 0.0000 0.0000
# 3 44.9499 33.6939 135.1265 0.0000 0.0000 0.0000
# 4 0.0000 0.0000 0.0000 26.6583 0.0000 0.0000
# 5 0.0000 0.0000 0.0000 0.0000 -3.6936 0.0000
# 6 0.0000 0.0000 0.0000 0.0000 0.0000 26.0447
#
#
#
# Elastic Compliance Matrix: (Units=1/GPa)
#
#
# Indices 1 2 3 4 5 6 
#
# 1 0.019533 -0.017278 -0.002189 0.000000 0.000000 0.000000
# 2 -0.017278 0.091540 -0.017078 0.000000 0.000000 0.000000
# 3 -0.002189 -0.017078 0.012387 0.000000 0.000000 0.000000
# 4 0.000000 0.000000 0.000000 0.037512 0.000000 0.000000
# 5 0.000000 0.000000 0.000000 0.000000 -0.270737 0.000000
# 6 0.000000 0.000000 0.000000 0.000000 0.000000 0.038396
#
#
# Mechanical properties :
#
#
# Convention : Reuss Voigt Hill
#
# Bulk Modulus (GPa) = 19.85317 48.43920 34.14619
# Shear Modulus (GPa) = 270.11221 18.57510 144.34365
#
# Velocity S-wave (km/s) = 11.67613 3.06191 8.53544
# Velocity P-wave (km/s) = 13.84906 6.07855 10.69452
#
# Compressibility (1/GPa) = 0.05036978
#
# Stress axis : x y z
#
# Youngs Moduli (GPa) = 51.19562 10.92419 80.72811
#
# Poissons Ratio (x) = 0.18874 0.17675
# Poissons Ratio (y) = 0.88454 1.37869
# Poissons Ratio (z) = 0.11209 0.18657
#
# Static dielectric constant tensor:
#      x y z
#    x 1.712820 0.000000 0.000000 
#    y 0.000000 1.624180 0.000000 
#    z 0.000000 0.000000 1.722190 
# 
# From -- ./inp_files/29061.got.cif
#   From: 2010.05.17/outbox.cif.g08.bks.cpg/sg59_15_cif.got.tgz:29061.got - 2010.06.03 14:40:33.
