data_PCOD9452559
_publ_section_title
;
Structure prediction by ZEFSAII (Michael W. Deem and Ramdas Pophale) SiO2 
 PCOD9452559
Probable space group: P M M N
;
_chemical_formula_sum "Si O2"
_cell_formula_units_Z 64
_cell_length_a 9.337101
_cell_length_b 29.990426
_cell_length_c 11.845368
_cell_angle_alpha 90.000000
_cell_angle_beta 90.000000
_cell_angle_gamma 90.000000
_cell_volume 3316.983024
_symmetry_space_group_name_H-M "P M M N"
_symmetry_group_IT_number 59
_space_group.IT_coordinate_system_code '2'
_symmetry_cell_setting 'orthorhombic'
loop_
_space_group_symop_operation_xyz
x,y,z
1/2-x,1/2-y,z
1/2+x,-y,-z
-x,1/2+y,-z
-x,-y,-z
1/2+x,1/2+y,-z
1/2-x,y,z
x,1/2-y,z
loop_
_atom_site_type_symbol
_atom_site_label
_atom_site_fract_x
_atom_site_fract_y
_atom_site_fract_z
Si Si1 0.581141 0.870923 0.034156
Si Si2 0.078725 0.200462 0.789268
Si Si3 0.583613 0.035573 0.659860
Si Si4 0.922928 0.038907 0.928200
Si Si5 0.083932 0.063916 0.443465
Si Si6 0.915505 0.801550 0.828419
Si Si7 0.413147 0.642559 0.652123
Si Si8 0.907830 0.300221 0.569444
O O1 0.750000 0.883388 0.047707
O O2 0.528250 0.841429 0.139362
O O3 0.485259 0.914609 0.024491
O O4 0.573821 0.835862 0.931882
O O5 0.250000 0.200920 0.799427
O O6 0.027698 0.250000 0.826357
O O7 0.028888 0.194546 0.661852
O O8 0.750000 0.050085 0.651239
O O9 0.542751 0.037468 0.792530
O O10 0.490196 0.062099 0.567173
O O11 0.575288 0.984685 0.614789
O O12 0.750000 0.035765 0.938531
O O13 0.000000 0.000000 0.000000
O O14 0.250000 0.075785 0.456616
O O15 0.006306 0.098309 0.360445
O O16 0.750000 0.802854 0.788739
O O17 0.946519 0.750000 0.858681
O O18 0.019067 0.821163 0.734491
O O19 0.250000 0.632305 0.684181
O O20 0.415047 0.664570 0.528895
O O21 0.750000 0.303565 0.624683
O O22 0.918570 0.250000 0.521667
#
# Coordination Sequence:
#
# PCOD9452559 Si02
#       8
#     8   8   8   8   8   8   8   8
#     4  10  22  40  62  89 120 155 199 250 304 356
#     4   9  18  34  58  87 118 152 192 239 289 347
#     4   9  21  42  63  86 120 157 195 247 306 360
#     4  11  25  43  64  90 123 161 203 249 303 363
#     4  10  21  38  63  91 118 154 199 246 299 363
#     4  10  22  41  64  88 119 161 207 254 304 362
#     4  11  23  37  57  86 122 158 198 247 301 359
#     4   9  19  35  53  76 112 154 188 226 282 341
#
# _framework density 19.294640999999999
#
# number of rings (size 3 to 8) (size 9 to 14) (size 15 to 20)
#    0.000    2.125    0.000    1.875    3.500    5.750 
#    0.000    1.250    0.000    2.250    0.000    0.000 
#    0.000    0.000    0.000    0.000    0.000    0.000 
#
# Total GULP energy -357047.756164 kJ/mol
# GULP energy per Si atom -5578.871190 kJ/mol
# Density = 1.925073 g / cm^3
# Si number density = 19.294641 Si / 1000 Ang^3
#
#
#
# Elastic Constant Matrix: (Units=GPa)
#
#
# Indices 1 2 3 4 5 6 
#
# 1 76.3270 49.3390 33.1222 0.0000 0.0000 0.0000
# 2 49.3390 71.0714 20.9602 0.0000 0.0000 0.0000
# 3 33.1222 20.9602 48.0167 0.0000 0.0000 0.0000
# 4 0.0000 0.0000 0.0000 45.0570 0.0000 0.0000
# 5 0.0000 0.0000 0.0000 0.0000 84.2746 0.0000
# 6 0.0000 0.0000 0.0000 0.0000 0.0000 29.6995
#
#
#
# Elastic Compliance Matrix: (Units=1/GPa)
#
#
# Indices 1 2 3 4 5 6 
#
# 1 0.029559 -0.016650 -0.013122 0.000000 0.000000 0.000000
# 2 -0.016650 0.025529 0.000342 0.000000 0.000000 0.000000
# 3 -0.013122 0.000342 0.029728 0.000000 0.000000 0.000000
# 4 0.000000 0.000000 0.000000 0.022194 0.000000 0.000000
# 5 0.000000 0.000000 0.000000 0.000000 0.011866 0.000000
# 6 0.000000 0.000000 0.000000 0.000000 0.000000 0.033671
#
#
# Mechanical properties :
#
#
# Convention : Reuss Voigt Hill
#
# Bulk Modulus (GPa) = 38.52789 44.69533 41.61161
# Shear Modulus (GPa) = 22.72127 37.93913 30.33020
#
# Velocity S-wave (km/s) = 3.43533 4.43911 3.96908
# Velocity P-wave (km/s) = 5.97887 7.03486 6.52825
#
# Compressibility (1/GPa) = 0.02595522
#
# Stress axis : x y z
#
# Youngs Moduli (GPa) = 33.83095 39.17186 33.63811
#
# Poissons Ratio (x) = 0.65223 0.44138
# Poissons Ratio (y) = 0.56330 -0.01150
# Poissons Ratio (z) = 0.44392 -0.01339
#
# Static dielectric constant tensor:
#      x y z
#    x 1.667250 0.000000 0.000000 
#    y 0.000000 1.694550 0.000000 
#    z 0.000000 0.000000 1.682420 
# 
# From -- ./inp_files/14877.got.cif
#   From: 2010.05.17/outbox.cif.g08.bks.cpg/sg59_8_cif.got.tgz:14877.got - 2010.06.03 14:40:33.
