data_PCOD9452041
_publ_section_title
;
Structure prediction by ZEFSAII (Michael W. Deem and Ramdas Pophale) SiO2 
 PCOD9452041
Probable space group: P M M N
;
_chemical_formula_sum "Si O2"
_cell_formula_units_Z 56
_cell_length_a 14.783788
_cell_length_b 8.271031
_cell_length_c 22.350051
_cell_angle_alpha 90.000000
_cell_angle_beta 90.000000
_cell_angle_gamma 90.000000
_cell_volume 2732.900960
_symmetry_space_group_name_H-M "P M M N"
_symmetry_group_IT_number 59
_space_group.IT_coordinate_system_code '2'
_symmetry_cell_setting 'orthorhombic'
loop_
_space_group_symop_operation_xyz
x,y,z
1/2-x,1/2-y,z
1/2+x,-y,-z
-x,1/2+y,-z
-x,-y,-z
1/2+x,1/2+y,-z
1/2-x,y,z
x,1/2-y,z
loop_
_atom_site_type_symbol
_atom_site_label
_atom_site_fract_x
_atom_site_fract_y
_atom_site_fract_z
Si Si1 0.519013 0.944175 0.432830
Si Si2 0.544988 0.556443 0.212881
Si Si3 0.844892 0.057546 0.634324
Si Si4 0.644999 0.054840 0.965973
Si Si5 0.043532 0.556609 0.912702
Si Si6 0.852458 0.056877 0.332024
Si Si7 0.346335 0.557855 0.222323
O O1 0.520909 0.750000 0.431938
O O2 0.434015 0.010055 0.394735
O O3 0.500000 0.000000 0.500000
O O4 0.604969 0.002432 0.395104
O O5 0.539556 0.750000 0.216845
O O6 0.585719 0.506690 0.149322
O O7 0.591178 0.499666 0.273982
O O8 0.442961 0.486829 0.206861
O O9 0.750000 0.988074 0.611741
O O10 0.844798 0.250000 0.621319
O O11 0.845776 0.045728 0.705650
O O12 0.750000 0.000244 0.955438
O O13 0.647655 0.250000 0.963151
O O14 0.560436 0.002609 0.923842
O O15 0.606835 0.005203 0.031459
O O16 0.041685 0.750000 0.911962
O O17 0.750000 0.995835 0.326415
O O18 0.851935 0.250000 0.331243
O O19 0.250000 0.491162 0.199806
O O20 0.346552 0.750000 0.206962
#
# Coordination Sequence:
#
# PCOD9452041 Si02
#       7
#     8   8   8   8   8   8   8
#     4  11  22  38  61  89 118 152 194 243 296 355
#     4  11  21  36  60  89 120 156 198 245 297 357
#     4   8  14  28  52  79 105 136 176 220 271 334
#     4   9  19  38  61  82 111 156 206 251 297 352
#     4  10  21  36  56  87 122 156 196 246 301 358
#     4  11  25  44  63  84 116 160 206 253 306 356
#     4   8  14  27  50  79 107 138 178 223 275 339
#
# _framework density 20.491046000000001
#
# number of rings (size 3 to 8) (size 9 to 14) (size 15 to 20)
#    0.000    2.286    1.429    2.571    0.000    3.714 
#    0.000    4.286    0.000    3.429    0.000    0.000 
#    0.000    0.000    0.000    0.000    0.000    0.000 
#
# Total GULP energy -312061.980993 kJ/mol
# GULP energy per Si atom -5572.535375 kJ/mol
# Density = 2.044441 g / cm^3
# Si number density = 20.491046 Si / 1000 Ang^3
#
#
#
# Elastic Constant Matrix: (Units=GPa)
#
#
# Indices 1 2 3 4 5 6 
#
# 1 109.9480 16.7203 47.0867 0.0000 0.0000 0.0000
# 2 16.7203 30.9195 16.4889 0.0000 0.0000 0.0000
# 3 47.0867 16.4889 108.8651 0.0000 0.0000 0.0000
# 4 0.0000 0.0000 0.0000 27.7280 0.0000 0.0000
# 5 0.0000 0.0000 0.0000 0.0000 2.8728 0.0000
# 6 0.0000 0.0000 0.0000 0.0000 0.0000 19.5757
#
#
#
# Elastic Compliance Matrix: (Units=1/GPa)
#
#
# Indices 1 2 3 4 5 6 
#
# 1 0.011581 -0.003907 -0.004417 0.000000 0.000000 0.000000
# 2 -0.003907 0.036502 -0.003839 0.000000 0.000000 0.000000
# 3 -0.004417 -0.003839 0.011678 0.000000 0.000000 0.000000
# 4 0.000000 0.000000 0.000000 0.036065 0.000000 0.000000
# 5 0.000000 0.000000 0.000000 0.000000 0.348090 0.000000
# 6 0.000000 0.000000 0.000000 0.000000 0.000000 0.051084
#
#
# Mechanical properties :
#
#
# Convention : Reuss Voigt Hill
#
# Bulk Modulus (GPa) = 28.22102 45.59160 36.90631
# Shear Modulus (GPa) = 9.41376 21.33106 15.37241
#
# Velocity S-wave (km/s) = 2.14571 3.22994 2.74195
# Velocity P-wave (km/s) = 4.46554 6.01730 5.29853
#
# Compressibility (1/GPa) = 0.03543458
#
# Stress axis : x y z
#
# Youngs Moduli (GPa) = 86.34705 27.39574 85.63321
#
# Poissons Ratio (x) = 0.10704 0.37827
# Poissons Ratio (y) = 0.33736 0.32872
# Poissons Ratio (z) = 0.38143 0.10517
#
# Static dielectric constant tensor:
#      x y z
#    x 1.791680 0.000000 0.000000 
#    y 0.000000 1.717770 0.000000 
#    z 0.000000 0.000000 1.746760 
# 
# From -- ./inp_files/30336.got.cif
#   From: 2010.05.17/outbox.cif.g08.bks.cpg/sg59_16_cif.got.tgz:30336.got - 2010.06.03 14:40:33.
