data_PCOD9452347
_publ_section_title
;
Structure prediction by ZEFSAII (Michael W. Deem and Ramdas Pophale) SiO2 
 PCOD9452347
Probable space group: P M M N
;
_chemical_formula_sum "Si O2"
_cell_formula_units_Z 56
_cell_length_a 20.217464
_cell_length_b 8.613191
_cell_length_c 16.057106
_cell_angle_alpha 90.000000
_cell_angle_beta 90.000000
_cell_angle_gamma 90.000000
_cell_volume 2796.134324
_symmetry_space_group_name_H-M "P M M N"
_symmetry_group_IT_number 59
_space_group.IT_coordinate_system_code '2'
_symmetry_cell_setting 'orthorhombic'
loop_
_space_group_symop_operation_xyz
x,y,z
1/2-x,1/2-y,z
1/2+x,-y,-z
-x,1/2+y,-z
-x,-y,-z
1/2+x,1/2+y,-z
1/2-x,y,z
x,1/2-y,z
loop_
_atom_site_type_symbol
_atom_site_label
_atom_site_fract_x
_atom_site_fract_y
_atom_site_fract_z
Si Si1 0.674995 0.435926 0.016896
Si Si2 0.176635 0.437594 0.170017
Si Si3 0.826748 0.563631 0.315999
Si Si4 0.175599 0.563159 0.501476
Si Si5 0.460459 0.064307 0.244907
Si Si6 0.583377 0.563845 0.160130
Si Si7 0.958079 0.436125 0.576965
O O1 0.750000 0.478416 0.044978
O O2 0.670244 0.250000 0.015764
O O3 0.620801 0.504809 0.078601
O O4 0.667675 0.500033 0.923568
O O5 0.250000 0.487103 0.199350
O O6 0.175910 0.250000 0.167304
O O7 0.114299 0.488378 0.224600
O O8 0.750000 0.526152 0.297293
O O9 0.832238 0.750000 0.324180
O O10 0.842645 0.489616 0.405133
O O11 0.873019 0.513436 0.240353
O O12 0.250000 0.505132 0.483297
O O13 0.177263 0.750000 0.500342
O O14 0.117885 0.512831 0.439410
O O15 0.462405 0.250000 0.247087
O O16 0.510718 0.003665 0.175026
O O17 0.481381 0.998491 0.334370
O O18 0.580673 0.750000 0.159043
O O19 0.961700 0.250000 0.577107
O O20 0.000000 0.500000 0.500000
#
# Coordination Sequence:
#
# PCOD9452347 Si02
#       7
#     8   8   8   8   8   8   8
#     4  10  21  37  60  90 120 151 189 234 283 333
#     4   9  20  41  65  86 112 149 192 237 287 344
#     4   9  18  32  51  77 108 143 184 228 273 324
#     4   9  19  35  54  77 105 139 180 227 279 332
#     4  11  24  40  59  85 115 147 187 238 292 343
#     4  11  22  36  56  82 116 156 195 233 278 340
#     4  11  23  39  59  82 112 150 190 233 283 342
#
# _framework density 20.027650999999999
#
# number of rings (size 3 to 8) (size 9 to 14) (size 15 to 20)
#    0.000    2.000    0.000    3.000    0.000    8.286 
#    0.000    1.429    0.000    0.000    0.000    0.000 
#    0.000    0.000    0.000    0.000    0.000    0.000 
#
# Total GULP energy -312879.845178 kJ/mol
# GULP energy per Si atom -5587.140092 kJ/mol
# Density = 1.998207 g / cm^3
# Si number density = 20.027651 Si / 1000 Ang^3
#
#
#
# Elastic Constant Matrix: (Units=GPa)
#
#
# Indices 1 2 3 4 5 6 
#
# 1 97.6991 24.5297 40.5828 0.0000 0.0000 0.0000
# 2 24.5297 22.9765 9.4598 0.0000 0.0000 0.0000
# 3 40.5828 9.4598 55.8609 0.0000 0.0000 0.0000
# 4 0.0000 0.0000 0.0000 26.0978 0.0000 0.0000
# 5 0.0000 0.0000 0.0000 0.0000 39.1614 0.0000
# 6 0.0000 0.0000 0.0000 0.0000 0.0000 25.8368
#
#
#
# Elastic Compliance Matrix: (Units=1/GPa)
#
#
# Indices 1 2 3 4 5 6 
#
# 1 0.018646 -0.015404 -0.010938 0.000000 0.000000 0.000000
# 2 -0.015404 0.059509 0.001113 0.000000 0.000000 0.000000
# 3 -0.010938 0.001113 0.025660 0.000000 0.000000 0.000000
# 4 0.000000 0.000000 0.000000 0.038317 0.000000 0.000000
# 5 0.000000 0.000000 0.000000 0.000000 0.025535 0.000000
# 6 0.000000 0.000000 0.000000 0.000000 0.000000 0.038704
#
#
# Mechanical properties :
#
#
# Convention : Reuss Voigt Hill
#
# Bulk Modulus (GPa) = 18.74126 36.18677 27.46401
# Shear Modulus (GPa) = 18.20723 25.01681 21.61202
#
# Velocity S-wave (km/s) = 3.01841 3.53811 3.28854
# Velocity P-wave (km/s) = 4.63958 5.89904 5.30680
#
# Compressibility (1/GPa) = 0.05335821
#
# Stress axis : x y z
#
# Youngs Moduli (GPa) = 53.62946 16.80406 38.97177
#
# Poissons Ratio (x) = 0.25884 0.42628
# Poissons Ratio (y) = 0.82609 -0.04338
# Poissons Ratio (z) = 0.58660 -0.01870
#
# Static dielectric constant tensor:
#      x y z
#    x 1.751090 0.000000 0.000000 
#    y 0.000000 1.673200 0.000000 
#    z 0.000000 0.000000 1.656620 
# 
# From -- ./inp_files/24280.got.cif
#   From: 2010.05.17/outbox.cif.g08.bks.cpg/sg59_13_cif.got.tgz:24280.got - 2010.06.03 14:40:33.
