data_PCOD9452173
_publ_section_title
;
Structure prediction by ZEFSAII (Michael W. Deem and Ramdas Pophale) SiO2 
 PCOD9452173
Probable space group: P M M N
;
_chemical_formula_sum "Si O2"
_cell_formula_units_Z 48
_cell_length_a 8.718222
_cell_length_b 18.542604
_cell_length_c 16.952144
_cell_angle_alpha 90.000000
_cell_angle_beta 90.000000
_cell_angle_gamma 90.000000
_cell_volume 2740.458817
_symmetry_space_group_name_H-M "P M M N"
_symmetry_group_IT_number 59
_space_group.IT_coordinate_system_code '2'
_symmetry_cell_setting 'orthorhombic'
loop_
_space_group_symop_operation_xyz
x,y,z
1/2-x,1/2-y,z
1/2+x,-y,-z
-x,1/2+y,-z
-x,-y,-z
1/2+x,1/2+y,-z
1/2-x,y,z
x,1/2-y,z
loop_
_atom_site_type_symbol
_atom_site_label
_atom_site_fract_x
_atom_site_fract_y
_atom_site_fract_z
Si Si1 0.067228 0.080772 0.507744
Si Si2 0.435086 0.169112 0.829429
Si Si3 0.567619 0.399763 0.674724
Si Si4 0.934004 0.974892 0.082694
Si Si5 0.934750 0.167057 0.359933
Si Si6 0.934411 0.041384 0.246587
O O1 0.250000 0.076233 0.508349
O O2 0.007539 0.113475 0.590014
O O3 0.009866 0.128404 0.434825
O O4 0.000000 0.000000 0.500000
O O5 0.250000 0.164720 0.822162
O O6 0.475825 0.250000 0.854778
O O7 0.505983 0.151497 0.744146
O O8 0.483182 0.105191 0.888779
O O9 0.750000 0.395326 0.668874
O O10 0.516635 0.479882 0.702113
O O11 0.750000 0.974453 0.076762
O O12 0.976135 0.027437 0.155657
O O13 0.000000 0.000000 0.000000
O O14 0.750000 0.164997 0.370055
O O15 0.982324 0.250000 0.352659
O O16 0.970743 0.118782 0.283174
O O17 0.750000 0.029606 0.253498
#
# Coordination Sequence:
#
# PCOD9452173 Si02
#       6
#     8   8   8   8   8   8
#     4  12  23  36  55  79 109 147 189 231 274 322
#     4   9  19  37  58  79 108 145 183 227 279 330
#     4  11  21  33  54  82 108 140 180 224 272 326
#     4   9  18  33  55  83 109 140 179 220 268 327
#     4  10  21  37  57  80 107 142 185 232 277 321
#     4   9  18  35  56  76 105 143 182 222 267 325
#
# _framework density 17.515315000000001
#
# number of rings (size 3 to 8) (size 9 to 14) (size 15 to 20)
#    0.000    2.000    1.667    4.000    0.000    4.000 
#    0.000    0.833    0.000    1.000    0.000    0.000 
#    0.000    0.000    0.000    0.000    0.000    0.000 
#
# Total GULP energy -267915.524514 kJ/mol
# GULP energy per Si atom -5581.573427 kJ/mol
# Density = 1.747545 g / cm^3
# Si number density = 17.515315 Si / 1000 Ang^3
#
#
#
# Elastic Constant Matrix: (Units=GPa)
#
#
# Indices 1 2 3 4 5 6 
#
# 1 43.3970 44.1061 43.0320 0.0000 0.0000 0.0000
# 2 44.1061 143.7972 87.6476 0.0000 0.0000 0.0000
# 3 43.0320 87.6476 157.7743 0.0000 0.0000 0.0000
# 4 0.0000 0.0000 0.0000 18.1966 0.0000 0.0000
# 5 0.0000 0.0000 0.0000 0.0000 32.4571 0.0000
# 6 0.0000 0.0000 0.0000 0.0000 0.0000 20.1246
#
#
#
# Elastic Compliance Matrix: (Units=1/GPa)
#
#
# Indices 1 2 3 4 5 6 
#
# 1 0.036537 -0.007760 -0.005654 0.000000 0.000000 0.000000
# 2 -0.007760 0.012163 -0.004640 0.000000 0.000000 0.000000
# 3 -0.005654 -0.004640 0.010458 0.000000 0.000000 0.000000
# 4 0.000000 0.000000 0.000000 0.054955 0.000000 0.000000
# 5 0.000000 0.000000 0.000000 0.000000 0.030810 0.000000
# 6 0.000000 0.000000 0.000000 0.000000 0.000000 0.049690
#
#
# Mechanical properties :
#
#
# Convention : Reuss Voigt Hill
#
# Bulk Modulus (GPa) = 43.38711 77.17109 60.27910
# Shear Modulus (GPa) = 20.97267 25.50117 23.23692
#
# Velocity S-wave (km/s) = 3.46409 3.81981 3.64629
# Velocity P-wave (km/s) = 6.38941 7.97555 7.22614
#
# Compressibility (1/GPa) = 0.02304832
#
# Stress axis : x y z
#
# Youngs Moduli (GPa) = 27.36967 82.21776 95.62055
#
# Poissons Ratio (x) = 0.63805 0.54065
# Poissons Ratio (y) = 0.21240 0.44369
# Poissons Ratio (z) = 0.15475 0.38150
#
# Static dielectric constant tensor:
#      x y z
#    x 1.589010 0.000000 0.000000 
#    y 0.000000 1.603430 0.000000 
#    z 0.000000 0.000000 1.577390 
# 
# From -- ./inp_files/20319.got.cif
#   From: 2010.05.17/outbox.cif.g08.bks.cpg/sg59_11_cif.got.tgz:20319.got - 2010.06.03 14:40:33.
