data_PCOD9452110
_publ_section_title
;
Structure prediction by ZEFSAII (Michael W. Deem and Ramdas Pophale) SiO2 
 PCOD9452110
Probable space group: P M M N
;
_chemical_formula_sum "Si O2"
_cell_formula_units_Z 48
_cell_length_a 8.752024
_cell_length_b 30.644979
_cell_length_c 10.260036
_cell_angle_alpha 90.000000
_cell_angle_beta 90.000000
_cell_angle_gamma 90.000000
_cell_volume 2751.799026
_symmetry_space_group_name_H-M "P M M N"
_symmetry_group_IT_number 59
_space_group.IT_coordinate_system_code '2'
_symmetry_cell_setting 'orthorhombic'
loop_
_space_group_symop_operation_xyz
x,y,z
1/2-x,1/2-y,z
1/2+x,-y,-z
-x,1/2+y,-z
-x,-y,-z
1/2+x,1/2+y,-z
1/2-x,y,z
x,1/2-y,z
loop_
_atom_site_type_symbol
_atom_site_label
_atom_site_fract_x
_atom_site_fract_y
_atom_site_fract_z
Si Si1 0.566044 0.200486 0.396497
Si Si2 0.565924 0.300741 0.096420
Si Si3 0.567139 0.466460 0.895318
Si Si4 0.933155 0.870742 0.100931
Si Si5 0.567245 0.632849 0.399701
Si Si6 0.066220 0.468088 0.608667
O O1 0.750000 0.200440 0.399256
O O2 0.514744 0.250000 0.427268
O O3 0.521268 0.190671 0.246938
O O4 0.505932 0.165673 0.498557
O O5 0.750000 0.305269 0.086944
O O6 0.529134 0.250000 0.067813
O O7 0.486782 0.334140 0.999285
O O8 0.750000 0.468082 0.895113
O O9 0.510298 0.417421 0.926617
O O10 0.503246 0.477202 0.751170
O O11 0.500000 0.500000 0.000000
O O12 0.750000 0.876277 0.096977
O O13 0.975941 0.857919 0.249431
O O14 0.750000 0.636551 0.409250
O O15 0.526818 0.582243 0.424673
O O16 0.250000 0.471470 0.615576
O O17 0.000000 0.500000 0.500000
#
# Coordination Sequence:
#
# PCOD9452110 Si02
#       6
#     8   8   8   8   8   8
#     4   9  19  35  54  77 105 137 176 220 263 312
#     4   9  19  36  55  77 107 142 181 224 269 319
#     4  11  22  38  59  82 109 143 182 225 274 327
#     4  10  21  37  55  79 110 141 178 223 270 323
#     4   9  20  36  53  76 107 139 173 216 262 312
#     4  10  21  38  57  81 112 145 182 224 271 323
#
# _framework density 17.443133
#
# number of rings (size 3 to 8) (size 9 to 14) (size 15 to 20)
#    0.000    2.333    0.000    4.500    0.000    7.333 
#    0.000    8.333    0.000    0.000    0.000    0.000 
#    0.000    0.000    0.000    0.000    0.000    0.000 
#
# Total GULP energy -267910.165758 kJ/mol
# GULP energy per Si atom -5581.461787 kJ/mol
# Density = 1.740343 g / cm^3
# Si number density = 17.443133 Si / 1000 Ang^3
#
#
#
# Elastic Constant Matrix: (Units=GPa)
#
#
# Indices 1 2 3 4 5 6 
#
# 1 77.0160 67.4230 67.6708 0.0000 0.0000 0.0000
# 2 67.4230 142.0377 137.7885 0.0000 0.0000 0.0000
# 3 67.6708 137.7885 155.0226 0.0000 0.0000 0.0000
# 4 0.0000 0.0000 0.0000 43.5662 0.0000 0.0000
# 5 0.0000 0.0000 0.0000 0.0000 36.1055 0.0000
# 6 0.0000 0.0000 0.0000 0.0000 0.0000 35.0622
#
#
#
# Elastic Compliance Matrix: (Units=1/GPa)
#
#
# Indices 1 2 3 4 5 6 
#
# 1 0.022336 -0.008305 -0.002369 0.000000 0.000000 0.000000
# 2 -0.008305 0.054193 -0.044543 0.000000 0.000000 0.000000
# 3 -0.002369 -0.044543 0.047076 0.000000 0.000000 0.000000
# 4 0.000000 0.000000 0.000000 0.022954 0.000000 0.000000
# 5 0.000000 0.000000 0.000000 0.000000 0.027697 0.000000
# 6 0.000000 0.000000 0.000000 0.000000 0.000000 0.028521
#
#
# Mechanical properties :
#
#
# Convention : Reuss Voigt Hill
#
# Bulk Modulus (GPa) = 75.91985 102.20453 89.06219
# Shear Modulus (GPa) = 15.74307 29.69304 22.71805
#
# Velocity S-wave (km/s) = 3.00748 4.13034 3.61280
# Velocity P-wave (km/s) = 7.46181 9.02588 8.28086
#
# Compressibility (1/GPa) = 0.01317178
#
# Stress axis : x y z
#
# Youngs Moduli (GPa) = 44.77124 18.45248 21.24219
#
# Poissons Ratio (x) = 0.15324 0.05032
# Poissons Ratio (y) = 0.37180 0.94620
# Poissons Ratio (z) = 0.10605 0.82194
#
# Static dielectric constant tensor:
#      x y z
#    x 1.589090 0.000000 0.000000 
#    y 0.000000 1.570800 0.000000 
#    z 0.000000 0.000000 1.571840 
# 
# From -- ./inp_files/6212.got.cif
#   From: 2010.05.17/outbox.cif.g08.bks.cpg/sg59_4_cif.got.tgz:6212.got - 2010.06.03 14:40:33.
