data_PCOD9452577
_publ_section_title
;
Structure prediction by ZEFSAII (Michael W. Deem and Ramdas Pophale) SiO2 
 PCOD9452577
Probable space group: P M M N
;
_chemical_formula_sum "Si O2"
_cell_formula_units_Z 56
_cell_length_a 9.034336
_cell_length_b 19.136527
_cell_length_c 16.616655
_cell_angle_alpha 90.000000
_cell_angle_beta 90.000000
_cell_angle_gamma 90.000000
_cell_volume 2872.783939
_symmetry_space_group_name_H-M "P M M N"
_symmetry_group_IT_number 59
_space_group.IT_coordinate_system_code '2'
_symmetry_cell_setting 'orthorhombic'
loop_
_space_group_symop_operation_xyz
x,y,z
1/2-x,1/2-y,z
1/2+x,-y,-z
-x,1/2+y,-z
-x,-y,-z
1/2+x,1/2+y,-z
1/2-x,y,z
x,1/2-y,z
loop_
_atom_site_type_symbol
_atom_site_label
_atom_site_fract_x
_atom_site_fract_y
_atom_site_fract_z
Si Si1 0.575884 0.549017 0.262176
Si Si2 0.076119 0.167059 0.497453
Si Si3 0.069651 0.330282 0.852255
Si Si4 0.575776 0.457179 0.572013
Si Si5 0.919886 0.665965 0.688552
Si Si6 0.427030 0.076542 0.005477
Si Si7 0.578329 0.409113 0.167955
O O1 0.750000 0.553962 0.283614
O O2 0.525179 0.622403 0.224108
O O3 0.486803 0.525269 0.340216
O O4 0.563072 0.490397 0.193125
O O5 0.250000 0.150843 0.512142
O O6 0.057940 0.250000 0.506679
O O7 0.043935 0.148520 0.404117
O O8 0.972681 0.122439 0.554583
O O9 0.250000 0.329481 0.851622
O O10 0.019075 0.250000 0.850561
O O11 0.026125 0.372288 0.932865
O O12 0.500000 0.500000 0.500000
O O13 0.750000 0.467441 0.569026
O O14 0.750000 0.643272 0.703647
O O15 0.923457 0.750000 0.693973
O O16 0.026889 0.633239 0.753908
O O17 0.250000 0.069078 0.002001
O O18 0.478379 0.106903 0.091117
O O19 0.500000 0.000000 0.000000
O O20 0.750000 0.395994 0.149482
#
# Coordination Sequence:
#
# PCOD9452577 Si02
#       7
#     8   8   8   8   8   8   8
#     4  10  21  39  60  85 116 152 197 247 298 358
#     4   9  19  38  62  85 113 152 196 242 298 360
#     4   9  19  38  63  89 117 153 198 244 291 350
#     4  12  25  39  58  87 121 156 200 250 301 357
#     4   9  19  36  57  83 114 150 194 240 288 347
#     4  11  21  37  61  88 117 154 198 243 293 350
#     4  11  22  36  57  87 118 151 194 239 294 355
#
# _framework density 19.493286000000001
#
# number of rings (size 3 to 8) (size 9 to 14) (size 15 to 20)
#    0.000    1.857    1.429    3.857    0.000    5.714 
#    0.000    4.286    0.000    3.000    0.000    0.000 
#    0.000    0.000    0.000    0.000    0.000    0.000 
#
# Total GULP energy -312842.251498 kJ/mol
# GULP energy per Si atom -5586.468777 kJ/mol
# Density = 1.944892 g / cm^3
# Si number density = 19.493286 Si / 1000 Ang^3
#
#
#
# Elastic Constant Matrix: (Units=GPa)
#
#
# Indices 1 2 3 4 5 6 
#
# 1 69.2113 20.6265 40.5118 0.0000 0.0000 0.0000
# 2 20.6265 57.2218 16.7414 0.0000 0.0000 0.0000
# 3 40.5118 16.7414 80.3607 0.0000 0.0000 0.0000
# 4 0.0000 0.0000 0.0000 32.1015 0.0000 0.0000
# 5 0.0000 0.0000 0.0000 0.0000 32.2725 0.0000
# 6 0.0000 0.0000 0.0000 0.0000 0.0000 25.4599
#
#
#
# Elastic Compliance Matrix: (Units=1/GPa)
#
#
# Indices 1 2 3 4 5 6 
#
# 1 0.021728 -0.004928 -0.009927 0.000000 0.000000 0.000000
# 2 -0.004928 0.019728 -0.001626 0.000000 0.000000 0.000000
# 3 -0.009927 -0.001626 0.017787 0.000000 0.000000 0.000000
# 4 0.000000 0.000000 0.000000 0.031151 0.000000 0.000000
# 5 0.000000 0.000000 0.000000 0.000000 0.030986 0.000000
# 6 0.000000 0.000000 0.000000 0.000000 0.000000 0.039277
#
#
# Mechanical properties :
#
#
# Convention : Reuss Voigt Hill
#
# Bulk Modulus (GPa) = 38.04911 40.28369 39.16640
# Shear Modulus (GPa) = 24.70622 26.56105 25.63364
#
# Velocity S-wave (km/s) = 3.56395 3.69531 3.63022
# Velocity P-wave (km/s) = 6.04128 6.23838 6.14062
#
# Compressibility (1/GPa) = 0.02628182
#
# Stress axis : x y z
#
# Youngs Moduli (GPa) = 46.02440 50.69004 56.22104
#
# Poissons Ratio (x) = 0.24979 0.55810
# Poissons Ratio (y) = 0.22680 0.09140
# Poissons Ratio (z) = 0.45688 0.08240
#
# Static dielectric constant tensor:
#      x y z
#    x 1.654450 0.000000 0.000000 
#    y 0.000000 1.713040 0.000000 
#    z 0.000000 0.000000 1.677720 
# 
# From -- ./inp_files/20944.got.cif
#   From: 2010.05.17/outbox.cif.g08.bks.cpg/sg59_11_cif.got.tgz:20944.got - 2010.06.03 14:40:33.
