data_PCOD9452781
_publ_section_title
;
Structure prediction by ZEFSAII (Michael W. Deem and Ramdas Pophale) SiO2 
 PCOD9452781
Probable space group: P M M N
;
_chemical_formula_sum "Si O2"
_cell_formula_units_Z 48
_cell_length_a 29.354045
_cell_length_b 8.683084
_cell_length_c 10.150416
_cell_angle_alpha 90.000000
_cell_angle_beta 90.000000
_cell_angle_gamma 90.000000
_cell_volume 2587.174962
_symmetry_space_group_name_H-M "P M M N"
_symmetry_group_IT_number 59
_space_group.IT_coordinate_system_code '2'
_symmetry_cell_setting 'orthorhombic'
loop_
_space_group_symop_operation_xyz
x,y,z
1/2-x,1/2-y,z
1/2+x,-y,-z
-x,1/2+y,-z
-x,-y,-z
1/2+x,1/2+y,-z
1/2-x,y,z
x,1/2-y,z
loop_
_atom_site_type_symbol
_atom_site_label
_atom_site_fract_x
_atom_site_fract_y
_atom_site_fract_z
Si Si1 0.197415 0.065290 0.264669
Si Si2 0.379288 0.434848 0.787246
Si Si3 0.022470 0.933779 0.868515
Si Si4 0.303223 0.934309 0.980762
Si Si5 0.123139 0.064401 0.478763
Si Si6 0.529338 0.433341 0.619660
O O1 0.250000 0.023077 0.287466
O O2 0.194831 0.250000 0.245933
O O3 0.167074 0.026445 0.390895
O O4 0.182743 0.987216 0.127842
O O5 0.381451 0.250000 0.794710
O O6 0.426760 0.502518 0.841473
O O7 0.337086 0.493809 0.873979
O O8 0.373797 0.477960 0.632862
O O9 0.024350 0.750000 0.874051
O O10 0.990403 0.989149 0.749844
O O11 0.000000 0.000000 0.000000
O O12 0.250000 0.981648 0.962249
O O13 0.305351 0.750000 0.972622
O O14 0.116124 0.250000 0.473297
O O15 0.080756 0.980828 0.411254
O O16 0.500000 0.500000 0.500000
O O17 0.524241 0.250000 0.627839
#
# Coordination Sequence:
#
# PCOD9452781 Si02
#       6
#     8   8   8   8   8   8
#     4   9  19  38  63  90 120 156 201 251 302 362
#     4  11  23  40  63  91 124 161 205 253 308 368
#     4  12  26  44  65  91 125 163 207 256 308 369
#     4  10  22  40  61  87 122 162 204 253 308 366
#     4  10  22  39  62  91 123 158 203 252 306 367
#     4  12  24  41  64  90 124 165 207 251 306 364
#
# _framework density 18.553055000000001
#
# number of rings (size 3 to 8) (size 9 to 14) (size 15 to 20)
#    0.000    1.333    1.667    4.000    2.333    3.000 
#    0.000    1.667    0.000    2.000    0.000    0.000 
#    0.000    0.000    0.000    0.000    0.000    0.000 
#
# Total GULP energy -268299.584915 kJ/mol
# GULP energy per Si atom -5589.574686 kJ/mol
# Density = 1.851083 g / cm^3
# Si number density = 18.553055 Si / 1000 Ang^3
#
#
#
# Elastic Constant Matrix: (Units=GPa)
#
#
# Indices 1 2 3 4 5 6 
#
# 1 119.8347 57.5193 99.9460 0.0000 0.0000 0.0000
# 2 57.5193 84.3343 66.7111 0.0000 0.0000 0.0000
# 3 99.9460 66.7111 184.9562 0.0000 0.0000 0.0000
# 4 0.0000 0.0000 0.0000 22.0429 0.0000 0.0000
# 5 0.0000 0.0000 0.0000 0.0000 42.9171 0.0000
# 6 0.0000 0.0000 0.0000 0.0000 0.0000 31.5809
#
#
#
# Elastic Compliance Matrix: (Units=1/GPa)
#
#
# Indices 1 2 3 4 5 6 
#
# 1 0.017189 -0.006123 -0.007080 0.000000 0.000000 0.000000
# 2 -0.006123 0.018772 -0.003462 0.000000 0.000000 0.000000
# 3 -0.007080 -0.003462 0.010481 0.000000 0.000000 0.000000
# 4 0.000000 0.000000 0.000000 0.045366 0.000000 0.000000
# 5 0.000000 0.000000 0.000000 0.000000 0.023301 0.000000
# 6 0.000000 0.000000 0.000000 0.000000 0.000000 0.031665
#
#
# Mechanical properties :
#
#
# Convention : Reuss Voigt Hill
#
# Bulk Modulus (GPa) = 76.26492 93.05311 84.65902
# Shear Modulus (GPa) = 27.10403 30.30478 28.70440
#
# Velocity S-wave (km/s) = 3.82631 4.04593 3.93765
# Velocity P-wave (km/s) = 7.79208 8.49059 8.14882
#
# Compressibility (1/GPa) = 0.01311219
#
# Stress axis : x y z
#
# Youngs Moduli (GPa) = 58.17824 53.26973 95.40835
#
# Poissons Ratio (x) = 0.32616 0.67548
# Poissons Ratio (y) = 0.35622 0.33033
# Poissons Ratio (z) = 0.41189 0.18443
#
# Static dielectric constant tensor:
#      x y z
#    x 1.627010 0.000000 0.000000 
#    y 0.000000 1.622160 0.000000 
#    z 0.000000 0.000000 1.606320 
# 
# From -- ./inp_files/6210.got.cif
#   From: 2010.05.17/outbox.cif.g08.bks.cpg/sg59_4_cif.got.tgz:6210.got - 2010.06.03 14:40:33.
