data_PCOD9452348
_publ_section_title
;
Structure prediction by ZEFSAII (Michael W. Deem and Ramdas Pophale) SiO2 
 PCOD9452348
Probable space group: P M M N
;
_chemical_formula_sum "Si O2"
_cell_formula_units_Z 40
_cell_length_a 14.568803
_cell_length_b 8.803175
_cell_length_c 17.441010
_cell_angle_alpha 90.000000
_cell_angle_beta 90.000000
_cell_angle_gamma 90.000000
_cell_volume 2236.839572
_symmetry_space_group_name_H-M "P M M N"
_symmetry_group_IT_number 59
_space_group.IT_coordinate_system_code '2'
_symmetry_cell_setting 'orthorhombic'
loop_
_space_group_symop_operation_xyz
x,y,z
1/2-x,1/2-y,z
1/2+x,-y,-z
-x,1/2+y,-z
-x,-y,-z
1/2+x,1/2+y,-z
1/2-x,y,z
x,1/2-y,z
loop_
_atom_site_type_symbol
_atom_site_label
_atom_site_fract_x
_atom_site_fract_y
_atom_site_fract_z
Si Si1 0.250000 0.930868 0.353110
Si Si2 0.433433 0.430678 0.284452
Si Si3 0.643229 0.432740 0.018023
Si Si4 0.250000 0.431352 0.524303
Si Si5 0.010815 0.568582 0.122946
Si Si6 0.940203 0.431131 0.430938
O O1 0.250000 0.750000 0.361733
O O2 0.159843 0.985284 0.308306
O O3 0.250000 0.006807 0.437119
O O4 0.416696 0.250000 0.282018
O O5 0.469439 0.489104 0.203253
O O6 0.507332 0.460048 0.351516
O O7 0.750000 0.477177 0.017567
O O8 0.638304 0.250000 0.027956
O O9 0.583115 0.511226 0.083953
O O10 0.591901 0.468560 0.937969
O O11 0.250000 0.250000 0.522284
O O12 0.340812 0.493483 0.565019
O O13 0.008441 0.750000 0.132530
O O14 0.932246 0.250000 0.441643
O O15 0.000000 0.500000 0.500000
#
# Coordination Sequence:
#
# PCOD9452348 Si02
#       6
#     4   8   8   4   8   8
#     4  12  24  38  62  90 121 156 199 248 300 354
#     4  11  24  41  61  89 123 158 198 246 301 355
#     4   9  19  38  62  86 117 158 197 238 293 355
#     4  12  24  40  62  88 119 156 205 252 302 362
#     4  10  21  37  60  90 121 153 196 245 296 352
#     4  11  23  40  63  87 119 160 204 249 300 356
#
# _framework density 17.882373999999999
#
# number of rings (size 3 to 8) (size 9 to 14) (size 15 to 20)
#    0.000    1.400    2.000    3.600    1.400    3.600 
#    1.800    0.000    0.000    0.000    0.000    0.000 
#    0.000    0.000    0.000    0.000    0.000    0.000 
#
# Total GULP energy -223604.389566 kJ/mol
# GULP energy per Si atom -5590.109739 kJ/mol
# Density = 1.784167 g / cm^3
# Si number density = 17.882374 Si / 1000 Ang^3
#
#
#
# Elastic Constant Matrix: (Units=GPa)
#
#
# Indices 1 2 3 4 5 6 
#
# 1 177.4267 82.8447 73.8664 0.0000 0.0000 0.0000
# 2 82.8447 104.4627 82.6485 0.0000 0.0000 0.0000
# 3 73.8664 82.6485 132.4802 0.0000 0.0000 0.0000
# 4 0.0000 0.0000 0.0000 32.3174 0.0000 0.0000
# 5 0.0000 0.0000 0.0000 0.0000 7.3556 0.0000
# 6 0.0000 0.0000 0.0000 0.0000 0.0000 35.2912
#
#
#
# Elastic Compliance Matrix: (Units=1/GPa)
#
#
# Indices 1 2 3 4 5 6 
#
# 1 0.009034 -0.006278 -0.001121 0.000000 0.000000 0.000000
# 2 -0.006278 0.023265 -0.011014 0.000000 0.000000 0.000000
# 3 -0.001121 -0.011014 0.015044 0.000000 0.000000 0.000000
# 4 0.000000 0.000000 0.000000 0.030943 0.000000 0.000000
# 5 0.000000 0.000000 0.000000 0.000000 0.135951 0.000000
# 6 0.000000 0.000000 0.000000 0.000000 0.000000 0.028336
#
#
# Mechanical properties :
#
#
# Convention : Reuss Voigt Hill
#
# Bulk Modulus (GPa) = 95.06726 99.23209 97.14967
# Shear Modulus (GPa) = 17.67384 26.66017 22.16700
#
# Velocity S-wave (km/s) = 3.14720 3.86536 3.52462
# Velocity P-wave (km/s) = 8.15380 8.69099 8.42668
#
# Compressibility (1/GPa) = 0.01051887
#
# Stress axis : x y z
#
# Youngs Moduli (GPa) = 110.69412 42.98211 66.47082
#
# Poissons Ratio (x) = 0.26984 0.07448
# Poissons Ratio (y) = 0.69492 0.73211
# Poissons Ratio (z) = 0.12404 0.47340
#
# Static dielectric constant tensor:
#      x y z
#    x 1.610590 0.000000 0.000000 
#    y 0.000000 1.601290 0.000000 
#    z 0.000000 0.000000 1.578390 
# 
# From -- ./inp_files/19972.got.cif
#   From: 2010.05.17/outbox.cif.g08.bks.cpg/sg59_10_cif.got.tgz:19972.got - 2010.06.03 14:40:33.
