data_PCOD9452065
_publ_section_title
;
Structure prediction by ZEFSAII (Michael W. Deem and Ramdas Pophale) SiO2 
 PCOD9452065
Probable space group: P M M N
;
_chemical_formula_sum "Si O2"
_cell_formula_units_Z 48
_cell_length_a 10.098151
_cell_length_b 8.687532
_cell_length_c 29.670959
_cell_angle_alpha 90.000000
_cell_angle_beta 90.000000
_cell_angle_gamma 90.000000
_cell_volume 2602.974186
_symmetry_space_group_name_H-M "P M M N"
_symmetry_group_IT_number 59
_space_group.IT_coordinate_system_code '2'
_symmetry_cell_setting 'orthorhombic'
loop_
_space_group_symop_operation_xyz
x,y,z
1/2-x,1/2-y,z
1/2+x,-y,-z
-x,1/2+y,-z
-x,-y,-z
1/2+x,1/2+y,-z
1/2-x,y,z
x,1/2-y,z
loop_
_atom_site_type_symbol
_atom_site_label
_atom_site_fract_x
_atom_site_fract_y
_atom_site_fract_z
Si Si1 0.901365 0.568645 0.806839
Si Si2 0.250000 0.933738 0.932220
Si Si3 0.527865 0.432744 0.902830
Si Si4 0.905474 0.567441 0.267261
Si Si5 0.250000 0.433110 0.032332
Si Si6 0.910556 0.073012 0.361903
Si Si7 0.096066 0.936403 0.538121
O O1 0.750000 0.542522 0.791714
O O2 0.916600 0.750000 0.816797
O O3 0.925624 0.475813 0.852744
O O4 0.004455 0.517906 0.768932
O O5 0.250000 0.750000 0.927606
O O6 0.119780 0.005801 0.910013
O O7 0.250000 0.981390 0.984666
O O8 0.534516 0.250000 0.909881
O O9 0.623135 0.516209 0.938592
O O10 0.750000 0.524137 0.262213
O O11 0.915928 0.750000 0.260713
O O12 0.947660 0.523514 0.318092
O O13 0.250000 0.250000 0.025232
O O14 0.750000 0.075347 0.363455
O O15 0.954868 0.250000 0.356083
O O16 0.949816 0.015344 0.411512
O O17 0.250000 0.983747 0.531433
O O18 0.094082 0.750000 0.537932
O O19 0.000000 0.000000 0.500000
#
# Coordination Sequence:
#
# PCOD9452065 Si02
#       7
#     8   4   8   8   4   8   8
#     4  11  24  42  63  86 116 155 197 236 286 350
#     4  12  26  44  66  94 126 160 200 246 293 342
#     4  12  25  43  66  93 124 159 198 245 296 346
#     4  10  21  36  58  88 117 145 186 238 291 345
#     4  12  24  44  68  94 126 162 202 240 289 354
#     4   8  15  31  53  76 106 145 188 233 283 336
#     4   9  18  32  51  77 109 145 187 234 282 338
#
# _framework density 18.440442999999998
#
# number of rings (size 3 to 8) (size 9 to 14) (size 15 to 20)
#    0.000    1.667    0.833    5.500    1.167    3.000 
#    0.000    2.500    0.000    1.000    0.000    0.000 
#    0.000    0.000    0.000    0.000    0.000    0.000 
#
# Total GULP energy -268138.964406 kJ/mol
# GULP energy per Si atom -5586.228425 kJ/mol
# Density = 1.839847 g / cm^3
# Si number density = 18.440443 Si / 1000 Ang^3
#
#
#
# Elastic Constant Matrix: (Units=GPa)
#
#
# Indices 1 2 3 4 5 6 
#
# 1 77.9226 17.4133 17.1120 0.0000 0.0000 0.0000
# 2 17.4133 52.5024 6.7590 0.0000 0.0000 0.0000
# 3 17.1120 6.7590 69.3085 0.0000 0.0000 0.0000
# 4 0.0000 0.0000 0.0000 38.1533 0.0000 0.0000
# 5 0.0000 0.0000 0.0000 0.0000 33.8304 0.0000
# 6 0.0000 0.0000 0.0000 0.0000 0.0000 26.8491
#
#
#
# Elastic Compliance Matrix: (Units=1/GPa)
#
#
# Indices 1 2 3 4 5 6 
#
# 1 0.014510 -0.004407 -0.003153 0.000000 0.000000 0.000000
# 2 -0.004407 0.020627 -0.000924 0.000000 0.000000 0.000000
# 3 -0.003153 -0.000924 0.015297 0.000000 0.000000 0.000000
# 4 0.000000 0.000000 0.000000 0.026210 0.000000 0.000000
# 5 0.000000 0.000000 0.000000 0.000000 0.029559 0.000000
# 6 0.000000 0.000000 0.000000 0.000000 0.000000 0.037245
#
#
# Mechanical properties :
#
#
# Convention : Reuss Voigt Hill
#
# Bulk Modulus (GPa) = 29.87921 31.36692 30.62307
# Shear Modulus (GPa) = 29.14243 30.32983 29.73613
#
# Velocity S-wave (km/s) = 3.97968 4.05995 4.02001
# Velocity P-wave (km/s) = 6.11191 6.24694 6.17979
#
# Compressibility (1/GPa) = 0.03346808
#
# Stress axis : x y z
#
# Youngs Moduli (GPa) = 68.91620 48.47961 65.37346
#
# Poissons Ratio (x) = 0.21364 0.20611
# Poissons Ratio (y) = 0.30370 0.06038
# Poissons Ratio (z) = 0.21728 0.04478
#
# Static dielectric constant tensor:
#      x y z
#    x 1.624610 0.000000 0.000000 
#    y 0.000000 1.624840 0.000000 
#    z 0.000000 0.000000 1.622910 
# 
# From -- ./inp_files/33051.got.cif
#   From: 2010.05.17/outbox.cif.g08.bks.cpg/sg59_17_cif.got.tgz:33051.got - 2010.06.03 14:40:33.
