data_PCOD9452887
_publ_section_title
;
Structure prediction by ZEFSAII (Michael W. Deem and Ramdas Pophale) SiO2 
 PCOD9452887
Probable space group: P M M N
;
_chemical_formula_sum "Si O2"
_cell_formula_units_Z 48
_cell_length_a 28.730572
_cell_length_b 8.820605
_cell_length_c 10.055818
_cell_angle_alpha 90.000000
_cell_angle_beta 90.000000
_cell_angle_gamma 90.000000
_cell_volume 2548.355725
_symmetry_space_group_name_H-M "P M M N"
_symmetry_group_IT_number 59
_space_group.IT_coordinate_system_code '2'
_symmetry_cell_setting 'orthorhombic'
loop_
_space_group_symop_operation_xyz
x,y,z
1/2-x,1/2-y,z
1/2+x,-y,-z
-x,1/2+y,-z
-x,-y,-z
1/2+x,1/2+y,-z
1/2-x,y,z
x,1/2-y,z
loop_
_atom_site_type_symbol
_atom_site_label
_atom_site_fract_x
_atom_site_fract_y
_atom_site_fract_z
Si Si1 0.194944 0.568589 0.485655
Si Si2 0.194188 0.074322 0.770651
Si Si3 0.870344 0.069600 0.015424
Si Si4 0.475531 0.571474 0.372386
Si Si5 0.622170 0.931380 0.720953
Si Si6 0.535036 0.571563 0.106319
O O1 0.250000 0.535382 0.464802
O O2 0.189121 0.750000 0.484165
O O3 0.181571 0.503690 0.630624
O O4 0.162946 0.493387 0.374007
O O5 0.250000 0.070466 0.780232
O O6 0.178935 0.250000 0.770213
O O7 0.171954 0.988382 0.894644
O O8 0.869941 0.250000 0.001492
O O9 0.871199 0.995214 0.869692
O O10 0.916638 0.015154 0.091737
O O11 0.500000 0.500000 0.500000
O O12 0.466329 0.750000 0.393065
O O13 0.427269 0.490486 0.334672
O O14 0.510897 0.556532 0.248955
O O15 0.622490 0.750000 0.723148
O O16 0.542056 0.750000 0.078340
O O17 0.500000 0.500000 0.000000
#
# Coordination Sequence:
#
# PCOD9452887 Si02
#       6
#     8   8   8   8   8   8
#     4  10  22  42  67  94 126 164 206 255 312 373
#     4  10  22  42  67  95 127 163 207 257 310 371
#     4  12  25  41  64  93 127 167 210 258 311 371
#     4  11  25  43  64  92 127 165 209 257 309 371
#     4  12  25  42  65  92 127 166 209 260 312 371
#     4  11  23  41  65  91 125 166 208 253 308 370
#
# _framework density 18.835675999999999
#
# number of rings (size 3 to 8) (size 9 to 14) (size 15 to 20)
#    0.000    1.000    1.667    5.000    2.333    4.667 
#    0.000    0.000    0.000    0.000    0.000    0.000 
#    0.000    0.000    0.000    0.000    0.000    0.000 
#
# Total GULP energy -268529.171618 kJ/mol
# GULP energy per Si atom -5594.357742 kJ/mol
# Density = 1.879280 g / cm^3
# Si number density = 18.835676 Si / 1000 Ang^3
#
#
#
# Elastic Constant Matrix: (Units=GPa)
#
#
# Indices 1 2 3 4 5 6 
#
# 1 74.5000 68.6690 69.1464 0.0000 0.0000 0.0000
# 2 68.6690 186.6050 101.6239 0.0000 0.0000 0.0000
# 3 69.1464 101.6239 127.5405 0.0000 0.0000 0.0000
# 4 0.0000 0.0000 0.0000 36.9098 0.0000 0.0000
# 5 0.0000 0.0000 0.0000 0.0000 31.9829 0.0000
# 6 0.0000 0.0000 0.0000 0.0000 0.0000 37.2816
#
#
#
# Elastic Compliance Matrix: (Units=1/GPa)
#
#
# Indices 1 2 3 4 5 6 
#
# 1 0.028354 -0.003643 -0.012469 0.000000 0.000000 0.000000
# 2 -0.003643 0.009935 -0.005941 0.000000 0.000000 0.000000
# 3 -0.012469 -0.005941 0.019335 0.000000 0.000000 0.000000
# 4 0.000000 0.000000 0.000000 0.027093 0.000000 0.000000
# 5 0.000000 0.000000 0.000000 0.000000 0.031267 0.000000
# 6 0.000000 0.000000 0.000000 0.000000 0.000000 0.026823
#
#
# Mechanical properties :
#
#
# Convention : Reuss Voigt Hill
#
# Bulk Modulus (GPa) = 73.98256 96.39157 85.18707
# Shear Modulus (GPa) = 26.12063 31.18194 28.65129
#
# Velocity S-wave (km/s) = 3.72797 4.07316 3.90438
# Velocity P-wave (km/s) = 7.60878 8.56779 8.10248
#
# Compressibility (1/GPa) = 0.01351670
#
# Stress axis : x y z
#
# Youngs Moduli (GPa) = 35.26795 100.65364 51.72072
#
# Poissons Ratio (x) = 0.36673 0.64492
# Poissons Ratio (y) = 0.12850 0.30727
# Poissons Ratio (z) = 0.43977 0.59798
#
# Static dielectric constant tensor:
#      x y z
#    x 1.705340 0.000000 0.000000 
#    y 0.000000 1.634470 0.000000 
#    z 0.000000 0.000000 1.682910 
# 
# From -- ./inp_files/12937.got.cif
#   From: 2010.05.17/outbox.cif.g08.bks.cpg/sg59_7_cif.got.tgz:12937.got - 2010.06.03 14:40:33.
