data_PCOD9452108
_publ_section_title
;
Structure prediction by ZEFSAII (Michael W. Deem and Ramdas Pophale) SiO2 
 PCOD9452108
Probable space group: P M M N
;
_chemical_formula_sum "Si O2"
_cell_formula_units_Z 56
_cell_length_a 20.712351
_cell_length_b 14.703357
_cell_length_c 9.753344
_cell_angle_alpha 90.000000
_cell_angle_beta 90.000000
_cell_angle_gamma 90.000000
_cell_volume 2970.294023
_symmetry_space_group_name_H-M "P M M N"
_symmetry_group_IT_number 59
_space_group.IT_coordinate_system_code '2'
_symmetry_cell_setting 'orthorhombic'
loop_
_space_group_symop_operation_xyz
x,y,z
1/2-x,1/2-y,z
1/2+x,-y,-z
-x,1/2+y,-z
-x,-y,-z
1/2+x,1/2+y,-z
1/2-x,y,z
x,1/2-y,z
loop_
_atom_site_type_symbol
_atom_site_label
_atom_site_fract_x
_atom_site_fract_y
_atom_site_fract_z
Si Si1 0.488864 0.355407 0.836420
Si Si2 0.065244 0.643830 0.881651
Si Si3 0.821188 0.448487 0.986693
Si Si4 0.673765 0.140683 0.685819
Si Si5 0.942644 0.469094 0.601566
Si Si6 0.638189 0.850578 0.006406
Si Si7 0.059676 0.150242 0.277651
O O1 0.501463 0.250000 0.799748
O O2 0.518026 0.421327 0.724744
O O3 0.524828 0.374453 0.979653
O O4 0.413194 0.364005 0.870411
O O5 0.082896 0.750000 0.882046
O O6 0.015505 0.630187 0.757585
O O7 0.127928 0.583931 0.900248
O O8 0.750000 0.414250 0.019235
O O9 0.837542 0.406491 0.835998
O O10 0.821990 0.557848 0.987316
O O11 0.750000 0.124225 0.651040
O O12 0.665225 0.250000 0.697488
O O13 0.619336 0.098040 0.584343
O O14 0.912212 0.566124 0.641953
O O15 0.000000 0.500000 0.500000
O O16 0.668783 0.750000 0.022210
O O17 0.595476 0.845157 0.867875
O O18 0.064113 0.250000 0.343147
#
# Coordination Sequence:
#
# PCOD9452108 Si02
#       7
#     8   8   8   8   8   8   8
#     4   9  17  31  52  76 100 131 170 212 263 313
#     4   9  16  29  51  73 100 135 164 203 257 313
#     4  11  19  27  47  77 108 139 169 204 253 318
#     4  10  21  37  55  77 109 144 175 214 270 329
#     4  12  22  32  53  80 106 139 180 231 270 306
#     4   9  17  31  51  72 101 138 167 205 259 313
#     4   9  18  32  49  73 103 132 165 207 260 310
#
# _framework density 18.853352999999998
#
# number of rings (size 3 to 8) (size 9 to 14) (size 15 to 20)
#    0.000    2.143    2.857    3.429    0.000    4.571 
#    0.000    0.000    0.000    3.857    0.000    0.000 
#    0.000    0.000    0.000    0.000    0.000    0.000 
#
# Total GULP energy -311745.170402 kJ/mol
# GULP energy per Si atom -5566.878043 kJ/mol
# Density = 1.881044 g / cm^3
# Si number density = 18.853353 Si / 1000 Ang^3
#
#
#
# Elastic Constant Matrix: (Units=GPa)
#
#
# Indices 1 2 3 4 5 6 
#
# 1 74.3592 55.8118 -2.3228 0.0000 0.0000 0.0000
# 2 55.8118 61.8675 42.0039 0.0000 0.0000 0.0000
# 3 -2.3228 42.0039 -1.2995 0.0000 0.0000 0.0000
# 4 0.0000 0.0000 0.0000 -4.0749 0.0000 0.0000
# 5 0.0000 0.0000 0.0000 0.0000 10.6465 0.0000
# 6 0.0000 0.0000 0.0000 0.0000 0.0000 23.1820
#
#
#
# Elastic Compliance Matrix: (Units=1/GPa)
#
#
# Indices 1 2 3 4 5 6 
#
# 1 0.012780 0.000173 -0.017236 0.000000 0.000000 0.000000
# 2 0.000173 0.000707 0.022536 0.000000 0.000000 0.000000
# 3 -0.017236 0.022536 -0.010291 0.000000 0.000000 0.000000
# 4 0.000000 0.000000 0.000000 -0.245406 0.000000 0.000000
# 5 0.000000 0.000000 0.000000 0.000000 0.093927 0.000000
# 6 0.000000 0.000000 0.000000 0.000000 0.000000 0.043137
#
#
# Mechanical properties :
#
#
# Convention : Reuss Voigt Hill
#
# Bulk Modulus (GPa) = 70.71201 36.21256 53.46229
# Shear Modulus (GPa) = -44.89195 8.57969 -18.15613
#
# Velocity S-wave (km/s) = -4.88496 2.13556 -3.10662
# Velocity P-wave (km/s) = 2.40222 5.03289 3.94339
#
# Compressibility (1/GPa) = 0.01414187
#
# Stress axis : x y z
#
# Youngs Moduli (GPa) = 78.24962 1414.80032 -97.17506
#
# Poissons Ratio (x) = -0.24541 -1.67492
# Poissons Ratio (y) = -0.01357 2.18991
# Poissons Ratio (z) = 1.34872 -31.88357
#
# Static dielectric constant tensor:
#      x y z
#    x 1.681260 0.000000 0.000000 
#    y 0.000000 1.706410 0.000000 
#    z 0.000000 0.000000 1.661300 
# 
# From -- ./inp_files/11425.got.cif
#   From: 2010.05.17/outbox.cif.g08.bks.cpg/sg59_6_cif.got.tgz:11425.got - 2010.06.03 14:40:33.
