data_PCOD9452197
_publ_section_title
;
Structure prediction by ZEFSAII (Michael W. Deem and Ramdas Pophale) SiO2 
 PCOD9452197
Probable space group: P M M N
;
_chemical_formula_sum "Si O2"
_cell_formula_units_Z 32
_cell_length_a 12.027600
_cell_length_b 13.085621
_cell_length_c 7.520237
_cell_angle_alpha 90.000000
_cell_angle_beta 90.000000
_cell_angle_gamma 90.000000
_cell_volume 1183.599687
_symmetry_space_group_name_H-M "P M M N"
_symmetry_group_IT_number 59
_space_group.IT_coordinate_system_code '2'
_symmetry_cell_setting 'orthorhombic'
loop_
_space_group_symop_operation_xyz
x,y,z
1/2-x,1/2-y,z
1/2+x,-y,-z
-x,1/2+y,-z
-x,-y,-z
1/2+x,1/2+y,-z
1/2-x,y,z
x,1/2-y,z
loop_
_atom_site_type_symbol
_atom_site_label
_atom_site_fract_x
_atom_site_fract_y
_atom_site_fract_z
Si Si1 0.866114 0.925860 0.452728
Si Si2 0.123797 0.367188 0.140274
Si Si3 0.128269 0.628876 0.945383
Si Si4 0.594169 0.134672 0.643057
O O1 0.750000 0.902370 0.367528
O O2 0.872603 0.874066 0.645814
O O3 0.963180 0.880593 0.338439
O O4 0.874988 0.046422 0.502742
O O5 0.250000 0.405633 0.087080
O O6 0.120814 0.250000 0.079592
O O7 0.997068 0.408789 0.104360
O O8 0.250000 0.593555 0.872055
O O9 0.125048 0.750000 0.906216
O O10 0.136822 0.616543 0.159088
O O11 0.621022 0.250000 0.586257
#
# Coordination Sequence:
#
# PCOD9452197 Si02
#       4
#     8   8   8   8
#     4  10  21  37  58  84 113 149 193 238 288 345
#     4   9  18  34  56  83 116 152 190 234 284 339
#     4   9  18  34  56  82 114 152 191 233 284 340
#     4  10  21  37  57  81 112 150 191 237 288 342
#
# _framework density 27.036166999999999
#
# number of rings (size 3 to 8) (size 9 to 14) (size 15 to 20)
#    0.000    2.500    0.000    1.500    0.000    5.000 
#    0.000    8.750    0.000   12.000    0.000    0.000 
#    0.000    0.000    0.000    0.000    0.000    0.000 
#
# Total GULP energy -178596.970458 kJ/mol
# GULP energy per Si atom -5581.155327 kJ/mol
# Density = 2.697463 g / cm^3
# Si number density = 27.036167 Si / 1000 Ang^3
#
#
#
# Elastic Constant Matrix: (Units=GPa)
#
#
# Indices 1 2 3 4 5 6 
#
# 1 343.6179 23.4189 39.1243 0.0000 0.0000 0.0000
# 2 23.4189 113.1606 8.5053 0.0000 0.0000 0.0000
# 3 39.1243 8.5053 62.8034 0.0000 0.0000 0.0000
# 4 0.0000 0.0000 0.0000 26.1225 0.0000 0.0000
# 5 0.0000 0.0000 0.0000 0.0000 116.4532 0.0000
# 6 0.0000 0.0000 0.0000 0.0000 0.0000 -23.4988
#
#
#
# Elastic Compliance Matrix: (Units=1/GPa)
#
#
# Indices 1 2 3 4 5 6 
#
# 1 0.003161 -0.000511 -0.001900 0.000000 0.000000 0.000000
# 2 -0.000511 0.009011 -0.000902 0.000000 0.000000 0.000000
# 3 -0.001900 -0.000902 0.017229 0.000000 0.000000 0.000000
# 4 0.000000 0.000000 0.000000 0.038281 0.000000 0.000000
# 5 0.000000 0.000000 0.000000 0.000000 0.008587 0.000000
# 6 0.000000 0.000000 0.000000 0.000000 0.000000 -0.042555
#
#
# Mechanical properties :
#
#
# Convention : Reuss Voigt Hill
#
# Bulk Modulus (GPa) = 43.90974 73.51988 58.71481
# Shear Modulus (GPa) = 104.31574 53.71763 79.01668
#
# Velocity S-wave (km/s) = 6.21832 4.46228 5.41200
# Velocity P-wave (km/s) = 8.23608 7.33495 7.79854
#
# Compressibility (1/GPa) = 0.02277399
#
# Stress axis : x y z
#
# Youngs Moduli (GPa) = 316.31340 110.98022 58.04317
#
# Poissons Ratio (x) = 0.05676 0.11029
# Poissons Ratio (y) = 0.16178 0.05234
# Poissons Ratio (z) = 0.60106 0.10007
#
# Static dielectric constant tensor:
#      x y z
#    x 2.162910 0.000000 0.000000 
#    y 0.000000 2.093660 0.000000 
#    z 0.000000 0.000000 2.006520 
# 
# From -- ./inp_files/6720.got.cif
#   From: 2010.05.17/outbox.cif.g08.bks.cpg/sg59_4_cif.got.tgz:6720.got - 2010.06.03 14:40:33.
