data_PCOD9452990
_publ_section_title
;
Structure prediction by ZEFSAII (Michael W. Deem and Ramdas Pophale) SiO2 
 PCOD9452990
Probable space group: P M M N
;
_chemical_formula_sum "Si O2"
_cell_formula_units_Z 64
_cell_length_a 31.251646
_cell_length_b 8.735181
_cell_length_c 14.668382
_cell_angle_alpha 90.000000
_cell_angle_beta 90.000000
_cell_angle_gamma 90.000000
_cell_volume 4004.303771
_symmetry_space_group_name_H-M "P M M N"
_symmetry_group_IT_number 59
_space_group.IT_coordinate_system_code '2'
_symmetry_cell_setting 'orthorhombic'
loop_
_space_group_symop_operation_xyz
x,y,z
1/2-x,1/2-y,z
1/2+x,-y,-z
-x,1/2+y,-z
-x,-y,-z
1/2+x,1/2+y,-z
1/2-x,y,z
x,1/2-y,z
loop_
_atom_site_type_symbol
_atom_site_label
_atom_site_fract_x
_atom_site_fract_y
_atom_site_fract_z
Si Si1 0.542447 0.567758 0.549633
Si Si2 0.385392 0.068369 0.934133
Si Si3 0.572010 0.073344 0.240291
Si Si4 0.299214 0.065803 0.641540
Si Si5 0.298125 0.063559 0.853420
Si Si6 0.021028 0.933763 0.261244
Si Si7 0.541067 0.067500 0.945901
Si Si8 0.881782 0.073619 0.434031
O O1 0.500000 0.500000 0.500000
O O2 0.537712 0.750000 0.552819
O O3 0.545213 0.499562 0.651299
O O4 0.584847 0.520679 0.494583
O O5 0.385237 0.250000 0.949621
O O6 0.336573 0.013182 0.918980
O O7 0.408068 0.030404 0.838209
O O8 0.415093 0.990294 0.009251
O O9 0.569258 0.250000 0.208564
O O10 0.599786 0.068839 0.331354
O O11 0.525694 0.009005 0.264197
O O12 0.250000 0.027765 0.618903
O O13 0.303635 0.250000 0.639090
O O14 0.306088 0.018135 0.747784
O O15 0.334174 0.992317 0.575797
O O16 0.250000 0.014534 0.878460
O O17 0.298516 0.250000 0.853590
O O18 0.017941 0.750000 0.268455
O O19 0.039060 0.972554 0.161140
O O20 0.538255 0.250000 0.953759
O O21 0.500000 0.000000 0.000000
O O22 0.881562 0.250000 0.464493
#
# Coordination Sequence:
#
# PCOD9452990 Si02
#       8
#     8   8   8   8   8   8   8   8
#     4  12  24  37  55  76 102 135 173 215 257 309
#     4  11  20  31  51  75 102 137 176 214 256 303
#     4  11  21  31  48  72 104 140 174 213 252 299
#     4   9  17  31  51  74 103 138 174 212 255 304
#     4   8  15  28  47  72 101 133 169 208 250 299
#     4  11  23  38  54  72  99 136 175 217 260 302
#     4  11  23  36  52  73 102 136 173 212 255 306
#     4  11  22  34  50  75 106 140 175 211 256 307
#
# _framework density 15.982803000000001
#
# number of rings (size 3 to 8) (size 9 to 14) (size 15 to 20)
#    0.000    1.500    3.750    3.750    0.000    2.750 
#    0.000    0.000    0.000    1.500    0.000    0.875 
#    0.000    3.000    0.000    0.000    0.000    0.000 
#
# Total GULP energy -357175.307506 kJ/mol
# GULP energy per Si atom -5580.864180 kJ/mol
# Density = 1.594643 g / cm^3
# Si number density = 15.982803 Si / 1000 Ang^3
#
#
#
# Elastic Constant Matrix: (Units=GPa)
#
#
# Indices 1 2 3 4 5 6 
#
# 1 116.2273 29.0393 41.6038 0.0000 0.0000 0.0000
# 2 29.0393 47.2789 30.1656 0.0000 0.0000 0.0000
# 3 41.6038 30.1656 78.6226 0.0000 0.0000 0.0000
# 4 0.0000 0.0000 0.0000 22.6949 0.0000 0.0000
# 5 0.0000 0.0000 0.0000 0.0000 17.6559 0.0000
# 6 0.0000 0.0000 0.0000 0.0000 0.0000 22.1880
#
#
#
# Elastic Compliance Matrix: (Units=1/GPa)
#
#
# Indices 1 2 3 4 5 6 
#
# 1 0.011183 -0.004096 -0.004346 0.000000 0.000000 0.000000
# 2 -0.004096 0.029507 -0.009154 0.000000 0.000000 0.000000
# 3 -0.004346 -0.009154 0.018531 0.000000 0.000000 0.000000
# 4 0.000000 0.000000 0.000000 0.044063 0.000000 0.000000
# 5 0.000000 0.000000 0.000000 0.000000 0.056638 0.000000
# 6 0.000000 0.000000 0.000000 0.000000 0.000000 0.045069
#
#
# Mechanical properties :
#
#
# Convention : Reuss Voigt Hill
#
# Bulk Modulus (GPa) = 41.61542 49.30514 45.46028
# Shear Modulus (GPa) = 20.14562 21.92909 21.03735
#
# Velocity S-wave (km/s) = 3.55414 3.70813 3.63195
# Velocity P-wave (km/s) = 6.55261 7.01780 6.78919
#
# Compressibility (1/GPa) = 0.02402956
#
# Stress axis : x y z
#
# Youngs Moduli (GPa) = 89.42295 33.88993 53.96385
#
# Poissons Ratio (x) = 0.13880 0.23453
# Poissons Ratio (y) = 0.36625 0.49398
# Poissons Ratio (z) = 0.38864 0.31023
#
# Static dielectric constant tensor:
#      x y z
#    x 1.552970 0.000000 0.000000 
#    y 0.000000 1.529230 0.000000 
#    z 0.000000 0.000000 1.529360 
# 
# From -- ./inp_files/25034.got.cif
#   From: 2010.05.17/outbox.cif.g08.bks.cpg/sg59_13_cif.got.tgz:25034.got - 2010.06.03 14:40:33.
