data_PCOD9452350
_publ_section_title
;
Structure prediction by ZEFSAII (Michael W. Deem and Ramdas Pophale) SiO2 
 PCOD9452350
Probable space group: P M M N
;
_chemical_formula_sum "Si O2"
_cell_formula_units_Z 64
_cell_length_a 15.062609
_cell_length_b 8.983060
_cell_length_c 25.057640
_cell_angle_alpha 90.000000
_cell_angle_beta 90.000000
_cell_angle_gamma 90.000000
_cell_volume 3390.507182
_symmetry_space_group_name_H-M "P M M N"
_symmetry_group_IT_number 59
_space_group.IT_coordinate_system_code '2'
_symmetry_cell_setting 'orthorhombic'
loop_
_space_group_symop_operation_xyz
x,y,z
1/2-x,1/2-y,z
1/2+x,-y,-z
-x,1/2+y,-z
-x,-y,-z
1/2+x,1/2+y,-z
1/2-x,y,z
x,1/2-y,z
loop_
_atom_site_type_symbol
_atom_site_label
_atom_site_fract_x
_atom_site_fract_y
_atom_site_fract_z
Si Si1 0.004821 0.428322 0.198519
Si Si2 0.401750 0.071184 0.497633
Si Si3 0.606502 0.076928 0.609523
Si Si4 0.147500 0.576961 0.271208
Si Si5 0.152902 0.571308 0.724207
Si Si6 0.145627 0.070745 0.002751
Si Si7 0.891502 0.577539 0.386311
Si Si8 0.994268 0.428203 0.917662
O O1 0.001979 0.250000 0.193098
O O2 0.923166 0.480172 0.235763
O O3 0.001757 0.502748 0.140869
O O4 0.090884 0.479175 0.231225
O O5 0.408317 0.250000 0.496640
O O6 0.359304 0.029823 0.554751
O O7 0.500000 0.000000 0.500000
O O8 0.361944 0.012424 0.442367
O O9 0.631774 0.250000 0.603128
O O10 0.639021 0.024897 0.667335
O O11 0.499061 0.069531 0.612097
O O12 0.250000 0.575475 0.256038
O O13 0.115898 0.750000 0.270314
O O14 0.250000 0.524404 0.743289
O O15 0.149029 0.750000 0.722963
O O16 0.139562 0.514316 0.664223
O O17 0.250000 0.027224 0.999126
O O18 0.143284 0.250000 0.009912
O O19 0.084627 0.036208 0.950836
O O20 0.090400 0.994338 0.050497
O O21 0.866777 0.750000 0.378600
O O22 0.986257 0.250000 0.915209
#
# Coordination Sequence:
#
# PCOD9452350 Si02
#       8
#     8   8   8   8   8   8   8   8
#     4  11  23  39  59  83 115 153 191 236 282 327
#     4   9  17  28  46  74 103 134 174 220 274 338
#     4   9  17  31  51  76 105 135 173 223 279 340
#     4  10  21  38  59  81 108 144 187 235 285 339
#     4  10  22  38  55  78 107 142 186 233 282 335
#     4   9  19  38  63  91 124 158 192 233 277 321
#     4   9  17  31  51  75 103 137 176 223 277 337
#     4  10  21  37  60  90 121 155 195 233 274 328
#
# _framework density 18.876232000000002
#
# number of rings (size 3 to 8) (size 9 to 14) (size 15 to 20)
#    0.000    2.375    1.250    1.875    0.000    5.750 
#    0.000    0.625    0.000    2.250    0.000    0.000 
#    0.000    0.000    0.000    0.000    0.000    0.000 
#
# Total GULP energy -357027.014132 kJ/mol
# GULP energy per Si atom -5578.547096 kJ/mol
# Density = 1.883327 g / cm^3
# Si number density = 18.876232 Si / 1000 Ang^3
#
#
#
# Elastic Constant Matrix: (Units=GPa)
#
#
# Indices 1 2 3 4 5 6 
#
# 1 110.0795 33.4287 63.9466 0.0000 0.0000 0.0000
# 2 33.4287 38.8663 55.6484 0.0000 0.0000 0.0000
# 3 63.9466 55.6484 170.0211 0.0000 0.0000 0.0000
# 4 0.0000 0.0000 0.0000 23.9217 0.0000 0.0000
# 5 0.0000 0.0000 0.0000 0.0000 -134.4997 0.0000
# 6 0.0000 0.0000 0.0000 0.0000 0.0000 16.8536
#
#
#
# Elastic Compliance Matrix: (Units=1/GPa)
#
#
# Indices 1 2 3 4 5 6 
#
# 1 0.012745 -0.007713 -0.002269 0.000000 0.000000 0.000000
# 2 -0.007713 0.053088 -0.014475 0.000000 0.000000 0.000000
# 3 -0.002269 -0.014475 0.011473 0.000000 0.000000 0.000000
# 4 0.000000 0.000000 0.000000 0.041803 0.000000 0.000000
# 5 0.000000 0.000000 0.000000 0.000000 -0.007435 0.000000
# 6 0.000000 0.000000 0.000000 0.000000 0.000000 0.059334
#
#
# Mechanical properties :
#
#
# Convention : Reuss Voigt Hill
#
# Bulk Modulus (GPa) = 35.22143 69.44602 52.33373
# Shear Modulus (GPa) = 21.79732 -7.68200 7.05766
#
# Velocity S-wave (km/s) = 3.40185 -2.01953 1.93572
# Velocity P-wave (km/s) = 5.84207 5.60643 5.72546
#
# Compressibility (1/GPa) = 0.02839180
#
# Stress axis : x y z
#
# Youngs Moduli (GPa) = 78.46432 18.83653 87.16354
#
# Poissons Ratio (x) = 0.14529 0.19776
# Poissons Ratio (y) = 0.60520 1.26169
# Poissons Ratio (z) = 0.17803 0.27266
#
# Static dielectric constant tensor:
#      x y z
#    x 1.704520 0.000000 0.000000 
#    y 0.000000 1.638190 0.000000 
#    z 0.000000 0.000000 1.644260 
# 
# From -- ./inp_files/32218.got.cif
#   From: 2010.05.17/outbox.cif.g08.bks.cpg/sg59_17_cif.got.tgz:32218.got - 2010.06.03 14:40:33.
