data_PCOD9452710
_publ_section_title
;
Structure prediction by ZEFSAII (Michael W. Deem and Ramdas Pophale) SiO2 
 PCOD9452710
Probable space group: P M M N
;
_chemical_formula_sum "Si O2"
_cell_formula_units_Z 64
_cell_length_a 9.300779
_cell_length_b 14.322981
_cell_length_c 24.448303
_cell_angle_alpha 90.000000
_cell_angle_beta 90.000000
_cell_angle_gamma 90.000000
_cell_volume 3256.877772
_symmetry_space_group_name_H-M "P M M N"
_symmetry_group_IT_number 59
_space_group.IT_coordinate_system_code '2'
_symmetry_cell_setting 'orthorhombic'
loop_
_space_group_symop_operation_xyz
x,y,z
1/2-x,1/2-y,z
1/2+x,-y,-z
-x,1/2+y,-z
-x,-y,-z
1/2+x,1/2+y,-z
1/2-x,y,z
x,1/2-y,z
loop_
_atom_site_type_symbol
_atom_site_label
_atom_site_fract_x
_atom_site_fract_y
_atom_site_fract_z
Si Si1 0.084686 0.864300 0.970156
Si Si2 0.083180 0.137442 0.137944
Si Si3 0.079040 0.857065 0.188206
Si Si4 0.575461 0.356815 0.464380
Si Si5 0.577824 0.022693 0.359800
Si Si6 0.419960 0.638569 0.412071
Si Si7 0.078901 0.461020 0.251383
Si Si8 0.914322 0.636185 0.077801
O O1 0.250000 0.892902 0.974403
O O2 0.081941 0.750000 0.970194
O O3 0.013034 0.893849 0.913092
O O4 0.994781 0.894925 0.023010
O O5 0.250000 0.110744 0.127983
O O6 0.076880 0.250000 0.140531
O O7 0.041077 0.096263 0.196662
O O8 0.250000 0.859528 0.177209
O O9 0.039837 0.750000 0.201438
O O10 0.998001 0.887339 0.133186
O O11 0.050509 0.930984 0.235647
O O12 0.750000 0.357030 0.465464
O O13 0.528816 0.250000 0.456111
O O14 0.530834 0.419075 0.413426
O O15 0.531994 0.385625 0.525674
O O16 0.750000 0.021615 0.356936
O O17 0.510440 0.064157 0.304755
O O18 0.512815 0.920320 0.370033
O O19 0.250000 0.616370 0.406050
O O20 0.434485 0.750000 0.405988
O O21 0.250000 0.449454 0.261047
O O22 0.750000 0.604495 0.079230
O O23 0.913233 0.750000 0.076081
#
# Coordination Sequence:
#
# PCOD9452710 Si02
#       8
#     8   8   8   8   8   8   8   8
#     4   9  16  27  47  75 103 130 163 204 252 311
#     4   9  18  34  54  73  97 131 170 216 265 306
#     4   9  18  34  54  72  93 126 168 212 254 298
#     4   8  16  33  56  82 111 143 178 214 258 314
#     4  11  22  34  53  81 111 141 175 222 269 305
#     4   9  18  35  59  82 107 143 181 214 256 315
#     4  10  22  38  53  72 101 138 180 217 253 309
#     4   9  16  27  47  75 103 129 159 200 254 312
#
# _framework density 19.650722999999999
#
# number of rings (size 3 to 8) (size 9 to 14) (size 15 to 20)
#    0.000    2.750    0.000    2.250    0.000    5.250 
#    0.000    2.500    0.000    2.625    0.000    0.000 
#    0.000    0.000    0.000    0.000    0.000    0.000 
#
# Total GULP energy -357294.546713 kJ/mol
# GULP energy per Si atom -5582.727292 kJ/mol
# Density = 1.960600 g / cm^3
# Si number density = 19.650723 Si / 1000 Ang^3
#
#
#
# Elastic Constant Matrix: (Units=GPa)
#
#
# Indices 1 2 3 4 5 6 
#
# 1 46.0663 5.7297 38.9871 0.0000 0.0000 0.0000
# 2 5.7297 28.5118 7.1440 0.0000 0.0000 0.0000
# 3 38.9871 7.1440 86.4379 0.0000 0.0000 0.0000
# 4 0.0000 0.0000 0.0000 23.8414 0.0000 0.0000
# 5 0.0000 0.0000 0.0000 0.0000 37.5500 0.0000
# 6 0.0000 0.0000 0.0000 0.0000 0.0000 13.0446
#
#
#
# Elastic Compliance Matrix: (Units=1/GPa)
#
#
# Indices 1 2 3 4 5 6 
#
# 1 0.035390 -0.003178 -0.015700 0.000000 0.000000 0.000000
# 2 -0.003178 0.036100 -0.001550 0.000000 0.000000 0.000000
# 3 -0.015700 -0.001550 0.018778 0.000000 0.000000 0.000000
# 4 0.000000 0.000000 0.000000 0.041944 0.000000 0.000000
# 5 0.000000 0.000000 0.000000 0.000000 0.026631 0.000000
# 6 0.000000 0.000000 0.000000 0.000000 0.000000 0.076660
#
#
# Mechanical properties :
#
#
# Convention : Reuss Voigt Hill
#
# Bulk Modulus (GPa) = 20.23775 29.41531 24.82653
# Shear Modulus (GPa) = 17.07466 22.16421 19.61943
#
# Velocity S-wave (km/s) = 2.95092 3.36208 3.16319
# Velocity P-wave (km/s) = 4.68313 5.48388 5.09925
#
# Compressibility (1/GPa) = 0.04941260
#
# Stress axis : x y z
#
# Youngs Moduli (GPa) = 28.25630 27.70060 53.25264
#
# Poissons Ratio (x) = 0.08804 0.83606
# Poissons Ratio (y) = 0.08981 0.08255
# Poissons Ratio (z) = 0.44362 0.04294
#
# Static dielectric constant tensor:
#      x y z
#    x 1.656220 0.000000 0.000000 
#    y 0.000000 1.729670 0.000000 
#    z 0.000000 0.000000 1.662190 
# 
# From -- ./inp_files/31438.got.cif
#   From: 2010.05.17/outbox.cif.g08.bks.cpg/sg59_16_cif.got.tgz:31438.got - 2010.06.03 14:40:33.
