data_PCOD9452285
_publ_section_title
;
Structure prediction by ZEFSAII (Michael W. Deem and Ramdas Pophale) SiO2 
 PCOD9452285
Probable space group: P M M N
;
_chemical_formula_sum "Si O2"
_cell_formula_units_Z 48
_cell_length_a 15.776050
_cell_length_b 16.758025
_cell_length_c 9.610694
_cell_angle_alpha 90.000000
_cell_angle_beta 90.000000
_cell_angle_gamma 90.000000
_cell_volume 2540.831458
_symmetry_space_group_name_H-M "P M M N"
_symmetry_group_IT_number 59
_space_group.IT_coordinate_system_code '2'
_symmetry_cell_setting 'orthorhombic'
loop_
_space_group_symop_operation_xyz
x,y,z
1/2-x,1/2-y,z
1/2+x,-y,-z
-x,1/2+y,-z
-x,-y,-z
1/2+x,1/2+y,-z
1/2-x,y,z
x,1/2-y,z
loop_
_atom_site_type_symbol
_atom_site_label
_atom_site_fract_x
_atom_site_fract_y
_atom_site_fract_z
Si Si1 0.495198 0.154315 0.605139
Si Si2 0.347791 0.398656 0.807500
Si Si3 0.348613 0.844570 0.193637
Si Si4 0.505581 0.653327 0.715043
Si Si5 0.917688 0.050377 0.057974
Si Si6 0.342649 0.343147 0.104714
O O1 0.481025 0.250000 0.606333
O O2 0.415985 0.116276 0.687239
O O3 0.583135 0.138910 0.685163
O O4 0.501859 0.128790 0.444795
O O5 0.250000 0.379512 0.770590
O O6 0.356703 0.487293 0.867587
O O7 0.373803 0.348720 0.945752
O O8 0.250000 0.856908 0.232110
O O9 0.357939 0.750000 0.156711
O O10 0.375078 0.901766 0.067403
O O11 0.499738 0.750000 0.722202
O O12 0.442148 0.613233 0.822848
O O13 0.594960 0.624578 0.779751
O O14 0.000000 0.000000 0.000000
O O15 0.250000 0.381266 0.108319
O O16 0.335196 0.250000 0.135884
#
# Coordination Sequence:
#
# PCOD9452285 Si02
#       6
#     8   8   8   8   8   8
#     4  10  21  38  60  86 117 154 192 235 290 350
#     4  11  22  36  56  85 119 153 192 239 289 346
#     4  10  21  40  64  87 114 154 202 242 283 344
#     4  10  21  37  59  84 115 154 194 238 291 347
#     4  12  21  37  60  86 114 152 193 248 295 342
#     4   9  17  31  52  79 110 147 192 238 284 340
#
# _framework density 18.891454
#
# number of rings (size 3 to 8) (size 9 to 14) (size 15 to 20)
#    0.000    1.667    3.333    1.500    0.000    5.000 
#    0.000    3.333    0.000    4.000    0.000    0.000 
#    0.000    0.000    0.000    0.000    0.000    0.000 
#
# Total GULP energy -267637.893123 kJ/mol
# GULP energy per Si atom -5575.789440 kJ/mol
# Density = 1.884846 g / cm^3
# Si number density = 18.891454 Si / 1000 Ang^3
#
#
#
# Elastic Constant Matrix: (Units=GPa)
#
#
# Indices 1 2 3 4 5 6 
#
# 1 102.4218 30.9311 63.2487 0.0000 0.0000 0.0000
# 2 30.9311 34.4903 35.9252 0.0000 0.0000 0.0000
# 3 63.2487 35.9252 132.4251 0.0000 0.0000 0.0000
# 4 0.0000 0.0000 0.0000 13.7766 0.0000 0.0000
# 5 0.0000 0.0000 0.0000 0.0000 13.8212 0.0000
# 6 0.0000 0.0000 0.0000 0.0000 0.0000 24.7809
#
#
#
# Elastic Compliance Matrix: (Units=1/GPa)
#
#
# Indices 1 2 3 4 5 6 
#
# 1 0.015493 -0.008623 -0.005060 0.000000 0.000000 0.000000
# 2 -0.008623 0.045213 -0.008147 0.000000 0.000000 0.000000
# 3 -0.005060 -0.008147 0.012178 0.000000 0.000000 0.000000
# 4 0.000000 0.000000 0.000000 0.072587 0.000000 0.000000
# 5 0.000000 0.000000 0.000000 0.000000 0.072353 0.000000
# 6 0.000000 0.000000 0.000000 0.000000 0.000000 0.040354
#
#
# Mechanical properties :
#
#
# Convention : Reuss Voigt Hill
#
# Bulk Modulus (GPa) = 34.21940 58.83857 46.52899
# Shear Modulus (GPa) = 16.04728 19.75787 17.90257
#
# Velocity S-wave (km/s) = 2.91769 3.23749 3.08174
# Velocity P-wave (km/s) = 5.43172 6.72223 6.11113
#
# Compressibility (1/GPa) = 0.02922319
#
# Stress axis : x y z
#
# Youngs Moduli (GPa) = 64.54727 22.11751 82.11199
#
# Poissons Ratio (x) = 0.19072 0.41550
# Poissons Ratio (y) = 0.55660 0.66898
# Poissons Ratio (z) = 0.32662 0.18019
#
# Static dielectric constant tensor:
#      x y z
#    x 1.720250 0.000000 0.000000 
#    y 0.000000 1.712870 0.000000 
#    z 0.000000 0.000000 1.619100 
# 
# From -- ./inp_files/8979.got.cif
#   From: 2010.05.17/outbox.cif.g08.bks.cpg/sg59_5_cif.got.tgz:8979.got - 2010.06.03 14:40:33.
