data_PCOD9452827
_publ_section_title
;
Structure prediction by ZEFSAII (Michael W. Deem and Ramdas Pophale) SiO2 
 PCOD9452827
Probable space group: P M M N
;
_chemical_formula_sum "Si O2"
_cell_formula_units_Z 64
_cell_length_a 8.315174
_cell_length_b 31.674393
_cell_length_c 12.162193
_cell_angle_alpha 90.000000
_cell_angle_beta 90.000000
_cell_angle_gamma 90.000000
_cell_volume 3203.255152
_symmetry_space_group_name_H-M "P M M N"
_symmetry_group_IT_number 59
_space_group.IT_coordinate_system_code '2'
_symmetry_cell_setting 'orthorhombic'
loop_
_space_group_symop_operation_xyz
x,y,z
1/2-x,1/2-y,z
1/2+x,-y,-z
-x,1/2+y,-z
-x,-y,-z
1/2+x,1/2+y,-z
1/2-x,y,z
x,1/2-y,z
loop_
_atom_site_type_symbol
_atom_site_label
_atom_site_fract_x
_atom_site_fract_y
_atom_site_fract_z
Si Si1 0.937803 0.182009 0.754099
Si Si2 0.558059 0.547735 0.485873
Si Si3 0.446065 0.796701 0.491267
Si Si4 0.941864 0.879426 0.884991
Si Si5 0.438984 0.088812 0.747582
Si Si6 0.941751 0.795657 0.008981
Si Si7 0.442096 0.623443 0.636913
Si Si8 0.060439 0.545796 0.035175
O O1 0.750000 0.193143 0.763035
O O2 0.998268 0.197650 0.635499
O O3 0.960156 0.131628 0.754554
O O4 0.024999 0.199255 0.861609
O O5 0.500000 0.500000 0.500000
O O6 0.750000 0.549165 0.499760
O O7 0.519545 0.563993 0.363289
O O8 0.481499 0.580746 0.570906
O O9 0.250000 0.798188 0.489791
O O10 0.493991 0.750000 0.530983
O O11 0.499304 0.836093 0.565360
O O12 0.750000 0.882734 0.903073
O O13 0.978463 0.877222 0.756277
O O14 0.003315 0.836747 0.944843
O O15 0.022382 0.919806 0.941485
O O16 0.250000 0.100267 0.744055
O O17 0.472467 0.061116 0.854563
O O18 0.750000 0.795291 0.992194
O O19 0.006794 0.750000 0.972186
O O20 0.250000 0.626785 0.650087
O O21 0.250000 0.544606 0.055919
O O22 0.000000 0.500000 0.000000
#
# Coordination Sequence:
#
# PCOD9452827 Si02
#       8
#     8   8   8   8   8   8   8   8
#     4  11  20  35  62  94 127 163 205 257 311 370
#     4  11  25  43  66  93 127 164 208 256 310 372
#     4   9  19  36  59  90 126 163 204 254 309 364
#     4  11  24  43  64  89 126 167 210 260 314 371
#     4  11  23  41  65  94 129 166 205 256 312 370
#     4  10  22  40  62  89 125 167 208 256 313 373
#     4  11  23  41  64  90 125 165 211 261 312 369
#     4  12  26  44  68  96 127 164 209 256 312 373
#
# _framework density 19.979675
#
# number of rings (size 3 to 8) (size 9 to 14) (size 15 to 20)
#    0.000    1.250    2.500    3.375    1.750    3.250 
#    0.000    0.000    0.000    3.375    0.000    0.000 
#    0.000    0.000    0.000    0.000    0.000    0.000 
#
# Total GULP energy -357849.569824 kJ/mol
# GULP energy per Si atom -5591.399529 kJ/mol
# Density = 1.993420 g / cm^3
# Si number density = 19.979675 Si / 1000 Ang^3
#
#
#
# Elastic Constant Matrix: (Units=GPa)
#
#
# Indices 1 2 3 4 5 6 
#
# 1 17.6840 1.9005 -6.0878 0.0000 0.0000 0.0000
# 2 1.9005 156.8176 42.3419 0.0000 0.0000 0.0000
# 3 -6.0878 42.3419 100.5690 0.0000 0.0000 0.0000
# 4 0.0000 0.0000 0.0000 32.6548 0.0000 0.0000
# 5 0.0000 0.0000 0.0000 0.0000 31.4279 0.0000
# 6 0.0000 0.0000 0.0000 0.0000 0.0000 9.8373
#
#
#
# Elastic Compliance Matrix: (Units=1/GPa)
#
#
# Indices 1 2 3 4 5 6 
#
# 1 0.058234 -0.001870 0.004312 0.000000 0.000000 0.000000
# 2 -0.001870 0.007255 -0.003168 0.000000 0.000000 0.000000
# 3 0.004312 -0.003168 0.011538 0.000000 0.000000 0.000000
# 4 0.000000 0.000000 0.000000 0.030623 0.000000 0.000000
# 5 0.000000 0.000000 0.000000 0.000000 0.031819 0.000000
# 6 0.000000 0.000000 0.000000 0.000000 0.000000 0.101654
#
#
# Mechanical properties :
#
#
# Convention : Reuss Voigt Hill
#
# Bulk Modulus (GPa) = 13.23169 39.04219 26.13694
# Shear Modulus (GPa) = 18.67303 30.57838 24.62571
#
# Velocity S-wave (km/s) = 3.06044 3.91637 3.51456
# Velocity P-wave (km/s) = 4.37325 6.32724 5.43872
#
# Compressibility (1/GPa) = 0.07557612
#
# Stress axis : x y z
#
# Youngs Moduli (GPa) = 17.17216 137.84000 86.66913
#
# Poissons Ratio (x) = 0.25778 -0.37376
# Poissons Ratio (y) = 0.03211 0.27454
# Poissons Ratio (z) = -0.07405 0.43663
#
# Static dielectric constant tensor:
#      x y z
#    x 1.701260 0.000000 0.000000 
#    y 0.000000 1.699900 0.000000 
#    z 0.000000 0.000000 1.670940 
# 
# From -- ./inp_files/14932.got.cif
#   From: 2010.05.17/outbox.cif.g08.bks.cpg/sg59_8_cif.got.tgz:14932.got - 2010.06.03 14:40:33.
