data_PCOD9452698
_publ_section_title
;
Structure prediction by ZEFSAII (Michael W. Deem and Ramdas Pophale) SiO2 
 PCOD9452698
Probable space group: P M M N
;
_chemical_formula_sum "Si O2"
_cell_formula_units_Z 56
_cell_length_a 13.516939
_cell_length_b 21.885212
_cell_length_c 10.322997
_cell_angle_alpha 90.000000
_cell_angle_beta 90.000000
_cell_angle_gamma 90.000000
_cell_volume 3053.760076
_symmetry_space_group_name_H-M "P M M N"
_symmetry_group_IT_number 59
_space_group.IT_coordinate_system_code '2'
_symmetry_cell_setting 'orthorhombic'
loop_
_space_group_symop_operation_xyz
x,y,z
1/2-x,1/2-y,z
1/2+x,-y,-z
-x,1/2+y,-z
-x,-y,-z
1/2+x,1/2+y,-z
1/2-x,y,z
x,1/2-y,z
loop_
_atom_site_type_symbol
_atom_site_label
_atom_site_fract_x
_atom_site_fract_y
_atom_site_fract_z
Si Si1 0.362627 0.677713 0.334718
Si Si2 0.470295 0.609334 0.825645
Si Si3 0.367175 0.066668 0.519071
Si Si4 0.367131 0.819605 0.607824
Si Si5 0.131952 0.893659 0.101622
Si Si6 0.135364 0.177776 0.320187
Si Si7 0.535502 0.015567 0.698206
O O1 0.250000 0.653653 0.329291
O O2 0.360012 0.750000 0.351585
O O3 0.407199 0.654939 0.470341
O O4 0.401448 0.662553 0.193627
O O5 0.391545 0.638975 0.728138
O O6 0.565909 0.651377 0.793582
O O7 0.490973 0.541668 0.775046
O O8 0.429644 0.607389 0.970138
O O9 0.250000 0.061685 0.553789
O O10 0.379955 0.131469 0.442328
O O11 0.445314 0.054927 0.635617
O O12 0.397540 0.013589 0.416059
O O13 0.250000 0.816663 0.591830
O O14 0.401774 0.750000 0.630111
O O15 0.250000 0.892832 0.072700
O O16 0.102395 0.948209 0.199052
O O17 0.250000 0.171527 0.283733
O O18 0.118243 0.250000 0.347706
#
# Coordination Sequence:
#
# PCOD9452698 Si02
#       7
#     8   8   8   8   8   8   8
#     4   8  17  33  52  76 108 144 178 218 274 336
#     4  11  22  36  55  84 113 150 193 235 281 338
#     4   9  19  36  59  86 112 143 188 244 296 341
#     4   9  18  33  54  83 115 145 182 230 283 339
#     4  11  23  38  56  80 116 157 190 227 283 346
#     4   9  19  37  60  84 110 143 188 241 292 338
#     4  10  22  37  54  81 115 151 193 236 284 346
#
# _framework density 18.338048000000001
#
# number of rings (size 3 to 8) (size 9 to 14) (size 15 to 20)
#    0.000    2.429    0.000    2.571    6.000    2.857 
#    0.000    2.143    0.000    0.000    0.000    2.000 
#    0.000    0.000    0.000    0.000    0.000    0.000 
#
# Total GULP energy -311777.908867 kJ/mol
# GULP energy per Si atom -5567.462658 kJ/mol
# Density = 1.829631 g / cm^3
# Si number density = 18.338048 Si / 1000 Ang^3
#
#
#
# Elastic Constant Matrix: (Units=GPa)
#
#
# Indices 1 2 3 4 5 6 
#
# 1 107.9331 32.5414 33.4031 0.0000 0.0000 0.0000
# 2 32.5414 78.0544 30.5176 0.0000 0.0000 0.0000
# 3 33.4031 30.5176 96.5802 0.0000 0.0000 0.0000
# 4 0.0000 0.0000 0.0000 22.3054 0.0000 0.0000
# 5 0.0000 0.0000 0.0000 0.0000 27.0299 0.0000
# 6 0.0000 0.0000 0.0000 0.0000 0.0000 27.6254
#
#
#
# Elastic Compliance Matrix: (Units=1/GPa)
#
#
# Indices 1 2 3 4 5 6 
#
# 1 0.011196 -0.003598 -0.002735 0.000000 0.000000 0.000000
# 2 -0.003598 0.015774 -0.003740 0.000000 0.000000 0.000000
# 3 -0.002735 -0.003740 0.012482 0.000000 0.000000 0.000000
# 4 0.000000 0.000000 0.000000 0.044832 0.000000 0.000000
# 5 0.000000 0.000000 0.000000 0.000000 0.036996 0.000000
# 6 0.000000 0.000000 0.000000 0.000000 0.000000 0.036199
#
#
# Mechanical properties :
#
#
# Convention : Reuss Voigt Hill
#
# Bulk Modulus (GPa) = 51.79951 52.83243 52.31597
# Shear Modulus (GPa) = 27.16490 27.79919 27.48204
#
# Velocity S-wave (km/s) = 3.85299 3.89772 3.87542
# Velocity P-wave (km/s) = 6.93559 7.00922 6.97250
#
# Compressibility (1/GPa) = 0.01930520
#
# Stress axis : x y z
#
# Youngs Moduli (GPa) = 89.31416 63.39573 80.11652
#
# Poissons Ratio (x) = 0.22812 0.21915
# Poissons Ratio (y) = 0.32139 0.29961
# Poissons Ratio (z) = 0.24431 0.23708
#
# Static dielectric constant tensor:
#      x y z
#    x 1.684540 0.000000 0.000000 
#    y 0.000000 1.793150 0.000000 
#    z 0.000000 0.000000 1.622800 
# 
# From -- ./inp_files/9343.got.cif
#   From: 2010.05.17/outbox.cif.g08.bks.cpg/sg59_5_cif.got.tgz:9343.got - 2010.06.03 14:40:33.
