data_PCOD9452115
_publ_section_title
;
Structure prediction by ZEFSAII (Michael W. Deem and Ramdas Pophale) SiO2 
 PCOD9452115
Probable space group: P M M N
;
_chemical_formula_sum "Si O2"
_cell_formula_units_Z 64
_cell_length_a 9.142925
_cell_length_b 14.435730
_cell_length_c 26.811721
_cell_angle_alpha 90.000000
_cell_angle_beta 90.000000
_cell_angle_gamma 90.000000
_cell_volume 3538.739546
_symmetry_space_group_name_H-M "P M M N"
_symmetry_group_IT_number 59
_space_group.IT_coordinate_system_code '2'
_symmetry_cell_setting 'orthorhombic'
loop_
_space_group_symop_operation_xyz
x,y,z
1/2-x,1/2-y,z
1/2+x,-y,-z
-x,1/2+y,-z
-x,-y,-z
1/2+x,1/2+y,-z
1/2-x,y,z
x,1/2-y,z
loop_
_atom_site_type_symbol
_atom_site_label
_atom_site_fract_x
_atom_site_fract_y
_atom_site_fract_z
Si Si1 0.074895 0.501266 0.553879
Si Si2 0.075951 0.141499 0.903417
Si Si3 0.575540 0.641016 0.627980
Si Si4 0.922865 0.001979 0.714495
Si Si5 0.424446 0.507252 0.820145
Si Si6 0.076272 0.640961 0.373890
Si Si7 0.581022 0.638596 0.894200
Si Si8 0.083596 0.862901 0.995137
O O1 0.250000 0.502471 0.550228
O O2 0.000000 0.500000 0.500000
O O3 0.015480 0.589219 0.585257
O O4 0.018252 0.412327 0.584959
O O5 0.250000 0.133305 0.912375
O O6 0.043381 0.250000 0.894712
O O7 0.992386 0.110540 0.953184
O O8 0.038223 0.080099 0.855622
O O9 0.750000 0.628431 0.618178
O O10 0.545267 0.750000 0.630812
O O11 0.544796 0.587241 0.679693
O O12 0.750000 0.000566 0.726181
O O13 0.012898 0.003399 0.764990
O O14 0.951899 0.090046 0.678752
O O15 0.250000 0.516318 0.818790
O O16 0.495676 0.594079 0.848326
O O17 0.250000 0.627081 0.384680
O O18 0.047254 0.750000 0.372099
O O19 0.750000 0.609722 0.893528
O O20 0.575461 0.750000 0.891543
O O21 0.505765 0.609849 0.946128
O O22 0.250000 0.896350 0.992204
O O23 0.085904 0.750000 0.995076
#
# Coordination Sequence:
#
# PCOD9452115 Si02
#       8
#     8   8   8   8   8   8   8   8
#     4  11  22  36  56  85 122 157 189 229 274 321
#     4   9  19  36  54  73 102 139 175 210 255 315
#     4   9  19  38  62  84 109 146 190 232 276 327
#     4   9  19  36  56  80 110 142 178 223 274 326
#     4  11  23  36  53  79 108 139 176 221 269 314
#     4   9  19  38  62  85 111 147 190 232 275 324
#     4  10  21  37  56  76 101 136 174 213 263 323
#     4   9  17  31  53  79 104 130 165 212 262 314
#
# _framework density 18.085535
#
# number of rings (size 3 to 8) (size 9 to 14) (size 15 to 20)
#    0.000    2.375    0.000    3.000    0.000    7.750 
#    0.000    1.250    0.000    0.000    0.000    0.000 
#    0.000    0.000    0.000    0.000    0.000    0.000 
#
# Total GULP energy -357367.760699 kJ/mol
# GULP energy per Si atom -5583.871261 kJ/mol
# Density = 1.804437 g / cm^3
# Si number density = 18.085535 Si / 1000 Ang^3
#
#
#
# Elastic Constant Matrix: (Units=GPa)
#
#
# Indices 1 2 3 4 5 6 
#
# 1 102.1095 55.8485 95.6904 0.0000 0.0000 0.0000
# 2 55.8485 106.7851 56.4932 0.0000 0.0000 0.0000
# 3 95.6904 56.4932 160.8601 0.0000 0.0000 0.0000
# 4 0.0000 0.0000 0.0000 8.4543 0.0000 0.0000
# 5 0.0000 0.0000 0.0000 0.0000 39.3549 0.0000
# 6 0.0000 0.0000 0.0000 0.0000 0.0000 17.4364
#
#
#
# Elastic Compliance Matrix: (Units=1/GPa)
#
#
# Indices 1 2 3 4 5 6 
#
# 1 0.025319 -0.006477 -0.012787 0.000000 0.000000 0.000000
# 2 -0.006477 0.013159 -0.000768 0.000000 0.000000 0.000000
# 3 -0.012787 -0.000768 0.014093 0.000000 0.000000 0.000000
# 4 0.000000 0.000000 0.000000 0.118284 0.000000 0.000000
# 5 0.000000 0.000000 0.000000 0.000000 0.025410 0.000000
# 6 0.000000 0.000000 0.000000 0.000000 0.000000 0.057351
#
#
# Mechanical properties :
#
#
# Convention : Reuss Voigt Hill
#
# Bulk Modulus (GPa) = 79.96016 87.31320 83.63668
# Shear Modulus (GPa) = 16.78712 23.83063 20.30888
#
# Velocity S-wave (km/s) = 3.04995 3.63390 3.35466
# Velocity P-wave (km/s) = 7.53068 8.12340 7.83265
#
# Compressibility (1/GPa) = 0.01250623
#
# Stress axis : x y z
#
# Youngs Moduli (GPa) = 39.49628 75.99641 70.95875
#
# Poissons Ratio (x) = 0.49224 0.90732
# Poissons Ratio (y) = 0.25582 0.05451
# Poissons Ratio (z) = 0.50502 0.05838
#
# Static dielectric constant tensor:
#      x y z
#    x 1.606200 0.000000 0.000000 
#    y 0.000000 1.636250 0.000000 
#    z 0.000000 0.000000 1.578670 
# 
# From -- ./inp_files/31586.got.cif
#   From: 2010.05.17/outbox.cif.g08.bks.cpg/sg59_16_cif.got.tgz:31586.got - 2010.06.03 14:40:33.
