data_PCOD9452603
_publ_section_title
;
Structure prediction by ZEFSAII (Michael W. Deem and Ramdas Pophale) SiO2 
 PCOD9452603
Probable space group: P M M N
;
_chemical_formula_sum "Si O2"
_cell_formula_units_Z 56
_cell_length_a 8.836485
_cell_length_b 16.560584
_cell_length_c 19.247160
_cell_angle_alpha 90.000000
_cell_angle_beta 90.000000
_cell_angle_gamma 90.000000
_cell_volume 2816.578430
_symmetry_space_group_name_H-M "P M M N"
_symmetry_group_IT_number 59
_space_group.IT_coordinate_system_code '2'
_symmetry_cell_setting 'orthorhombic'
loop_
_space_group_symop_operation_xyz
x,y,z
1/2-x,1/2-y,z
1/2+x,-y,-z
-x,1/2+y,-z
-x,-y,-z
1/2+x,1/2+y,-z
1/2-x,y,z
x,1/2-y,z
loop_
_atom_site_type_symbol
_atom_site_label
_atom_site_fract_x
_atom_site_fract_y
_atom_site_fract_z
Si Si1 0.579522 0.843103 0.590853
Si Si2 0.434365 0.660583 0.163176
Si Si3 0.433050 0.998322 0.076820
Si Si4 0.570602 0.086292 0.695641
Si Si5 0.574284 0.080770 0.285802
Si Si6 0.073370 0.072415 0.544945
Si Si7 0.568549 0.660361 0.839868
O O1 0.750000 0.874542 0.607087
O O2 0.573299 0.750000 0.610015
O O3 0.459544 0.891342 0.635936
O O4 0.558644 0.853768 0.508883
O O5 0.250000 0.659261 0.161855
O O6 0.483005 0.750000 0.138996
O O7 0.483510 0.582827 0.118032
O O8 0.479242 0.647503 0.243864
O O9 0.250000 0.996454 0.074184
O O10 0.476161 0.082514 0.114561
O O11 0.500000 0.000000 0.000000
O O12 0.750000 0.092398 0.688013
O O13 0.498706 0.090407 0.619340
O O14 0.525195 0.998796 0.725532
O O15 0.750000 0.063921 0.275345
O O16 0.514511 0.148234 0.233332
O O17 0.250000 0.054519 0.555573
O O18 0.000000 0.000000 0.500000
O O19 0.750000 0.656279 0.829372
O O20 0.534062 0.750000 0.868604
#
# Coordination Sequence:
#
# PCOD9452603 Si02
#       7
#     8   8   8   8   8   8   8
#     4  10  22  39  57  78 111 155 195 235 294 363
#     4   9  19  38  64  90 117 155 202 246 292 350
#     4  10  21  39  62  91 124 159 196 236 285 345
#     4  11  21  37  61  85 114 153 200 247 299 359
#     4  12  23  35  57  87 118 150 194 248 298 348
#     4  11  22  36  56  82 112 150 196 245 300 356
#     4  10  21  39  62  87 119 160 199 235 287 356
#
# _framework density 19.882280999999999
#
# number of rings (size 3 to 8) (size 9 to 14) (size 15 to 20)
#    0.000    1.571    2.857    2.571    0.000    4.571 
#    0.000    0.000    0.000    3.000    0.000    0.000 
#    0.000    0.000    0.000    0.000    0.000    0.000 
#
# Total GULP energy -312520.438856 kJ/mol
# GULP energy per Si atom -5580.722122 kJ/mol
# Density = 1.983703 g / cm^3
# Si number density = 19.882281 Si / 1000 Ang^3
#
#
#
# Elastic Constant Matrix: (Units=GPa)
#
#
# Indices 1 2 3 4 5 6 
#
# 1 35.4774 17.1766 31.4949 0.0000 0.0000 0.0000
# 2 17.1766 117.8319 57.3538 0.0000 0.0000 0.0000
# 3 31.4949 57.3538 125.7769 0.0000 0.0000 0.0000
# 4 0.0000 0.0000 0.0000 19.2079 0.0000 0.0000
# 5 0.0000 0.0000 0.0000 0.0000 34.1236 0.0000
# 6 0.0000 0.0000 0.0000 0.0000 0.0000 5.8609
#
#
#
# Elastic Compliance Matrix: (Units=1/GPa)
#
#
# Indices 1 2 3 4 5 6 
#
# 1 0.036358 -0.001116 -0.008595 0.000000 0.000000 0.000000
# 2 -0.001116 0.010942 -0.004710 0.000000 0.000000 0.000000
# 3 -0.008595 -0.004710 0.012251 0.000000 0.000000 0.000000
# 4 0.000000 0.000000 0.000000 0.052062 0.000000 0.000000
# 5 0.000000 0.000000 0.000000 0.000000 0.029305 0.000000
# 6 0.000000 0.000000 0.000000 0.000000 0.000000 0.170622
#
#
# Mechanical properties :
#
#
# Convention : Reuss Voigt Hill
#
# Bulk Modulus (GPa) = 32.56541 54.57075 43.56808
# Shear Modulus (GPa) = 14.26056 23.37587 18.81821
#
# Velocity S-wave (km/s) = 2.68106 3.43259 3.07983
# Velocity P-wave (km/s) = 5.09890 6.57394 5.88283
#
# Compressibility (1/GPa) = 0.03070743
#
# Stress axis : x y z
#
# Youngs Moduli (GPa) = 27.50458 91.39158 81.62926
#
# Poissons Ratio (x) = 0.10203 0.70160
# Poissons Ratio (y) = 0.03071 0.38447
# Poissons Ratio (z) = 0.23640 0.43045
#
# Static dielectric constant tensor:
#      x y z
#    x 1.670850 0.000000 0.000000 
#    y 0.000000 1.752510 0.000000 
#    z 0.000000 0.000000 1.710540 
# 
# From -- ./inp_files/29094.got.cif
#   From: 2010.05.17/outbox.cif.g08.bks.cpg/sg59_15_cif.got.tgz:29094.got - 2010.06.03 14:40:33.
