data_PCOD9452426
_publ_section_title
;
Structure prediction by ZEFSAII (Michael W. Deem and Ramdas Pophale) SiO2 
 PCOD9452426
Probable space group: P M M N
;
_chemical_formula_sum "Si O2"
_cell_formula_units_Z 64
_cell_length_a 21.920248
_cell_length_b 13.927012
_cell_length_c 10.201608
_cell_angle_alpha 90.000000
_cell_angle_beta 90.000000
_cell_angle_gamma 90.000000
_cell_volume 3114.383177
_symmetry_space_group_name_H-M "P M M N"
_symmetry_group_IT_number 59
_space_group.IT_coordinate_system_code '2'
_symmetry_cell_setting 'orthorhombic'
loop_
_space_group_symop_operation_xyz
x,y,z
1/2-x,1/2-y,z
1/2+x,-y,-z
-x,1/2+y,-z
-x,-y,-z
1/2+x,1/2+y,-z
1/2-x,y,z
x,1/2-y,z
loop_
_atom_site_type_symbol
_atom_site_label
_atom_site_fract_x
_atom_site_fract_y
_atom_site_fract_z
Si Si1 0.095979 0.355076 0.161268
Si Si2 0.950979 0.561891 0.320422
Si Si3 0.682393 0.363657 0.732955
Si Si4 0.993429 0.861266 0.599954
Si Si5 0.488510 0.638805 0.054534
Si Si6 0.322830 0.857355 0.538795
Si Si7 0.633026 0.037770 0.970613
Si Si8 0.319573 0.020255 0.752169
O O1 0.125383 0.250000 0.155774
O O2 0.064065 0.367724 0.301292
O O3 0.136801 0.443883 0.120780
O O4 0.043066 0.357737 0.050437
O O5 0.973295 0.616025 0.451371
O O6 0.879698 0.581669 0.285763
O O7 0.962779 0.448122 0.351079
O O8 0.989608 0.596581 0.194202
O O9 0.750000 0.406652 0.741967
O O10 0.685910 0.250000 0.711431
O O11 0.649885 0.397279 0.598420
O O12 0.653490 0.379869 0.872540
O O13 0.015332 0.750000 0.610567
O O14 0.468714 0.750000 0.071942
O O15 0.435824 0.570375 0.997089
O O16 0.250000 0.850308 0.512674
O O17 0.345033 0.750000 0.568546
O O18 0.326571 0.929225 0.657355
O O19 0.670222 0.016694 0.100405
O O20 0.250000 0.058673 0.737213
#
# Coordination Sequence:
#
# PCOD9452426 Si02
#       8
#     8   8   8   8   8   8   8   8
#     4  10  21  38  59  84 118 155 199 253 313 371
#     4  11  22  40  64  92 132 164 208 264 313 380
#     4   9  19  35  56  85 121 161 199 241 301 372
#     4  10  22  39  63  95 125 160 206 265 330 380
#     4  11  22  38  61  90 121 162 203 252 316 376
#     4   8  17  35  54  76 112 157 201 242 289 352
#     4  12  21  36  60  90 125 156 203 256 311 370
#     4  11  24  38  59  90 127 172 213 250 307 374
#
# _framework density 20.549814999999999
#
# number of rings (size 3 to 8) (size 9 to 14) (size 15 to 20)
#    0.000    1.750    2.500    3.000    1.750    1.500 
#    0.000    2.500    0.000    4.500    0.000    3.500 
#    0.000    0.000    0.000    0.000    0.000    0.000 
#
# Total GULP energy -356857.854859 kJ/mol
# GULP energy per Si atom -5575.903982 kJ/mol
# Density = 2.050304 g / cm^3
# Si number density = 20.549815 Si / 1000 Ang^3
#
#
#
# Elastic Constant Matrix: (Units=GPa)
#
#
# Indices 1 2 3 4 5 6 
#
# 1 42.0556 -2.3086 2.0664 0.0000 0.0000 0.0000
# 2 -2.3086 61.3001 -2.9310 0.0000 0.0000 0.0000
# 3 2.0664 -2.9310 99.6465 0.0000 0.0000 0.0000
# 4 0.0000 0.0000 0.0000 31.2654 0.0000 0.0000
# 5 0.0000 0.0000 0.0000 0.0000 23.1327 0.0000
# 6 0.0000 0.0000 0.0000 0.0000 0.0000 8.5269
#
#
#
# Elastic Compliance Matrix: (Units=1/GPa)
#
#
# Indices 1 2 3 4 5 6 
#
# 1 0.023849 0.000876 -0.000469 0.000000 0.000000 0.000000
# 2 0.000876 0.016368 0.000463 0.000000 0.000000 0.000000
# 3 -0.000469 0.000463 0.010059 0.000000 0.000000 0.000000
# 4 0.000000 0.000000 0.000000 0.031984 0.000000 0.000000
# 5 0.000000 0.000000 0.000000 0.000000 0.043229 0.000000
# 6 0.000000 0.000000 0.000000 0.000000 0.000000 0.117276
#
#
# Mechanical properties :
#
#
# Convention : Reuss Voigt Hill
#
# Bulk Modulus (GPa) = 19.22456 21.85064 20.53760
# Shear Modulus (GPa) = 19.35256 26.33003 22.84130
#
# Velocity S-wave (km/s) = 3.07211 3.58338 3.33755
# Velocity P-wave (km/s) = 4.68606 5.27038 4.98679
#
# Compressibility (1/GPa) = 0.05201678
#
# Stress axis : x y z
#
# Youngs Moduli (GPa) = 41.93026 61.09363 99.41523
#
# Poissons Ratio (x) = -0.05350 0.04661
# Poissons Ratio (y) = -0.03672 -0.04606
# Poissons Ratio (z) = 0.01966 -0.02830
#
# Static dielectric constant tensor:
#      x y z
#    x 1.849230 0.000000 0.000000 
#    y 0.000000 1.776200 0.000000 
#    z 0.000000 0.000000 1.741570 
# 
# From -- ./inp_files/12189.got.cif
#   From: 2010.05.17/outbox.cif.g08.bks.cpg/sg59_7_cif.got.tgz:12189.got - 2010.06.03 14:40:33.
