data_PCOD9452929
_publ_section_title
;
Structure prediction by ZEFSAII (Michael W. Deem and Ramdas Pophale) SiO2 
 PCOD9452929
Probable space group: P M M N
;
_chemical_formula_sum "Si O2"
_cell_formula_units_Z 64
_cell_length_a 26.550216
_cell_length_b 17.690186
_cell_length_c 6.345802
_cell_angle_alpha 90.000000
_cell_angle_beta 90.000000
_cell_angle_gamma 90.000000
_cell_volume 2980.485238
_symmetry_space_group_name_H-M "P M M N"
_symmetry_group_IT_number 59
_space_group.IT_coordinate_system_code '2'
_symmetry_cell_setting 'orthorhombic'
loop_
_space_group_symop_operation_xyz
x,y,z
1/2-x,1/2-y,z
1/2+x,-y,-z
-x,1/2+y,-z
-x,-y,-z
1/2+x,1/2+y,-z
1/2-x,y,z
x,1/2-y,z
loop_
_atom_site_type_symbol
_atom_site_label
_atom_site_fract_x
_atom_site_fract_y
_atom_site_fract_z
Si Si1 0.931290 0.552437 0.013367
Si Si2 0.351691 0.941710 0.175835
Si Si3 0.197058 0.170506 0.086385
Si Si4 0.692200 0.161761 0.183984
Si Si5 0.511214 0.440251 0.314907
Si Si6 0.902770 0.338650 0.504217
Si Si7 0.305752 0.057268 0.463185
Si Si8 0.618549 0.836284 0.282151
O O1 0.879854 0.511495 0.938983
O O2 0.959482 0.581447 0.803452
O O3 0.958836 0.484439 0.132964
O O4 0.928765 0.618930 0.187511
O O5 0.391631 0.884793 0.281940
O O6 0.321915 0.976142 0.375710
O O7 0.318794 0.895714 0.007648
O O8 0.250000 0.169315 0.963888
O O9 0.195176 0.250000 0.208862
O O10 0.198554 0.105032 0.250507
O O11 0.152237 0.170508 0.926858
O O12 0.750000 0.149799 0.262526
O O13 0.689826 0.250000 0.112839
O O14 0.646405 0.153081 0.351095
O O15 0.500000 0.500000 0.500000
O O16 0.547676 0.374755 0.398130
O O17 0.909266 0.250000 0.544656
O O18 0.250000 0.055268 0.565461
O O19 0.349438 0.102951 0.583538
O O20 0.611104 0.750000 0.364251
#
# Coordination Sequence:
#
# PCOD9452929 Si02
#       8
#     8   8   8   8   8   8   8   8
#     4  11  24  41  68  96 124 170 217 273 343 394
#     4  12  22  41  65  97 135 169 221 274 333 401
#     4   9  18  34  55  80 115 161 213 265 318 378
#     4  10  23  43  67  98 138 179 218 268 330 397
#     4  11  23  45  72  97 130 168 215 276 337 400
#     4  11  24  43  70 101 134 177 222 272 335 408
#     4  11  23  36  59  92 127 174 225 271 326 392
#     4  11  23  40  60  88 127 170 219 276 333 388
#
# _framework density 21.473012000000001
#
# number of rings (size 3 to 8) (size 9 to 14) (size 15 to 20)
#    0.000    1.250    3.750    2.250    0.000    2.750 
#    0.000    1.875    0.000    0.000    0.000    0.000 
#    0.000    0.000    0.000    0.000    0.000    0.000 
#
# Total GULP energy -356803.490617 kJ/mol
# GULP energy per Si atom -5575.054541 kJ/mol
# Density = 2.142414 g / cm^3
# Si number density = 21.473012 Si / 1000 Ang^3
#
#
#
# Elastic Constant Matrix: (Units=GPa)
#
#
# Indices 1 2 3 4 5 6 
#
# 1 51.4547 23.9668 4.4674 0.0000 0.0000 0.0000
# 2 23.9668 116.7768 21.0477 0.0000 0.0000 0.0000
# 3 4.4674 21.0477 38.7830 0.0000 0.0000 0.0000
# 4 0.0000 0.0000 0.0000 31.9954 0.0000 0.0000
# 5 0.0000 0.0000 0.0000 0.0000 52.0153 0.0000
# 6 0.0000 0.0000 0.0000 0.0000 0.0000 30.5041
#
#
#
# Elastic Compliance Matrix: (Units=1/GPa)
#
#
# Indices 1 2 3 4 5 6 
#
# 1 0.021489 -0.004394 -0.000091 0.000000 0.000000 0.000000
# 2 -0.004394 0.010390 -0.005133 0.000000 0.000000 0.000000
# 3 -0.000091 -0.005133 0.028580 0.000000 0.000000 0.000000
# 4 0.000000 0.000000 0.000000 0.031254 0.000000 0.000000
# 5 0.000000 0.000000 0.000000 0.000000 0.019225 0.000000
# 6 0.000000 0.000000 0.000000 0.000000 0.000000 0.032782
#
#
# Mechanical properties :
#
#
# Convention : Reuss Voigt Hill
#
# Bulk Modulus (GPa) = 24.25707 33.99760 29.12734
# Shear Modulus (GPa) = 28.29682 33.40514 30.85098
#
# Velocity S-wave (km/s) = 3.63407 3.94849 3.79454
# Velocity P-wave (km/s) = 5.37863 6.05430 5.72644
#
# Compressibility (1/GPa) = 0.04122509
#
# Stress axis : x y z
#
# Youngs Moduli (GPa) = 46.53523 96.24399 34.98890
#
# Poissons Ratio (x) = 0.42289 0.00317
# Poissons Ratio (y) = 0.20448 0.17959
# Poissons Ratio (z) = 0.00422 0.49399
#
# Static dielectric constant tensor:
#      x y z
#    x 1.807510 0.000000 0.000000 
#    y 0.000000 1.391270 0.000000 
#    z 0.000000 0.000000 1.762810 
# 
# From -- ./inp_files/4641.got.cif
#   From: 2010.05.17/outbox.cif.g08.bks.cpg/sg59_3_cif.got.tgz:4641.got - 2010.06.03 14:40:33.
