data_PCOD9452882
_publ_section_title
;
Structure prediction by ZEFSAII (Michael W. Deem and Ramdas Pophale) SiO2 
 PCOD9452882
Probable space group: P M M N
;
_chemical_formula_sum "Si O2"
_cell_formula_units_Z 38
_cell_length_a 10.355983
_cell_length_b 17.367903
_cell_length_c 10.767341
_cell_angle_alpha 90.000000
_cell_angle_beta 90.000000
_cell_angle_gamma 90.000000
_cell_volume 1936.632345
_symmetry_space_group_name_H-M "P M M N"
_symmetry_group_IT_number 59
_space_group.IT_coordinate_system_code '2'
_symmetry_cell_setting 'orthorhombic'
loop_
_space_group_symop_operation_xyz
x,y,z
1/2-x,1/2-y,z
1/2+x,-y,-z
-x,1/2+y,-z
-x,-y,-z
1/2+x,1/2+y,-z
1/2-x,y,z
x,1/2-y,z
loop_
_atom_site_type_symbol
_atom_site_label
_atom_site_fract_x
_atom_site_fract_y
_atom_site_fract_z
Si Si1 0.250000 0.593398 0.669242
Si Si2 0.396762 0.750000 0.059219
Si Si3 0.750000 0.168482 0.582554
Si Si4 0.750000 0.659004 0.611084
Si Si5 0.473768 0.467010 0.357633
Si Si6 0.250000 0.750000 0.819144
Si Si7 0.750000 0.662116 0.314215
Si Si8 0.468946 0.879903 0.236945
O O1 0.250000 0.603679 0.520286
O O2 0.385726 0.554088 0.695155
O O3 0.250000 0.673986 0.739004
O O4 0.250000 0.750000 0.109820
O O5 0.455361 0.829313 0.112144
O O6 0.373507 0.750000 0.912303
O O7 0.750000 0.250000 0.515582
O O8 0.878403 0.163857 0.664133
O O9 0.750000 0.750000 0.655214
O O10 0.876565 0.606141 0.641382
O O11 0.750000 0.663851 0.462281
O O12 0.500000 0.500000 0.500000
O O13 0.422687 0.533150 0.263716
O O14 0.750000 0.750000 0.267271
O O15 0.618571 0.623069 0.271968
#
# Coordination Sequence:
#
# PCOD9452882 Si02
#       8
#     4   4   4   4   8   2   4   8
#     4  12  24  39  64  94 128 175 211 264 320 397
#     4  10  22  42  65  88 113 163 234 279 304 361
#     4  12  18  31  59  93 126 164 209 239 316 400
#     4  11  24  37  52  88 145 179 190 244 321 417
#     4  12  23  37  61  98 141 167 205 256 332 417
#     4  10  26  46  68  84 122 170 248 278 304 356
#     4  11  19  29  51  89 129 161 192 243 329 386
#     4  12  20  35  62  95 129 164 202 270 324 387
#
# _framework density 19.621690000000001
#
# number of rings (size 3 to 8) (size 9 to 14) (size 15 to 20)
#    0.316    0.211    7.895    1.895    1.474    1.684 
#    0.000    1.053    0.000    2.526    0.000    0.000 
#    0.000    0.000    0.000    0.000    0.000    0.000 
#
# Total GULP energy -211607.955452 kJ/mol
# GULP energy per Si atom -5568.630407 kJ/mol
# Density = 1.957703 g / cm^3
# Si number density = 19.621690 Si / 1000 Ang^3
#
#
#
# Elastic Constant Matrix: (Units=GPa)
#
#
# Indices 1 2 3 4 5 6 
#
# 1 124.2790 51.7697 14.4559 0.0000 0.0000 0.0000
# 2 51.7697 150.2453 23.7486 0.0000 0.0000 0.0000
# 3 14.4559 23.7486 47.5371 0.0000 0.0000 0.0000
# 4 0.0000 0.0000 0.0000 12.1120 0.0000 0.0000
# 5 0.0000 0.0000 0.0000 0.0000 -12.2346 0.0000
# 6 0.0000 0.0000 0.0000 0.0000 0.0000 32.0227
#
#
#
# Elastic Compliance Matrix: (Units=1/GPa)
#
#
# Indices 1 2 3 4 5 6 
#
# 1 0.009475 -0.003050 -0.001357 0.000000 0.000000 0.000000
# 2 -0.003050 0.008208 -0.003173 0.000000 0.000000 0.000000
# 3 -0.001357 -0.003173 0.023034 0.000000 0.000000 0.000000
# 4 0.000000 0.000000 0.000000 0.082562 0.000000 0.000000
# 5 0.000000 0.000000 0.000000 0.000000 -0.081735 0.000000
# 6 0.000000 0.000000 0.000000 0.000000 0.000000 0.031228
#
#
# Mechanical properties :
#
#
# Convention : Reuss Voigt Hill
#
# Bulk Modulus (GPa) = 39.13003 55.77888 47.45445
# Shear Modulus (GPa) = 51.83883 21.85251 36.84567
#
# Velocity S-wave (km/s) = 5.14553 3.34082 4.33806
# Velocity P-wave (km/s) = 7.43556 6.58561 7.02346
#
# Compressibility (1/GPa) = 0.02555582
#
# Stress axis : x y z
#
# Youngs Moduli (GPa) = 105.54209 121.82731 43.41360
#
# Poissons Ratio (x) = 0.37159 0.05893
# Poissons Ratio (y) = 0.32192 0.13776
# Poissons Ratio (z) = 0.14327 0.38658
#
# Static dielectric constant tensor:
#      x y z
#    x 1.708130 0.000000 0.000000 
#    y 0.000000 1.786900 0.000000 
#    z 0.000000 0.000000 1.658890 
# 
# From -- ./inp_files/13932.got.cif
#   From: 2010.05.17/outbox.cif.g08.bks.cpg/sg59_7_cif.got.tgz:13932.got - 2010.06.03 14:40:33.
