data_PCOD9452004
_publ_section_title
;
Structure prediction by ZEFSAII (Michael W. Deem and Ramdas Pophale) SiO2 
 PCOD9452004
Probable space group: P M M N
;
_chemical_formula_sum "Si O2"
_cell_formula_units_Z 48
_cell_length_a 7.623915
_cell_length_b 17.633611
_cell_length_c 17.205599
_cell_angle_alpha 90.000000
_cell_angle_beta 90.000000
_cell_angle_gamma 90.000000
_cell_volume 2313.071718
_symmetry_space_group_name_H-M "P M M N"
_symmetry_group_IT_number 59
_space_group.IT_coordinate_system_code '2'
_symmetry_cell_setting 'orthorhombic'
loop_
_space_group_symop_operation_xyz
x,y,z
1/2-x,1/2-y,z
1/2+x,-y,-z
-x,1/2+y,-z
-x,-y,-z
1/2+x,1/2+y,-z
1/2-x,y,z
x,1/2-y,z
loop_
_atom_site_type_symbol
_atom_site_label
_atom_site_fract_x
_atom_site_fract_y
_atom_site_fract_z
Si Si1 0.035312 0.250000 0.842723
Si Si2 0.034394 0.250000 0.662976
Si Si3 0.039902 0.432182 0.105221
Si Si4 0.958668 0.070192 0.406936
Si Si5 0.038989 0.100308 0.931606
Si Si6 0.461713 0.163299 0.252317
Si Si7 0.954241 0.599203 0.420423
O O1 0.250000 0.250000 0.844033
O O2 0.983701 0.250000 0.752962
O O3 0.975542 0.174405 0.886950
O O4 0.250000 0.250000 0.659043
O O5 0.971396 0.173508 0.620691
O O6 0.250000 0.422835 0.103599
O O7 0.972606 0.383527 0.177503
O O8 0.003365 0.521638 0.111236
O O9 0.972404 0.406343 0.020388
O O10 0.750000 0.065421 0.418960
O O11 0.993701 0.119710 0.331349
O O12 0.033753 0.104842 0.486336
O O13 0.028605 0.983783 0.398966
O O14 0.250000 0.105344 0.935605
O O15 0.250000 0.165623 0.247455
O O16 0.525191 0.250000 0.252687
O O17 0.750000 0.596551 0.397599
#
# Coordination Sequence:
#
# PCOD9452004 Si02
#       7
#     4   4   8   8   8   8   8
#     4   9  18  30  53  84 107 134 176 221 257 303
#     4   9  18  32  53  80 105 134 176 215 253 309
#     4   9  19  35  54  78 107 141 178 218 265 314
#     4  10  21  36  56  81 109 137 174 222 270 315
#     4   9  18  33  56  81 107 139 177 219 264 312
#     4  10  22  37  55  77 106 143 183 221 262 316
#     4   9  19  36  57  78 105 142 177 212 261 321
#
# _framework density 20.751626999999999
#
# number of rings (size 3 to 8) (size 9 to 14) (size 15 to 20)
#    0.000    2.667    0.000    0.500    4.667    1.667 
#    0.000    0.417    0.000    1.000    0.000    0.000 
#    0.000    0.000    0.000    0.000    0.000    0.000 
#
# Total GULP energy -267957.250317 kJ/mol
# GULP energy per Si atom -5582.442715 kJ/mol
# Density = 2.070439 g / cm^3
# Si number density = 20.751627 Si / 1000 Ang^3
#
#
#
# Elastic Constant Matrix: (Units=GPa)
#
#
# Indices 1 2 3 4 5 6 
#
# 1 40.0710 -3.7837 -11.3260 0.0000 0.0000 0.0000
# 2 -3.7837 200.2217 136.3374 0.0000 0.0000 0.0000
# 3 -11.3260 136.3374 135.5360 0.0000 0.0000 0.0000
# 4 0.0000 0.0000 0.0000 33.1751 0.0000 0.0000
# 5 0.0000 0.0000 0.0000 0.0000 8.3410 0.0000
# 6 0.0000 0.0000 0.0000 0.0000 0.0000 17.2513
#
#
#
# Elastic Compliance Matrix: (Units=1/GPa)
#
#
# Indices 1 2 3 4 5 6 
#
# 1 0.026173 -0.003157 0.005363 0.000000 0.000000 0.000000
# 2 -0.003157 0.016234 -0.016594 0.000000 0.000000 0.000000
# 3 0.005363 -0.016594 0.024518 0.000000 0.000000 0.000000
# 4 0.000000 0.000000 0.000000 0.030143 0.000000 0.000000
# 5 0.000000 0.000000 0.000000 0.000000 0.119889 0.000000
# 6 0.000000 0.000000 0.000000 0.000000 0.000000 0.057967
#
#
# Mechanical properties :
#
#
# Convention : Reuss Voigt Hill
#
# Bulk Modulus (GPa) = 26.21251 68.69824 47.45537
# Shear Modulus (GPa) = 15.80188 28.72689 22.26438
#
# Velocity S-wave (km/s) = 2.76248 3.72468 3.27907
# Velocity P-wave (km/s) = 4.77850 7.18850 6.10363
#
# Compressibility (1/GPa) = 0.03814973
#
# Stress axis : x y z
#
# Youngs Moduli (GPa) = 38.20662 61.59831 40.78564
#
# Poissons Ratio (x) = 0.19449 -0.21874
# Poissons Ratio (y) = 0.12063 0.67680
# Poissons Ratio (z) = -0.20491 1.02216
#
# Static dielectric constant tensor:
#      x y z
#    x 1.791570 0.000000 0.000000 
#    y 0.000000 1.727330 0.000000 
#    z 0.000000 0.000000 1.700940 
# 
# From -- ./inp_files/20588.got.cif
#   From: 2010.05.17/outbox.cif.g08.bks.cpg/sg59_11_cif.got.tgz:20588.got - 2010.06.03 14:40:33.
