data_PCOD9452046
_publ_section_title
;
Structure prediction by ZEFSAII (Michael W. Deem and Ramdas Pophale) SiO2 
 PCOD9452046
Probable space group: P M M N
;
_chemical_formula_sum "Si O2"
_cell_formula_units_Z 56
_cell_length_a 19.259651
_cell_length_b 8.956394
_cell_length_c 16.820408
_cell_angle_alpha 90.000000
_cell_angle_beta 90.000000
_cell_angle_gamma 90.000000
_cell_volume 2901.470300
_symmetry_space_group_name_H-M "P M M N"
_symmetry_group_IT_number 59
_space_group.IT_coordinate_system_code '2'
_symmetry_cell_setting 'orthorhombic'
loop_
_space_group_symop_operation_xyz
x,y,z
1/2-x,1/2-y,z
1/2+x,-y,-z
-x,1/2+y,-z
-x,-y,-z
1/2+x,1/2+y,-z
1/2-x,y,z
x,1/2-y,z
loop_
_atom_site_type_symbol
_atom_site_label
_atom_site_fract_x
_atom_site_fract_y
_atom_site_fract_z
Si Si1 0.543559 0.073991 0.428226
Si Si2 0.331523 0.430623 0.858441
Si Si3 0.832869 0.573492 0.504301
Si Si4 0.446175 0.426309 0.738332
Si Si5 0.329242 0.070898 0.316622
Si Si6 0.077128 0.930078 0.999311
Si Si7 0.413957 0.574539 0.176886
O O1 0.532688 0.250000 0.430397
O O2 0.500000 0.000000 0.500000
O O3 0.622856 0.026168 0.445581
O O4 0.529510 0.011938 0.340196
O O5 0.250000 0.470266 0.857197
O O6 0.336814 0.250000 0.865853
O O7 0.372925 0.471396 0.777430
O O8 0.373196 0.504714 0.931310
O O9 0.750000 0.557792 0.496721
O O10 0.849028 0.750000 0.493112
O O11 0.852819 0.528821 0.594588
O O12 0.443312 0.250000 0.718842
O O13 0.504191 0.447366 0.806560
O O14 0.250000 0.018658 0.307411
O O15 0.328969 0.250000 0.316081
O O16 0.374199 0.011724 0.245147
O O17 0.072019 0.750000 0.992211
O O18 0.105793 0.966929 0.087482
O O19 0.000000 0.000000 0.000000
O O20 0.400146 0.750000 0.187102
#
# Coordination Sequence:
#
# PCOD9452046 Si02
#       7
#     8   8   8   8   8   8   8
#     4  12  25  39  58  88 122 156 201 252 302 358
#     4  10  22  42  66  92 124 162 203 248 304 368
#     4   9  19  38  61  83 112 152 195 241 298 358
#     4  10  21  40  61  85 118 156 199 247 300 360
#     4   9  19  35  55  82 114 147 189 238 286 345
#     4  11  22  39  62  88 120 157 201 249 299 355
#     4  10  21  36  57  84 115 150 192 238 288 350
#
# _framework density 19.300560000000001
#
# number of rings (size 3 to 8) (size 9 to 14) (size 15 to 20)
#    0.000    1.857    1.429    3.429    0.000    7.143 
#    0.000    5.714    0.000    0.000    0.000    0.000 
#    0.000    0.000    0.000    0.000    0.000    0.000 
#
# Total GULP energy -312657.161652 kJ/mol
# GULP energy per Si atom -5583.163601 kJ/mol
# Density = 1.925663 g / cm^3
# Si number density = 19.300560 Si / 1000 Ang^3
#
#
#
# Elastic Constant Matrix: (Units=GPa)
#
#
# Indices 1 2 3 4 5 6 
#
# 1 61.2305 27.7176 26.0232 0.0000 0.0000 0.0000
# 2 27.7176 49.5660 44.5863 0.0000 0.0000 0.0000
# 3 26.0232 44.5863 100.0763 0.0000 0.0000 0.0000
# 4 0.0000 0.0000 0.0000 34.4737 0.0000 0.0000
# 5 0.0000 0.0000 0.0000 0.0000 32.6229 0.0000
# 6 0.0000 0.0000 0.0000 0.0000 0.0000 28.3387
#
#
#
# Elastic Compliance Matrix: (Units=1/GPa)
#
#
# Indices 1 2 3 4 5 6 
#
# 1 0.021877 -0.011876 -0.000398 0.000000 0.000000 0.000000
# 2 -0.011876 0.040115 -0.014784 0.000000 0.000000 0.000000
# 3 -0.000398 -0.014784 0.016682 0.000000 0.000000 0.000000
# 4 0.000000 0.000000 0.000000 0.029008 0.000000 0.000000
# 5 0.000000 0.000000 0.000000 0.000000 0.030653 0.000000
# 6 0.000000 0.000000 0.000000 0.000000 0.000000 0.035287
#
#
# Mechanical properties :
#
#
# Convention : Reuss Voigt Hill
#
# Bulk Modulus (GPa) = 40.71844 45.28078 42.99961
# Shear Modulus (GPa) = 21.19329 26.59010 23.89169
#
# Velocity S-wave (km/s) = 3.31730 3.71574 3.52216
# Velocity P-wave (km/s) = 5.98460 6.47463 6.23443
#
# Compressibility (1/GPa) = 0.02455890
#
# Stress axis : x y z
#
# Youngs Moduli (GPa) = 45.71085 24.92838 59.94333
#
# Poissons Ratio (x) = 0.29604 0.02384
# Poissons Ratio (y) = 0.54285 0.88620
# Poissons Ratio (z) = 0.01818 0.36854
#
# Static dielectric constant tensor:
#      x y z
#    x 1.706820 0.000000 0.000000 
#    y 0.000000 1.652140 0.000000 
#    z 0.000000 0.000000 1.677450 
# 
# From -- ./inp_files/24307.got.cif
#   From: 2010.05.17/outbox.cif.g08.bks.cpg/sg59_13_cif.got.tgz:24307.got - 2010.06.03 14:40:33.
