data_PCOD9452259
_publ_section_title
;
Structure prediction by ZEFSAII (Michael W. Deem and Ramdas Pophale) SiO2 
 PCOD9452259
Probable space group: P M M N
;
_chemical_formula_sum "Si O2"
_cell_formula_units_Z 56
_cell_length_a 8.248863
_cell_length_b 21.368233
_cell_length_c 15.660245
_cell_angle_alpha 90.000000
_cell_angle_beta 90.000000
_cell_angle_gamma 90.000000
_cell_volume 2760.331577
_symmetry_space_group_name_H-M "P M M N"
_symmetry_group_IT_number 59
_space_group.IT_coordinate_system_code '2'
_symmetry_cell_setting 'orthorhombic'
loop_
_space_group_symop_operation_xyz
x,y,z
1/2-x,1/2-y,z
1/2+x,-y,-z
-x,1/2+y,-z
-x,-y,-z
1/2+x,1/2+y,-z
1/2-x,y,z
x,1/2-y,z
loop_
_atom_site_type_symbol
_atom_site_label
_atom_site_fract_x
_atom_site_fract_y
_atom_site_fract_z
Si Si1 0.445690 0.943556 0.437579
Si Si2 0.943786 0.497718 0.273258
Si Si3 0.934691 0.677110 0.877580
Si Si4 0.057120 0.038033 0.914585
Si Si5 0.056928 0.682837 0.525000
Si Si6 0.940278 0.865197 0.698976
Si Si7 0.061766 0.678581 0.063483
O O1 0.250000 0.944065 0.435339
O O2 0.513382 0.949159 0.341646
O O3 0.506361 0.878449 0.477941
O O4 0.500000 0.000000 0.500000
O O5 0.750000 0.487952 0.272579
O O6 0.000615 0.508659 0.175829
O O7 0.031167 0.438097 0.314829
O O8 0.750000 0.653809 0.895969
O O9 0.921278 0.750000 0.856190
O O10 0.005477 0.645499 0.794185
O O11 0.041013 0.672569 0.961394
O O12 0.250000 0.033171 0.916248
O O13 0.014520 0.112316 0.908212
O O14 0.000000 0.000000 0.000000
O O15 0.250000 0.683495 0.511997
O O16 0.989938 0.750000 0.497103
O O17 0.024053 0.673525 0.625235
O O18 0.750000 0.849606 0.700357
O O19 0.250000 0.678262 0.087737
O O20 0.997194 0.750000 0.084553
#
# Coordination Sequence:
#
# PCOD9452259 Si02
#       7
#     8   8   8   8   8   8   8
#     4  11  22  39  64  90 119 157 200 245 294 354
#     4  11  24  40  59  86 118 156 202 248 302 366
#     4   9  18  32  50  76 112 152 194 240 295 362
#     4  11  24  41  63  91 124 161 205 260 315 369
#     4  10  22  39  59  85 119 157 195 242 300 357
#     4  11  21  33  54  84 116 152 194 242 299 360
#     4  10  21  37  58  84 115 156 204 252 307 369
#
# _framework density 20.287417999999999
#
# number of rings (size 3 to 8) (size 9 to 14) (size 15 to 20)
#    0.000    1.571    1.429    3.429    0.000    8.000 
#    0.000    2.143    0.000    2.571    0.000    0.000 
#    0.000    0.000    0.000    0.000    0.000    0.000 
#
# Total GULP energy -312292.487723 kJ/mol
# GULP energy per Si atom -5576.651566 kJ/mol
# Density = 2.024124 g / cm^3
# Si number density = 20.287418 Si / 1000 Ang^3
#
#
#
# Elastic Constant Matrix: (Units=GPa)
#
#
# Indices 1 2 3 4 5 6 
#
# 1 25.4987 2.2023 6.0038 0.0000 0.0000 0.0000
# 2 2.2023 109.9961 36.9286 0.0000 0.0000 0.0000
# 3 6.0038 36.9286 83.4211 0.0000 0.0000 0.0000
# 4 0.0000 0.0000 0.0000 29.2171 0.0000 0.0000
# 5 0.0000 0.0000 0.0000 0.0000 26.6215 0.0000
# 6 0.0000 0.0000 0.0000 0.0000 0.0000 23.6085
#
#
#
# Elastic Compliance Matrix: (Units=1/GPa)
#
#
# Indices 1 2 3 4 5 6 
#
# 1 0.039897 0.000194 -0.002957 0.000000 0.000000 0.000000
# 2 0.000194 0.010679 -0.004741 0.000000 0.000000 0.000000
# 3 -0.002957 -0.004741 0.014299 0.000000 0.000000 0.000000
# 4 0.000000 0.000000 0.000000 0.034227 0.000000 0.000000
# 5 0.000000 0.000000 0.000000 0.000000 0.037564 0.000000
# 6 0.000000 0.000000 0.000000 0.000000 0.000000 0.042358
#
#
# Mechanical properties :
#
#
# Convention : Reuss Voigt Hill
#
# Bulk Modulus (GPa) = 20.05366 34.35391 27.20378
# Shear Modulus (GPa) = 23.73554 27.47484 25.60519
#
# Velocity S-wave (km/s) = 3.42418 3.68405 3.55649
# Velocity P-wave (km/s) = 5.05367 5.92171 5.50483
#
# Compressibility (1/GPa) = 0.04986622
#
# Stress axis : x y z
#
# Youngs Moduli (GPa) = 25.06441 93.64036 69.93443
#
# Poissons Ratio (x) = -0.01817 0.20681
# Poissons Ratio (y) = -0.00486 0.33159
# Poissons Ratio (z) = 0.07412 0.44398
#
# Static dielectric constant tensor:
#      x y z
#    x 1.616180 0.000000 0.000000 
#    y 0.000000 1.839340 0.000000 
#    z 0.000000 0.000000 1.729120 
# 
# From -- ./inp_files/20982.got.cif
#   From: 2010.05.17/outbox.cif.g08.bks.cpg/sg59_11_cif.got.tgz:20982.got - 2010.06.03 14:40:33.
