data_PCOD9452299
_publ_section_title
;
Structure prediction by ZEFSAII (Michael W. Deem and Ramdas Pophale) SiO2 
 PCOD9452299
Probable space group: P M M N
;
_chemical_formula_sum "Si O2"
_cell_formula_units_Z 48
_cell_length_a 23.662990
_cell_length_b 8.874151
_cell_length_c 12.951615
_cell_angle_alpha 90.000000
_cell_angle_beta 90.000000
_cell_angle_gamma 90.000000
_cell_volume 2719.695988
_symmetry_space_group_name_H-M "P M M N"
_symmetry_group_IT_number 59
_space_group.IT_coordinate_system_code '2'
_symmetry_cell_setting 'orthorhombic'
loop_
_space_group_symop_operation_xyz
x,y,z
1/2-x,1/2-y,z
1/2+x,-y,-z
-x,1/2+y,-z
-x,-y,-z
1/2+x,1/2+y,-z
1/2-x,y,z
x,1/2-y,z
loop_
_atom_site_type_symbol
_atom_site_label
_atom_site_fract_x
_atom_site_fract_y
_atom_site_fract_z
Si Si1 0.496780 0.570028 0.614475
Si Si2 0.129225 0.929794 0.692613
Si Si3 0.183339 0.429537 0.891929
Si Si4 0.684055 0.929427 0.506619
Si Si5 0.684473 0.068989 0.886269
Si Si6 0.609825 0.430780 0.688865
O O1 0.500000 0.500000 0.500000
O O2 0.503000 0.750000 0.606399
O O3 0.435873 0.537045 0.664109
O O4 0.547946 0.501817 0.680296
O O5 0.137240 0.750000 0.687625
O O6 0.147013 0.990842 0.803916
O O7 0.167164 0.009111 0.605505
O O8 0.250000 0.462880 0.873880
O O9 0.175926 0.250000 0.887183
O O10 0.169742 0.489897 0.006142
O O11 0.750000 0.959254 0.527101
O O12 0.674597 0.750000 0.510565
O O13 0.645450 0.010256 0.591298
O O14 0.750000 0.031415 0.860941
O O15 0.681499 0.250000 0.899691
O O16 0.643463 0.026649 0.792636
O O17 0.606030 0.250000 0.683771
#
# Coordination Sequence:
#
# PCOD9452299 Si02
#       6
#     8   8   8   8   8   8
#     4  11  23  39  59  83 113 153 196 239 287 342
#     4  11  23  38  58  83 112 150 194 236 285 344
#     4  10  21  37  59  87 117 149 187 234 289 344
#     4  11  23  36  54  83 117 150 186 234 289 343
#     4   9  19  37  60  85 115 151 190 233 283 342
#     4  11  22  37  59  86 115 151 193 236 287 344
#
# _framework density 17.649031000000001
#
# number of rings (size 3 to 8) (size 9 to 14) (size 15 to 20)
#    0.000    1.500    1.667    3.500    0.000    8.333 
#    0.000    2.500    0.000    0.000    0.000    0.000 
#    0.000    0.000    0.000    0.000    0.000    0.000 
#
# Total GULP energy -268280.869808 kJ/mol
# GULP energy per Si atom -5589.184788 kJ/mol
# Density = 1.760886 g / cm^3
# Si number density = 17.649031 Si / 1000 Ang^3
#
#
#
# Elastic Constant Matrix: (Units=GPa)
#
#
# Indices 1 2 3 4 5 6 
#
# 1 63.0869 35.9273 32.1294 0.0000 0.0000 0.0000
# 2 35.9273 43.2156 25.5508 0.0000 0.0000 0.0000
# 3 32.1294 25.5508 89.2595 0.0000 0.0000 0.0000
# 4 0.0000 0.0000 0.0000 25.5661 0.0000 0.0000
# 5 0.0000 0.0000 0.0000 0.0000 20.4104 0.0000
# 6 0.0000 0.0000 0.0000 0.0000 0.0000 23.6456
#
#
#
# Elastic Compliance Matrix: (Units=1/GPa)
#
#
# Indices 1 2 3 4 5 6 
#
# 1 0.031625 -0.023546 -0.004644 0.000000 0.000000 0.000000
# 2 -0.023546 0.045385 -0.004516 0.000000 0.000000 0.000000
# 3 -0.004644 -0.004516 0.014167 0.000000 0.000000 0.000000
# 4 0.000000 0.000000 0.000000 0.039114 0.000000 0.000000
# 5 0.000000 0.000000 0.000000 0.000000 0.048995 0.000000
# 6 0.000000 0.000000 0.000000 0.000000 0.000000 0.042291
#
#
# Mechanical properties :
#
#
# Convention : Reuss Voigt Hill
#
# Bulk Modulus (GPa) = 38.81049 42.53080 40.67064
# Shear Modulus (GPa) = 16.91597 20.72138 18.81867
#
# Velocity S-wave (km/s) = 3.09927 3.43020 3.26892
# Velocity P-wave (km/s) = 5.90298 6.31180 6.11081
#
# Compressibility (1/GPa) = 0.02576623
#
# Stress axis : x y z
#
# Youngs Moduli (GPa) = 31.62010 22.03366 70.58427
#
# Poissons Ratio (x) = 0.51881 0.32776
# Poissons Ratio (y) = 0.74454 0.31876
# Poissons Ratio (z) = 0.14683 0.09950
#
# Static dielectric constant tensor:
#      x y z
#    x 1.591680 0.000000 0.000000 
#    y 0.000000 1.592260 0.000000 
#    z 0.000000 0.000000 1.565220 
# 
# From -- ./inp_files/14362.got.cif
#   From: 2010.05.17/outbox.cif.g08.bks.cpg/sg59_8_cif.got.tgz:14362.got - 2010.06.03 14:40:33.
