data_PCOD9452741
_publ_section_title
;
Structure prediction by ZEFSAII (Michael W. Deem and Ramdas Pophale) SiO2 
 PCOD9452741
Probable space group: P M M N
;
_chemical_formula_sum "Si O2"
_cell_formula_units_Z 64
_cell_length_a 21.374656
_cell_length_b 17.599120
_cell_length_c 8.492899
_cell_angle_alpha 90.000000
_cell_angle_beta 90.000000
_cell_angle_gamma 90.000000
_cell_volume 3194.817436
_symmetry_space_group_name_H-M "P M M N"
_symmetry_group_IT_number 59
_space_group.IT_coordinate_system_code '2'
_symmetry_cell_setting 'orthorhombic'
loop_
_space_group_symop_operation_xyz
x,y,z
1/2-x,1/2-y,z
1/2+x,-y,-z
-x,1/2+y,-z
-x,-y,-z
1/2+x,1/2+y,-z
1/2-x,y,z
x,1/2-y,z
loop_
_atom_site_type_symbol
_atom_site_label
_atom_site_fract_x
_atom_site_fract_y
_atom_site_fract_z
Si Si1 0.011782 0.164416 0.079837
Si Si2 0.419065 0.946094 0.795665
Si Si3 0.819524 0.162356 0.738442
Si Si4 0.823282 0.659319 0.459005
Si Si5 0.180399 0.527809 0.019218
Si Si6 0.443156 0.118904 0.748277
Si Si7 0.935095 0.089430 0.562753
Si Si8 0.393658 0.433399 0.277385
O O1 0.994487 0.250000 0.122386
O O2 0.057838 0.127279 0.208311
O O3 0.952708 0.108072 0.078922
O O4 0.043078 0.163478 0.908102
O O5 0.429854 0.912835 0.624133
O O6 0.445923 0.030653 0.797386
O O7 0.348201 0.957654 0.848916
O O8 0.750000 0.153365 0.664243
O O9 0.827379 0.250000 0.781654
O O10 0.819690 0.107289 0.888018
O O11 0.876132 0.135154 0.630417
O O12 0.750000 0.643968 0.418458
O O13 0.828153 0.750000 0.491125
O O14 0.876208 0.638996 0.328315
O O15 0.844509 0.608795 0.608892
O O16 0.250000 0.497078 0.011449
O O17 0.138741 0.472156 0.126192
O O18 0.500326 0.125777 0.624664
O O19 0.926573 0.002319 0.626132
#
# Coordination Sequence:
#
# PCOD9452741 Si02
#       8
#     8   8   8   8   8   8   8   8
#     4  12  25  40  65  96 125 164 206 260 321 375
#     4  12  23  41  63  91 129 161 209 261 311 369
#     4   9  20  40  63  92 130 166 204 254 312 373
#     4  11  25  43  64  92 128 169 212 263 318 376
#     4  10  22  38  63  92 122 166 211 252 307 373
#     4  12  23  44  65  89 127 166 211 262 317 374
#     4  11  23  38  69  93 122 167 213 257 317 371
#     4  11  20  42  64  92 126 160 208 261 309 381
#
# _framework density 20.032444000000002
#
# number of rings (size 3 to 8) (size 9 to 14) (size 15 to 20)
#    0.000    1.000    3.750    4.125    0.000    4.500 
#    0.000    0.000    0.000    3.750    0.000    0.000 
#    0.000    0.000    0.000    0.000    0.000    0.000 
#
# Total GULP energy -357555.306671 kJ/mol
# GULP energy per Si atom -5586.801667 kJ/mol
# Density = 1.998685 g / cm^3
# Si number density = 20.032444 Si / 1000 Ang^3
#
#
#
# Elastic Constant Matrix: (Units=GPa)
#
#
# Indices 1 2 3 4 5 6 
#
# 1 110.3659 20.7019 31.3419 0.0000 0.0000 0.0000
# 2 20.7019 85.3961 -5.2125 0.0000 0.0000 0.0000
# 3 31.3419 -5.2125 72.7467 0.0000 0.0000 0.0000
# 4 0.0000 0.0000 0.0000 7.8847 0.0000 0.0000
# 5 0.0000 0.0000 0.0000 0.0000 34.4827 0.0000
# 6 0.0000 0.0000 0.0000 0.0000 0.0000 28.8601
#
#
#
# Elastic Compliance Matrix: (Units=1/GPa)
#
#
# Indices 1 2 3 4 5 6 
#
# 1 0.011029 -0.002977 -0.004965 0.000000 0.000000 0.000000
# 2 -0.002977 0.012565 0.002183 0.000000 0.000000 0.000000
# 3 -0.004965 0.002183 0.016042 0.000000 0.000000 0.000000
# 4 0.000000 0.000000 0.000000 0.126828 0.000000 0.000000
# 5 0.000000 0.000000 0.000000 0.000000 0.029000 0.000000
# 6 0.000000 0.000000 0.000000 0.000000 0.000000 0.034650
#
#
# Mechanical properties :
#
#
# Convention : Reuss Voigt Hill
#
# Bulk Modulus (GPa) = 35.56440 40.24126 37.90283
# Shear Modulus (GPa) = 19.91992 29.02399 24.47195
#
# Velocity S-wave (km/s) = 3.15680 3.81050 3.49895
# Velocity P-wave (km/s) = 5.57487 6.28423 5.94015
#
# Compressibility (1/GPa) = 0.02811801
#
# Stress axis : x y z
#
# Youngs Moduli (GPa) = 90.66916 79.58613 62.33700
#
# Poissons Ratio (x) = 0.23691 0.30950
# Poissons Ratio (y) = 0.26990 -0.13607
# Poissons Ratio (z) = 0.45017 -0.17372
#
# Static dielectric constant tensor:
#      x y z
#    x 1.742800 0.000000 0.000000 
#    y 0.000000 1.696160 0.000000 
#    z 0.000000 0.000000 1.700670 
# 
# From -- ./inp_files/11612.got.cif
#   From: 2010.05.17/outbox.cif.g08.bks.cpg/sg59_6_cif.got.tgz:11612.got - 2010.06.03 14:40:33.
