data_PCOD9452369
_publ_section_title
;
Structure prediction by ZEFSAII (Michael W. Deem and Ramdas Pophale) SiO2 
 PCOD9452369
Probable space group: P M M N
;
_chemical_formula_sum "Si O2"
_cell_formula_units_Z 44
_cell_length_a 8.858341
_cell_length_b 14.157705
_cell_length_c 18.727622
_cell_angle_alpha 90.000000
_cell_angle_beta 90.000000
_cell_angle_gamma 90.000000
_cell_volume 2348.701840
_symmetry_space_group_name_H-M "P M M N"
_symmetry_group_IT_number 59
_space_group.IT_coordinate_system_code '2'
_symmetry_cell_setting 'orthorhombic'
loop_
_space_group_symop_operation_xyz
x,y,z
1/2-x,1/2-y,z
1/2+x,-y,-z
-x,1/2+y,-z
-x,-y,-z
1/2+x,1/2+y,-z
1/2-x,y,z
x,1/2-y,z
loop_
_atom_site_type_symbol
_atom_site_label
_atom_site_fract_x
_atom_site_fract_y
_atom_site_fract_z
Si Si1 0.572549 0.138815 0.195252
Si Si2 0.250000 0.015178 0.598978
Si Si3 0.250000 0.136887 0.735782
Si Si4 0.750000 0.852712 0.534367
Si Si5 0.980950 0.142187 0.354230
Si Si6 0.575981 0.507262 0.923328
Si Si7 0.078079 0.636681 0.197007
O O1 0.750000 0.116398 0.208135
O O2 0.561949 0.250000 0.178589
O O3 0.487202 0.122598 0.270572
O O4 0.507509 0.078639 0.130517
O O5 0.384935 0.944351 0.616527
O O6 0.250000 0.099153 0.655779
O O7 0.250000 0.062147 0.521439
O O8 0.250000 0.250000 0.740240
O O9 0.415423 0.106182 0.768092
O O10 0.750000 0.750000 0.496388
O O11 0.613161 0.854666 0.589200
O O12 0.915469 0.250000 0.353504
O O13 0.750000 0.536413 0.931204
O O14 0.572607 0.407475 0.881833
O O15 0.500000 0.500000 0.000000
O O16 0.250000 0.608665 0.225362
O O17 0.077000 0.750000 0.197498
#
# Coordination Sequence:
#
# PCOD9452369 Si02
#       7
#     8   4   4   4   8   8   8
#     4  10  21  39  62  87 117 158 203 249 300 357
#     4  12  20  36  60  90 120 155 201 247 308 373
#     4  10  21  37  63  89 117 158 200 249 305 365
#     4  10  23  39  57  85 125 161 199 252 307 362
#     4  10  21  38  61  87 119 160 203 250 302 363
#     4  11  24  38  58  88 121 153 192 246 303 357
#     4   9  20  39  60  83 115 157 203 245 295 362
#
# _framework density 18.733754000000001
#
# number of rings (size 3 to 8) (size 9 to 14) (size 15 to 20)
#    0.000    1.818    0.909    2.727    3.818    1.091 
#    1.636    1.818    0.000    0.000    0.000    0.000 
#    0.000    0.000    0.000    0.000    0.000    0.000 
#
# Total GULP energy -244977.324087 kJ/mol
# GULP energy per Si atom -5567.666457 kJ/mol
# Density = 1.869112 g / cm^3
# Si number density = 18.733754 Si / 1000 Ang^3
#
#
#
# Elastic Constant Matrix: (Units=GPa)
#
#
# Indices 1 2 3 4 5 6 
#
# 1 93.9686 25.7523 54.3117 0.0000 0.0000 0.0000
# 2 25.7523 54.6422 49.7642 0.0000 0.0000 0.0000
# 3 54.3117 49.7642 143.4062 0.0000 0.0000 0.0000
# 4 0.0000 0.0000 0.0000 29.2232 0.0000 0.0000
# 5 0.0000 0.0000 0.0000 0.0000 -36.3828 0.0000
# 6 0.0000 0.0000 0.0000 0.0000 0.0000 8.8073
#
#
#
# Elastic Compliance Matrix: (Units=1/GPa)
#
#
# Indices 1 2 3 4 5 6 
#
# 1 0.013865 -0.002562 -0.004362 0.000000 0.000000 0.000000
# 2 -0.002562 0.027230 -0.008479 0.000000 0.000000 0.000000
# 3 -0.004362 -0.008479 0.011568 0.000000 0.000000 0.000000
# 4 0.000000 0.000000 0.000000 0.034219 0.000000 0.000000
# 5 0.000000 0.000000 0.000000 0.000000 -0.027486 0.000000
# 6 0.000000 0.000000 0.000000 0.000000 0.000000 0.113542
#
#
# Mechanical properties :
#
#
# Convention : Reuss Voigt Hill
#
# Bulk Modulus (GPa) = 45.75176 61.29704 53.52440
# Shear Modulus (GPa) = 23.69326 11.14215 17.41770
#
# Velocity S-wave (km/s) = 3.56017 2.44142 3.05249
# Velocity P-wave (km/s) = 6.43233 6.38267 6.40755
#
# Compressibility (1/GPa) = 0.02185708
#
# Stress axis : x y z
#
# Youngs Moduli (GPa) = 72.12349 36.72358 86.44799
#
# Poissons Ratio (x) = 0.09408 0.37710
# Poissons Ratio (y) = 0.18477 0.73301
# Poissons Ratio (z) = 0.31461 0.31139
#
# Static dielectric constant tensor:
#      x y z
#    x 1.671330 0.000000 0.000000 
#    y 0.000000 1.661400 0.000000 
#    z 0.000000 0.000000 1.593410 
# 
# From -- ./inp_files/25380.got.cif
#   From: 2010.05.17/outbox.cif.g08.bks.cpg/sg59_13_cif.got.tgz:25380.got - 2010.06.03 14:40:33.
