data_PCOD9452865
_publ_section_title
;
Structure prediction by ZEFSAII (Michael W. Deem and Ramdas Pophale) SiO2 
 PCOD9452865
Probable space group: P M M N
;
_chemical_formula_sum "Si O2"
_cell_formula_units_Z 48
_cell_length_a 14.942418
_cell_length_b 24.228947
_cell_length_c 6.872063
_cell_angle_alpha 90.000000
_cell_angle_beta 90.000000
_cell_angle_gamma 90.000000
_cell_volume 2487.955186
_symmetry_space_group_name_H-M "P M M N"
_symmetry_group_IT_number 59
_space_group.IT_coordinate_system_code '2'
_symmetry_cell_setting 'orthorhombic'
loop_
_space_group_symop_operation_xyz
x,y,z
1/2-x,1/2-y,z
1/2+x,-y,-z
-x,1/2+y,-z
-x,-y,-z
1/2+x,1/2+y,-z
1/2-x,y,z
x,1/2-y,z
loop_
_atom_site_type_symbol
_atom_site_label
_atom_site_fract_x
_atom_site_fract_y
_atom_site_fract_z
Si Si1 0.463649 0.315513 0.138289
Si Si2 0.036373 0.405230 0.453492
Si Si3 0.647802 0.891188 0.153100
Si Si4 0.849222 0.088676 0.643375
Si Si5 0.591287 0.987410 0.884370
Si Si6 0.848998 0.185424 0.939389
O O1 0.449060 0.250000 0.150654
O O2 0.449310 0.348026 0.338540
O O3 0.401421 0.344253 0.975293
O O4 0.566690 0.326282 0.075886
O O5 0.090268 0.402887 0.654397
O O6 0.070019 0.453173 0.311137
O O7 0.932130 0.415604 0.498563
O O8 0.750000 0.876283 0.198805
O O9 0.646006 0.946540 0.022624
O O10 0.750000 0.081769 0.558020
O O11 0.855748 0.147659 0.749507
O O12 0.862823 0.043390 0.813695
O O13 0.500000 0.000000 0.000000
O O14 0.750000 0.175287 0.027061
O O15 0.854107 0.250000 0.888004
#
# Coordination Sequence:
#
# PCOD9452865 Si02
#       6
#     8   8   8   8   8   8
#     4  10  22  41  65  90 123 162 205 254 308 372
#     4  11  23  40  61  92 125 162 204 252 309 365
#     4  11  24  42  64  88 122 163 206 261 317 359
#     4  11  21  36  61  94 123 158 205 249 300 367
#     4  11  22  42  63  87 126 166 206 253 306 366
#     4   9  18  36  62  89 121 160 198 243 303 365
#
# _framework density 19.292950999999999
#
# number of rings (size 3 to 8) (size 9 to 14) (size 15 to 20)
#    0.000    1.500    3.333    2.000    0.000    5.667 
#    0.000    0.833    0.000    0.000    0.000    0.000 
#    0.000    0.000    0.000    0.000    0.000    0.000 
#
# Total GULP energy -268079.774155 kJ/mol
# GULP energy per Si atom -5584.995295 kJ/mol
# Density = 1.924904 g / cm^3
# Si number density = 19.292951 Si / 1000 Ang^3
#
#
#
# Elastic Constant Matrix: (Units=GPa)
#
#
# Indices 1 2 3 4 5 6 
#
# 1 128.2082 23.9914 41.8243 0.0000 0.0000 0.0000
# 2 23.9914 50.9410 22.2504 0.0000 0.0000 0.0000
# 3 41.8243 22.2504 93.0121 0.0000 0.0000 0.0000
# 4 0.0000 0.0000 0.0000 11.3930 0.0000 0.0000
# 5 0.0000 0.0000 0.0000 0.0000 -3.3897 0.0000
# 6 0.0000 0.0000 0.0000 0.0000 0.0000 19.7509
#
#
#
# Elastic Compliance Matrix: (Units=1/GPa)
#
#
# Indices 1 2 3 4 5 6 
#
# 1 0.009514 -0.002917 -0.003580 0.000000 0.000000 0.000000
# 2 -0.002917 0.022815 -0.004146 0.000000 0.000000 0.000000
# 3 -0.003580 -0.004146 0.013353 0.000000 0.000000 0.000000
# 4 0.000000 0.000000 0.000000 0.087773 0.000000 0.000000
# 5 0.000000 0.000000 0.000000 0.000000 -0.295009 0.000000
# 6 0.000000 0.000000 0.000000 0.000000 0.000000 0.050631
#
#
# Mechanical properties :
#
#
# Convention : Reuss Voigt Hill
#
# Bulk Modulus (GPa) = 40.99133 49.81038 45.40086
# Shear Modulus (GPa) = -61.34545 17.82386 -21.76079
#
# Velocity S-wave (km/s) = -5.64498 3.04279 -3.36209
# Velocity P-wave (km/s) = 4.60379 6.18213 2.91752
#
# Compressibility (1/GPa) = 0.02439540
#
# Stress axis : x y z
#
# Youngs Moduli (GPa) = 105.11327 43.83026 74.88927
#
# Poissons Ratio (x) = 0.12784 0.26812
# Poissons Ratio (y) = 0.30659 0.31051
# Poissons Ratio (z) = 0.37632 0.18173
#
# Static dielectric constant tensor:
#      x y z
#    x 1.688910 0.000000 0.000000 
#    y 0.000000 1.669710 0.000000 
#    z 0.000000 0.000000 1.646120 
# 
# From -- ./inp_files/2147.got.cif
#   From: 2010.05.17/outbox.cif.g08.bks.cpg/sg59_2_cif.got.tgz:2147.got - 2010.06.03 14:40:33.
