data_PCOD9452289
_publ_section_title
;
Structure prediction by ZEFSAII (Michael W. Deem and Ramdas Pophale) SiO2 
 PCOD9452289
Probable space group: P M M N
;
_chemical_formula_sum "Si O2"
_cell_formula_units_Z 40
_cell_length_a 7.493798
_cell_length_b 30.164496
_cell_length_c 7.551129
_cell_angle_alpha 90.000000
_cell_angle_beta 90.000000
_cell_angle_gamma 90.000000
_cell_volume 1706.907337
_symmetry_space_group_name_H-M "P M M N"
_symmetry_group_IT_number 59
_space_group.IT_coordinate_system_code '2'
_symmetry_cell_setting 'orthorhombic'
loop_
_space_group_symop_operation_xyz
x,y,z
1/2-x,1/2-y,z
1/2+x,-y,-z
-x,1/2+y,-z
-x,-y,-z
1/2+x,1/2+y,-z
1/2-x,y,z
x,1/2-y,z
loop_
_atom_site_type_symbol
_atom_site_label
_atom_site_fract_x
_atom_site_fract_y
_atom_site_fract_z
Si Si1 0.963240 0.150747 0.713628
Si Si2 0.539612 0.798910 0.942999
Si Si3 0.041181 0.369599 0.329732
Si Si4 0.454685 0.036525 0.262163
Si Si5 0.967847 0.445161 0.852002
O O1 0.750000 0.150137 0.711923
O O2 0.025607 0.102461 0.781687
O O3 0.021949 0.187428 0.853068
O O4 0.026976 0.155828 0.513929
O O5 0.750000 0.797050 0.900473
O O6 0.464511 0.750000 0.909408
O O7 0.462893 0.838978 0.824946
O O8 0.250000 0.376961 0.287625
O O9 0.962347 0.419294 0.347442
O O10 0.250000 0.032620 0.321712
O O11 0.529905 0.986682 0.268491
O O12 0.462886 0.047597 0.051223
O O13 0.750000 0.446324 0.860070
#
# Coordination Sequence:
#
# PCOD9452289 Si02
#       5
#     8   8   8   8   8
#     4  11  23  37  57  87 122 153 185 228 286 347
#     4  10  22  42  65  85 108 143 190 242 290 336
#     4  10  21  37  59  86 115 150 195 238 280 333
#     4   9  17  32  55  81 111 150 195 235 273 326
#     4   9  18  32  52  81 116 152 188 230 280 332
#
# _framework density 23.434197000000001
#
# number of rings (size 3 to 8) (size 9 to 14) (size 15 to 20)
#    0.000    2.200    2.000    0.600    0.000    4.400 
#    0.000    2.000    0.000    0.000    0.000    0.000 
#    0.000    0.000    0.000    0.000    0.000    0.000 
#
# Total GULP energy -223464.301340 kJ/mol
# GULP energy per Si atom -5586.607533 kJ/mol
# Density = 2.338086 g / cm^3
# Si number density = 23.434197 Si / 1000 Ang^3
#
#
#
# Elastic Constant Matrix: (Units=GPa)
#
#
# Indices 1 2 3 4 5 6 
#
# 1 77.0482 8.6313 -13.4557 0.0000 0.0000 0.0000
# 2 8.6313 99.6112 1.8584 0.0000 0.0000 0.0000
# 3 -13.4557 1.8584 54.8995 0.0000 0.0000 0.0000
# 4 0.0000 0.0000 0.0000 9.4243 0.0000 0.0000
# 5 0.0000 0.0000 0.0000 0.0000 -14.8289 0.0000
# 6 0.0000 0.0000 0.0000 0.0000 0.0000 -1.0404
#
#
#
# Elastic Compliance Matrix: (Units=1/GPa)
#
#
# Indices 1 2 3 4 5 6 
#
# 1 0.013714 -0.001252 0.003404 0.000000 0.000000 0.000000
# 2 -0.001252 0.010160 -0.000651 0.000000 0.000000 0.000000
# 3 0.003404 -0.000651 0.019071 0.000000 0.000000 0.000000
# 4 0.000000 0.000000 0.000000 0.106109 0.000000 0.000000
# 5 0.000000 0.000000 0.000000 0.000000 -0.067436 0.000000
# 6 0.000000 0.000000 0.000000 0.000000 0.000000 -0.961186
#
#
# Mechanical properties :
#
#
# Convention : Reuss Voigt Hill
#
# Bulk Modulus (GPa) = 21.76443 25.06965 23.41704
# Shear Modulus (GPa) = -5.76532 14.34600 4.29034
#
# Velocity S-wave (km/s) = -1.57021 2.47692 1.35454
# Velocity P-wave (km/s) = 2.45361 4.34756 3.52998
#
# Compressibility (1/GPa) = 0.04594653
#
# Stress axis : x y z
#
# Youngs Moduli (GPa) = 72.92077 98.42872 52.43474
#
# Poissons Ratio (x) = 0.12321 -0.17846
# Poissons Ratio (y) = 0.09128 0.03412
# Poissons Ratio (z) = -0.24819 0.06405
#
# Static dielectric constant tensor:
#      x y z
#    x 1.895790 0.000000 0.000000 
#    y 0.000000 1.936290 0.000000 
#    z 0.000000 0.000000 1.852260 
# 
# From -- ./inp_files/1422.got.cif
#   From: 2010.05.17/outbox.cif.g08.bks.cpg/sg59_1_cif.got.tgz:1422.got - 2010.06.03 14:40:33.
