data_PCOD9452509
_publ_section_title
;
Structure prediction by ZEFSAII (Michael W. Deem and Ramdas Pophale) SiO2 
 PCOD9452509
Probable space group: P M M N
;
_chemical_formula_sum "Si O2"
_cell_formula_units_Z 56
_cell_length_a 15.877934
_cell_length_b 14.123979
_cell_length_c 12.465859
_cell_angle_alpha 90.000000
_cell_angle_beta 90.000000
_cell_angle_gamma 90.000000
_cell_volume 2795.588633
_symmetry_space_group_name_H-M "P M M N"
_symmetry_group_IT_number 59
_space_group.IT_coordinate_system_code '2'
_symmetry_cell_setting 'orthorhombic'
loop_
_space_group_symop_operation_xyz
x,y,z
1/2-x,1/2-y,z
1/2+x,-y,-z
-x,1/2+y,-z
-x,-y,-z
1/2+x,1/2+y,-z
1/2-x,y,z
x,1/2-y,z
loop_
_atom_site_type_symbol
_atom_site_label
_atom_site_fract_x
_atom_site_fract_y
_atom_site_fract_z
Si Si1 0.840719 0.638904 0.083274
Si Si2 0.846298 0.139830 0.515196
Si Si3 0.982601 0.043555 0.661426
Si Si4 0.346567 0.635341 0.922908
Si Si5 0.436936 0.640669 0.706118
Si Si6 0.156858 0.361388 0.656590
Si Si7 0.476428 0.865283 0.104654
O O1 0.750000 0.600138 0.045569
O O2 0.840040 0.750000 0.054827
O O3 0.841047 0.633350 0.213295
O O4 0.933667 0.603475 0.053159
O O5 0.750000 0.112399 0.532965
O O6 0.856778 0.250000 0.548930
O O7 0.911666 0.077628 0.580846
O O8 0.869150 0.137282 0.389515
O O9 0.967792 0.090656 0.777790
O O10 0.074772 0.080724 0.622655
O O11 0.989695 0.931175 0.674943
O O12 0.250000 0.604951 0.923877
O O13 0.346258 0.750000 0.918054
O O14 0.393709 0.604109 0.814995
O O15 0.399767 0.609435 0.027185
O O16 0.463318 0.750000 0.719339
O O17 0.250000 0.392802 0.618713
O O18 0.146486 0.250000 0.629685
O O19 0.479259 0.750000 0.115325
#
# Coordination Sequence:
#
# PCOD9452509 Si02
#       7
#     8   8   8   8   8   8   8
#     4   7  10  19  36  60  95 134 165 200 253 317
#     4  10  21  38  61  88 116 145 181 230 289 350
#     4  11  20  33  57  86 116 147 183 235 295 350
#     4   9  18  34  55  78 110 153 195 235 280 331
#     4  10  22  39  57  77 107 153 204 244 273 316
#     4   8  14  25  43  73 112 145 173 213 273 341
#     4   9  17  29  50  83 116 142 176 228 290 346
#
# _framework density 20.031559999999999
#
# number of rings (size 3 to 8) (size 9 to 14) (size 15 to 20)
#    0.000    2.857    0.000    3.857    0.000    4.000 
#    0.000    1.429    0.000    1.286    0.000    2.000 
#    0.000    1.143    0.000    0.000    0.000    0.000 
#
# Total GULP energy -312493.720737 kJ/mol
# GULP energy per Si atom -5580.245013 kJ/mol
# Density = 1.998597 g / cm^3
# Si number density = 20.031560 Si / 1000 Ang^3
#
#
#
# Elastic Constant Matrix: (Units=GPa)
#
#
# Indices 1 2 3 4 5 6 
#
# 1 80.5264 35.0788 44.5678 0.0000 0.0000 0.0000
# 2 35.0788 96.7004 23.2237 0.0000 0.0000 0.0000
# 3 44.5678 23.2237 68.4208 0.0000 0.0000 0.0000
# 4 0.0000 0.0000 0.0000 11.2152 0.0000 0.0000
# 5 0.0000 0.0000 0.0000 0.0000 0.2733 0.0000
# 6 0.0000 0.0000 0.0000 0.0000 0.0000 -1.1635
#
#
#
# Elastic Compliance Matrix: (Units=1/GPa)
#
#
# Indices 1 2 3 4 5 6 
#
# 1 0.021270 -0.004778 -0.012233 0.000000 0.000000 0.000000
# 2 -0.004778 0.012332 -0.001074 0.000000 0.000000 0.000000
# 3 -0.012233 -0.001074 0.022948 0.000000 0.000000 0.000000
# 4 0.000000 0.000000 0.000000 0.089164 0.000000 0.000000
# 5 0.000000 0.000000 0.000000 0.000000 3.658990 0.000000
# 6 0.000000 0.000000 0.000000 0.000000 0.000000 -0.859490
#
#
# Mechanical properties :
#
#
# Convention : Reuss Voigt Hill
#
# Bulk Modulus (GPa) = 49.06473 50.15423 49.60948
# Shear Modulus (GPa) = 1.67326 11.58350 6.62838
#
# Velocity S-wave (km/s) = 0.91495 2.40732 1.82103
# Velocity P-wave (km/s) = 5.06587 5.72877 5.40749
#
# Compressibility (1/GPa) = 0.02038124
#
# Stress axis : x y z
#
# Youngs Moduli (GPa) = 47.01414 81.08777 43.57628
#
# Poissons Ratio (x) = 0.38744 0.53308
# Poissons Ratio (y) = 0.22463 0.04678
# Poissons Ratio (z) = 0.57513 0.08706
#
# Static dielectric constant tensor:
#      x y z
#    x 1.714470 0.000000 0.000000 
#    y 0.000000 1.760120 0.000000 
#    z 0.000000 0.000000 1.670180 
# 
# From -- ./inp_files/16918.got.cif
#   From: 2010.05.17/outbox.cif.g08.bks.cpg/sg59_9_cif.got.tgz:16918.got - 2010.06.03 14:40:33.
