data_PCOD9452602
_publ_section_title
;
Structure prediction by ZEFSAII (Michael W. Deem and Ramdas Pophale) SiO2 
 PCOD9452602
Probable space group: P M M N
;
_chemical_formula_sum "Si O2"
_cell_formula_units_Z 56
_cell_length_a 13.989967
_cell_length_b 22.205230
_cell_length_c 9.705830
_cell_angle_alpha 90.000000
_cell_angle_beta 90.000000
_cell_angle_gamma 90.000000
_cell_volume 3015.120311
_symmetry_space_group_name_H-M "P M M N"
_symmetry_group_IT_number 59
_space_group.IT_coordinate_system_code '2'
_symmetry_cell_setting 'orthorhombic'
loop_
_space_group_symop_operation_xyz
x,y,z
1/2-x,1/2-y,z
1/2+x,-y,-z
-x,1/2+y,-z
-x,-y,-z
1/2+x,1/2+y,-z
1/2-x,y,z
x,1/2-y,z
loop_
_atom_site_type_symbol
_atom_site_label
_atom_site_fract_x
_atom_site_fract_y
_atom_site_fract_z
Si Si1 0.864448 0.997351 0.089441
Si Si2 0.008690 0.680544 0.706675
Si Si3 0.986926 0.320032 0.744997
Si Si4 0.498125 0.396996 0.019736
Si Si5 0.365168 0.012957 0.591252
Si Si6 0.364382 0.615384 0.486111
Si Si7 0.136679 0.350781 0.524822
O O1 0.750000 0.998247 0.083798
O O2 0.911067 0.058405 0.032430
O O3 0.897364 0.990601 0.249520
O O4 0.908693 0.941419 0.006420
O O5 0.029046 0.750000 0.739359
O O6 0.990740 0.641450 0.841801
O O7 0.917466 0.677047 0.605118
O O8 0.094541 0.651286 0.617811
O O9 0.961645 0.250000 0.757966
O O10 0.911946 0.354496 0.646787
O O11 0.087240 0.325379 0.662520
O O12 0.992930 0.352988 0.890169
O O13 0.250000 0.009588 0.598251
O O14 0.386147 0.077658 0.526751
O O15 0.395330 0.954362 0.505861
O O16 0.250000 0.618494 0.480529
O O17 0.250000 0.341877 0.523099
#
# Coordination Sequence:
#
# PCOD9452602 Si02
#       7
#     8   8   8   8   8   8   8
#     4  10  21  39  62  90 118 150 194 242 298 358
#     4  11  24  39  58  86 120 160 202 237 283 351
#     4  11  24  39  58  86 120 160 202 237 283 351
#     4  11  23  40  62  88 121 159 188 242 300 345
#     4   9  17  34  62  88 111 143 191 245 295 346
#     4  10  21  39  62  87 117 153 197 249 296 342
#     4  10  21  39  62  87 117 153 197 249 296 342
#
# _framework density 18.573056000000001
#
# number of rings (size 3 to 8) (size 9 to 14) (size 15 to 20)
#    0.000    1.714    2.857    2.143    0.000    8.000 
#    0.000    1.429    0.000    5.143    0.000    0.000 
#    0.000    0.000    0.000    0.000    0.000    0.000 
#
# Total GULP energy -312791.188188 kJ/mol
# GULP energy per Si atom -5585.556932 kJ/mol
# Density = 1.853078 g / cm^3
# Si number density = 18.573056 Si / 1000 Ang^3
#
#
#
# Elastic Constant Matrix: (Units=GPa)
#
#
# Indices 1 2 3 4 5 6 
#
# 1 78.7344 1.7024 15.3107 0.0000 0.0000 0.0000
# 2 1.7024 113.8219 30.3529 0.0000 0.0000 0.0000
# 3 15.3107 30.3529 104.1492 0.0000 0.0000 0.0000
# 4 0.0000 0.0000 0.0000 -60.2466 0.0000 0.0000
# 5 0.0000 0.0000 0.0000 0.0000 11.9700 0.0000
# 6 0.0000 0.0000 0.0000 0.0000 0.0000 16.8106
#
#
#
# Elastic Compliance Matrix: (Units=1/GPa)
#
#
# Indices 1 2 3 4 5 6 
#
# 1 0.013087 0.000344 -0.002024 0.000000 0.000000 0.000000
# 2 0.000344 0.009535 -0.002829 0.000000 0.000000 0.000000
# 3 -0.002024 -0.002829 0.010724 0.000000 0.000000 0.000000
# 4 0.000000 0.000000 0.000000 -0.016598 0.000000 0.000000
# 5 0.000000 0.000000 0.000000 0.000000 0.083542 0.000000
# 6 0.000000 0.000000 0.000000 0.000000 0.000000 0.059486
#
#
# Mechanical properties :
#
#
# Convention : Reuss Voigt Hill
#
# Bulk Modulus (GPa) = 41.10691 43.49305 42.29998
# Shear Modulus (GPa) = 28.26391 10.32942 19.29667
#
# Velocity S-wave (km/s) = 3.90522 2.36084 3.22679
# Velocity P-wave (km/s) = 6.52035 5.55874 6.05865
#
# Compressibility (1/GPa) = 0.02432681
#
# Stress axis : x y z
#
# Youngs Moduli (GPa) = 76.41104 104.87636 93.25070
#
# Poissons Ratio (x) = -0.03608 0.18876
# Poissons Ratio (y) = -0.02629 0.26385
# Poissons Ratio (z) = 0.15467 0.29674
#
# Static dielectric constant tensor:
#      x y z
#    x 1.636380 0.000000 0.000000 
#    y 0.000000 1.649320 0.000000 
#    z 0.000000 0.000000 1.616670 
# 
# From -- ./inp_files/9387.got.cif
#   From: 2010.05.17/outbox.cif.g08.bks.cpg/sg59_5_cif.got.tgz:9387.got - 2010.06.03 14:40:33.
