data_PCOD9452840
_publ_section_title
;
Structure prediction by ZEFSAII (Michael W. Deem and Ramdas Pophale) SiO2 
 PCOD9452840
Probable space group: P M M N
;
_chemical_formula_sum "Si O2"
_cell_formula_units_Z 32
_cell_length_a 15.413301
_cell_length_b 14.197877
_cell_length_c 7.321103
_cell_angle_alpha 90.000000
_cell_angle_beta 90.000000
_cell_angle_gamma 90.000000
_cell_volume 1602.122007
_symmetry_space_group_name_H-M "P M M N"
_symmetry_group_IT_number 59
_space_group.IT_coordinate_system_code '2'
_symmetry_cell_setting 'orthorhombic'
loop_
_space_group_symop_operation_xyz
x,y,z
1/2-x,1/2-y,z
1/2+x,-y,-z
-x,1/2+y,-z
-x,-y,-z
1/2+x,1/2+y,-z
1/2-x,y,z
x,1/2-y,z
loop_
_atom_site_type_symbol
_atom_site_label
_atom_site_fract_x
_atom_site_fract_y
_atom_site_fract_z
Si Si1 0.346312 0.860996 0.779138
Si Si2 0.024724 0.861981 0.451246
Si Si3 0.088418 0.979000 0.106183
Si Si4 0.651438 0.861394 0.641211
O O1 0.250000 0.873437 0.698374
O O2 0.357183 0.750000 0.822696
O O3 0.419887 0.885848 0.632270
O O4 0.354842 0.921311 0.961872
O O5 0.032708 0.750000 0.421690
O O6 0.063537 0.916367 0.280909
O O7 0.924002 0.883253 0.494663
O O8 0.132189 0.073337 0.184410
O O9 0.000000 0.000000 0.000000
O O10 0.750000 0.877939 0.577068
O O11 0.642705 0.750000 0.685205
#
# Coordination Sequence:
#
# PCOD9452840 Si02
#       4
#     8   8   8   8
#     4  10  22  40  63  93 126 159 201 255 311 370
#     4  10  22  42  65  90 123 163 205 256 313 372
#     4  12  23  38  64  93 125 162 209 252 313 365
#     4  10  22  41  63  88 123 167 211 255 303 364
#
# _framework density 19.973510999999998
#
# number of rings (size 3 to 8) (size 9 to 14) (size 15 to 20)
#    0.000    1.500    2.500    2.250    0.000    3.000 
#    0.000    3.750    0.000    3.000    0.000    0.000 
#    0.000    0.000    0.000    0.000    0.000    0.000 
#
# Total GULP energy -178837.774713 kJ/mol
# GULP energy per Si atom -5588.680460 kJ/mol
# Density = 1.992805 g / cm^3
# Si number density = 19.973511 Si / 1000 Ang^3
#
#
#
# Elastic Constant Matrix: (Units=GPa)
#
#
# Indices 1 2 3 4 5 6 
#
# 1 131.4159 28.4627 30.8715 0.0000 0.0000 0.0000
# 2 28.4627 69.9155 35.2169 0.0000 0.0000 0.0000
# 3 30.8715 35.2169 82.9054 0.0000 0.0000 0.0000
# 4 0.0000 0.0000 0.0000 38.5679 0.0000 0.0000
# 5 0.0000 0.0000 0.0000 0.0000 6.5138 0.0000
# 6 0.0000 0.0000 0.0000 0.0000 0.0000 16.3578
#
#
#
# Elastic Compliance Matrix: (Units=1/GPa)
#
#
# Indices 1 2 3 4 5 6 
#
# 1 0.008648 -0.002415 -0.002194 0.000000 0.000000 0.000000
# 2 -0.002415 0.018871 -0.007117 0.000000 0.000000 0.000000
# 3 -0.002194 -0.007117 0.015902 0.000000 0.000000 0.000000
# 4 0.000000 0.000000 0.000000 0.025928 0.000000 0.000000
# 5 0.000000 0.000000 0.000000 0.000000 0.153520 0.000000
# 6 0.000000 0.000000 0.000000 0.000000 0.000000 0.061133
#
#
# Mechanical properties :
#
#
# Convention : Reuss Voigt Hill
#
# Bulk Modulus (GPa) = 50.07896 52.59324 51.33610
# Shear Modulus (GPa) = 15.91796 24.93363 20.42580
#
# Velocity S-wave (km/s) = 2.82610 3.53701 3.20135
# Velocity P-wave (km/s) = 5.98132 6.56272 6.27875
#
# Compressibility (1/GPa) = 0.01996846
#
# Stress axis : x y z
#
# Youngs Moduli (GPa) = 115.63334 52.99138 62.88491
#
# Poissons Ratio (x) = 0.12799 0.13799
# Poissons Ratio (y) = 0.27930 0.44753
# Poissons Ratio (z) = 0.25373 0.37712
#
# Static dielectric constant tensor:
#      x y z
#    x 1.719410 0.000000 0.000000 
#    y 0.000000 1.722460 0.000000 
#    z 0.000000 0.000000 1.650560 
# 
# From -- ./inp_files/1761.got.cif
#   From: 2010.05.17/outbox.cif.g08.bks.cpg/sg59_1_cif.got.tgz:1761.got - 2010.06.03 14:40:33.
