data_PCOD9452997
_publ_section_title
;
Structure prediction by ZEFSAII (Michael W. Deem and Ramdas Pophale) SiO2 
 PCOD9452997
Probable space group: P M M N
;
_chemical_formula_sum "Si O2"
_cell_formula_units_Z 40
_cell_length_a 10.149091
_cell_length_b 19.400696
_cell_length_c 11.335521
_cell_angle_alpha 90.000000
_cell_angle_beta 90.000000
_cell_angle_gamma 90.000000
_cell_volume 2231.957614
_symmetry_space_group_name_H-M "P M M N"
_symmetry_group_IT_number 59
_space_group.IT_coordinate_system_code '2'
_symmetry_cell_setting 'orthorhombic'
loop_
_space_group_symop_operation_xyz
x,y,z
1/2-x,1/2-y,z
1/2+x,-y,-z
-x,1/2+y,-z
-x,-y,-z
1/2+x,1/2+y,-z
1/2-x,y,z
x,1/2-y,z
loop_
_atom_site_type_symbol
_atom_site_label
_atom_site_fract_x
_atom_site_fract_y
_atom_site_fract_z
Si Si1 0.250000 0.578498 0.571910
Si Si2 0.029354 0.671583 0.690233
Si Si3 0.515062 0.556107 0.166394
Si Si4 0.750000 0.027030 0.688587
Si Si5 0.093834 0.904364 0.924232
Si Si6 0.750000 0.920992 0.333503
Si Si7 0.250000 0.370201 0.404972
O O1 0.123261 0.619555 0.618531
O O2 0.250000 0.570951 0.431471
O O3 0.250000 0.501523 0.625806
O O4 0.075899 0.750000 0.679376
O O5 0.038007 0.646633 0.825454
O O6 0.882172 0.665051 0.641232
O O7 0.379962 0.541877 0.235851
O O8 0.572496 0.482293 0.123898
O O9 0.621306 0.589457 0.253391
O O10 0.480299 0.598641 0.048979
O O11 0.750000 0.947561 0.648420
O O12 0.250000 0.892800 0.938261
O O13 0.750000 0.877525 0.453486
#
# Coordination Sequence:
#
# PCOD9452997 Si02
#       7
#     4   8   8   4   8   4   4
#     4  11  21  37  57  89 115 152 204 230 299 341
#     4  12  23  39  59  82 118 156 198 238 281 355
#     4  11  20  34  57  88 121 149 184 239 301 349
#     4  11  20  34  60  86 121 146 187 257 290 348
#     4  11  21  35  56  87 120 150 194 234 290 342
#     4  11  20  38  60  86 125 150 181 253 298 352
#     4  11  23  37  57  91 119 150 192 238 305 345
#
# _framework density 17.921486999999999
#
# number of rings (size 3 to 8) (size 9 to 14) (size 15 to 20)
#    0.000    0.800    7.000    1.800    0.000    4.000 
#    0.000    0.000    0.000    7.200    0.000    0.000 
#    0.000    0.000    0.000    0.000    0.000    0.000 
#
# Total GULP energy -223552.834401 kJ/mol
# GULP energy per Si atom -5588.820860 kJ/mol
# Density = 1.788070 g / cm^3
# Si number density = 17.921487 Si / 1000 Ang^3
#
#
#
# Elastic Constant Matrix: (Units=GPa)
#
#
# Indices 1 2 3 4 5 6 
#
# 1 116.5186 7.4056 39.1302 0.0000 0.0000 0.0000
# 2 7.4056 50.0879 27.0872 0.0000 0.0000 0.0000
# 3 39.1302 27.0872 114.1649 0.0000 0.0000 0.0000
# 4 0.0000 0.0000 0.0000 8.9258 0.0000 0.0000
# 5 0.0000 0.0000 0.0000 0.0000 -33.6381 0.0000
# 6 0.0000 0.0000 0.0000 0.0000 0.0000 -8.8929
#
#
#
# Elastic Compliance Matrix: (Units=1/GPa)
#
#
# Indices 1 2 3 4 5 6 
#
# 1 0.009706 0.000418 -0.003426 0.000000 0.000000 0.000000
# 2 0.000418 0.022922 -0.005582 0.000000 0.000000 0.000000
# 3 -0.003426 -0.005582 0.011258 0.000000 0.000000 0.000000
# 4 0.000000 0.000000 0.000000 0.112034 0.000000 0.000000
# 5 0.000000 0.000000 0.000000 0.000000 -0.029728 0.000000
# 6 0.000000 0.000000 0.000000 0.000000 0.000000 -0.112449
#
#
# Mechanical properties :
#
#
# Convention : Reuss Voigt Hill
#
# Bulk Modulus (GPa) = 37.44491 47.55749 42.50120
# Shear Modulus (GPa) = 125.55158 7.08887 66.32022
#
# Velocity S-wave (km/s) = 8.37905 1.99100 6.08985
# Velocity P-wave (km/s) = 10.70283 5.64621 8.55658
#
# Compressibility (1/GPa) = 0.02670590
#
# Stress axis : x y z
#
# Youngs Moduli (GPa) = 103.02590 43.62692 88.82721
#
# Poissons Ratio (x) = -0.01822 0.30432
# Poissons Ratio (y) = -0.04303 0.49580
# Poissons Ratio (z) = 0.35296 0.24351
#
# Static dielectric constant tensor:
#      x y z
#    x 1.602920 0.000000 0.000000 
#    y 0.000000 1.577470 0.000000 
#    z 0.000000 0.000000 1.609340 
# 
# From -- ./inp_files/14142.got.cif
#   From: 2010.05.17/outbox.cif.g08.bks.cpg/sg59_8_cif.got.tgz:14142.got - 2010.06.03 14:40:33.
