data_PCOD9452376
_publ_section_title
;
Structure prediction by ZEFSAII (Michael W. Deem and Ramdas Pophale) SiO2 
 PCOD9452376
Probable space group: P M M N
;
_chemical_formula_sum "Si O2"
_cell_formula_units_Z 48
_cell_length_a 30.798338
_cell_length_b 8.647095
_cell_length_c 10.332488
_cell_angle_alpha 90.000000
_cell_angle_beta 90.000000
_cell_angle_gamma 90.000000
_cell_volume 2751.708471
_symmetry_space_group_name_H-M "P M M N"
_symmetry_group_IT_number 59
_space_group.IT_coordinate_system_code '2'
_symmetry_cell_setting 'orthorhombic'
loop_
_space_group_symop_operation_xyz
x,y,z
1/2-x,1/2-y,z
1/2+x,-y,-z
-x,1/2+y,-z
-x,-y,-z
1/2+x,1/2+y,-z
1/2-x,y,z
x,1/2-y,z
loop_
_atom_site_type_symbol
_atom_site_label
_atom_site_fract_x
_atom_site_fract_y
_atom_site_fract_z
Si Si1 0.965045 0.935806 0.400024
Si Si2 0.700585 0.561673 0.893190
Si Si3 0.800578 0.936573 0.596968
Si Si4 0.630839 0.066004 0.394261
Si Si5 0.632748 0.937462 0.109828
Si Si6 0.466666 0.435696 0.896240
O O1 0.964377 0.750000 0.404905
O O2 0.976143 0.983418 0.252049
O O3 0.916562 0.996792 0.427326
O O4 0.000000 0.000000 0.500000
O O5 0.750000 0.512607 0.922137
O O6 0.700441 0.750000 0.894322
O O7 0.689919 0.516508 0.745699
O O8 0.666352 0.510153 0.000370
O O9 0.750000 0.974890 0.570675
O O10 0.804474 0.750000 0.589175
O O11 0.833476 0.011816 0.497043
O O12 0.627903 0.250000 0.391627
O O13 0.642623 0.003620 0.251409
O O14 0.634204 0.750000 0.118079
O O15 0.583207 0.981849 0.076178
O O16 0.468451 0.250000 0.900362
O O17 0.500000 0.500000 0.000000
#
# Coordination Sequence:
#
# PCOD9452376 Si02
#       6
#     8   8   8   8   8   8
#     4  10  21  38  57  79 106 137 175 216 260 310
#     4   8  15  30  54  80 101 126 168 217 261 309
#     4   9  18  34  55  78 105 139 178 219 264 313
#     4  11  22  35  52  77 108 141 177 216 259 308
#     4   9  18  34  53  75 103 134 170 213 259 305
#     4   9  19  33  50  74 104 135 169 209 253 305
#
# _framework density 17.443707
#
# number of rings (size 3 to 8) (size 9 to 14) (size 15 to 20)
#    0.000    2.667    0.000    4.000    0.000    5.667 
#    0.000    4.167    0.000    1.000    0.000    0.000 
#    0.000    0.000    0.000    0.000    0.000    0.000 
#
# Total GULP energy -267723.183968 kJ/mol
# GULP energy per Si atom -5577.566333 kJ/mol
# Density = 1.740400 g / cm^3
# Si number density = 17.443707 Si / 1000 Ang^3
#
#
#
# Elastic Constant Matrix: (Units=GPa)
#
#
# Indices 1 2 3 4 5 6 
#
# 1 146.6396 45.2384 143.2378 0.0000 0.0000 0.0000
# 2 45.2384 40.5275 45.2814 0.0000 0.0000 0.0000
# 3 143.2378 45.2814 163.1186 0.0000 0.0000 0.0000
# 4 0.0000 0.0000 0.0000 22.3857 0.0000 0.0000
# 5 0.0000 0.0000 0.0000 0.0000 44.0598 0.0000
# 6 0.0000 0.0000 0.0000 0.0000 0.0000 25.7421
#
#
#
# Elastic Compliance Matrix: (Units=1/GPa)
#
#
# Indices 1 2 3 4 5 6 
#
# 1 0.050538 -0.009899 -0.041631 0.000000 0.000000 0.000000
# 2 -0.009899 0.037707 -0.001775 0.000000 0.000000 0.000000
# 3 -0.041631 -0.001775 0.043180 0.000000 0.000000 0.000000
# 4 0.000000 0.000000 0.000000 0.044671 0.000000 0.000000
# 5 0.000000 0.000000 0.000000 0.000000 0.022696 0.000000
# 6 0.000000 0.000000 0.000000 0.000000 0.000000 0.038847
#
#
# Mechanical properties :
#
#
# Convention : Reuss Voigt Hill
#
# Bulk Modulus (GPa) = 40.29602 90.86676 65.58139
# Shear Modulus (GPa) = 14.18352 26.20605 20.19479
#
# Velocity S-wave (km/s) = 2.85459 3.88018 3.40621
# Velocity P-wave (km/s) = 5.83229 8.50170 7.29022
#
# Compressibility (1/GPa) = 0.02481635
#
# Stress axis : x y z
#
# Youngs Moduli (GPa) = 19.78707 26.51997 23.15882
#
# Poissons Ratio (x) = 0.26251 0.96412
# Poissons Ratio (y) = 0.19586 0.04112
# Poissons Ratio (z) = 0.82375 0.04708
#
# Static dielectric constant tensor:
#      x y z
#    x 1.574210 0.000000 0.000000 
#    y 0.000000 1.597190 0.000000 
#    z 0.000000 0.000000 1.576740 
# 
# From -- ./inp_files/12922.got.cif
#   From: 2010.05.17/outbox.cif.g08.bks.cpg/sg59_7_cif.got.tgz:12922.got - 2010.06.03 14:40:33.
