data_PCOD9452187
_publ_section_title
;
Structure prediction by ZEFSAII (Michael W. Deem and Ramdas Pophale) SiO2 
 PCOD9452187
Probable space group: P M M N
;
_chemical_formula_sum "Si O2"
_cell_formula_units_Z 48
_cell_length_a 14.841563
_cell_length_b 8.419700
_cell_length_c 18.358140
_cell_angle_alpha 90.000000
_cell_angle_beta 90.000000
_cell_angle_gamma 90.000000
_cell_volume 2294.060858
_symmetry_space_group_name_H-M "P M M N"
_symmetry_group_IT_number 59
_space_group.IT_coordinate_system_code '2'
_symmetry_cell_setting 'orthorhombic'
loop_
_space_group_symop_operation_xyz
x,y,z
1/2-x,1/2-y,z
1/2+x,-y,-z
-x,1/2+y,-z
-x,-y,-z
1/2+x,1/2+y,-z
1/2-x,y,z
x,1/2-y,z
loop_
_atom_site_type_symbol
_atom_site_label
_atom_site_fract_x
_atom_site_fract_y
_atom_site_fract_z
Si Si1 0.352858 0.436185 0.873544
Si Si2 0.954047 0.558485 0.673838
Si Si3 0.845561 0.056771 0.369408
Si Si4 0.038004 0.436845 0.167029
Si Si5 0.902640 0.439324 0.525603
Si Si6 0.645174 0.433215 0.968452
O O1 0.250000 0.489720 0.859512
O O2 0.360129 0.250000 0.856146
O O3 0.430795 0.532420 0.833656
O O4 0.369611 0.461205 0.960019
O O5 0.957023 0.750000 0.673066
O O6 0.925612 0.507770 0.754530
O O7 0.891789 0.505632 0.606743
O O8 0.057702 0.500870 0.660571
O O9 0.750000 0.001970 0.336188
O O10 0.847435 0.250000 0.364179
O O11 0.844252 0.015574 0.455491
O O12 0.055270 0.250000 0.159018
O O13 0.082416 0.523688 0.098848
O O14 0.901256 0.250000 0.530396
O O15 0.000000 0.500000 0.500000
O O16 0.750000 0.451803 0.946987
O O17 0.630538 0.250000 0.990198
#
# Coordination Sequence:
#
# PCOD9452187 Si02
#       6
#     8   8   8   8   8   8
#     4  10  21  37  57  81 110 143 179 221 268 320
#     4   9  19  33  49  71  99 133 169 205 252 308
#     4   8  14  27  48  72  95 122 161 205 246 293
#     4  11  22  35  54  80 111 145 180 222 272 325
#     4   9  16  28  48  69  92 124 160 200 243 291
#     4  10  21  38  59  80 103 136 182 231 274 322
#
# _framework density 20.923596
#
# number of rings (size 3 to 8) (size 9 to 14) (size 15 to 20)
#    0.000    2.500    0.000    3.500    0.000    4.000 
#    0.000    2.500    0.000   15.500    0.000    0.000 
#    0.000    0.000    0.000    0.000    0.000    0.000 
#
# Total GULP energy -267686.710853 kJ/mol
# GULP energy per Si atom -5576.806476 kJ/mol
# Density = 2.087597 g / cm^3
# Si number density = 20.923596 Si / 1000 Ang^3
#
#
#
# Elastic Constant Matrix: (Units=GPa)
#
#
# Indices 1 2 3 4 5 6 
#
# 1 25.1346 1.3292 -3.2925 0.0000 0.0000 0.0000
# 2 1.3292 11.2533 -4.7433 0.0000 0.0000 0.0000
# 3 -3.2925 -4.7433 64.0077 0.0000 0.0000 0.0000
# 4 0.0000 0.0000 0.0000 21.6389 0.0000 0.0000
# 5 0.0000 0.0000 0.0000 0.0000 8.6225 0.0000
# 6 0.0000 0.0000 0.0000 0.0000 0.0000 14.8296
#
#
#
# Elastic Compliance Matrix: (Units=1/GPa)
#
#
# Indices 1 2 3 4 5 6 
#
# 1 0.040230 -0.004005 0.001773 0.000000 0.000000 0.000000
# 2 -0.004005 0.092126 0.006621 0.000000 0.000000 0.000000
# 3 0.001773 0.006621 0.016205 0.000000 0.000000 0.000000
# 4 0.000000 0.000000 0.000000 0.046213 0.000000 0.000000
# 5 0.000000 0.000000 0.000000 0.000000 0.115976 0.000000
# 6 0.000000 0.000000 0.000000 0.000000 0.000000 0.067433
#
#
# Mechanical properties :
#
#
# Convention : Reuss Voigt Hill
#
# Bulk Modulus (GPa) = 6.35570 9.66472 8.01021
# Shear Modulus (GPa) = 11.85251 16.15832 14.00541
#
# Velocity S-wave (km/s) = 2.38264 2.78196 2.59001
# Velocity P-wave (km/s) = 3.25783 3.86628 3.57502
#
# Compressibility (1/GPa) = 0.15733920
#
# Stress axis : x y z
#
# Youngs Moduli (GPa) = 24.85718 10.85465 61.70954
#
# Poissons Ratio (x) = 0.04347 -0.10939
# Poissons Ratio (y) = 0.09954 -0.40858
# Poissons Ratio (z) = -0.04406 -0.07187
#
# Static dielectric constant tensor:
#      x y z
#    x 1.778020 0.000000 0.000000 
#    y 0.000000 1.709370 0.000000 
#    z 0.000000 0.000000 1.778670 
# 
# From -- ./inp_files/27371.got.cif
#   From: 2010.05.17/outbox.cif.g08.bks.cpg/sg59_14_cif.got.tgz:27371.got - 2010.06.03 14:40:33.
