data_PCOD9452673
_publ_section_title
;
Structure prediction by ZEFSAII (Michael W. Deem and Ramdas Pophale) SiO2 
 PCOD9452673
Probable space group: P M M N
;
_chemical_formula_sum "Si O2"
_cell_formula_units_Z 48
_cell_length_a 15.985972
_cell_length_b 16.304520
_cell_length_c 10.323520
_cell_angle_alpha 90.000000
_cell_angle_beta 90.000000
_cell_angle_gamma 90.000000
_cell_volume 2690.759419
_symmetry_space_group_name_H-M "P M M N"
_symmetry_group_IT_number 59
_space_group.IT_coordinate_system_code '2'
_symmetry_cell_setting 'orthorhombic'
loop_
_space_group_symop_operation_xyz
x,y,z
1/2-x,1/2-y,z
1/2+x,-y,-z
-x,1/2+y,-z
-x,-y,-z
1/2+x,1/2+y,-z
1/2-x,y,z
x,1/2-y,z
loop_
_atom_site_type_symbol
_atom_site_label
_atom_site_fract_x
_atom_site_fract_y
_atom_site_fract_z
Si Si1 0.750000 0.151946 0.530126
Si Si2 0.250000 0.651152 0.775750
Si Si3 0.469507 0.391420 0.877335
Si Si4 0.928522 0.409998 0.620515
Si Si5 0.850147 0.750000 0.027534
Si Si6 0.151281 0.250000 0.283819
Si Si7 0.422888 0.918965 0.871715
Si Si8 0.459884 0.397029 0.369526
O O1 0.750000 0.250000 0.533577
O O2 0.750000 0.127440 0.377339
O O3 0.665487 0.120615 0.598282
O O4 0.250000 0.750000 0.782544
O O5 0.168806 0.614628 0.845412
O O6 0.522888 0.377954 0.747102
O O7 0.396472 0.327595 0.908683
O O8 0.429314 0.482240 0.870547
O O9 0.535232 0.389996 0.995414
O O10 0.927342 0.509358 0.628239
O O11 0.984687 0.385115 0.497322
O O12 0.750000 0.750000 0.047621
O O13 0.865302 0.750000 0.871714
O O14 0.250000 0.250000 0.300553
O O15 0.111266 0.169980 0.349588
O O16 0.479726 0.888445 0.753506
#
# Coordination Sequence:
#
# PCOD9452673 Si02
#       8
#     4   4   8   8   4   4   8   8
#     4  11  24  39  63  96 127 160 206 255 309 369
#     4  11  24  37  67  98 121 162 214 255 299 361
#     4  10  23  41  63  90 124 168 203 253 319 366
#     4  10  23  41  63  91 128 167 200 251 319 370
#     4  11  24  41  65  92 123 163 210 264 313 363
#     4  11  24  39  67  96 119 159 216 266 301 359
#     4  10  21  41  62  91 124 164 208 250 304 373
#     4  10  21  41  65  89 123 166 207 251 308 371
#
# _framework density 17.838830999999999
#
# number of rings (size 3 to 8) (size 9 to 14) (size 15 to 20)
#    0.000    1.667    3.333    0.000    7.000    0.667 
#    0.000    2.500    0.000    0.000    0.000    0.000 
#    0.000    0.000    0.000    0.000    0.000    0.000 
#
# Total GULP energy -268047.119519 kJ/mol
# GULP energy per Si atom -5584.314990 kJ/mol
# Density = 1.779823 g / cm^3
# Si number density = 17.838831 Si / 1000 Ang^3
#
#
#
# Elastic Constant Matrix: (Units=GPa)
#
#
# Indices 1 2 3 4 5 6 
#
# 1 170.1955 82.1420 74.1974 0.0000 0.0000 0.0000
# 2 82.1420 63.9523 51.3898 0.0000 0.0000 0.0000
# 3 74.1974 51.3898 136.7584 0.0000 0.0000 0.0000
# 4 0.0000 0.0000 0.0000 10.4010 0.0000 0.0000
# 5 0.0000 0.0000 0.0000 0.0000 14.1438 0.0000
# 6 0.0000 0.0000 0.0000 0.0000 0.0000 21.2070
#
#
#
# Elastic Compliance Matrix: (Units=1/GPa)
#
#
# Indices 1 2 3 4 5 6 
#
# 1 0.015628 -0.018996 -0.001341 0.000000 0.000000 0.000000
# 2 -0.018996 0.045489 -0.006788 0.000000 0.000000 0.000000
# 3 -0.001341 -0.006788 0.010590 0.000000 0.000000 0.000000
# 4 0.000000 0.000000 0.000000 0.096145 0.000000 0.000000
# 5 0.000000 0.000000 0.000000 0.000000 0.070703 0.000000
# 6 0.000000 0.000000 0.000000 0.000000 0.000000 0.047154
#
#
# Mechanical properties :
#
#
# Convention : Reuss Voigt Hill
#
# Bulk Modulus (GPa) = 57.27566 87.37384 72.32475
# Shear Modulus (GPa) = 14.46018 20.02882 17.24450
#
# Velocity S-wave (km/s) = 2.85020 3.35440 3.11253
# Velocity P-wave (km/s) = 6.55809 8.00554 7.31769
#
# Compressibility (1/GPa) = 0.01745942
#
# Stress axis : x y z
#
# Youngs Moduli (GPa) = 63.98738 21.98317 94.42628
#
# Poissons Ratio (x) = 0.41758 0.12662
# Poissons Ratio (y) = 1.21548 0.64093
# Poissons Ratio (z) = 0.08580 0.14921
#
# Static dielectric constant tensor:
#      x y z
#    x 1.584330 0.000000 0.000000 
#    y 0.000000 1.611670 0.000000 
#    z 0.000000 0.000000 1.601240 
# 
# From -- ./inp_files/9085.got.cif
#   From: 2010.05.17/outbox.cif.g08.bks.cpg/sg59_5_cif.got.tgz:9085.got - 2010.06.03 14:40:33.
