data_PCOD9452884
_publ_section_title
;
Structure prediction by ZEFSAII (Michael W. Deem and Ramdas Pophale) SiO2 
 PCOD9452884
Probable space group: P M M N
;
_chemical_formula_sum "Si O2"
_cell_formula_units_Z 56
_cell_length_a 14.480380
_cell_length_b 14.980801
_cell_length_c 12.449617
_cell_angle_alpha 90.000000
_cell_angle_beta 90.000000
_cell_angle_gamma 90.000000
_cell_volume 2700.666672
_symmetry_space_group_name_H-M "P M M N"
_symmetry_group_IT_number 59
_space_group.IT_coordinate_system_code '2'
_symmetry_cell_setting 'orthorhombic'
loop_
_space_group_symop_operation_xyz
x,y,z
1/2-x,1/2-y,z
1/2+x,-y,-z
-x,1/2+y,-z
-x,-y,-z
1/2+x,1/2+y,-z
1/2-x,y,z
x,1/2-y,z
loop_
_atom_site_type_symbol
_atom_site_label
_atom_site_fract_x
_atom_site_fract_y
_atom_site_fract_z
Si Si1 0.149273 0.645756 0.935484
Si Si2 0.637363 0.147640 0.299162
Si Si3 0.360256 0.477036 0.565411
Si Si4 0.360693 0.348602 0.157828
Si Si5 0.020970 0.356860 0.718531
Si Si6 0.640299 0.009849 0.683571
Si Si7 0.022974 0.097937 0.956071
O O1 0.250000 0.605028 0.957598
O O2 0.160764 0.750000 0.913487
O O3 0.110215 0.613693 0.820519
O O4 0.078475 0.640154 0.031709
O O5 0.750000 0.150272 0.297087
O O6 0.606221 0.250000 0.319274
O O7 0.610354 0.073165 0.385039
O O8 0.250000 0.467729 0.583288
O O9 0.414493 0.400187 0.627608
O O10 0.376317 0.478481 0.438422
O O11 0.250000 0.351751 0.146202
O O12 0.385847 0.250000 0.200889
O O13 0.386668 0.429876 0.235765
O O14 0.408549 0.359913 0.042839
O O15 0.017785 0.250000 0.713718
O O16 0.921251 0.403576 0.705299
O O17 0.056538 0.388616 0.835875
O O18 0.750000 0.027132 0.695686
O O19 0.000000 0.000000 0.000000
#
# Coordination Sequence:
#
# PCOD9452884 Si02
#       7
#     8   8   8   8   8   8   8
#     4   9  18  33  54  84 119 155 202 251 298 363
#     4   8  15  30  55  88 121 154 201 259 314 371
#     4  10  22  42  66  92 128 168 212 263 319 383
#     4  10  22  42  67  93 121 160 215 270 317 372
#     4  12  26  42  62  96 136 172 215 262 322 390
#     4  10  23  45  68  91 124 168 218 269 320 376
#     4  12  23  39  63  89 130 172 206 256 317 380
#
# _framework density 20.735620000000001
#
# number of rings (size 3 to 8) (size 9 to 14) (size 15 to 20)
#    0.000    1.857    1.429    3.429    0.000    3.429 
#    0.000    2.857    0.000    0.000    0.000    0.000 
#    0.000    0.000    0.000    0.000    0.000    0.000 
#
# Total GULP energy -312695.979174 kJ/mol
# GULP energy per Si atom -5583.856771 kJ/mol
# Density = 2.068843 g / cm^3
# Si number density = 20.735620 Si / 1000 Ang^3
#
#
#
# Elastic Constant Matrix: (Units=GPa)
#
#
# Indices 1 2 3 4 5 6 
#
# 1 53.1737 34.6740 29.7462 0.0000 0.0000 0.0000
# 2 34.6740 146.5599 37.7724 0.0000 0.0000 0.0000
# 3 29.7462 37.7724 97.4688 0.0000 0.0000 0.0000
# 4 0.0000 0.0000 0.0000 14.1627 0.0000 0.0000
# 5 0.0000 0.0000 0.0000 0.0000 -75.5394 0.0000
# 6 0.0000 0.0000 0.0000 0.0000 0.0000 40.5460
#
#
#
# Elastic Compliance Matrix: (Units=1/GPa)
#
#
# Indices 1 2 3 4 5 6 
#
# 1 0.024978 -0.004383 -0.005925 0.000000 0.000000 0.000000
# 2 -0.004383 0.008349 -0.001898 0.000000 0.000000 0.000000
# 3 -0.005925 -0.001898 0.012803 0.000000 0.000000 0.000000
# 4 0.000000 0.000000 0.000000 0.070608 0.000000 0.000000
# 5 0.000000 0.000000 0.000000 0.000000 -0.013238 0.000000
# 6 0.000000 0.000000 0.000000 0.000000 0.000000 0.024663
#
#
# Mechanical properties :
#
#
# Convention : Reuss Voigt Hill
#
# Bulk Modulus (GPa) = 46.03984 55.73197 50.88590
# Shear Modulus (GPa) = 31.28618 8.83452 20.06035
#
# Velocity S-wave (km/s) = 3.88856 2.06635 3.11373
# Velocity P-wave (km/s) = 6.51250 5.71216 6.12542
#
# Compressibility (1/GPa) = 0.02172032
#
# Stress axis : x y z
#
# Youngs Moduli (GPa) = 40.03446 119.77206 78.10418
#
# Poissons Ratio (x) = 0.52491 0.46274
# Poissons Ratio (y) = 0.17545 0.14825
# Poissons Ratio (z) = 0.23719 0.22734
#
# Static dielectric constant tensor:
#      x y z
#    x 1.674290 0.000000 0.000000 
#    y 0.000000 1.723540 0.000000 
#    z 0.000000 0.000000 1.775340 
# 
# From -- ./inp_files/16924.got.cif
#   From: 2010.05.17/outbox.cif.g08.bks.cpg/sg59_9_cif.got.tgz:16924.got - 2010.06.03 14:40:33.
