data_PCOD9452243
_publ_section_title
;
Structure prediction by ZEFSAII (Michael W. Deem and Ramdas Pophale) SiO2 
 PCOD9452243
Probable space group: P M M N
;
_chemical_formula_sum "Si O2"
_cell_formula_units_Z 40
_cell_length_a 19.601095
_cell_length_b 14.577252
_cell_length_c 7.059898
_cell_angle_alpha 90.000000
_cell_angle_beta 90.000000
_cell_angle_gamma 90.000000
_cell_volume 2017.225371
_symmetry_space_group_name_H-M "P M M N"
_symmetry_group_IT_number 59
_space_group.IT_coordinate_system_code '2'
_symmetry_cell_setting 'orthorhombic'
loop_
_space_group_symop_operation_xyz
x,y,z
1/2-x,1/2-y,z
1/2+x,-y,-z
-x,1/2+y,-z
-x,-y,-z
1/2+x,1/2+y,-z
1/2-x,y,z
x,1/2-y,z
loop_
_atom_site_type_symbol
_atom_site_label
_atom_site_fract_x
_atom_site_fract_y
_atom_site_fract_z
Si Si1 0.824864 0.139516 0.603967
Si Si2 0.828288 0.982555 0.318891
Si Si3 0.060994 0.072349 0.978859
Si Si4 0.086713 0.139487 0.396829
Si Si5 0.471697 0.854083 0.333803
O O1 0.750000 0.112270 0.684957
O O2 0.822681 0.250000 0.586372
O O3 0.895372 0.110164 0.707688
O O4 0.831198 0.085140 0.405971
O O5 0.750000 0.961325 0.274665
O O6 0.856134 0.914444 0.483656
O O7 0.876797 0.969523 0.139734
O O8 0.084435 0.113229 0.177468
O O9 0.023228 0.144157 0.840985
O O10 0.000000 0.000000 0.000000
O O11 0.093354 0.250000 0.419001
O O12 0.014830 0.106075 0.491183
O O13 0.459663 0.750000 0.391108
#
# Coordination Sequence:
#
# PCOD9452243 Si02
#       5
#     8   8   8   8   8
#     4   9  17  32  56  81 107 144 184 224 279 341
#     4  10  22  39  57  81 114 148 186 234 284 337
#     4  11  21  34  56  84 113 147 189 234 283 338
#     4  10  21  37  58  83 112 149 191 235 284 338
#     4   9  18  34  55  80 110 143 182 228 275 328
#
# _framework density 19.829215999999999
#
# number of rings (size 3 to 8) (size 9 to 14) (size 15 to 20)
#    0.000    2.200    0.000    3.000    0.000    5.200 
#    0.000    2.000    0.000    2.400    0.000   11.200 
#    0.000    0.000    0.000    0.000    0.000    0.000 
#
# Total GULP energy -222765.486568 kJ/mol
# GULP energy per Si atom -5569.137164 kJ/mol
# Density = 1.978408 g / cm^3
# Si number density = 19.829216 Si / 1000 Ang^3
#
#
#
# Elastic Constant Matrix: (Units=GPa)
#
#
# Indices 1 2 3 4 5 6 
#
# 1 165.0205 4.4916 36.4551 0.0000 0.0000 0.0000
# 2 4.4916 46.9991 -0.8616 0.0000 0.0000 0.0000
# 3 36.4551 -0.8616 92.8238 0.0000 0.0000 0.0000
# 4 0.0000 0.0000 0.0000 17.6204 0.0000 0.0000
# 5 0.0000 0.0000 0.0000 0.0000 16.7286 0.0000
# 6 0.0000 0.0000 0.0000 0.0000 0.0000 22.4333
#
#
#
# Elastic Compliance Matrix: (Units=1/GPa)
#
#
# Indices 1 2 3 4 5 6 
#
# 1 0.006657 -0.000684 -0.002621 0.000000 0.000000 0.000000
# 2 -0.000684 0.021351 0.000467 0.000000 0.000000 0.000000
# 3 -0.002621 0.000467 0.011807 0.000000 0.000000 0.000000
# 4 0.000000 0.000000 0.000000 0.056753 0.000000 0.000000
# 5 0.000000 0.000000 0.000000 0.000000 0.059778 0.000000
# 6 0.000000 0.000000 0.000000 0.000000 0.000000 0.044577
#
#
# Mechanical properties :
#
#
# Convention : Reuss Voigt Hill
#
# Bulk Modulus (GPa) = 29.29241 42.77929 36.03585
# Shear Modulus (GPa) = 22.93805 29.00701 25.97253
#
# Velocity S-wave (km/s) = 3.40484 3.82886 3.62306
# Velocity P-wave (km/s) = 5.50106 6.41620 5.97617
#
# Compressibility (1/GPa) = 0.03413854
#
# Stress axis : x y z
#
# Youngs Moduli (GPa) = 150.20690 46.83632 84.69709
#
# Poissons Ratio (x) = 0.03205 0.22199
# Poissons Ratio (y) = 0.10278 -0.03955
# Poissons Ratio (z) = 0.39369 -0.02187
#
# Static dielectric constant tensor:
#      x y z
#    x 1.751650 0.000000 0.000000 
#    y 0.000000 1.825440 0.000000 
#    z 0.000000 0.000000 1.697990 
# 
# From -- ./inp_files/2632.got.cif
#   From: 2010.05.17/outbox.cif.g08.bks.cpg/sg59_2_cif.got.tgz:2632.got - 2010.06.03 14:40:33.
