data_PCOD9452260
_publ_section_title
;
Structure prediction by ZEFSAII (Michael W. Deem and Ramdas Pophale) SiO2 
 PCOD9452260
Probable space group: P M M N
;
_chemical_formula_sum "Si O2"
_cell_formula_units_Z 64
_cell_length_a 24.249466
_cell_length_b 13.902399
_cell_length_c 8.981114
_cell_angle_alpha 90.000000
_cell_angle_beta 90.000000
_cell_angle_gamma 90.000000
_cell_volume 3027.764810
_symmetry_space_group_name_H-M "P M M N"
_symmetry_group_IT_number 59
_space_group.IT_coordinate_system_code '2'
_symmetry_cell_setting 'orthorhombic'
loop_
_space_group_symop_operation_xyz
x,y,z
1/2-x,1/2-y,z
1/2+x,-y,-z
-x,1/2+y,-z
-x,-y,-z
1/2+x,1/2+y,-z
1/2-x,y,z
x,1/2-y,z
loop_
_atom_site_type_symbol
_atom_site_label
_atom_site_fract_x
_atom_site_fract_y
_atom_site_fract_z
Si Si1 0.187664 0.135024 0.862715
Si Si2 0.871723 0.138022 0.315091
Si Si3 0.031193 0.558693 0.176835
Si Si4 0.814853 0.957877 0.821760
Si Si5 0.392905 0.499640 0.428822
Si Si6 0.921533 0.864756 0.318990
Si Si7 0.020064 0.640012 0.871715
Si Si8 0.816107 0.358090 0.006133
O O1 0.250000 0.097173 0.829462
O O2 0.190526 0.250000 0.854233
O O3 0.137271 0.107812 0.755297
O O4 0.174254 0.106124 0.032524
O O5 0.859926 0.250000 0.347431
O O6 0.935430 0.130895 0.260433
O O7 0.837466 0.110657 0.168063
O O8 0.862982 0.070795 0.455912
O O9 0.068224 0.563241 0.322712
O O10 0.971022 0.601189 0.213481
O O11 0.024557 0.444433 0.144629
O O12 0.049926 0.613411 0.028066
O O13 0.750000 0.950483 0.788365
O O14 0.851229 0.941936 0.677231
O O15 0.828754 0.065260 0.879315
O O16 0.426264 0.423338 0.527970
O O17 0.923813 0.750000 0.338891
O O18 0.000021 0.750000 0.876631
O O19 0.750000 0.355029 0.013945
O O20 0.836822 0.250000 0.977953
#
# Coordination Sequence:
#
# PCOD9452260 Si02
#       8
#     8   8   8   8   8   8   8   8
#     4   9  20  41  67  90 113 150 202 257 305 354
#     4  10  21  37  58  84 115 157 200 241 294 357
#     4  11  24  41  61  89 123 159 200 256 303 356
#     4  10  22  38  61  89 120 158 199 247 300 359
#     4  12  25  39  56  87 129 164 193 240 302 371
#     4  11  24  41  63  91 122 159 203 251 306 366
#     4  10  22  40  64  86 110 153 205 250 296 350
#     4   9  18  35  59  85 112 148 199 251 292 340
#
# _framework density 21.137705
#
# number of rings (size 3 to 8) (size 9 to 14) (size 15 to 20)
#    0.000    1.750    1.250    2.250    3.500    3.500 
#    0.000    0.000    0.000    0.000    0.000    0.000 
#    0.000    0.000    0.000    0.000    0.000    0.000 
#
# Total GULP energy -357579.369518 kJ/mol
# GULP energy per Si atom -5587.177649 kJ/mol
# Density = 2.108959 g / cm^3
# Si number density = 21.137705 Si / 1000 Ang^3
#
#
#
# Elastic Constant Matrix: (Units=GPa)
#
#
# Indices 1 2 3 4 5 6 
#
# 1 47.5607 -5.3068 15.9102 0.0000 0.0000 0.0000
# 2 -5.3068 59.7483 -3.0637 0.0000 0.0000 0.0000
# 3 15.9102 -3.0637 69.8801 0.0000 0.0000 0.0000
# 4 0.0000 0.0000 0.0000 12.7931 0.0000 0.0000
# 5 0.0000 0.0000 0.0000 0.0000 27.2746 0.0000
# 6 0.0000 0.0000 0.0000 0.0000 0.0000 21.3007
#
#
#
# Elastic Compliance Matrix: (Units=1/GPa)
#
#
# Indices 1 2 3 4 5 6 
#
# 1 0.022945 0.001774 -0.005146 0.000000 0.000000 0.000000
# 2 0.001774 0.016912 0.000338 0.000000 0.000000 0.000000
# 3 -0.005146 0.000338 0.015497 0.000000 0.000000 0.000000
# 4 0.000000 0.000000 0.000000 0.078167 0.000000 0.000000
# 5 0.000000 0.000000 0.000000 0.000000 0.036664 0.000000
# 6 0.000000 0.000000 0.000000 0.000000 0.000000 0.046947
#
#
# Mechanical properties :
#
#
# Convention : Reuss Voigt Hill
#
# Bulk Modulus (GPa) = 20.29041 21.36314 20.82677
# Shear Modulus (GPa) = 20.86557 23.58365 22.22461
#
# Velocity S-wave (km/s) = 3.14526 3.34386 3.24608
# Velocity P-wave (km/s) = 4.77601 5.00371 4.89118
#
# Compressibility (1/GPa) = 0.04928438
#
# Stress axis : x y z
#
# Youngs Moduli (GPa) = 43.58189 59.13041 64.52971
#
# Poissons Ratio (x) = -0.10490 0.33209
# Poissons Ratio (y) = -0.07732 -0.02178
# Poissons Ratio (z) = 0.22429 -0.01996
#
# Static dielectric constant tensor:
#      x y z
#    x 1.796280 0.000000 0.000000 
#    y 0.000000 1.777040 0.000000 
#    z 0.000000 0.000000 1.726570 
# 
# From -- ./inp_files/12185.got.cif
#   From: 2010.05.17/outbox.cif.g08.bks.cpg/sg59_7_cif.got.tgz:12185.got - 2010.06.03 14:40:33.
