data_PCOD9452006
_publ_section_title
;
Structure prediction by ZEFSAII (Michael W. Deem and Ramdas Pophale) SiO2 
 PCOD9452006
Probable space group: P M M N
;
_chemical_formula_sum "Si O2"
_cell_formula_units_Z 64
_cell_length_a 31.324561
_cell_length_b 8.935620
_cell_length_c 12.419652
_cell_angle_alpha 90.000000
_cell_angle_beta 90.000000
_cell_angle_gamma 90.000000
_cell_volume 3476.314915
_symmetry_space_group_name_H-M "P M M N"
_symmetry_group_IT_number 59
_space_group.IT_coordinate_system_code '2'
_symmetry_cell_setting 'orthorhombic'
loop_
_space_group_symop_operation_xyz
x,y,z
1/2-x,1/2-y,z
1/2+x,-y,-z
-x,1/2+y,-z
-x,-y,-z
1/2+x,1/2+y,-z
1/2-x,y,z
x,1/2-y,z
loop_
_atom_site_type_symbol
_atom_site_label
_atom_site_fract_x
_atom_site_fract_y
_atom_site_fract_z
Si Si1 0.200000 0.929050 0.526735
Si Si2 0.434627 0.425933 0.756875
Si Si3 0.481466 0.926092 0.107869
Si Si4 0.199099 0.076659 0.755998
Si Si5 0.390458 0.071257 0.134433
Si Si6 0.047006 0.069430 0.514653
Si Si7 0.365099 0.572356 0.911647
Si Si8 0.371039 0.069930 0.375858
O O1 0.250000 0.966401 0.504183
O O2 0.196727 0.750000 0.533985
O O3 0.188449 0.002002 0.641596
O O4 0.167258 0.992308 0.439545
O O5 0.422871 0.250000 0.764128
O O6 0.482715 0.440015 0.800692
O O7 0.434329 0.472137 0.632346
O O8 0.404081 0.516981 0.836015
O O9 0.473071 0.750000 0.089446
O O10 0.438596 0.010533 0.138351
O O11 0.500000 0.000000 0.000000
O O12 0.250000 0.071089 0.767627
O O13 0.185493 0.250000 0.755887
O O14 0.176406 0.988623 0.851099
O O15 0.390844 0.250000 0.121324
O O16 0.369598 0.034677 0.249258
O O17 0.369537 0.997820 0.029753
O O18 0.042496 0.250000 0.512667
O O19 0.082783 0.026583 0.426494
O O20 0.000000 0.000000 0.500000
O O21 0.365412 0.750000 0.918625
O O22 0.367564 0.250000 0.388815
#
# Coordination Sequence:
#
# PCOD9452006 Si02
#       8
#     8   8   8   8   8   8   8   8
#     4  10  21  38  63  95 125 152 190 242 296 352
#     4  10  21  36  56  81 113 149 188 236 289 346
#     4  11  21  34  54  80 111 153 198 244 292 345
#     4  10  21  39  64  90 118 151 184 226 284 349
#     4  11  23  39  57  80 115 157 202 250 293 349
#     4  10  21  37  56  82 114 150 191 238 289 345
#     4  12  24  37  58  86 114 147 189 238 291 346
#     4  10  22  39  60  85 116 159 204 246 297 355
#
# _framework density 18.410299999999999
#
# number of rings (size 3 to 8) (size 9 to 14) (size 15 to 20)
#    0.000    1.500    1.250    4.125    0.000    5.000 
#    0.000    0.625    0.000    0.750    0.000    0.000 
#    0.000    0.000    0.000    0.000    0.000    0.000 
#
# Total GULP energy -357702.586977 kJ/mol
# GULP energy per Si atom -5589.102922 kJ/mol
# Density = 1.836840 g / cm^3
# Si number density = 18.410300 Si / 1000 Ang^3
#
#
#
# Elastic Constant Matrix: (Units=GPa)
#
#
# Indices 1 2 3 4 5 6 
#
# 1 76.4815 44.6158 62.5213 0.0000 0.0000 0.0000
# 2 44.6158 89.8206 76.9753 0.0000 0.0000 0.0000
# 3 62.5213 76.9753 157.9217 0.0000 0.0000 0.0000
# 4 0.0000 0.0000 0.0000 22.1868 0.0000 0.0000
# 5 0.0000 0.0000 0.0000 0.0000 31.7893 0.0000
# 6 0.0000 0.0000 0.0000 0.0000 0.0000 35.1750
#
#
#
# Elastic Compliance Matrix: (Units=1/GPa)
#
#
# Indices 1 2 3 4 5 6 
#
# 1 0.020874 -0.005644 -0.005513 0.000000 0.000000 0.000000
# 2 -0.005644 0.020646 -0.007829 0.000000 0.000000 0.000000
# 3 -0.005513 -0.007829 0.012331 0.000000 0.000000 0.000000
# 4 0.000000 0.000000 0.000000 0.045072 0.000000 0.000000
# 5 0.000000 0.000000 0.000000 0.000000 0.031457 0.000000
# 6 0.000000 0.000000 0.000000 0.000000 0.000000 0.028429
#
#
# Mechanical properties :
#
#
# Convention : Reuss Voigt Hill
#
# Bulk Modulus (GPa) = 62.97568 76.93874 69.95721
# Shear Modulus (GPa) = 24.74324 27.17097 25.95710
#
# Velocity S-wave (km/s) = 3.67002 3.84586 3.75897
# Velocity P-wave (km/s) = 7.22771 7.84874 7.54462
#
# Compressibility (1/GPa) = 0.01587915
#
# Stress axis : x y z
#
# Youngs Moduli (GPa) = 47.90568 48.43490 81.09652
#
# Poissons Ratio (x) = 0.27337 0.44709
# Poissons Ratio (y) = 0.27038 0.63491
# Poissons Ratio (z) = 0.26411 0.37920
#
# Static dielectric constant tensor:
#      x y z
#    x 1.585880 0.000000 0.000000 
#    y 0.000000 1.643540 0.000000 
#    z 0.000000 0.000000 4.615990 
# 
# From -- ./inp_files/15041.got.cif
#   From: 2010.05.17/outbox.cif.g08.bks.cpg/sg59_8_cif.got.tgz:15041.got - 2010.06.03 14:40:33.
