data_PCOD9452231
_publ_section_title
;
Structure prediction by ZEFSAII (Michael W. Deem and Ramdas Pophale) SiO2 
 PCOD9452231
Probable space group: P M M N
;
_chemical_formula_sum "Si O2"
_cell_formula_units_Z 40
_cell_length_a 8.040868
_cell_length_b 16.803563
_cell_length_c 11.929703
_cell_angle_alpha 90.000000
_cell_angle_beta 90.000000
_cell_angle_gamma 90.000000
_cell_volume 1611.884589
_symmetry_space_group_name_H-M "P M M N"
_symmetry_group_IT_number 59
_space_group.IT_coordinate_system_code '2'
_symmetry_cell_setting 'orthorhombic'
loop_
_space_group_symop_operation_xyz
x,y,z
1/2-x,1/2-y,z
1/2+x,-y,-z
-x,1/2+y,-z
-x,-y,-z
1/2+x,1/2+y,-z
1/2-x,y,z
x,1/2-y,z
loop_
_atom_site_type_symbol
_atom_site_label
_atom_site_fract_x
_atom_site_fract_y
_atom_site_fract_z
Si Si1 0.054742 0.837944 0.292728
Si Si2 0.452877 0.490680 0.264614
Si Si3 0.441267 0.915033 0.954894
Si Si4 0.056063 0.106673 0.467065
Si Si5 0.438189 0.250000 0.073636
Si Si6 0.056526 0.750000 0.680520
O O1 0.250000 0.833717 0.265145
O O2 0.981336 0.750000 0.272511
O O3 0.990537 0.919285 0.236545
O O4 0.038390 0.860152 0.424560
O O5 0.250000 0.486677 0.257968
O O6 0.529796 0.429263 0.177583
O O7 0.501542 0.468739 0.392026
O O8 0.250000 0.905394 0.982964
O O9 0.529040 0.832920 0.989263
O O10 0.500000 0.000000 0.000000
O O11 0.250000 0.097433 0.496510
O O12 0.035635 0.175289 0.373824
O O13 0.250000 0.250000 0.113593
O O14 0.549237 0.250000 0.185201
O O15 0.250000 0.750000 0.645952
#
# Coordination Sequence:
#
# PCOD9452231 Si02
#       6
#     8   8   8   8   4   4
#     4  10  21  37  57  84 124 172 217 260 312 380
#     4  10  22  40  61  88 126 168 211 266 326 379
#     4  12  26  46  72 101 132 171 216 267 327 394
#     4  11  21  34  57  87 123 166 210 262 317 372
#     4  12  24  44  72 101 132 165 210 270 332 392
#     4  12  22  34  58  91 124 163 210 256 310 374
#
# _framework density 24.815671999999999
#
# number of rings (size 3 to 8) (size 9 to 14) (size 15 to 20)
#    0.000    1.000    3.000    4.800    0.000    1.600 
#    1.800    0.000    0.000    0.000    0.000    0.000 
#    0.000    0.000    0.000    0.000    0.000    0.000 
#
# Total GULP energy -223687.690321 kJ/mol
# GULP energy per Si atom -5592.192258 kJ/mol
# Density = 2.475919 g / cm^3
# Si number density = 24.815672 Si / 1000 Ang^3
#
#
#
# Elastic Constant Matrix: (Units=GPa)
#
#
# Indices 1 2 3 4 5 6 
#
# 1 71.7305 12.4685 -6.6205 0.0000 0.0000 0.0000
# 2 12.4685 204.8927 10.7390 0.0000 0.0000 0.0000
# 3 -6.6205 10.7390 52.9639 0.0000 0.0000 0.0000
# 4 0.0000 0.0000 0.0000 30.7692 0.0000 0.0000
# 5 0.0000 0.0000 0.0000 0.0000 22.6173 0.0000
# 6 0.0000 0.0000 0.0000 0.0000 0.0000 28.0518
#
#
#
# Elastic Compliance Matrix: (Units=1/GPa)
#
#
# Indices 1 2 3 4 5 6 
#
# 1 0.014293 -0.000974 0.001984 0.000000 0.000000 0.000000
# 2 -0.000974 0.004999 -0.001135 0.000000 0.000000 0.000000
# 3 0.001984 -0.001135 0.019359 0.000000 0.000000 0.000000
# 4 0.000000 0.000000 0.000000 0.032500 0.000000 0.000000
# 5 0.000000 0.000000 0.000000 0.000000 0.044214 0.000000
# 6 0.000000 0.000000 0.000000 0.000000 0.000000 0.035648
#
#
# Mechanical properties :
#
#
# Convention : Reuss Voigt Hill
#
# Bulk Modulus (GPa) = 26.04052 40.30679 33.17365
# Shear Modulus (GPa) = 30.47574 37.15433 33.81504
#
# Velocity S-wave (km/s) = 3.50821 3.87358 3.69541
# Velocity P-wave (km/s) = 5.18906 6.02361 5.62184
#
# Compressibility (1/GPa) = 0.03840170
#
# Stress axis : x y z
#
# Youngs Moduli (GPa) = 69.96200 200.02505 51.65554
#
# Poissons Ratio (x) = 0.19479 -0.10249
# Poissons Ratio (y) = 0.06813 0.05865
# Poissons Ratio (z) = -0.13881 0.22711
#
# Static dielectric constant tensor:
#      x y z
#    x 1.849640 0.000000 0.000000 
#    y 0.000000 2.029670 0.000000 
#    z 0.000000 0.000000 2.027360 
# 
# From -- ./inp_files/19920.got.cif
#   From: 2010.05.17/outbox.cif.g08.bks.cpg/sg59_10_cif.got.tgz:19920.got - 2010.06.03 14:40:33.
