data_PCOD9452215
_publ_section_title
;
Structure prediction by ZEFSAII (Michael W. Deem and Ramdas Pophale) SiO2 
 PCOD9452215
Probable space group: P M M N
;
_chemical_formula_sum "Si O2"
_cell_formula_units_Z 48
_cell_length_a 30.108307
_cell_length_b 8.764589
_cell_length_c 10.341953
_cell_angle_alpha 90.000000
_cell_angle_beta 90.000000
_cell_angle_gamma 90.000000
_cell_volume 2729.106293
_symmetry_space_group_name_H-M "P M M N"
_symmetry_group_IT_number 59
_space_group.IT_coordinate_system_code '2'
_symmetry_cell_setting 'orthorhombic'
loop_
_space_group_symop_operation_xyz
x,y,z
1/2-x,1/2-y,z
1/2+x,-y,-z
-x,1/2+y,-z
-x,-y,-z
1/2+x,1/2+y,-z
1/2-x,y,z
x,1/2-y,z
loop_
_atom_site_type_symbol
_atom_site_label
_atom_site_fract_x
_atom_site_fract_y
_atom_site_fract_z
Si Si1 0.466546 0.432686 0.603721
Si Si2 0.864059 0.933501 0.387927
Si Si3 0.802364 0.932246 0.890978
Si Si4 0.035263 0.066230 0.900002
Si Si5 0.633156 0.432426 0.106149
Si Si6 0.197619 0.567985 0.389877
O O1 0.500000 0.500000 0.500000
O O2 0.468905 0.250000 0.596671
O O3 0.415176 0.476413 0.579928
O O4 0.477079 0.476579 0.752024
O O5 0.861679 0.750000 0.379269
O O6 0.853972 0.004044 0.247627
O O7 0.831478 0.995337 0.497114
O O8 0.750000 0.964479 0.912602
O O9 0.808572 0.750000 0.893608
O O10 0.813923 0.996164 0.749111
O O11 0.832253 0.009989 0.999588
O O12 0.036941 0.250000 0.907861
O O13 0.084345 0.999840 0.924003
O O14 0.000000 0.000000 0.000000
O O15 0.631321 0.250000 0.108717
O O16 0.250000 0.538123 0.412505
O O17 0.191111 0.750000 0.385699
#
# Coordination Sequence:
#
# PCOD9452215 Si02
#       6
#     8   8   8   8   8   8
#     4   9  20  36  55  79 107 139 177 221 266 317
#     4  10  21  38  57  80 111 146 185 227 273 328
#     4  10  21  38  59  82 110 146 185 226 276 333
#     4  10  21  38  57  81 112 145 184 227 274 330
#     4  11  22  37  58  83 111 145 185 231 281 329
#     4  10  21  37  57  83 113 144 182 228 275 326
#
# _framework density 17.588175
#
# number of rings (size 3 to 8) (size 9 to 14) (size 15 to 20)
#    0.000    2.000    0.000    4.500    0.000    8.000 
#    0.000    3.333    0.000    0.000    0.000    0.000 
#    0.000    0.000    0.000    0.000    0.000    0.000 
#
# Total GULP energy -268087.463570 kJ/mol
# GULP energy per Si atom -5585.155491 kJ/mol
# Density = 1.754814 g / cm^3
# Si number density = 17.588175 Si / 1000 Ang^3
#
#
#
# Elastic Constant Matrix: (Units=GPa)
#
#
# Indices 1 2 3 4 5 6 
#
# 1 104.7890 69.9452 124.7492 0.0000 0.0000 0.0000
# 2 69.9452 99.3234 84.8252 0.0000 0.0000 0.0000
# 3 124.7492 84.8252 176.0873 0.0000 0.0000 0.0000
# 4 0.0000 0.0000 0.0000 38.7426 0.0000 0.0000
# 5 0.0000 0.0000 0.0000 0.0000 42.8599 0.0000
# 6 0.0000 0.0000 0.0000 0.0000 0.0000 33.8475
#
#
#
# Elastic Compliance Matrix: (Units=1/GPa)
#
#
# Indices 1 2 3 4 5 6 
#
# 1 0.067794 -0.011423 -0.042526 0.000000 0.000000 0.000000
# 2 -0.011423 0.019030 -0.001074 0.000000 0.000000 0.000000
# 3 -0.042526 -0.001074 0.036324 0.000000 0.000000 0.000000
# 4 0.000000 0.000000 0.000000 0.025811 0.000000 0.000000
# 5 0.000000 0.000000 0.000000 0.000000 0.023332 0.000000
# 6 0.000000 0.000000 0.000000 0.000000 0.000000 0.029544
#
#
# Mechanical properties :
#
#
# Convention : Reuss Voigt Hill
#
# Bulk Modulus (GPa) = 76.32947 104.35986 90.34466
# Shear Modulus (GPa) = 15.81026 29.80203 22.80615
#
# Velocity S-wave (km/s) = 3.00144 4.12082 3.60484
# Velocity P-wave (km/s) = 7.45010 9.06121 8.29486
#
# Compressibility (1/GPa) = 0.01310110
#
# Stress axis : x y z
#
# Youngs Moduli (GPa) = 14.75053 52.54816 27.52991
#
# Poissons Ratio (x) = 0.60027 1.17074
# Poissons Ratio (y) = 0.16850 0.02958
# Poissons Ratio (z) = 0.62728 0.05646
#
# Static dielectric constant tensor:
#      x y z
#    x 1.578350 0.000000 0.000000 
#    y 0.000000 1.582800 0.000000 
#    z 0.000000 0.000000 1.570320 
# 
# From -- ./inp_files/6282.got.cif
#   From: 2010.05.17/outbox.cif.g08.bks.cpg/sg59_4_cif.got.tgz:6282.got - 2010.06.03 14:40:33.
