data_PCOD9452155
_publ_section_title
;
Structure prediction by ZEFSAII (Michael W. Deem and Ramdas Pophale) SiO2 
 PCOD9452155
Probable space group: P M M N
;
_chemical_formula_sum "Si O2"
_cell_formula_units_Z 48
_cell_length_a 15.230689
_cell_length_b 8.902179
_cell_length_c 19.475446
_cell_angle_alpha 90.000000
_cell_angle_beta 90.000000
_cell_angle_gamma 90.000000
_cell_volume 2640.604049
_symmetry_space_group_name_H-M "P M M N"
_symmetry_group_IT_number 59
_space_group.IT_coordinate_system_code '2'
_symmetry_cell_setting 'orthorhombic'
loop_
_space_group_symop_operation_xyz
x,y,z
1/2-x,1/2-y,z
1/2+x,-y,-z
-x,1/2+y,-z
-x,-y,-z
1/2+x,1/2+y,-z
1/2-x,y,z
x,1/2-y,z
loop_
_atom_site_type_symbol
_atom_site_label
_atom_site_fract_x
_atom_site_fract_y
_atom_site_fract_z
Si Si1 0.507847 0.568738 0.896817
Si Si2 0.350534 0.423994 0.644142
Si Si3 0.995433 0.431095 0.261614
Si Si4 0.847918 0.927224 0.637111
Si Si5 0.596517 0.428706 0.497191
Si Si6 0.647005 0.068649 0.999486
O O1 0.515967 0.750000 0.900177
O O2 0.504162 0.522643 0.817410
O O3 0.591420 0.498174 0.935884
O O4 0.416555 0.528419 0.935899
O O5 0.250000 0.430933 0.666727
O O6 0.375307 0.250000 0.633334
O O7 0.413007 0.497737 0.700131
O O8 0.359843 0.508532 0.571722
O O9 0.987604 0.250000 0.262985
O O10 0.079831 0.472480 0.307443
O O11 0.750000 0.944615 0.665145
O O12 0.861477 0.750000 0.621029
O O13 0.857128 0.017625 0.566682
O O14 0.500000 0.500000 0.500000
O O15 0.591858 0.250000 0.494141
O O16 0.750000 0.020873 0.003680
O O17 0.647400 0.250000 0.994684
#
# Coordination Sequence:
#
# PCOD9452155 Si02
#       6
#     8   8   8   8   8   8
#     4   9  19  35  56  84 114 145 186 231 274 325
#     4  11  24  40  58  82 113 149 187 232 284 334
#     4  10  21  37  58  83 113 150 187 228 279 333
#     4  10  21  37  56  80 111 146 185 232 285 337
#     4  12  23  37  59  83 108 143 189 239 287 334
#     4   9  18  34  56  82 113 149 186 227 275 325
#
# _framework density 18.177658000000001
#
# number of rings (size 3 to 8) (size 9 to 14) (size 15 to 20)
#    0.000    1.833    1.667    2.500    0.000    6.000 
#    0.000    3.333    0.000    0.000    0.000    0.000 
#    0.000    0.000    0.000    0.000    0.000    0.000 
#
# Total GULP energy -267940.687969 kJ/mol
# GULP energy per Si atom -5582.097666 kJ/mol
# Density = 1.813629 g / cm^3
# Si number density = 18.177658 Si / 1000 Ang^3
#
#
#
# Elastic Constant Matrix: (Units=GPa)
#
#
# Indices 1 2 3 4 5 6 
#
# 1 130.9389 36.5193 65.6286 0.0000 0.0000 0.0000
# 2 36.5193 40.3176 44.8745 0.0000 0.0000 0.0000
# 3 65.6286 44.8745 152.1648 0.0000 0.0000 0.0000
# 4 0.0000 0.0000 0.0000 19.1813 0.0000 0.0000
# 5 0.0000 0.0000 0.0000 0.0000 -93.4070 0.0000
# 6 0.0000 0.0000 0.0000 0.0000 0.0000 28.8537
#
#
#
# Elastic Compliance Matrix: (Units=1/GPa)
#
#
# Indices 1 2 3 4 5 6 
#
# 1 0.010899 -0.006907 -0.002664 0.000000 0.000000 0.000000
# 2 -0.006907 0.041300 -0.009201 0.000000 0.000000 0.000000
# 3 -0.002664 -0.009201 0.010434 0.000000 0.000000 0.000000
# 4 0.000000 0.000000 0.000000 0.052134 0.000000 0.000000
# 5 0.000000 0.000000 0.000000 0.000000 -0.010706 0.000000
# 6 0.000000 0.000000 0.000000 0.000000 0.000000 0.034658
#
#
# Mechanical properties :
#
#
# Convention : Reuss Voigt Hill
#
# Bulk Modulus (GPa) = 39.85680 68.60736 54.23208
# Shear Modulus (GPa) = 27.08198 2.68552 14.88375
#
# Velocity S-wave (km/s) = 3.86404 1.21679 2.86456
# Velocity P-wave (km/s) = 6.47160 6.30862 6.39063
#
# Compressibility (1/GPa) = 0.02508982
#
# Stress axis : x y z
#
# Youngs Moduli (GPa) = 91.75470 24.21302 95.84098
#
# Poissons Ratio (x) = 0.16724 0.25528
# Poissons Ratio (y) = 0.63377 0.88180
# Poissons Ratio (z) = 0.24440 0.22277
#
# Static dielectric constant tensor:
#      x y z
#    x 1.630520 0.000000 0.000000 
#    y 0.000000 1.618660 0.000000 
#    z 0.000000 0.000000 1.608420 
# 
# From -- ./inp_files/25419.got.cif
#   From: 2010.05.17/outbox.cif.g08.bks.cpg/sg59_13_cif.got.tgz:25419.got - 2010.06.03 14:40:33.
