data_PCOD9452070
_publ_section_title
;
Structure prediction by ZEFSAII (Michael W. Deem and Ramdas Pophale) SiO2 
 PCOD9452070
Probable space group: P M M N
;
_chemical_formula_sum "Si O2"
_cell_formula_units_Z 32
_cell_length_a 13.449947
_cell_length_b 9.046104
_cell_length_c 13.172218
_cell_angle_alpha 90.000000
_cell_angle_beta 90.000000
_cell_angle_gamma 90.000000
_cell_volume 1602.658750
_symmetry_space_group_name_H-M "P M M N"
_symmetry_group_IT_number 59
_space_group.IT_coordinate_system_code '2'
_symmetry_cell_setting 'orthorhombic'
loop_
_space_group_symop_operation_xyz
x,y,z
1/2-x,1/2-y,z
1/2+x,-y,-z
-x,1/2+y,-z
-x,-y,-z
1/2+x,1/2+y,-z
1/2-x,y,z
x,1/2-y,z
loop_
_atom_site_type_symbol
_atom_site_label
_atom_site_fract_x
_atom_site_fract_y
_atom_site_fract_z
Si Si1 0.864937 0.587409 0.594514
Si Si2 0.367898 0.923229 0.602958
Si Si3 0.367853 0.750000 0.888019
Si Si4 0.631511 0.250000 0.868522
Si Si5 0.997604 0.492059 0.226853
O O1 0.750000 0.561433 0.617613
O O2 0.874788 0.750000 0.546744
O O3 0.895609 0.466383 0.511727
O O4 0.923448 0.586463 0.699072
O O5 0.250000 0.936748 0.610153
O O6 0.392742 0.750000 0.623564
O O7 0.417578 0.031347 0.685111
O O8 0.250000 0.750000 0.853910
O O9 0.431677 0.610372 0.847114
O O10 0.366454 0.750000 0.009545
O O11 0.750000 0.250000 0.835386
O O12 0.564841 0.387526 0.829436
#
# Coordination Sequence:
#
# PCOD9452070 Si02
#       5
#     8   8   4   4   8
#     4  10  21  36  58  92 134 174 215 260 311 380
#     4  10  21  37  61  95 134 175 215 258 314 382
#     4  11  24  48  72  95 126 164 218 279 332 386
#     4  11  28  46  66  97 130 166 218 277 328 388
#     4  12  22  41  68  94 129 171 216 263 328 384
#
# _framework density 19.966820999999999
#
# number of rings (size 3 to 8) (size 9 to 14) (size 15 to 20)
#    0.000    1.250    2.500    3.000    3.500    0.000 
#    0.000    1.875    0.000    7.500    0.000    0.000 
#    0.000    0.000    0.000    0.000    0.000    0.000 
#
# Total GULP energy -178223.250926 kJ/mol
# GULP energy per Si atom -5569.476591 kJ/mol
# Density = 1.992138 g / cm^3
# Si number density = 19.966821 Si / 1000 Ang^3
#
#
#
# Elastic Constant Matrix: (Units=GPa)
#
#
# Indices 1 2 3 4 5 6 
#
# 1 194.2024 63.8842 59.9661 0.0000 0.0000 0.0000
# 2 63.8842 74.8778 53.6052 0.0000 0.0000 0.0000
# 3 59.9661 53.6052 110.7264 0.0000 0.0000 0.0000
# 4 0.0000 0.0000 0.0000 31.4610 0.0000 0.0000
# 5 0.0000 0.0000 0.0000 0.0000 47.0403 0.0000
# 6 0.0000 0.0000 0.0000 0.0000 0.0000 28.0666
#
#
#
# Elastic Compliance Matrix: (Units=1/GPa)
#
#
# Indices 1 2 3 4 5 6 
#
# 1 0.007305 -0.005204 -0.001437 0.000000 0.000000 0.000000
# 2 -0.005204 0.024146 -0.008871 0.000000 0.000000 0.000000
# 3 -0.001437 -0.008871 0.014104 0.000000 0.000000 0.000000
# 4 0.000000 0.000000 0.000000 0.031785 0.000000 0.000000
# 5 0.000000 0.000000 0.000000 0.000000 0.021258 0.000000
# 6 0.000000 0.000000 0.000000 0.000000 0.000000 0.035630
#
#
# Mechanical properties :
#
#
# Convention : Reuss Voigt Hill
#
# Bulk Modulus (GPa) = 68.81806 81.63527 75.22666
# Shear Modulus (GPa) = 29.39530 34.80365 32.09947
#
# Velocity S-wave (km/s) = 3.84110 4.17954 4.01389
# Velocity P-wave (km/s) = 7.36295 8.01659 7.69671
#
# Compressibility (1/GPa) = 0.01453107
#
# Stress axis : x y z
#
# Youngs Moduli (GPa) = 136.89847 41.41521 70.90062
#
# Poissons Ratio (x) = 0.21551 0.10187
# Poissons Ratio (y) = 0.71236 0.62899
# Poissons Ratio (z) = 0.19670 0.36741
#
# Static dielectric constant tensor:
#      x y z
#    x 1.773900 0.000000 0.000000 
#    y 0.000000 1.737050 0.000000 
#    z 0.000000 0.000000 1.693000 
# 
# From -- ./inp_files/16491.got.cif
#   From: 2010.05.17/outbox.cif.g08.bks.cpg/sg59_9_cif.got.tgz:16491.got - 2010.06.03 14:40:33.
