data_PCOD9452939
_publ_section_title
;
Structure prediction by ZEFSAII (Michael W. Deem and Ramdas Pophale) SiO2 
 PCOD9452939
Probable space group: P M M N
;
_chemical_formula_sum "Si O2"
_cell_formula_units_Z 64
_cell_length_a 27.098686
_cell_length_b 8.761007
_cell_length_c 13.443780
_cell_angle_alpha 90.000000
_cell_angle_beta 90.000000
_cell_angle_gamma 90.000000
_cell_volume 3191.711709
_symmetry_space_group_name_H-M "P M M N"
_symmetry_group_IT_number 59
_space_group.IT_coordinate_system_code '2'
_symmetry_cell_setting 'orthorhombic'
loop_
_space_group_symop_operation_xyz
x,y,z
1/2-x,1/2-y,z
1/2+x,-y,-z
-x,1/2+y,-z
-x,-y,-z
1/2+x,1/2+y,-z
1/2-x,y,z
x,1/2-y,z
loop_
_atom_site_type_symbol
_atom_site_label
_atom_site_fract_x
_atom_site_fract_y
_atom_site_fract_z
Si Si1 0.477821 0.423310 0.096258
Si Si2 0.990780 0.435096 0.608542
Si Si3 0.380007 0.566709 0.321989
Si Si4 0.191222 0.424257 0.712261
Si Si5 0.861210 0.922624 0.891932
Si Si6 0.858508 0.429637 0.101545
Si Si7 0.808215 0.935038 0.509679
Si Si8 0.948833 0.572813 0.217813
O O1 0.496005 0.250000 0.113434
O O2 0.419793 0.415258 0.088920
O O3 0.496273 0.541087 0.177902
O O4 0.500000 0.500000 0.000000
O O5 0.990094 0.250000 0.609224
O O6 0.936284 0.485455 0.649478
O O7 0.000000 0.500000 0.500000
O O8 0.040629 0.480111 0.670512
O O9 0.380348 0.750000 0.319140
O O10 0.359891 0.506662 0.214802
O O11 0.342981 0.507149 0.407193
O O12 0.250000 0.417372 0.706439
O O13 0.172856 0.250000 0.726775
O O14 0.176343 0.522474 0.806986
O O15 0.175186 0.479328 0.602754
O O16 0.841644 0.750000 0.882209
O O17 0.843058 0.997681 0.995400
O O18 0.860517 0.250000 0.087542
O O19 0.911094 0.486907 0.146066
O O20 0.750000 0.975690 0.522709
O O21 0.811011 0.750000 0.514014
O O22 0.936774 0.750000 0.213021
#
# Coordination Sequence:
#
# PCOD9452939 Si02
#       8
#     8   8   8   8   8   8   8   8
#     4  11  21  33  54  80 109 150 196 244 288 336
#     4  10  24  40  56  81 119 162 203 248 297 353
#     4  11  23  40  61  90 125 160 202 253 308 355
#     4   9  20  42  69  93 120 154 194 243 300 364
#     4  11  23  39  59  84 118 163 207 246 295 359
#     4  12  25  38  59  91 125 158 198 251 303 359
#     4   9  20  41  68  95 120 153 199 246 298 363
#     4  11  22  38  56  79 115 159 203 246 290 349
#
# _framework density 20.051936999999999
#
# number of rings (size 3 to 8) (size 9 to 14) (size 15 to 20)
#    0.000    1.500    2.500    3.375    1.750    4.000 
#    0.000    1.875    0.000    3.750    0.000    0.000 
#    0.000    0.000    0.000    0.000    0.000    0.000 
#
# Total GULP energy -356667.326978 kJ/mol
# GULP energy per Si atom -5572.926984 kJ/mol
# Density = 2.000630 g / cm^3
# Si number density = 20.051937 Si / 1000 Ang^3
#
#
#
# Elastic Constant Matrix: (Units=GPa)
#
#
# Indices 1 2 3 4 5 6 
#
# 1 49.6111 22.0927 37.8720 0.0000 0.0000 0.0000
# 2 22.0927 60.7268 51.1358 0.0000 0.0000 0.0000
# 3 37.8720 51.1358 169.1485 0.0000 0.0000 0.0000
# 4 0.0000 0.0000 0.0000 35.0897 0.0000 0.0000
# 5 0.0000 0.0000 0.0000 0.0000 32.0209 0.0000
# 6 0.0000 0.0000 0.0000 0.0000 0.0000 24.8468
#
#
#
# Elastic Compliance Matrix: (Units=1/GPa)
#
#
# Indices 1 2 3 4 5 6 
#
# 1 0.025887 -0.006087 -0.003956 0.000000 0.000000 0.000000
# 2 -0.006087 0.023522 -0.005748 0.000000 0.000000 0.000000
# 3 -0.003956 -0.005748 0.008535 0.000000 0.000000 0.000000
# 4 0.000000 0.000000 0.000000 0.028498 0.000000 0.000000
# 5 0.000000 0.000000 0.000000 0.000000 0.031230 0.000000
# 6 0.000000 0.000000 0.000000 0.000000 0.000000 0.040247
#
#
# Mechanical properties :
#
#
# Convention : Reuss Voigt Hill
#
# Bulk Modulus (GPa) = 37.93220 55.74303 46.83762
# Shear Modulus (GPa) = 25.21578 29.61721 27.41649
#
# Velocity S-wave (km/s) = 3.55000 3.84738 3.70168
# Velocity P-wave (km/s) = 5.98009 6.89899 6.45591
#
# Compressibility (1/GPa) = 0.02636283
#
# Stress axis : x y z
#
# Youngs Moduli (GPa) = 38.62911 42.51359 117.15832
#
# Poissons Ratio (x) = 0.25877 0.46348
# Poissons Ratio (y) = 0.23512 0.67345
# Poissons Ratio (z) = 0.15282 0.24438
#
# Static dielectric constant tensor:
#      x y z
#    x 1.737140 0.000000 0.000000 
#    y 0.000000 1.710860 0.000000 
#    z 0.000000 0.000000 1.784650 
# 
# From -- ./inp_files/19248.got.cif
#   From: 2010.05.17/outbox.cif.g08.bks.cpg/sg59_10_cif.got.tgz:19248.got - 2010.06.03 14:40:33.
