data_PCOD9452392
_publ_section_title
;
Structure prediction by ZEFSAII (Michael W. Deem and Ramdas Pophale) SiO2 
 PCOD9452392
Probable space group: P M M N
;
_chemical_formula_sum "Si O2"
_cell_formula_units_Z 48
_cell_length_a 28.434830
_cell_length_b 14.190273
_cell_length_c 6.838583
_cell_angle_alpha 90.000000
_cell_angle_beta 90.000000
_cell_angle_gamma 90.000000
_cell_volume 2759.354566
_symmetry_space_group_name_H-M "P M M N"
_symmetry_group_IT_number 59
_space_group.IT_coordinate_system_code '2'
_symmetry_cell_setting 'orthorhombic'
loop_
_space_group_symop_operation_xyz
x,y,z
1/2-x,1/2-y,z
1/2+x,-y,-z
-x,1/2+y,-z
-x,-y,-z
1/2+x,1/2+y,-z
1/2-x,y,z
x,1/2-y,z
loop_
_atom_site_type_symbol
_atom_site_label
_atom_site_fract_x
_atom_site_fract_y
_atom_site_fract_z
Si Si1 0.635731 0.985648 0.428794
Si Si2 0.469712 0.017270 0.694346
Si Si3 0.468043 0.639829 0.021962
Si Si4 0.867461 0.359783 0.763607
Si Si5 0.805092 0.639781 0.717919
Si Si6 0.805293 0.017545 0.039579
O O1 0.661742 0.905038 0.553537
O O2 0.583425 0.958090 0.363567
O O3 0.631873 0.076199 0.570669
O O4 0.666569 0.010080 0.240176
O O5 0.500000 0.000000 0.500000
O O6 0.494012 0.096582 0.828403
O O7 0.469042 0.922788 0.826599
O O8 0.476124 0.750000 0.983816
O O9 0.417057 0.628977 0.123737
O O10 0.860651 0.250000 0.719406
O O11 0.827223 0.400542 0.905249
O O12 0.750000 0.628580 0.661199
O O13 0.814245 0.750000 0.748233
O O14 0.811859 0.578389 0.913889
O O15 0.750000 0.031397 0.072547
#
# Coordination Sequence:
#
# PCOD9452392 Si02
#       6
#     8   8   8   8   8   8
#     4  11  21  36  60  88 115 151 190 240 289 337
#     4  11  22  38  59  86 117 150 193 240 284 339
#     4  10  22  39  60  84 115 155 193 232 284 343
#     4  10  21  38  59  84 114 152 193 234 284 343
#     4   9  20  38  59  84 115 151 190 234 286 343
#     4  10  21  38  58  83 116 152 189 234 286 340
#
# _framework density 17.395374
#
# number of rings (size 3 to 8) (size 9 to 14) (size 15 to 20)
#    0.000    1.833    3.333    0.500    0.000    4.333 
#    0.000    3.333    0.000    0.000    0.000    0.000 
#    0.000    0.000    0.000    0.000    0.000    0.000 
#
# Total GULP energy -268009.341564 kJ/mol
# GULP energy per Si atom -5583.527949 kJ/mol
# Density = 1.735578 g / cm^3
# Si number density = 17.395374 Si / 1000 Ang^3
#
#
#
# Elastic Constant Matrix: (Units=GPa)
#
#
# Indices 1 2 3 4 5 6 
#
# 1 121.5756 52.8144 59.7957 0.0000 0.0000 0.0000
# 2 52.8144 125.0790 40.7001 0.0000 0.0000 0.0000
# 3 59.7957 40.7001 97.1320 0.0000 0.0000 0.0000
# 4 0.0000 0.0000 0.0000 7.3038 0.0000 0.0000
# 5 0.0000 0.0000 0.0000 0.0000 37.7803 0.0000
# 6 0.0000 0.0000 0.0000 0.0000 0.0000 24.6019
#
#
#
# Elastic Compliance Matrix: (Units=1/GPa)
#
#
# Indices 1 2 3 4 5 6 
#
# 1 0.012881 -0.003310 -0.006543 0.000000 0.000000 0.000000
# 2 -0.003310 0.010108 -0.002198 0.000000 0.000000 0.000000
# 3 -0.006543 -0.002198 0.015244 0.000000 0.000000 0.000000
# 4 0.000000 0.000000 0.000000 0.136915 0.000000 0.000000
# 5 0.000000 0.000000 0.000000 0.000000 0.026469 0.000000
# 6 0.000000 0.000000 0.000000 0.000000 0.000000 0.040647
#
#
# Mechanical properties :
#
#
# Convention : Reuss Voigt Hill
#
# Bulk Modulus (GPa) = 70.76212 72.26745 71.51479
# Shear Modulus (GPa) = 18.44498 26.63564 22.54031
#
# Velocity S-wave (km/s) = 3.25982 3.91729 3.60358
# Velocity P-wave (km/s) = 7.41185 7.88000 7.64951
#
# Compressibility (1/GPa) = 0.01413185
#
# Stress axis : x y z
#
# Youngs Moduli (GPa) = 77.63148 98.93441 65.59955
#
# Poissons Ratio (x) = 0.32748 0.42921
# Poissons Ratio (y) = 0.25697 0.14416
# Poissons Ratio (z) = 0.50794 0.21742
#
# Static dielectric constant tensor:
#      x y z
#    x 1.579930 0.000000 0.000000 
#    y 0.000000 1.562960 0.000000 
#    z 0.000000 0.000000 1.566000 
# 
# From -- ./inp_files/2153.got.cif
#   From: 2010.05.17/outbox.cif.g08.bks.cpg/sg59_2_cif.got.tgz:2153.got - 2010.06.03 14:40:33.
