data_PCOD9452207
_publ_section_title
;
Structure prediction by ZEFSAII (Michael W. Deem and Ramdas Pophale) SiO2 
 PCOD9452207
Probable space group: P M M N
;
_chemical_formula_sum "Si O2"
_cell_formula_units_Z 64
_cell_length_a 8.951696
_cell_length_b 31.437740
_cell_length_c 11.833681
_cell_angle_alpha 90.000000
_cell_angle_beta 90.000000
_cell_angle_gamma 90.000000
_cell_volume 3330.247422
_symmetry_space_group_name_H-M "P M M N"
_symmetry_group_IT_number 59
_space_group.IT_coordinate_system_code '2'
_symmetry_cell_setting 'orthorhombic'
loop_
_space_group_symop_operation_xyz
x,y,z
1/2-x,1/2-y,z
1/2+x,-y,-z
-x,1/2+y,-z
-x,-y,-z
1/2+x,1/2+y,-z
1/2-x,y,z
x,1/2-y,z
loop_
_atom_site_type_symbol
_atom_site_label
_atom_site_fract_x
_atom_site_fract_y
_atom_site_fract_z
Si Si1 0.420746 0.301651 0.658045
Si Si2 0.571725 0.022512 0.675936
Si Si3 0.071052 0.374004 0.036260
Si Si4 0.427694 0.559749 0.559111
Si Si5 0.573324 0.631899 0.702987
Si Si6 0.428810 0.799656 0.104533
Si Si7 0.077838 0.699016 0.573669
Si Si8 0.070341 0.036393 0.920315
O O1 0.250000 0.317083 0.655595
O O2 0.416887 0.250000 0.655295
O O3 0.501705 0.312726 0.774573
O O4 0.510576 0.315017 0.547009
O O5 0.750000 0.020015 0.693463
O O6 0.540789 0.055945 0.574771
O O7 0.491774 0.032027 0.793578
O O8 0.511948 0.978303 0.624116
O O9 0.250000 0.367906 0.026389
O O10 0.035678 0.379462 0.168418
O O11 0.031388 0.417092 0.969891
O O12 0.990459 0.332730 0.986326
O O13 0.250000 0.554546 0.573560
O O14 0.485256 0.602354 0.616026
O O15 0.750000 0.626792 0.687350
O O16 0.521409 0.679183 0.672216
O O17 0.250000 0.801633 0.110500
O O18 0.470279 0.750000 0.082644
O O19 0.250000 0.685670 0.584103
O O20 0.072989 0.750000 0.576912
O O21 0.250000 0.032210 0.921114
O O22 0.000000 0.000000 0.000000
#
# Coordination Sequence:
#
# PCOD9452207 Si02
#       8
#     8   8   8   8   8   8   8   8
#     4   9  17  32  56  83 111 145 185 230 284 345
#     4  10  21  38  61  90 121 152 190 234 282 340
#     4  10  24  42  58  82 115 154 200 243 286 345
#     4  10  21  38  61  88 119 154 191 233 284 341
#     4  11  23  39  59  82 113 152 194 242 292 343
#     4  10  21  37  59  87 118 153 193 240 294 348
#     4  10  21  37  57  82 113 148 189 238 290 346
#     4  11  23  40  63  89 119 156 197 241 292 347
#
# _framework density 19.217790000000001
#
# number of rings (size 3 to 8) (size 9 to 14) (size 15 to 20)
#    0.000    1.875    0.000    3.375    0.000    9.000 
#    0.000    5.000    0.000    0.000    0.000    0.000 
#    0.000    0.000    0.000    0.000    0.000    0.000 
#
# Total GULP energy -357520.624773 kJ/mol
# GULP energy per Si atom -5586.259762 kJ/mol
# Density = 1.917405 g / cm^3
# Si number density = 19.217790 Si / 1000 Ang^3
#
#
#
# Elastic Constant Matrix: (Units=GPa)
#
#
# Indices 1 2 3 4 5 6 
#
# 1 63.0452 35.9230 56.9575 0.0000 0.0000 0.0000
# 2 35.9230 69.7168 54.5133 0.0000 0.0000 0.0000
# 3 56.9575 54.5133 130.6298 0.0000 0.0000 0.0000
# 4 0.0000 0.0000 0.0000 28.1716 0.0000 0.0000
# 5 0.0000 0.0000 0.0000 0.0000 34.1494 0.0000
# 6 0.0000 0.0000 0.0000 0.0000 0.0000 31.9952
#
#
#
# Elastic Compliance Matrix: (Units=1/GPa)
#
#
# Indices 1 2 3 4 5 6 
#
# 1 0.028518 -0.007380 -0.009355 0.000000 0.000000 0.000000
# 2 -0.007380 0.023201 -0.006464 0.000000 0.000000 0.000000
# 3 -0.009355 -0.006464 0.014432 0.000000 0.000000 0.000000
# 4 0.000000 0.000000 0.000000 0.035497 0.000000 0.000000
# 5 0.000000 0.000000 0.000000 0.000000 0.029283 0.000000
# 6 0.000000 0.000000 0.000000 0.000000 0.000000 0.031255
#
#
# Mechanical properties :
#
#
# Convention : Reuss Voigt Hill
#
# Bulk Modulus (GPa) = 50.62517 62.01993 56.32255
# Shear Modulus (GPa) = 23.23770 26.59643 24.91707
#
# Velocity S-wave (km/s) = 3.48109 3.72418 3.60469
# Velocity P-wave (km/s) = 6.52360 7.12986 6.83346
#
# Compressibility (1/GPa) = 0.01975302
#
# Stress axis : x y z
#
# Youngs Moduli (GPa) = 35.06536 43.10180 69.29143
#
# Poissons Ratio (x) = 0.31808 0.64822
# Poissons Ratio (y) = 0.25877 0.44792
# Poissons Ratio (z) = 0.32803 0.27862
#
# Static dielectric constant tensor:
#      x y z
#    x 1.646360 0.000000 0.000000 
#    y 0.000000 1.686750 0.000000 
#    z 0.000000 0.000000 1.647860 
# 
# From -- ./inp_files/15046.got.cif
#   From: 2010.05.17/outbox.cif.g08.bks.cpg/sg59_8_cif.got.tgz:15046.got - 2010.06.03 14:40:33.
