data_PCOD9452685
_publ_section_title
;
Structure prediction by ZEFSAII (Michael W. Deem and Ramdas Pophale) SiO2 
 PCOD9452685
Probable space group: P M M N
;
_chemical_formula_sum "Si O2"
_cell_formula_units_Z 58
_cell_length_a 23.017671
_cell_length_b 8.956994
_cell_length_c 14.471736
_cell_angle_alpha 90.000000
_cell_angle_beta 90.000000
_cell_angle_gamma 90.000000
_cell_volume 2983.625380
_symmetry_space_group_name_H-M "P M M N"
_symmetry_group_IT_number 59
_space_group.IT_coordinate_system_code '2'
_symmetry_cell_setting 'orthorhombic'
loop_
_space_group_symop_operation_xyz
x,y,z
1/2-x,1/2-y,z
1/2+x,-y,-z
-x,1/2+y,-z
-x,-y,-z
1/2+x,1/2+y,-z
1/2-x,y,z
x,1/2-y,z
loop_
_atom_site_type_symbol
_atom_site_label
_atom_site_fract_x
_atom_site_fract_y
_atom_site_fract_z
Si Si1 0.815952 0.571446 0.234808
Si Si2 0.432366 0.575137 0.728011
Si Si3 0.123508 0.926252 0.152929
Si Si4 0.024810 0.571557 0.406660
Si Si5 0.318370 0.079957 0.984090
Si Si6 0.993654 0.574441 0.900521
Si Si7 0.750000 0.750000 0.598866
Si Si8 0.139761 0.084372 0.335135
O O1 0.750000 0.529228 0.261216
O O2 0.821672 0.750000 0.248648
O O3 0.867520 0.485852 0.285065
O O4 0.822314 0.544666 0.124473
O O5 0.436763 0.750000 0.704087
O O6 0.479248 0.481884 0.670913
O O7 0.450159 0.558900 0.835748
O O8 0.122762 0.750000 0.165391
O O9 0.150184 0.970807 0.054278
O O10 0.058889 0.992894 0.151199
O O11 0.155423 0.005729 0.238320
O O12 0.026478 0.750000 0.411937
O O13 0.000000 0.500000 0.500000
O O14 0.089006 0.508574 0.383996
O O15 0.250000 0.079332 0.006540
O O16 0.340324 0.250000 0.997807
O O17 0.981380 0.750000 0.910714
O O18 0.000000 0.500000 0.000000
O O19 0.697754 0.878098 0.607568
O O20 0.114653 0.250000 0.312701
#
# Coordination Sequence:
#
# PCOD9452685 Si02
#       8
#     8   8   8   8   8   8   2   8
#     4   9  19  37  59  84 119 165 217 270 329 392
#     4  11  23  39  62  93 126 167 213 266 328 388
#     4  12  23  33  51  82 122 166 219 274 323 389
#     4  12  25  44  74 105 133 167 213 273 327 396
#     4   9  19  34  53  76 111 165 222 270 317 382
#     4  11  23  37  55  82 122 169 216 274 335 390
#     4   8  24  40  74  92 136 180 206 268 324 396
#     4  10  21  42  65  95 126 173 213 255 323 384
#
# _framework density 19.439437999999999
#
# number of rings (size 3 to 8) (size 9 to 14) (size 15 to 20)
#    0.414    1.103    1.379    5.379    0.966    4.966 
#    0.000    2.414    1.517    0.000    0.000    0.000 
#    0.000    0.000    0.000    0.000    0.000    0.000 
#
# Total GULP energy -323279.163530 kJ/mol
# GULP energy per Si atom -5573.778682 kJ/mol
# Density = 1.939519 g / cm^3
# Si number density = 19.439438 Si / 1000 Ang^3
#
#
#
# Elastic Constant Matrix: (Units=GPa)
#
#
# Indices 1 2 3 4 5 6 
#
# 1 126.8883 55.3672 17.7854 0.0000 0.0000 0.0000
# 2 55.3672 134.6710 32.9408 0.0000 0.0000 0.0000
# 3 17.7854 32.9408 44.6430 0.0000 0.0000 0.0000
# 4 0.0000 0.0000 0.0000 24.3038 0.0000 0.0000
# 5 0.0000 0.0000 0.0000 0.0000 7.3154 0.0000
# 6 0.0000 0.0000 0.0000 0.0000 0.0000 36.6977
#
#
#
# Elastic Compliance Matrix: (Units=1/GPa)
#
#
# Indices 1 2 3 4 5 6 
#
# 1 0.009649 -0.003693 -0.001119 0.000000 0.000000 0.000000
# 2 -0.003693 0.010475 -0.006257 0.000000 0.000000 0.000000
# 3 -0.001119 -0.006257 0.027463 0.000000 0.000000 0.000000
# 4 0.000000 0.000000 0.000000 0.041146 0.000000 0.000000
# 5 0.000000 0.000000 0.000000 0.000000 0.136697 0.000000
# 6 0.000000 0.000000 0.000000 0.000000 0.000000 0.027250
#
#
# Mechanical properties :
#
#
# Convention : Reuss Voigt Hill
#
# Bulk Modulus (GPa) = 39.29706 57.59878 48.44792
# Shear Modulus (GPa) = 17.64904 27.00398 22.32651
#
# Velocity S-wave (km/s) = 3.01640 3.73115 3.39265
# Velocity P-wave (km/s) = 5.69127 6.94667 6.35007
#
# Compressibility (1/GPa) = 0.02544720
#
# Stress axis : x y z
#
# Youngs Moduli (GPa) = 103.63325 95.46926 36.41275
#
# Poissons Ratio (x) = 0.35261 0.04074
# Poissons Ratio (y) = 0.38277 0.22785
# Poissons Ratio (z) = 0.11596 0.59739
#
# Static dielectric constant tensor:
#      x y z
#    x 1.703130 0.000000 0.000000 
#    y 0.000000 1.659090 0.000000 
#    z 0.000000 0.000000 1.721520 
# 
# From -- ./inp_files/24640.got.cif
#   From: 2010.05.17/outbox.cif.g08.bks.cpg/sg59_13_cif.got.tgz:24640.got - 2010.06.03 14:40:33.
