data_PCOD9452114
_publ_section_title
;
Structure prediction by ZEFSAII (Michael W. Deem and Ramdas Pophale) SiO2 
 PCOD9452114
Probable space group: P M M N
;
_chemical_formula_sum "Si O2"
_cell_formula_units_Z 64
_cell_length_a 20.352982
_cell_length_b 8.398755
_cell_length_c 20.965430
_cell_angle_alpha 90.000000
_cell_angle_beta 90.000000
_cell_angle_gamma 90.000000
_cell_volume 3583.824510
_symmetry_space_group_name_H-M "P M M N"
_symmetry_group_IT_number 59
_space_group.IT_coordinate_system_code '2'
_symmetry_cell_setting 'orthorhombic'
loop_
_space_group_symop_operation_xyz
x,y,z
1/2-x,1/2-y,z
1/2+x,-y,-z
-x,1/2+y,-z
-x,-y,-z
1/2+x,1/2+y,-z
1/2-x,y,z
x,1/2-y,z
loop_
_atom_site_type_symbol
_atom_site_label
_atom_site_fract_x
_atom_site_fract_y
_atom_site_fract_z
Si Si1 0.674404 0.559333 0.427323
Si Si2 0.924995 0.444097 0.821025
Si Si3 0.325546 0.057605 0.929668
Si Si4 0.174454 0.942589 0.431599
Si Si5 0.575492 0.942558 0.180063
Si Si6 0.426304 0.942422 0.323480
Si Si7 0.825547 0.442461 0.929922
Si Si8 0.573673 0.061073 0.321620
O O1 0.750000 0.506165 0.416304
O O2 0.673180 0.750000 0.425709
O O3 0.655553 0.502510 0.498228
O O4 0.625585 0.494683 0.374084
O O5 0.923632 0.250000 0.821692
O O6 0.908660 0.494354 0.748645
O O7 0.874210 0.499558 0.874509
O O8 0.000328 0.492399 0.834021
O O9 0.250000 0.005836 0.918833
O O10 0.326279 0.250000 0.929816
O O11 0.374028 0.002056 0.873935
O O12 0.345696 0.999370 0.999781
O O13 0.250000 0.992549 0.419374
O O14 0.173321 0.750000 0.432291
O O15 0.124788 0.998506 0.376827
O O16 0.576449 0.750000 0.180913
O O17 0.592278 0.999972 0.251035
O O18 0.425329 0.750000 0.323650
O O19 0.500826 0.995142 0.336283
O O20 0.750000 0.494373 0.919224
O O21 0.826113 0.250000 0.929574
O O22 0.570671 0.250000 0.320619
#
# Coordination Sequence:
#
# PCOD9452114 Si02
#       8
#     8   8   8   8   8   8   8   8
#     4  10  21  37  56  76 101 135 170 204 249 306
#     4   8  15  29  48  69  94 126 163 199 237 285
#     4   9  18  32  49  69  94 125 160 197 240 294
#     4   9  18  33  54  80 106 132 168 214 256 292
#     4   9  18  34  52  69  94 128 164 202 246 298
#     4   9  18  34  54  75 104 139 171 206 250 302
#     4   9  17  29  46  69  97 127 160 200 243 287
#     4  11  22  35  53  77 104 132 166 211 255 297
#
# _framework density 17.858017
#
# number of rings (size 3 to 8) (size 9 to 14) (size 15 to 20)
#    0.000    2.750    0.000    2.250    0.000    3.750 
#    0.000    6.250    0.000    0.000    0.000    3.500 
#    0.000    0.000    0.000    0.000    0.000    0.000 
#
# Total GULP energy -356904.279921 kJ/mol
# GULP energy per Si atom -5576.629374 kJ/mol
# Density = 1.781737 g / cm^3
# Si number density = 17.858017 Si / 1000 Ang^3
#
#
#
# Elastic Constant Matrix: (Units=GPa)
#
#
# Indices 1 2 3 4 5 6 
#
# 1 116.1938 17.6245 136.1641 0.0000 0.0000 0.0000
# 2 17.6245 11.6426 21.6383 0.0000 0.0000 0.0000
# 3 136.1641 21.6383 190.9404 0.0000 0.0000 0.0000
# 4 0.0000 0.0000 0.0000 26.8667 0.0000 0.0000
# 5 0.0000 0.0000 0.0000 0.0000 45.2252 0.0000
# 6 0.0000 0.0000 0.0000 0.0000 0.0000 12.1492
#
#
#
# Elastic Compliance Matrix: (Units=1/GPa)
#
#
# Indices 1 2 3 4 5 6 
#
# 1 0.053855 -0.012855 -0.036949 0.000000 0.000000 0.000000
# 2 -0.012855 0.111878 -0.003511 0.000000 0.000000 0.000000
# 3 -0.036949 -0.003511 0.031984 0.000000 0.000000 0.000000
# 4 0.000000 0.000000 0.000000 0.037221 0.000000 0.000000
# 5 0.000000 0.000000 0.000000 0.000000 0.022112 0.000000
# 6 0.000000 0.000000 0.000000 0.000000 0.000000 0.082310
#
#
# Mechanical properties :
#
#
# Convention : Reuss Voigt Hill
#
# Bulk Modulus (GPa) = 10.97851 74.40337 42.69094
# Shear Modulus (GPa) = 10.49647 26.40489 18.45068
#
# Velocity S-wave (km/s) = 2.42703 3.84943 3.21781
# Velocity P-wave (km/s) = 3.74366 7.84294 6.14519
#
# Compressibility (1/GPa) = 0.09108704
#
# Stress axis : x y z
#
# Youngs Moduli (GPa) = 18.56838 8.93835 31.26561
#
# Poissons Ratio (x) = 0.11490 1.15522
# Poissons Ratio (y) = 0.23869 0.10979
# Poissons Ratio (z) = 0.68607 0.03139
#
# Static dielectric constant tensor:
#      x y z
#    x 1.605550 0.000000 0.000000 
#    y 0.000000 1.616520 0.000000 
#    z 0.000000 0.000000 1.587220 
# 
# From -- ./inp_files/28272.got.cif
#   From: 2010.05.17/outbox.cif.g08.bks.cpg/sg59_15_cif.got.tgz:28272.got - 2010.06.03 14:40:33.
