data_PCOD9452181
_publ_section_title
;
Structure prediction by ZEFSAII (Michael W. Deem and Ramdas Pophale) SiO2 
 PCOD9452181
Probable space group: P M M N
;
_chemical_formula_sum "Si O2"
_cell_formula_units_Z 64
_cell_length_a 9.091664
_cell_length_b 18.786701
_cell_length_c 20.972730
_cell_angle_alpha 90.000000
_cell_angle_beta 90.000000
_cell_angle_gamma 90.000000
_cell_volume 3582.192056
_symmetry_space_group_name_H-M "P M M N"
_symmetry_group_IT_number 59
_space_group.IT_coordinate_system_code '2'
_symmetry_cell_setting 'orthorhombic'
loop_
_space_group_symop_operation_xyz
x,y,z
1/2-x,1/2-y,z
1/2+x,-y,-z
-x,1/2+y,-z
-x,-y,-z
1/2+x,1/2+y,-z
1/2-x,y,z
x,1/2-y,z
loop_
_atom_site_type_symbol
_atom_site_label
_atom_site_fract_x
_atom_site_fract_y
_atom_site_fract_z
Si Si1 0.579768 0.663363 0.916103
Si Si2 0.576023 0.594062 0.305521
Si Si3 0.076473 0.927627 0.665167
Si Si4 0.926640 0.665267 0.773576
Si Si5 0.573795 0.571241 0.528684
Si Si6 0.578752 0.165074 0.574408
Si Si7 0.926224 0.666682 0.173666
Si Si8 0.918988 0.163242 0.956374
O O1 0.750000 0.642712 0.923381
O O2 0.576107 0.750000 0.915981
O O3 0.528472 0.642133 0.845376
O O4 0.489874 0.638382 0.977312
O O5 0.750000 0.611302 0.314188
O O6 0.559927 0.509566 0.312990
O O7 0.483268 0.631930 0.360473
O O8 0.531257 0.622025 0.235869
O O9 0.250000 0.914309 0.654438
O O10 0.012109 0.877093 0.719684
O O11 0.987356 0.918202 0.599720
O O12 0.750000 0.654475 0.768234
O O13 0.952683 0.750000 0.767684
O O14 0.500000 0.500000 0.500000
O O15 0.750000 0.565273 0.527856
O O16 0.517949 0.634083 0.483003
O O17 0.750000 0.144656 0.565515
O O18 0.569376 0.250000 0.577084
O O19 0.750000 0.663473 0.167139
O O20 0.966290 0.750000 0.183592
O O21 0.997273 0.641250 0.107703
O O22 0.750000 0.142130 0.952874
O O23 0.926164 0.250000 0.957397
#
# Coordination Sequence:
#
# PCOD9452181 Si02
#       8
#     8   8   8   8   8   8   8   8
#     4   8  14  27  48  72 100 136 178 223 272 330
#     4  10  21  37  57  80 110 150 190 228 274 332
#     4  11  23  38  59  86 114 147 184 226 276 332
#     4   9  19  36  57  82 111 144 184 230 281 336
#     4  12  24  41  64  86 112 148 188 230 278 333
#     4  11  24  40  61  90 119 148 186 232 280 330
#     4   9  17  30  49  73 103 141 184 226 269 322
#     4   9  16  25  41  70 105 138 174 220 276 329
#
# _framework density 17.866154999999999
#
# number of rings (size 3 to 8) (size 9 to 14) (size 15 to 20)
#    0.000    2.125    1.250    3.375    0.000    5.250 
#    0.000    2.500    0.000    0.750    0.000    0.000 
#    0.000    0.000    0.000    0.000    0.000    0.000 
#
# Total GULP energy -357179.502109 kJ/mol
# GULP energy per Si atom -5580.929720 kJ/mol
# Density = 1.782549 g / cm^3
# Si number density = 17.866155 Si / 1000 Ang^3
#
#
#
# Elastic Constant Matrix: (Units=GPa)
#
#
# Indices 1 2 3 4 5 6 
#
# 1 109.4318 46.9894 94.6421 0.0000 0.0000 0.0000
# 2 46.9894 43.4527 49.2124 0.0000 0.0000 0.0000
# 3 94.6421 49.2124 190.7150 0.0000 0.0000 0.0000
# 4 0.0000 0.0000 0.0000 142.2192 0.0000 0.0000
# 5 0.0000 0.0000 0.0000 0.0000 31.8987 0.0000
# 6 0.0000 0.0000 0.0000 0.0000 0.0000 17.8313
#
#
#
# Elastic Compliance Matrix: (Units=1/GPa)
#
#
# Indices 1 2 3 4 5 6 
#
# 1 0.021784 -0.015986 -0.006685 0.000000 0.000000 0.000000
# 2 -0.015986 0.044247 -0.003485 0.000000 0.000000 0.000000
# 3 -0.006685 -0.003485 0.009460 0.000000 0.000000 0.000000
# 4 0.000000 0.000000 0.000000 0.007031 0.000000 0.000000
# 5 0.000000 0.000000 0.000000 0.000000 0.031349 0.000000
# 6 0.000000 0.000000 0.000000 0.000000 0.000000 0.056081
#
#
# Mechanical properties :
#
#
# Convention : Reuss Voigt Hill
#
# Bulk Modulus (GPa) = 43.14101 80.58747 61.86424
# Shear Modulus (GPa) = 21.74001 48.57357 35.15679
#
# Velocity S-wave (km/s) = 3.49209 5.21982 4.44079
# Velocity P-wave (km/s) = 6.36072 9.02955 7.80998
#
# Compressibility (1/GPa) = 0.02317980
#
# Stress axis : x y z
#
# Youngs Moduli (GPa) = 45.90512 22.60051 105.70580
#
# Poissons Ratio (x) = 0.36128 0.70668
# Poissons Ratio (y) = 0.73382 0.36835
# Poissons Ratio (z) = 0.30689 0.07876
#
# Static dielectric constant tensor:
#      x y z
#    x 1.600290 0.000000 0.000000 
#    y 0.000000 1.603150 0.000000 
#    z 0.000000 0.000000 1.598580 
# 
# From -- ./inp_files/29462.got.cif
#   From: 2010.05.17/outbox.cif.g08.bks.cpg/sg59_15_cif.got.tgz:29462.got - 2010.06.03 14:40:33.
