data_PCOD9452898
_publ_section_title
;
Structure prediction by ZEFSAII (Michael W. Deem and Ramdas Pophale) SiO2 
 PCOD9452898
Probable space group: P M M N
;
_chemical_formula_sum "Si O2"
_cell_formula_units_Z 58
_cell_length_a 7.816800
_cell_length_b 18.050010
_cell_length_c 18.728187
_cell_angle_alpha 90.000000
_cell_angle_beta 90.000000
_cell_angle_gamma 90.000000
_cell_volume 2642.422047
_symmetry_space_group_name_H-M "P M M N"
_symmetry_group_IT_number 59
_space_group.IT_coordinate_system_code '2'
_symmetry_cell_setting 'orthorhombic'
loop_
_space_group_symop_operation_xyz
x,y,z
1/2-x,1/2-y,z
1/2+x,-y,-z
-x,1/2+y,-z
-x,-y,-z
1/2+x,1/2+y,-z
1/2-x,y,z
x,1/2-y,z
loop_
_atom_site_type_symbol
_atom_site_label
_atom_site_fract_x
_atom_site_fract_y
_atom_site_fract_z
Si Si1 0.454183 0.521766 0.080253
Si Si2 0.952639 0.410909 0.277032
Si Si3 0.448965 0.076165 0.709512
Si Si4 0.449183 0.362298 0.135238
Si Si5 0.451675 0.666907 0.159490
Si Si6 0.455098 0.165876 0.421637
Si Si7 0.553639 0.069929 0.548964
Si Si8 0.250000 0.750000 0.905101
O O1 0.250000 0.528080 0.084937
O O2 0.499899 0.448148 0.123741
O O3 0.524626 0.599513 0.110874
O O4 0.500000 0.500000 0.000000
O O5 0.750000 0.410406 0.262493
O O6 0.021288 0.494800 0.271946
O O7 0.038718 0.355157 0.221081
O O8 0.980186 0.385209 0.357780
O O9 0.250000 0.076775 0.729114
O O10 0.532378 0.138685 0.758811
O O11 0.460879 0.081991 0.624062
O O12 0.250000 0.350099 0.112692
O O13 0.595589 0.313447 0.099003
O O14 0.250000 0.672113 0.142527
O O15 0.523930 0.750000 0.149912
O O16 0.250000 0.160276 0.424922
O O17 0.504362 0.250000 0.406378
O O18 0.527866 0.139012 0.496777
O O19 0.750000 0.058777 0.567876
O O20 0.500000 0.000000 0.500000
#
# Coordination Sequence:
#
# PCOD9452898 Si02
#       8
#     8   8   8   8   8   8   8   2
#     4  10  23  43  71 102 140 185 228 275 336 411
#     4  11  22  38  63  94 127 175 223 271 332 410
#     4  11  23  39  66  95 127 169 220 276 340 404
#     4  11  24  43  67 101 140 183 232 279 341 412
#     4  10  22  43  69 102 136 175 226 281 339 403
#     4  11  25  41  60  88 126 168 214 273 334 396
#     4  12  24  40  62  89 121 166 218 273 336 407
#     4  12  26  44  68 102 142 184 222 298 340 394
#
# _framework density 21.949559000000001
#
# number of rings (size 3 to 8) (size 9 to 14) (size 15 to 20)
#    0.000    1.103    3.448    2.690    1.931    3.586 
#    1.241    0.000    0.000    0.000    0.000    0.000 
#    0.000    0.000    0.000    0.000    0.000    0.000 
#
# Total GULP energy -323474.969866 kJ/mol
# GULP energy per Si atom -5577.154653 kJ/mol
# Density = 2.189960 g / cm^3
# Si number density = 21.949559 Si / 1000 Ang^3
#
#
#
# Elastic Constant Matrix: (Units=GPa)
#
#
# Indices 1 2 3 4 5 6 
#
# 1 77.3597 32.3950 -12.4683 0.0000 0.0000 0.0000
# 2 32.3950 161.7572 39.3288 0.0000 0.0000 0.0000
# 3 -12.4683 39.3288 88.2279 0.0000 0.0000 0.0000
# 4 0.0000 0.0000 0.0000 13.3860 0.0000 0.0000
# 5 0.0000 0.0000 0.0000 0.0000 29.7594 0.0000
# 6 0.0000 0.0000 0.0000 0.0000 0.0000 26.0624
#
#
#
# Elastic Compliance Matrix: (Units=1/GPa)
#
#
# Indices 1 2 3 4 5 6 
#
# 1 0.015241 -0.004011 0.003942 0.000000 0.000000 0.000000
# 2 -0.004011 0.007989 -0.004128 0.000000 0.000000 0.000000
# 3 0.003942 -0.004128 0.013731 0.000000 0.000000 0.000000
# 4 0.000000 0.000000 0.000000 0.074705 0.000000 0.000000
# 5 0.000000 0.000000 0.000000 0.000000 0.033603 0.000000
# 6 0.000000 0.000000 0.000000 0.000000 0.000000 0.038369
#
#
# Mechanical properties :
#
#
# Convention : Reuss Voigt Hill
#
# Bulk Modulus (GPa) = 35.00431 49.53952 42.27192
# Shear Modulus (GPa) = 24.80702 31.71418 28.26060
#
# Velocity S-wave (km/s) = 3.36547 3.80526 3.59210
# Velocity P-wave (km/s) = 5.57531 6.47498 6.04191
#
# Compressibility (1/GPa) = 0.02856791
#
# Stress axis : x y z
#
# Youngs Moduli (GPa) = 65.61041 125.17205 72.82555
#
# Poissons Ratio (x) = 0.50204 -0.28706
# Poissons Ratio (y) = 0.26315 0.30062
# Poissons Ratio (z) = -0.25862 0.51671
#
# Static dielectric constant tensor:
#      x y z
#    x 1.803540 0.000000 0.000000 
#    y 0.000000 1.834220 0.000000 
#    z 0.000000 0.000000 2.117040 
# 
# From -- ./inp_files/25914.got.cif
#   From: 2010.05.17/outbox.cif.g08.bks.cpg/sg59_13_cif.got.tgz:25914.got - 2010.06.03 14:40:33.
