data_PCOD9452542
_publ_section_title
;
Structure prediction by ZEFSAII (Michael W. Deem and Ramdas Pophale) SiO2 
 PCOD9452542
Probable space group: P M M N
;
_chemical_formula_sum "Si O2"
_cell_formula_units_Z 32
_cell_length_a 10.409328
_cell_length_b 15.039052
_cell_length_c 9.624963
_cell_angle_alpha 90.000000
_cell_angle_beta 90.000000
_cell_angle_gamma 90.000000
_cell_volume 1506.753549
_symmetry_space_group_name_H-M "P M M N"
_symmetry_group_IT_number 59
_space_group.IT_coordinate_system_code '2'
_symmetry_cell_setting 'orthorhombic'
loop_
_space_group_symop_operation_xyz
x,y,z
1/2-x,1/2-y,z
1/2+x,-y,-z
-x,1/2+y,-z
-x,-y,-z
1/2+x,1/2+y,-z
1/2-x,y,z
x,1/2-y,z
loop_
_atom_site_type_symbol
_atom_site_label
_atom_site_fract_x
_atom_site_fract_y
_atom_site_fract_z
Si Si1 0.250000 0.250000 0.513720
Si Si2 0.250000 0.558484 0.174212
Si Si3 0.987380 0.066251 0.627588
Si Si4 0.023106 0.750000 0.539152
Si Si5 0.750000 0.602640 0.251386
Si Si6 0.250000 0.750000 0.027569
Si Si7 0.250000 0.129620 0.060894
Si Si8 0.512942 0.750000 0.845511
O O1 0.372942 0.250000 0.422361
O O2 0.250000 0.331589 0.617088
O O3 0.128864 0.545682 0.272897
O O4 0.250000 0.657432 0.112636
O O5 0.250000 0.477185 0.067237
O O6 0.959658 0.163385 0.557399
O O7 0.115081 0.055795 0.721292
O O8 0.000000 0.000000 0.500000
O O9 0.067366 0.750000 0.698095
O O10 0.750000 0.650016 0.103455
O O11 0.390647 0.750000 0.950796
O O12 0.116987 0.169152 0.126858
#
# Coordination Sequence:
#
# PCOD9452542 Si02
#       8
#     2   4   8   4   4   2   4   4
#     4   8  16  36  62  88 114 150 202 260 318 372
#     4  12  26  44  63  94 135 173 212 267 328 382
#     4  11  23  40  64  91 123 163 211 262 319 380
#     4  10  21  38  62  89 122 159 204 266 318 373
#     4  10  21  38  62  90 119 160 209 256 313 381
#     4  12  28  44  64  96 136 174 214 266 326 388
#     4  11  24  43  68  93 129 173 217 264 317 392
#     4  11  24  43  68  99 128 167 218 266 324 387
#
# _framework density 21.237714
#
# number of rings (size 3 to 8) (size 9 to 14) (size 15 to 20)
#    0.000    1.250    0.000    6.000    0.000   11.000 
#    0.000    0.000    0.000    0.000    0.000    0.000 
#    0.000    0.000    0.000    0.000    0.000    0.000 
#
# Total GULP energy -178256.436181 kJ/mol
# GULP energy per Si atom -5570.513631 kJ/mol
# Density = 2.118938 g / cm^3
# Si number density = 21.237714 Si / 1000 Ang^3
#
#
#
# Elastic Constant Matrix: (Units=GPa)
#
#
# Indices 1 2 3 4 5 6 
#
# 1 147.4859 8.4441 24.6530 0.0000 0.0000 0.0000
# 2 8.4441 120.1222 19.5759 0.0000 0.0000 0.0000
# 3 24.6530 19.5759 91.9420 0.0000 0.0000 0.0000
# 4 0.0000 0.0000 0.0000 33.5854 0.0000 0.0000
# 5 0.0000 0.0000 0.0000 0.0000 39.3800 0.0000
# 6 0.0000 0.0000 0.0000 0.0000 0.0000 5.1266
#
#
#
# Elastic Compliance Matrix: (Units=1/GPa)
#
#
# Indices 1 2 3 4 5 6 
#
# 1 0.007103 -0.000196 -0.001863 0.000000 0.000000 0.000000
# 2 -0.000196 0.008629 -0.001785 0.000000 0.000000 0.000000
# 3 -0.001863 -0.001785 0.011756 0.000000 0.000000 0.000000
# 4 0.000000 0.000000 0.000000 0.029775 0.000000 0.000000
# 5 0.000000 0.000000 0.000000 0.000000 0.025394 0.000000
# 6 0.000000 0.000000 0.000000 0.000000 0.000000 0.195062
#
#
# Mechanical properties :
#
#
# Convention : Reuss Voigt Hill
#
# Bulk Modulus (GPa) = 50.50146 51.65512 51.07829
# Shear Modulus (GPa) = 17.12294 36.07687 26.59991
#
# Velocity S-wave (km/s) = 2.84254 4.12602 3.54289
# Velocity P-wave (km/s) = 5.88253 6.86104 6.39054
#
# Compressibility (1/GPa) = 0.01980141
#
# Stress axis : x y z
#
# Youngs Moduli (GPa) = 140.78748 115.88169 85.06328
#
# Poissons Ratio (x) = 0.02268 0.15846
# Poissons Ratio (y) = 0.02755 0.15183
# Poissons Ratio (z) = 0.26227 0.20683
#
# Static dielectric constant tensor:
#      x y z
#    x 1.813700 0.000000 0.000000 
#    y 0.000000 1.785980 0.000000 
#    z 0.000000 0.000000 1.756880 
# 
# From -- ./inp_files/6918.got.cif
#   From: 2010.05.17/outbox.cif.g08.bks.cpg/sg59_4_cif.got.tgz:6918.got - 2010.06.03 14:40:33.
