data_PCOD9452164
_publ_section_title
;
Structure prediction by ZEFSAII (Michael W. Deem and Ramdas Pophale) SiO2 
 PCOD9452164
Probable space group: P M M N
;
_chemical_formula_sum "Si O2"
_cell_formula_units_Z 58
_cell_length_a 7.900312
_cell_length_b 17.773729
_cell_length_c 19.567236
_cell_angle_alpha 90.000000
_cell_angle_beta 90.000000
_cell_angle_gamma 90.000000
_cell_volume 2747.592233
_symmetry_space_group_name_H-M "P M M N"
_symmetry_group_IT_number 59
_space_group.IT_coordinate_system_code '2'
_symmetry_cell_setting 'orthorhombic'
loop_
_space_group_symop_operation_xyz
x,y,z
1/2-x,1/2-y,z
1/2+x,-y,-z
-x,1/2+y,-z
-x,-y,-z
1/2+x,1/2+y,-z
1/2-x,y,z
x,1/2-y,z
loop_
_atom_site_type_symbol
_atom_site_label
_atom_site_fract_x
_atom_site_fract_y
_atom_site_fract_z
Si Si1 0.449324 0.523206 0.075911
Si Si2 0.948328 0.412119 0.282826
Si Si3 0.453771 0.082549 0.709278
Si Si4 0.447529 0.365584 0.143529
Si Si5 0.548795 0.666673 0.157122
Si Si6 0.450594 0.163211 0.420967
Si Si7 0.547976 0.163846 0.570407
Si Si8 0.250000 0.750000 0.890876
O O1 0.250000 0.533440 0.078403
O O2 0.489896 0.452083 0.123939
O O3 0.523879 0.601771 0.101424
O O4 0.500000 0.500000 0.000000
O O5 0.750000 0.411959 0.264193
O O6 0.016007 0.497363 0.281973
O O7 0.039744 0.361805 0.225888
O O8 0.966671 0.381086 0.359078
O O9 0.250000 0.079513 0.714542
O O10 0.519627 0.134983 0.770721
O O11 0.495709 0.115810 0.635567
O O12 0.250000 0.350228 0.122786
O O13 0.596440 0.314626 0.112654
O O14 0.750000 0.673827 0.165551
O O15 0.481042 0.750000 0.140412
O O16 0.250000 0.162521 0.409886
O O17 0.511074 0.250000 0.419994
O O18 0.486281 0.133817 0.497210
O O19 0.750000 0.166416 0.568042
O O20 0.482969 0.250000 0.578045
#
# Coordination Sequence:
#
# PCOD9452164 Si02
#       8
#     8   8   8   8   8   8   8   2
#     4  11  25  45  73 100 138 184 222 274 338 407
#     4  11  22  38  62  91 125 172 216 270 335 405
#     4  10  21  37  62  88 123 167 214 265 332 401
#     4  11  25  45  69 105 139 180 236 279 344 414
#     4  10  21  40  68 101 135 175 226 276 329 405
#     4  10  22  38  57  81 116 161 214 273 331 404
#     4  10  21  37  56  83 116 157 209 273 338 401
#     4  12  26  44  76 102 142 188 214 306 336 394
#
# _framework density 21.109392
#
# number of rings (size 3 to 8) (size 9 to 14) (size 15 to 20)
#    0.000    1.517    2.069    2.276    2.897    4.690 
#    1.241    0.000    0.000    0.000    0.000    0.000 
#    0.000    0.000    0.000    0.000    0.000    0.000 
#
# Total GULP energy -323483.051415 kJ/mol
# GULP energy per Si atom -5577.293990 kJ/mol
# Density = 2.106135 g / cm^3
# Si number density = 21.109392 Si / 1000 Ang^3
#
#
#
# Elastic Constant Matrix: (Units=GPa)
#
#
# Indices 1 2 3 4 5 6 
#
# 1 67.1410 31.4445 -1.9145 0.0000 0.0000 0.0000
# 2 31.4445 111.4963 33.6453 0.0000 0.0000 0.0000
# 3 -1.9145 33.6453 93.3123 0.0000 0.0000 0.0000
# 4 0.0000 0.0000 0.0000 63.7724 0.0000 0.0000
# 5 0.0000 0.0000 0.0000 0.0000 27.8365 0.0000
# 6 0.0000 0.0000 0.0000 0.0000 0.0000 29.4649
#
#
#
# Elastic Compliance Matrix: (Units=1/GPa)
#
#
# Indices 1 2 3 4 5 6 
#
# 1 0.017634 -0.005703 0.002418 0.000000 0.000000 0.000000
# 2 -0.005703 0.011908 -0.004411 0.000000 0.000000 0.000000
# 3 0.002418 -0.004411 0.012357 0.000000 0.000000 0.000000
# 4 0.000000 0.000000 0.000000 0.015681 0.000000 0.000000
# 5 0.000000 0.000000 0.000000 0.000000 0.035924 0.000000
# 6 0.000000 0.000000 0.000000 0.000000 0.000000 0.033939
#
#
# Mechanical properties :
#
#
# Convention : Reuss Voigt Hill
#
# Bulk Modulus (GPa) = 37.72482 44.25555 40.99018
# Shear Modulus (GPa) = 32.96651 38.13304 35.54978
#
# Velocity S-wave (km/s) = 3.95612 4.25485 4.10820
# Velocity P-wave (km/s) = 6.22718 6.71927 6.47790
#
# Compressibility (1/GPa) = 0.02650775
#
# Stress axis : x y z
#
# Youngs Moduli (GPa) = 56.70920 83.97564 80.92795
#
# Poissons Ratio (x) = 0.47890 -0.19569
# Poissons Ratio (y) = 0.32340 0.35695
# Poissons Ratio (z) = -0.13713 0.37039
#
# Static dielectric constant tensor:
#      x y z
#    x 1.769710 0.000000 0.000000 
#    y 0.000000 1.772970 0.000000 
#    z 0.000000 0.000000 1.740830 
# 
# From -- ./inp_files/25913.got.cif
#   From: 2010.05.17/outbox.cif.g08.bks.cpg/sg59_13_cif.got.tgz:25913.got - 2010.06.03 14:40:33.
