data_PCOD9452371
_publ_section_title
;
Structure prediction by ZEFSAII (Michael W. Deem and Ramdas Pophale) SiO2 
 PCOD9452371
Probable space group: P M M N
;
_chemical_formula_sum "Si O2"
_cell_formula_units_Z 56
_cell_length_a 7.651221
_cell_length_b 16.096869
_cell_length_c 21.659449
_cell_angle_alpha 90.000000
_cell_angle_beta 90.000000
_cell_angle_gamma 90.000000
_cell_volume 2667.592947
_symmetry_space_group_name_H-M "P M M N"
_symmetry_group_IT_number 59
_space_group.IT_coordinate_system_code '2'
_symmetry_cell_setting 'orthorhombic'
loop_
_space_group_symop_operation_xyz
x,y,z
1/2-x,1/2-y,z
1/2+x,-y,-z
-x,1/2+y,-z
-x,-y,-z
1/2+x,1/2+y,-z
1/2-x,y,z
x,1/2-y,z
loop_
_atom_site_type_symbol
_atom_site_label
_atom_site_fract_x
_atom_site_fract_y
_atom_site_fract_z
Si Si1 0.954865 0.341153 0.360823
Si Si2 0.045200 0.497805 0.705692
Si Si3 0.458287 0.097570 0.495239
Si Si4 0.536742 0.343945 0.933785
Si Si5 0.455541 0.993167 0.152840
Si Si6 0.038800 0.843544 0.923911
Si Si7 0.964023 0.841542 0.370943
O O1 0.750000 0.335810 0.344101
O O2 0.032826 0.250000 0.350318
O O3 0.032655 0.417496 0.322130
O O4 0.965417 0.364368 0.432947
O O5 0.250000 0.498888 0.688288
O O6 0.972739 0.415638 0.672815
O O7 0.032995 0.494566 0.778979
O O8 0.250000 0.107674 0.491297
O O9 0.517810 0.140194 0.558635
O O10 0.500000 0.000000 0.500000
O O11 0.750000 0.345354 0.933775
O O12 0.484345 0.250000 0.915582
O O13 0.474748 0.417677 0.889545
O O14 0.482681 0.357565 0.004973
O O15 0.250000 0.978820 0.160440
O O16 0.480397 0.081063 0.118762
O O17 0.250000 0.843408 0.923330
O O18 0.982007 0.750000 0.905603
O O19 0.750000 0.841619 0.370372
O O20 0.021061 0.750000 0.351376
#
# Coordination Sequence:
#
# PCOD9452371 Si02
#       7
#     8   8   8   8   8   8   8
#     4  10  21  38  58  80 106 140 184 230 276 325
#     4  10  21  38  54  73 106 149 189 222 261 321
#     4  11  20  34  58  85 113 141 176 222 278 331
#     4   8  16  33  56  81 110 143 178 217 266 326
#     4  11  22  34  53  82 113 143 178 225 276 316
#     4   9  18  35  59  82 105 141 184 219 262 326
#     4   9  18  34  56  79 104 137 178 222 268 318
#
# _framework density 20.992705999999998
#
# number of rings (size 3 to 8) (size 9 to 14) (size 15 to 20)
#    0.000    2.286    1.429    2.571    0.000    2.857 
#    0.000    2.143    0.000    4.714    0.000    0.000 
#    0.000    0.000    0.000    0.000    0.000    0.000 
#
# Total GULP energy -312720.257425 kJ/mol
# GULP energy per Si atom -5584.290311 kJ/mol
# Density = 2.094493 g / cm^3
# Si number density = 20.992706 Si / 1000 Ang^3
#
#
#
# Elastic Constant Matrix: (Units=GPa)
#
#
# Indices 1 2 3 4 5 6 
#
# 1 37.9518 -1.4285 -13.0610 0.0000 0.0000 0.0000
# 2 -1.4285 186.7451 81.9634 0.0000 0.0000 0.0000
# 3 -13.0610 81.9634 100.6042 0.0000 0.0000 0.0000
# 4 0.0000 0.0000 0.0000 -2.5722 0.0000 0.0000
# 5 0.0000 0.0000 0.0000 0.0000 -62.2252 0.0000
# 6 0.0000 0.0000 0.0000 0.0000 0.0000 7.3383
#
#
#
# Elastic Compliance Matrix: (Units=1/GPa)
#
#
# Indices 1 2 3 4 5 6 
#
# 1 0.028130 -0.002160 0.005412 0.000000 0.000000 0.000000
# 2 -0.002160 0.008501 -0.007207 0.000000 0.000000 0.000000
# 3 0.005412 -0.007207 0.016514 0.000000 0.000000 0.000000
# 4 0.000000 0.000000 0.000000 -0.388771 0.000000 0.000000
# 5 0.000000 0.000000 0.000000 0.000000 -0.016071 0.000000
# 6 0.000000 0.000000 0.000000 0.000000 0.000000 0.136271
#
#
# Mechanical properties :
#
#
# Convention : Reuss Voigt Hill
#
# Bulk Modulus (GPa) = 22.10624 51.13876 36.62250
# Shear Modulus (GPa) = -25.98262 5.69665 -10.14298
#
# Velocity S-wave (km/s) = -3.52191 1.64910 -2.20049
# Velocity P-wave (km/s) = 2.44646 5.29520 3.32069
#
# Compressibility (1/GPa) = 0.04523610
#
# Stress axis : x y z
#
# Youngs Moduli (GPa) = 35.54866 117.62773 60.55510
#
# Poissons Ratio (x) = 0.25410 -0.32772
# Poissons Ratio (y) = 0.07679 0.43640
# Poissons Ratio (z) = -0.19239 0.84770
#
# Static dielectric constant tensor:
#      x y z
#    x 1.783880 0.000000 0.000000 
#    y 0.000000 1.768080 0.000000 
#    z 0.000000 0.000000 1.698690 
# 
# From -- ./inp_files/29161.got.cif
#   From: 2010.05.17/outbox.cif.g08.bks.cpg/sg59_15_cif.got.tgz:29161.got - 2010.06.03 14:40:33.
