data_PCOD9452903
_publ_section_title
;
Structure prediction by ZEFSAII (Michael W. Deem and Ramdas Pophale) SiO2 
 PCOD9452903
Probable space group: P M M N
;
_chemical_formula_sum "Si O2"
_cell_formula_units_Z 56
_cell_length_a 14.481661
_cell_length_b 19.365597
_cell_length_c 10.774717
_cell_angle_alpha 90.000000
_cell_angle_beta 90.000000
_cell_angle_gamma 90.000000
_cell_volume 3021.726400
_symmetry_space_group_name_H-M "P M M N"
_symmetry_group_IT_number 59
_space_group.IT_coordinate_system_code '2'
_symmetry_cell_setting 'orthorhombic'
loop_
_space_group_symop_operation_xyz
x,y,z
1/2-x,1/2-y,z
1/2+x,-y,-z
-x,1/2+y,-z
-x,-y,-z
1/2+x,1/2+y,-z
1/2-x,y,z
x,1/2-y,z
loop_
_atom_site_type_symbol
_atom_site_label
_atom_site_fract_x
_atom_site_fract_y
_atom_site_fract_z
Si Si1 0.143563 0.669608 0.584814
Si Si2 0.857118 0.599749 0.949290
Si Si3 0.544021 0.915279 0.202806
Si Si4 0.641509 0.832652 0.697594
Si Si5 0.854660 0.065875 0.914654
Si Si6 0.859440 0.062443 0.194390
Si Si7 0.961913 0.667941 0.446349
O O1 0.250000 0.660307 0.546271
O O2 0.131320 0.750000 0.622451
O O3 0.125509 0.619271 0.700403
O O4 0.069715 0.656262 0.477440
O O5 0.750000 0.621101 0.962731
O O6 0.895478 0.634583 0.824734
O O7 0.858828 0.517387 0.927399
O O8 0.909185 0.613594 0.077296
O O9 0.434567 0.912695 0.178274
O O10 0.568228 0.873410 0.325675
O O11 0.579610 0.994167 0.214166
O O12 0.750000 0.850807 0.688292
O O13 0.633721 0.750000 0.706645
O O14 0.590913 0.854232 0.571771
O O15 0.750000 0.085461 0.880857
O O16 0.875909 0.090501 0.055241
O O17 0.750000 0.042442 0.196888
O O18 0.946703 0.750000 0.429268
#
# Coordination Sequence:
#
# PCOD9452903 Si02
#       7
#     8   8   8   8   8   8   8
#     4   9  19  37  58  77 105 146 187 227 270 319
#     4   9  18  34  56  80 105 139 179 218 268 328
#     4  11  21  33  56  81 114 144 176 222 282 323
#     4   9  19  36  56  77 105 143 184 224 264 316
#     4   9  19  34  52  78 111 143 175 220 277 330
#     4   9  18  34  57  84 109 137 183 231 273 320
#     4  10  23  38  53  78 112 148 184 223 275 328
#
# _framework density 18.532451999999999
#
# number of rings (size 3 to 8) (size 9 to 14) (size 15 to 20)
#    0.000    2.571    0.000    3.000    4.000    2.857 
#    0.000    0.714    0.000    0.857    0.000    0.000 
#    0.000    0.000    0.000    0.000    0.000    0.000 
#
# Total GULP energy -312393.367125 kJ/mol
# GULP energy per Si atom -5578.452984 kJ/mol
# Density = 1.849027 g / cm^3
# Si number density = 18.532452 Si / 1000 Ang^3
#
#
#
# Elastic Constant Matrix: (Units=GPa)
#
#
# Indices 1 2 3 4 5 6 
#
# 1 65.5848 20.4207 48.6646 0.0000 0.0000 0.0000
# 2 20.4207 20.6018 39.5061 0.0000 0.0000 0.0000
# 3 48.6646 39.5061 131.5269 0.0000 0.0000 0.0000
# 4 0.0000 0.0000 0.0000 0.9012 0.0000 0.0000
# 5 0.0000 0.0000 0.0000 0.0000 15.3223 0.0000
# 6 0.0000 0.0000 0.0000 0.0000 0.0000 13.2154
#
#
#
# Elastic Compliance Matrix: (Units=1/GPa)
#
#
# Indices 1 2 3 4 5 6 
#
# 1 0.022871 -0.015194 -0.003898 0.000000 0.000000 0.000000
# 2 -0.015194 0.124569 -0.031794 0.000000 0.000000 0.000000
# 3 -0.003898 -0.031794 0.018595 0.000000 0.000000 0.000000
# 4 0.000000 0.000000 0.000000 1.109691 0.000000 0.000000
# 5 0.000000 0.000000 0.000000 0.000000 0.065265 0.000000
# 6 0.000000 0.000000 0.000000 0.000000 0.000000 0.075669
#
#
# Mechanical properties :
#
#
# Convention : Reuss Voigt Hill
#
# Bulk Modulus (GPa) = 15.56152 48.32180 31.94166
# Shear Modulus (GPa) = 3.24706 13.16257 8.20482
#
# Velocity S-wave (km/s) = 1.32510 2.66793 2.10639
# Velocity P-wave (km/s) = 3.27968 5.96835 4.81547
#
# Compressibility (1/GPa) = 0.06426108
#
# Stress axis : x y z
#
# Youngs Moduli (GPa) = 43.72340 8.02769 53.77713
#
# Poissons Ratio (x) = 0.12198 0.20964
# Poissons Ratio (y) = 0.66435 1.70980
# Poissons Ratio (z) = 0.17045 0.25523
#
# Static dielectric constant tensor:
#      x y z
#    x 1.691450 0.000000 0.000000 
#    y 0.000000 1.611080 0.000000 
#    z 0.000000 0.000000 1.616060 
# 
# From -- ./inp_files/9372.got.cif
#   From: 2010.05.17/outbox.cif.g08.bks.cpg/sg59_5_cif.got.tgz:9372.got - 2010.06.03 14:40:33.
