data_PCOD9452747
_publ_section_title
;
Structure prediction by ZEFSAII (Michael W. Deem and Ramdas Pophale) SiO2 
 PCOD9452747
Probable space group: P M M N
;
_chemical_formula_sum "Si O2"
_cell_formula_units_Z 48
_cell_length_a 29.244855
_cell_length_b 8.759158
_cell_length_c 10.252544
_cell_angle_alpha 90.000000
_cell_angle_beta 90.000000
_cell_angle_gamma 90.000000
_cell_volume 2626.294805
_symmetry_space_group_name_H-M "P M M N"
_symmetry_group_IT_number 59
_space_group.IT_coordinate_system_code '2'
_symmetry_cell_setting 'orthorhombic'
loop_
_space_group_symop_operation_xyz
x,y,z
1/2-x,1/2-y,z
1/2+x,-y,-z
-x,1/2+y,-z
-x,-y,-z
1/2+x,1/2+y,-z
1/2-x,y,z
x,1/2-y,z
loop_
_atom_site_type_symbol
_atom_site_label
_atom_site_fract_x
_atom_site_fract_y
_atom_site_fract_z
Si Si1 0.803092 0.434455 0.999064
Si Si2 0.466257 0.066845 0.608333
Si Si3 0.371303 0.567013 0.514458
Si Si4 0.979810 0.433958 0.867836
Si Si5 0.122319 0.563989 0.213436
Si Si6 0.695372 0.928605 0.279881
O O1 0.750000 0.478634 0.974172
O O2 0.804482 0.250000 0.006091
O O3 0.817276 0.500410 0.139526
O O4 0.837684 0.484655 0.885413
O O5 0.465409 0.250000 0.599516
O O6 0.487196 0.023910 0.748069
O O7 0.500000 0.000000 0.500000
O O8 0.416530 0.000363 0.581078
O O9 0.373888 0.750000 0.515175
O O10 0.369652 0.516059 0.363106
O O11 0.329117 0.511904 0.601064
O O12 0.978798 0.250000 0.876105
O O13 0.927934 0.484921 0.835503
O O14 0.000000 0.500000 0.000000
O O15 0.122285 0.750000 0.213608
O O16 0.750000 0.943457 0.291655
O O17 0.683283 0.750000 0.281348
#
# Coordination Sequence:
#
# PCOD9452747 Si02
#       6
#     8   8   8   8   8   8
#     4   9  18  35  60  86 111 145 188 233 283 339
#     4  11  22  39  60  84 117 155 194 235 284 340
#     4  11  22  38  61  87 116 152 193 238 288 342
#     4  10  22  39  56  81 115 150 191 237 283 337
#     4   9  19  37  57  82 115 147 187 238 285 333
#     4  10  22  40  59  84 119 152 187 235 286 341
#
# _framework density 18.276700000000002
#
# number of rings (size 3 to 8) (size 9 to 14) (size 15 to 20)
#    0.000    2.000    1.667    1.500    2.333    3.000 
#    0.000    3.333    0.000    2.000    0.000    0.000 
#    0.000    0.000    0.000    0.000    0.000    0.000 
#
# Total GULP energy -268004.640874 kJ/mol
# GULP energy per Si atom -5583.430018 kJ/mol
# Density = 1.823510 g / cm^3
# Si number density = 18.276700 Si / 1000 Ang^3
#
#
#
# Elastic Constant Matrix: (Units=GPa)
#
#
# Indices 1 2 3 4 5 6 
#
# 1 77.1904 30.3951 86.7933 0.0000 0.0000 0.0000
# 2 30.3951 34.0462 46.7209 0.0000 0.0000 0.0000
# 3 86.7933 46.7209 197.5534 0.0000 0.0000 0.0000
# 4 0.0000 0.0000 0.0000 25.2086 0.0000 0.0000
# 5 0.0000 0.0000 0.0000 0.0000 39.3636 0.0000
# 6 0.0000 0.0000 0.0000 0.0000 0.0000 27.7164
#
#
#
# Elastic Compliance Matrix: (Units=1/GPa)
#
#
# Indices 1 2 3 4 5 6 
#
# 1 0.028716 -0.012323 -0.009702 0.000000 0.000000 0.000000
# 2 -0.012323 0.048773 -0.006121 0.000000 0.000000 0.000000
# 3 -0.009702 -0.006121 0.010772 0.000000 0.000000 0.000000
# 4 0.000000 0.000000 0.000000 0.039669 0.000000 0.000000
# 5 0.000000 0.000000 0.000000 0.000000 0.025404 0.000000
# 6 0.000000 0.000000 0.000000 0.000000 0.000000 0.036080
#
#
# Mechanical properties :
#
#
# Convention : Reuss Voigt Hill
#
# Bulk Modulus (GPa) = 31.27961 70.73428 51.00694
# Shear Modulus (GPa) = 19.50376 28.11644 23.81010
#
# Velocity S-wave (km/s) = 3.27025 3.92647 3.61329
# Velocity P-wave (km/s) = 5.60455 7.70338 6.73621
#
# Compressibility (1/GPa) = 0.03196971
#
# Stress axis : x y z
#
# Youngs Moduli (GPa) = 34.82362 20.50333 92.83468
#
# Poissons Ratio (x) = 0.25266 0.90066
# Poissons Ratio (y) = 0.42913 0.56820
# Poissons Ratio (z) = 0.33785 0.12549
#
# Static dielectric constant tensor:
#      x y z
#    x 1.530010 0.000000 0.000000 
#    y 0.000000 1.615240 0.000000 
#    z 0.000000 0.000000 1.605360 
# 
# From -- ./inp_files/6203.got.cif
#   From: 2010.05.17/outbox.cif.g08.bks.cpg/sg59_4_cif.got.tgz:6203.got - 2010.06.03 14:40:33.
