data_PCOD9452485
_publ_section_title
;
Structure prediction by ZEFSAII (Michael W. Deem and Ramdas Pophale) SiO2 
 PCOD9452485
Probable space group: P M M N
;
_chemical_formula_sum "Si O2"
_cell_formula_units_Z 56
_cell_length_a 8.667932
_cell_length_b 18.875438
_cell_length_c 16.584754
_cell_angle_alpha 90.000000
_cell_angle_beta 90.000000
_cell_angle_gamma 90.000000
_cell_volume 2713.448403
_symmetry_space_group_name_H-M "P M M N"
_symmetry_group_IT_number 59
_space_group.IT_coordinate_system_code '2'
_symmetry_cell_setting 'orthorhombic'
loop_
_space_group_symop_operation_xyz
x,y,z
1/2-x,1/2-y,z
1/2+x,-y,-z
-x,1/2+y,-z
-x,-y,-z
1/2+x,1/2+y,-z
1/2-x,y,z
x,1/2-y,z
loop_
_atom_site_type_symbol
_atom_site_label
_atom_site_fract_x
_atom_site_fract_y
_atom_site_fract_z
Si Si1 0.567287 0.408489 0.172842
Si Si2 0.573025 0.835125 0.670951
Si Si3 0.064006 0.332860 0.843454
Si Si4 0.432017 0.542978 0.249610
Si Si5 0.434710 0.420147 0.003822
Si Si6 0.428635 0.834247 0.500504
Si Si7 0.069697 0.039521 0.577525
O O1 0.750000 0.400398 0.171798
O O2 0.494606 0.366268 0.247327
O O3 0.522357 0.490022 0.190375
O O4 0.496144 0.387599 0.087244
O O5 0.750000 0.858930 0.659035
O O6 0.572979 0.750000 0.676408
O O7 0.472562 0.853586 0.592511
O O8 0.250000 0.338054 0.834729
O O9 0.022771 0.250000 0.844170
O O10 0.983882 0.377881 0.773010
O O11 0.020850 0.372147 0.927199
O O12 0.250000 0.534176 0.238877
O O13 0.481478 0.523027 0.340033
O O14 0.250000 0.424384 0.005876
O O15 0.500000 0.500000 0.000000
O O16 0.250000 0.852561 0.484609
O O17 0.447346 0.750000 0.492079
O O18 0.538749 0.878088 0.442361
O O19 0.250000 0.024153 0.586275
O O20 0.000000 0.000000 0.500000
#
# Coordination Sequence:
#
# PCOD9452485 Si02
#       7
#     8   8   8   8   8   8   8
#     4  12  24  39  62  91 126 165 208 256 310 372
#     4  10  21  38  60  88 123 162 206 256 312 372
#     4  10  23  44  68  95 129 168 211 260 318 380
#     4  12  25  42  65  92 124 164 211 261 315 375
#     4  11  22  39  65  94 126 165 207 256 312 372
#     4  10  21  39  62  88 121 160 203 252 309 372
#     4  12  25  42  64  91 126 163 209 262 315 374
#
# _framework density 20.637944000000001
#
# number of rings (size 3 to 8) (size 9 to 14) (size 15 to 20)
#    0.000    1.000    1.429    6.000    0.000    3.714 
#    0.000    1.429    0.000    0.000    0.000    0.000 
#    0.000    0.000    0.000    0.000    0.000    0.000 
#
# Total GULP energy -313398.121431 kJ/mol
# GULP energy per Si atom -5596.395026 kJ/mol
# Density = 2.059097 g / cm^3
# Si number density = 20.637944 Si / 1000 Ang^3
#
#
#
# Elastic Constant Matrix: (Units=GPa)
#
#
# Indices 1 2 3 4 5 6 
#
# 1 66.8531 9.0021 -2.3626 0.0000 0.0000 0.0000
# 2 9.0021 57.1245 4.3934 0.0000 0.0000 0.0000
# 3 -2.3626 4.3934 70.7827 0.0000 0.0000 0.0000
# 4 0.0000 0.0000 0.0000 34.5573 0.0000 0.0000
# 5 0.0000 0.0000 0.0000 0.0000 36.3252 0.0000
# 6 0.0000 0.0000 0.0000 0.0000 0.0000 33.5088
#
#
#
# Elastic Compliance Matrix: (Units=1/GPa)
#
#
# Indices 1 2 3 4 5 6 
#
# 1 0.015313 -0.002464 0.000664 0.000000 0.000000 0.000000
# 2 -0.002464 0.017986 -0.001199 0.000000 0.000000 0.000000
# 3 0.000664 -0.001199 0.014224 0.000000 0.000000 0.000000
# 4 0.000000 0.000000 0.000000 0.028937 0.000000 0.000000
# 5 0.000000 0.000000 0.000000 0.000000 0.027529 0.000000
# 6 0.000000 0.000000 0.000000 0.000000 0.000000 0.029843
#
#
# Mechanical properties :
#
#
# Convention : Reuss Voigt Hill
#
# Bulk Modulus (GPa) = 24.08113 24.09178 24.08646
# Shear Modulus (GPa) = 32.53658 33.12674 32.83166
#
# Velocity S-wave (km/s) = 3.97488 4.01076 3.99286
# Velocity P-wave (km/s) = 5.72363 5.75736 5.74052
#
# Compressibility (1/GPa) = 0.04152629
#
# Stress axis : x y z
#
# Youngs Moduli (GPa) = 65.30196 55.59831 70.30214
#
# Poissons Ratio (x) = 0.13701 -0.04669
# Poissons Ratio (y) = 0.16092 0.08427
# Poissons Ratio (z) = -0.04337 0.06664
#
# Static dielectric constant tensor:
#      x y z
#    x 1.696520 0.000000 0.000000 
#    y 0.000000 1.778020 0.000000 
#    z 0.000000 0.000000 1.724340 
# 
# From -- ./inp_files/20990.got.cif
#   From: 2010.05.17/outbox.cif.g08.bks.cpg/sg59_11_cif.got.tgz:20990.got - 2010.06.03 14:40:33.
