data_PCOD9452514
_publ_section_title
;
Structure prediction by ZEFSAII (Michael W. Deem and Ramdas Pophale) SiO2 
 PCOD9452514
Probable space group: P M M N
;
_chemical_formula_sum "Si O2"
_cell_formula_units_Z 32
_cell_length_a 23.955749
_cell_length_b 10.906881
_cell_length_c 4.939008
_cell_angle_alpha 90.000000
_cell_angle_beta 90.000000
_cell_angle_gamma 90.000000
_cell_volume 1290.476376
_symmetry_space_group_name_H-M "P M M N"
_symmetry_group_IT_number 59
_space_group.IT_coordinate_system_code '2'
_symmetry_cell_setting 'orthorhombic'
loop_
_space_group_symop_operation_xyz
x,y,z
1/2-x,1/2-y,z
1/2+x,-y,-z
-x,1/2+y,-z
-x,-y,-z
1/2+x,1/2+y,-z
1/2-x,y,z
x,1/2-y,z
loop_
_atom_site_type_symbol
_atom_site_label
_atom_site_fract_x
_atom_site_fract_y
_atom_site_fract_z
Si Si1 0.069959 0.115173 0.593107
Si Si2 0.456616 0.612421 0.204849
Si Si3 0.341049 0.613350 0.997837
Si Si4 0.188934 0.465806 0.520909
O O1 0.059736 0.250000 0.465657
O O2 0.023637 0.108259 0.834085
O O3 0.057173 0.999030 0.404383
O O4 0.136246 0.109302 0.636477
O O5 0.446715 0.750000 0.324500
O O6 0.408877 0.606408 0.977001
O O7 0.326702 0.750000 0.089560
O O8 0.322233 0.513146 0.217650
O O9 0.313767 0.584251 0.713435
O O10 0.250000 0.408185 0.538888
#
# Coordination Sequence:
#
# PCOD9452514 Si02
#       4
#     8   8   8   8
#     4   9  18  35  59  87 122 161 198 243 299 356
#     4   8  16  34  61  92 121 152 197 251 304 355
#     4  10  21  38  61  88 118 153 196 249 304 354
#     4  11  23  37  56  85 119 158 202 243 288 351
#
# _framework density 24.797046000000002
#
# number of rings (size 3 to 8) (size 9 to 14) (size 15 to 20)
#    0.000    2.500    0.000    1.500    0.000    5.500 
#    0.000    5.000    0.000   18.000    0.000    0.000 
#    0.000    0.000    0.000    0.000    0.000    0.000 
#
# Total GULP energy -178423.028556 kJ/mol
# GULP energy per Si atom -5575.719642 kJ/mol
# Density = 2.474061 g / cm^3
# Si number density = 24.797046 Si / 1000 Ang^3
#
#
#
# Elastic Constant Matrix: (Units=GPa)
#
#
# Indices 1 2 3 4 5 6 
#
# 1 189.4079 42.5495 15.3204 0.0000 0.0000 0.0000
# 2 42.5495 117.3563 11.3093 0.0000 0.0000 0.0000
# 3 15.3204 11.3093 72.3678 0.0000 0.0000 0.0000
# 4 0.0000 0.0000 0.0000 15.0123 0.0000 0.0000
# 5 0.0000 0.0000 0.0000 0.0000 20.4659 0.0000
# 6 0.0000 0.0000 0.0000 0.0000 0.0000 -11.3647
#
#
#
# Elastic Compliance Matrix: (Units=1/GPa)
#
#
# Indices 1 2 3 4 5 6 
#
# 1 0.005807 -0.002017 -0.000914 0.000000 0.000000 0.000000
# 2 -0.002017 0.009352 -0.001034 0.000000 0.000000 0.000000
# 3 -0.000914 -0.001034 0.014173 0.000000 0.000000 0.000000
# 4 0.000000 0.000000 0.000000 0.066612 0.000000 0.000000
# 5 0.000000 0.000000 0.000000 0.000000 0.048862 0.000000
# 6 0.000000 0.000000 0.000000 0.000000 0.000000 -0.087992
#
#
# Mechanical properties :
#
#
# Convention : Reuss Voigt Hill
#
# Bulk Modulus (GPa) = 46.72716 57.49892 52.11304
# Shear Modulus (GPa) = 69.56127 25.48624 47.52375
#
# Velocity S-wave (km/s) = 5.30218 3.20940 4.38254
# Velocity P-wave (km/s) = 7.50792 6.08044 6.83157
#
# Compressibility (1/GPa) = 0.02140083
#
# Stress axis : x y z
#
# Youngs Moduli (GPa) = 172.21470 106.92757 70.55440
#
# Poissons Ratio (x) = 0.21570 0.06449
# Poissons Ratio (y) = 0.34740 0.07299
# Poissons Ratio (z) = 0.15741 0.11061
#
# Static dielectric constant tensor:
#      x y z
#    x 2.065340 0.000000 0.000000 
#    y 0.000000 2.009780 0.000000 
#    z 0.000000 0.000000 1.893310 
# 
# From -- ./inp_files/3637.got.cif
#   From: 2010.05.17/outbox.cif.g08.bks.cpg/sg59_2_cif.got.tgz:3637.got - 2010.06.03 14:40:33.
