data_PCOD9452894
_publ_section_title
;
Structure prediction by ZEFSAII (Michael W. Deem and Ramdas Pophale) SiO2 
 PCOD9452894
Probable space group: P M M N
;
_chemical_formula_sum "Si O2"
_cell_formula_units_Z 48
_cell_length_a 18.819771
_cell_length_b 8.386848
_cell_length_c 14.724009
_cell_angle_alpha 90.000000
_cell_angle_beta 90.000000
_cell_angle_gamma 90.000000
_cell_volume 2324.016360
_symmetry_space_group_name_H-M "P M M N"
_symmetry_group_IT_number 59
_space_group.IT_coordinate_system_code '2'
_symmetry_cell_setting 'orthorhombic'
loop_
_space_group_symop_operation_xyz
x,y,z
1/2-x,1/2-y,z
1/2+x,-y,-z
-x,1/2+y,-z
-x,-y,-z
1/2+x,1/2+y,-z
1/2-x,y,z
x,1/2-y,z
loop_
_atom_site_type_symbol
_atom_site_label
_atom_site_fract_x
_atom_site_fract_y
_atom_site_fract_z
Si Si1 0.250000 0.060793 0.500961
Si Si2 0.102305 0.062246 0.758085
Si Si3 0.750000 0.063959 0.294293
Si Si4 0.133518 0.563601 0.364154
Si Si5 0.986528 0.066398 0.400116
Si Si6 0.825755 0.439900 0.840577
Si Si7 0.480964 0.943709 0.100225
O O1 0.250000 0.250000 0.487305
O O2 0.250000 0.023997 0.607886
O O3 0.317946 0.987205 0.448631
O O4 0.111954 0.250000 0.771903
O O5 0.042342 0.003383 0.829049
O O6 0.178799 0.980334 0.760222
O O7 0.069987 0.030834 0.658220
O O8 0.750000 0.250000 0.314771
O O9 0.112946 0.750000 0.373901
O O10 0.063448 0.458013 0.355697
O O11 0.172980 0.547037 0.268558
O O12 0.964932 0.250000 0.402428
O O13 0.000000 0.000000 0.500000
O O14 0.750000 0.506782 0.874378
O O15 0.825724 0.250000 0.861079
O O16 0.901399 0.502449 0.875618
O O17 0.479869 0.750000 0.105498
O O18 0.500000 0.000000 0.000000
#
# Coordination Sequence:
#
# PCOD9452894 Si02
#       7
#     4   8   4   8   8   8   8
#     4  12  24  38  56  89 132 173 216 267 325 381
#     4  11  23  44  68  91 126 171 218 270 328 387
#     4  12  26  44  64  91 124 169 224 273 325 381
#     4  11  20  36  60  86 120 165 212 258 315 379
#     4  12  24  38  58  88 124 165 214 266 318 382
#     4   9  17  35  64  94 123 160 204 252 311 376
#     4  10  22  42  69  98 130 168 210 264 329 392
#
# _framework density 20.6539
#
# number of rings (size 3 to 8) (size 9 to 14) (size 15 to 20)
#    0.000    1.167    2.500    5.000    0.000    1.333 
#    1.500    0.000    0.000    0.000    0.000    0.000 
#    0.000    0.000    0.000    0.000    0.000    0.000 
#
# Total GULP energy -268208.991019 kJ/mol
# GULP energy per Si atom -5587.687313 kJ/mol
# Density = 2.060689 g / cm^3
# Si number density = 20.653900 Si / 1000 Ang^3
#
#
#
# Elastic Constant Matrix: (Units=GPa)
#
#
# Indices 1 2 3 4 5 6 
#
# 1 165.9771 -1.0264 50.2062 0.0000 0.0000 0.0000
# 2 -1.0264 32.2503 4.5042 0.0000 0.0000 0.0000
# 3 50.2062 4.5042 86.8931 0.0000 0.0000 0.0000
# 4 0.0000 0.0000 0.0000 27.8451 0.0000 0.0000
# 5 0.0000 0.0000 0.0000 0.0000 16.4043 0.0000
# 6 0.0000 0.0000 0.0000 0.0000 0.0000 27.5420
#
#
#
# Elastic Compliance Matrix: (Units=1/GPa)
#
#
# Indices 1 2 3 4 5 6 
#
# 1 0.007323 0.000830 -0.004274 0.000000 0.000000 0.000000
# 2 0.000830 0.031328 -0.002103 0.000000 0.000000 0.000000
# 3 -0.004274 -0.002103 0.014087 0.000000 0.000000 0.000000
# 4 0.000000 0.000000 0.000000 0.035913 0.000000 0.000000
# 5 0.000000 0.000000 0.000000 0.000000 0.060960 0.000000
# 6 0.000000 0.000000 0.000000 0.000000 0.000000 0.036308
#
#
# Mechanical properties :
#
#
# Convention : Reuss Voigt Hill
#
# Bulk Modulus (GPa) = 24.01402 43.60982 33.81192
# Shear Modulus (GPa) = 23.70853 29.78738 26.74796
#
# Velocity S-wave (km/s) = 3.39174 3.80177 3.60259
# Velocity P-wave (km/s) = 5.19525 6.35859 5.80613
#
# Compressibility (1/GPa) = 0.04164234
#
# Stress axis : x y z
#
# Youngs Moduli (GPa) = 136.55701 31.92070 70.98740
#
# Poissons Ratio (x) = -0.02649 0.30341
# Poissons Ratio (y) = -0.11334 0.14932
# Poissons Ratio (z) = 0.58367 0.06714
#
# Static dielectric constant tensor:
#      x y z
#    x 1.797570 0.000000 0.000000 
#    y 0.000000 1.685200 0.000000 
#    z 0.000000 0.000000 1.751160 
# 
# From -- ./inp_files/23737.got.cif
#   From: 2010.05.17/outbox.cif.g08.bks.cpg/sg59_12_cif.got.tgz:23737.got - 2010.06.03 14:40:33.
