data_PCOD9452422
_publ_section_title
;
Structure prediction by ZEFSAII (Michael W. Deem and Ramdas Pophale) SiO2 
 PCOD9452422
Probable space group: P M M N
;
_chemical_formula_sum "Si O2"
_cell_formula_units_Z 64
_cell_length_a 7.603590
_cell_length_b 15.887507
_cell_length_c 24.858968
_cell_angle_alpha 90.000000
_cell_angle_beta 90.000000
_cell_angle_gamma 90.000000
_cell_volume 3003.015273
_symmetry_space_group_name_H-M "P M M N"
_symmetry_group_IT_number 59
_space_group.IT_coordinate_system_code '2'
_symmetry_cell_setting 'orthorhombic'
loop_
_space_group_symop_operation_xyz
x,y,z
1/2-x,1/2-y,z
1/2+x,-y,-z
-x,1/2+y,-z
-x,-y,-z
1/2+x,1/2+y,-z
1/2-x,y,z
x,1/2-y,z
loop_
_atom_site_type_symbol
_atom_site_label
_atom_site_fract_x
_atom_site_fract_y
_atom_site_fract_z
Si Si1 0.457229 0.503518 0.317918
Si Si2 0.465954 0.652550 0.879638
Si Si3 0.956033 0.658186 0.623009
Si Si4 0.534622 0.157735 0.611563
Si Si5 0.459268 0.901304 0.505008
Si Si6 0.962486 0.153318 0.885090
Si Si7 0.541853 0.500616 0.193941
Si Si8 0.451580 0.852344 0.997904
O O1 0.250000 0.502468 0.331315
O O2 0.534263 0.417685 0.342283
O O3 0.529281 0.584158 0.349472
O O4 0.473006 0.508706 0.254220
O O5 0.250000 0.652614 0.881187
O O6 0.517402 0.750000 0.868927
O O7 0.525200 0.582792 0.837040
O O8 0.528476 0.626404 0.939693
O O9 0.750000 0.663644 0.637276
O O10 0.035745 0.750000 0.631995
O O11 0.965590 0.634888 0.560106
O O12 0.750000 0.156592 0.611276
O O13 0.479293 0.250000 0.629595
O O14 0.478597 0.141322 0.550157
O O15 0.250000 0.889858 0.508105
O O16 0.500000 0.000000 0.500000
O O17 0.750000 0.156896 0.889074
O O18 0.021159 0.250000 0.874096
O O19 0.006906 0.084350 0.840762
O O20 0.030670 0.124964 0.944259
O O21 0.750000 0.490401 0.198198
O O22 0.250000 0.883532 0.997589
O O23 0.446024 0.750000 0.998492
#
# Coordination Sequence:
#
# PCOD9452422 Si02
#       8
#     8   8   8   8   8   8   8   8
#     4  10  21  39  56  73 103 145 188 226 265 315
#     4   8  15  30  51  75 106 141 173 213 268 325
#     4  10  21  38  59  84 113 145 182 225 274 324
#     4   9  18  34  57  81 103 133 176 220 262 313
#     4  11  20  34  58  87 118 146 176 217 270 328
#     4   9  18  34  56  79 103 137 179 218 261 323
#     4  11  23  35  51  79 109 139 179 228 275 318
#     4   7  11  24  49  77 101 130 173 216 255 314
#
# _framework density 21.311914999999999
#
# number of rings (size 3 to 8) (size 9 to 14) (size 15 to 20)
#    0.000    2.625    1.250    2.625    0.000    3.000 
#    0.000    1.250    0.000    3.375    0.000    3.500 
#    0.000    0.000    0.000    0.000    0.000    0.000 
#
# Total GULP energy -357138.873169 kJ/mol
# GULP energy per Si atom -5580.294893 kJ/mol
# Density = 2.126341 g / cm^3
# Si number density = 21.311915 Si / 1000 Ang^3
#
#
#
# Elastic Constant Matrix: (Units=GPa)
#
#
# Indices 1 2 3 4 5 6 
#
# 1 43.7813 0.2596 -13.2588 0.0000 0.0000 0.0000
# 2 0.2596 138.7723 59.4106 0.0000 0.0000 0.0000
# 3 -13.2588 59.4106 109.3300 0.0000 0.0000 0.0000
# 4 0.0000 0.0000 0.0000 -27.0203 0.0000 0.0000
# 5 0.0000 0.0000 0.0000 0.0000 441.0896 0.0000
# 6 0.0000 0.0000 0.0000 0.0000 0.0000 -2.0505
#
#
#
# Elastic Compliance Matrix: (Units=1/GPa)
#
#
# Indices 1 2 3 4 5 6 
#
# 1 0.024010 -0.001683 0.003826 0.000000 0.000000 0.000000
# 2 -0.001683 0.009509 -0.005371 0.000000 0.000000 0.000000
# 3 0.003826 -0.005371 0.012529 0.000000 0.000000 0.000000
# 4 0.000000 0.000000 0.000000 -0.037009 0.000000 0.000000
# 5 0.000000 0.000000 0.000000 0.000000 0.002267 0.000000
# 6 0.000000 0.000000 0.000000 0.000000 0.000000 -0.487684
#
#
# Mechanical properties :
#
#
# Convention : Reuss Voigt Hill
#
# Bulk Modulus (GPa) = 25.25779 42.74517 34.00148
# Shear Modulus (GPa) = -10.94750 98.76857 43.91053
#
# Velocity S-wave (km/s) = -2.26891 6.81505 4.54406
# Velocity P-wave (km/s) = 2.23904 9.05688 6.59698
#
# Compressibility (1/GPa) = 0.03959175
#
# Stress axis : x y z
#
# Youngs Moduli (GPa) = 41.65013 105.16694 79.81242
#
# Poissons Ratio (x) = 0.17700 -0.30538
# Poissons Ratio (y) = 0.07010 0.42869
# Poissons Ratio (z) = -0.15936 0.56487
#
# Static dielectric constant tensor:
#      x y z
#    x 1.806290 0.000000 0.000000 
#    y 0.000000 1.774660 0.000000 
#    z 0.000000 0.000000 1.749130 
# 
# From -- ./inp_files/31650.got.cif
#   From: 2010.05.17/outbox.cif.g08.bks.cpg/sg59_16_cif.got.tgz:31650.got - 2010.06.03 14:40:33.
