data_PCOD9452220
_publ_section_title
;
Structure prediction by ZEFSAII (Michael W. Deem and Ramdas Pophale) SiO2 
 PCOD9452220
Probable space group: P M M N
;
_chemical_formula_sum "Si O2"
_cell_formula_units_Z 40
_cell_length_a 16.099309
_cell_length_b 7.690267
_cell_length_c 15.140244
_cell_angle_alpha 90.000000
_cell_angle_beta 90.000000
_cell_angle_gamma 90.000000
_cell_volume 1874.483098
_symmetry_space_group_name_H-M "P M M N"
_symmetry_group_IT_number 59
_space_group.IT_coordinate_system_code '2'
_symmetry_cell_setting 'orthorhombic'
loop_
_space_group_symop_operation_xyz
x,y,z
1/2-x,1/2-y,z
1/2+x,-y,-z
-x,1/2+y,-z
-x,-y,-z
1/2+x,1/2+y,-z
1/2-x,y,z
x,1/2-y,z
loop_
_atom_site_type_symbol
_atom_site_label
_atom_site_fract_x
_atom_site_fract_y
_atom_site_fract_z
Si Si1 0.997604 0.455202 0.602681
Si Si2 0.340555 0.540760 0.715205
Si Si3 0.158168 0.963007 0.285060
Si Si4 0.897919 0.044192 0.096530
Si Si5 0.407013 0.538819 0.096258
O O1 0.989302 0.250000 0.609005
O O2 0.082608 0.501015 0.652240
O O3 0.000000 0.500000 0.500000
O O4 0.917223 0.528213 0.654189
O O5 0.250000 0.480144 0.683779
O O6 0.337987 0.750000 0.720811
O O7 0.357533 0.472147 0.814456
O O8 0.250000 0.017799 0.313893
O O9 0.157266 0.750000 0.285889
O O10 0.141360 0.015810 0.183670
O O11 0.879656 0.250000 0.095228
O O12 0.874531 0.976158 0.999190
O O13 0.997197 0.018961 0.104642
O O14 0.406990 0.750000 0.094397
#
# Coordination Sequence:
#
# PCOD9452220 Si02
#       5
#     8   8   8   8   8
#     4  11  23  40  61  83 109 142 184 233 289 342
#     4  10  21  37  57  83 115 150 187 228 276 329
#     4   9  18  33  55  82 109 139 178 223 272 328
#     4   9  17  29  50  79 112 146 181 222 268 319
#     4   9  16  29  51  79 109 144 183 222 267 324
#
# _framework density 21.339217000000001
#
# number of rings (size 3 to 8) (size 9 to 14) (size 15 to 20)
#    0.000    2.400    2.000    0.600    0.000    2.000 
#    0.000    6.000    0.000    4.800    0.000    5.600 
#    0.000    0.000    0.000    0.000    0.000    0.000 
#
# Total GULP energy -223244.464800 kJ/mol
# GULP energy per Si atom -5581.111620 kJ/mol
# Density = 2.129065 g / cm^3
# Si number density = 21.339217 Si / 1000 Ang^3
#
#
#
# Elastic Constant Matrix: (Units=GPa)
#
#
# Indices 1 2 3 4 5 6 
#
# 1 172.2879 3.5102 115.5057 0.0000 0.0000 0.0000
# 2 3.5102 37.1788 10.1612 0.0000 0.0000 0.0000
# 3 115.5057 10.1612 177.9519 0.0000 0.0000 0.0000
# 4 0.0000 0.0000 0.0000 15.0289 0.0000 0.0000
# 5 0.0000 0.0000 0.0000 0.0000 -5.1526 0.0000
# 6 0.0000 0.0000 0.0000 0.0000 0.0000 16.9694
#
#
#
# Elastic Compliance Matrix: (Units=1/GPa)
#
#
# Indices 1 2 3 4 5 6 
#
# 1 0.010303 0.000869 -0.006737 0.000000 0.000000 0.000000
# 2 0.000869 0.027397 -0.002128 0.000000 0.000000 0.000000
# 3 -0.006737 -0.002128 0.010114 0.000000 0.000000 0.000000
# 4 0.000000 0.000000 0.000000 0.066539 0.000000 0.000000
# 5 0.000000 0.000000 0.000000 0.000000 -0.194075 0.000000
# 6 0.000000 0.000000 0.000000 0.000000 0.000000 0.058930
#
#
# Mechanical properties :
#
#
# Convention : Reuss Voigt Hill
#
# Bulk Modulus (GPa) = 31.42644 71.75253 51.58949
# Shear Modulus (GPa) = 860.92580 22.58523 441.75552
#
# Velocity S-wave (km/s) = 20.10780 3.25682 14.40365
# Velocity P-wave (km/s) = 23.53417 6.91666 17.34499
#
# Compressibility (1/GPa) = 0.03182034
#
# Stress axis : x y z
#
# Youngs Moduli (GPa) = 97.05497 36.50078 98.87137
#
# Poissons Ratio (x) = -0.03170 0.66614
# Poissons Ratio (y) = -0.08430 0.21041
# Poissons Ratio (z) = 0.65390 0.07768
#
# Static dielectric constant tensor:
#      x y z
#    x 1.772450 0.000000 0.000000 
#    y 0.000000 1.893590 0.000000 
#    z 0.000000 0.000000 1.735520 
# 
# From -- ./inp_files/19836.got.cif
#   From: 2010.05.17/outbox.cif.g08.bks.cpg/sg59_10_cif.got.tgz:19836.got - 2010.06.03 14:40:33.
