data_PCOD9452790
_publ_section_title
;
Structure prediction by ZEFSAII (Michael W. Deem and Ramdas Pophale) SiO2 
 PCOD9452790
Probable space group: P M M N
;
_chemical_formula_sum "Si O2"
_cell_formula_units_Z 48
_cell_length_a 13.743721
_cell_length_b 18.834405
_cell_length_c 9.833270
_cell_angle_alpha 90.000000
_cell_angle_beta 90.000000
_cell_angle_gamma 90.000000
_cell_volume 2545.389213
_symmetry_space_group_name_H-M "P M M N"
_symmetry_group_IT_number 59
_space_group.IT_coordinate_system_code '2'
_symmetry_cell_setting 'orthorhombic'
loop_
_space_group_symop_operation_xyz
x,y,z
1/2-x,1/2-y,z
1/2+x,-y,-z
-x,1/2+y,-z
-x,-y,-z
1/2+x,1/2+y,-z
1/2-x,y,z
x,1/2-y,z
loop_
_atom_site_type_symbol
_atom_site_label
_atom_site_fract_x
_atom_site_fract_y
_atom_site_fract_z
Si Si1 0.133361 0.042684 0.594881
Si Si2 0.866966 0.090023 0.212934
Si Si3 0.633614 0.041152 0.660401
Si Si4 0.366082 0.165545 0.792386
Si Si5 0.472181 0.575901 0.059835
Si Si6 0.368020 0.826838 0.528679
O O1 0.250000 0.034455 0.588020
O O2 0.114621 0.120738 0.653785
O O3 0.103779 0.984322 0.710435
O O4 0.100277 0.022096 0.442272
O O5 0.750000 0.087422 0.202277
O O6 0.896592 0.150228 0.320323
O O7 0.909844 0.106008 0.065614
O O8 0.750000 0.035385 0.676154
O O9 0.588451 0.055927 0.806073
O O10 0.607747 0.110689 0.573211
O O11 0.250000 0.155721 0.823829
O O12 0.383972 0.250000 0.782400
O O13 0.437740 0.126736 0.899528
O O14 0.500000 0.500000 0.000000
O O15 0.250000 0.824631 0.528773
O O16 0.405772 0.750000 0.488922
#
# Coordination Sequence:
#
# PCOD9452790 Si02
#       6
#     8   8   8   8   8   8
#     4   8  15  34  59  82 107 143 187 234 286 340
#     4   9  17  32  55  84 117 147 180 223 283 352
#     4   9  19  34  57  87 116 141 179 233 290 348
#     4  10  22  40  59  78 108 153 202 246 287 338
#     4  12  23  34  55  87 116 150 190 239 290 344
#     4   8  15  31  54  79 112 152 180 210 269 341
#
# _framework density 18.857627000000001
#
# number of rings (size 3 to 8) (size 9 to 14) (size 15 to 20)
#    0.000    2.667    1.667    2.500    0.000    2.667 
#    0.000    0.000    0.000    6.000    0.000    2.333 
#    0.000    0.000    0.000    0.000    0.000    0.000 
#
# Total GULP energy -267360.035128 kJ/mol
# GULP energy per Si atom -5570.000732 kJ/mol
# Density = 1.881471 g / cm^3
# Si number density = 18.857627 Si / 1000 Ang^3
#
#
#
# Elastic Constant Matrix: (Units=GPa)
#
#
# Indices 1 2 3 4 5 6 
#
# 1 84.8441 26.4919 48.4014 0.0000 0.0000 0.0000
# 2 26.4919 114.0638 49.7498 0.0000 0.0000 0.0000
# 3 48.4014 49.7498 167.8096 0.0000 0.0000 0.0000
# 4 0.0000 0.0000 0.0000 8.8447 0.0000 0.0000
# 5 0.0000 0.0000 0.0000 0.0000 32.2201 0.0000
# 6 0.0000 0.0000 0.0000 0.0000 0.0000 18.3473
#
#
#
# Elastic Compliance Matrix: (Units=1/GPa)
#
#
# Indices 1 2 3 4 5 6 
#
# 1 0.014409 -0.001762 -0.003634 0.000000 0.000000 0.000000
# 2 -0.001762 0.010284 -0.002541 0.000000 0.000000 0.000000
# 3 -0.003634 -0.002541 0.007761 0.000000 0.000000 0.000000
# 4 0.000000 0.000000 0.000000 0.113062 0.000000 0.000000
# 5 0.000000 0.000000 0.000000 0.000000 0.031037 0.000000
# 6 0.000000 0.000000 0.000000 0.000000 0.000000 0.054504
#
#
# Mechanical properties :
#
#
# Convention : Reuss Voigt Hill
#
# Bulk Modulus (GPa) = 60.30806 68.44486 64.37646
# Shear Modulus (GPa) = 19.80538 28.02071 23.91304
#
# Velocity S-wave (km/s) = 3.24428 3.85893 3.56488
# Velocity P-wave (km/s) = 6.78852 7.49863 7.15239
#
# Compressibility (1/GPa) = 0.01658153
#
# Stress axis : x y z
#
# Youngs Moduli (GPa) = 69.39909 97.23459 128.85748
#
# Poissons Ratio (x) = 0.17130 0.46824
# Poissons Ratio (y) = 0.12226 0.32741
# Poissons Ratio (z) = 0.25218 0.24706
#
# Static dielectric constant tensor:
#      x y z
#    x 1.720610 0.000000 0.000000 
#    y 0.000000 1.687340 0.000000 
#    z 0.000000 0.000000 1.672010 
# 
# From -- ./inp_files/9039.got.cif
#   From: 2010.05.17/outbox.cif.g08.bks.cpg/sg59_5_cif.got.tgz:9039.got - 2010.06.03 14:40:33.
