data_PCOD9452303
_publ_section_title
;
Structure prediction by ZEFSAII (Michael W. Deem and Ramdas Pophale) SiO2 
 PCOD9452303
Probable space group: P M M N
;
_chemical_formula_sum "Si O2"
_cell_formula_units_Z 48
_cell_length_a 8.778959
_cell_length_b 19.483907
_cell_length_c 15.381024
_cell_angle_alpha 90.000000
_cell_angle_beta 90.000000
_cell_angle_gamma 90.000000
_cell_volume 2630.899864
_symmetry_space_group_name_H-M "P M M N"
_symmetry_group_IT_number 59
_space_group.IT_coordinate_system_code '2'
_symmetry_cell_setting 'orthorhombic'
loop_
_space_group_symop_operation_xyz
x,y,z
1/2-x,1/2-y,z
1/2+x,-y,-z
-x,1/2+y,-z
-x,-y,-z
1/2+x,1/2+y,-z
1/2-x,y,z
x,1/2-y,z
loop_
_atom_site_type_symbol
_atom_site_label
_atom_site_fract_x
_atom_site_fract_y
_atom_site_fract_z
Si Si1 0.068541 0.930219 0.540383
Si Si2 0.432926 0.170417 0.119347
Si Si3 0.567221 0.936718 0.731035
Si Si4 0.931854 0.330509 0.931786
Si Si5 0.932208 0.915473 0.226239
Si Si6 0.067125 0.169836 0.599883
O O1 0.250000 0.935881 0.542007
O O2 0.005504 0.921933 0.637493
O O3 0.015570 0.868396 0.478714
O O4 0.000000 0.000000 0.500000
O O5 0.250000 0.165984 0.107580
O O6 0.470401 0.250000 0.138840
O O7 0.475923 0.120312 0.197664
O O8 0.512198 0.151588 0.028633
O O9 0.750000 0.937182 0.722636
O O10 0.510202 0.010974 0.762219
O O11 0.750000 0.337573 0.926048
O O12 0.971125 0.250000 0.917449
O O13 0.010887 0.376951 0.859559
O O14 0.750000 0.923849 0.223830
O O15 0.970407 0.869081 0.310453
O O16 0.250000 0.164202 0.587370
O O17 0.027942 0.250000 0.605313
#
# Coordination Sequence:
#
# PCOD9452303 Si02
#       6
#     8   8   8   8   8   8
#     4  12  24  40  62  87 119 160 201 243 297 357
#     4   9  20  40  63  86 115 154 200 246 295 354
#     4  11  23  39  62  90 119 155 198 249 303 356
#     4  10  21  37  59  87 120 157 197 246 300 351
#     4  11  22  37  60  88 120 160 200 242 296 359
#     4  10  22  40  62  89 120 156 200 249 299 353
#
# _framework density 18.244707999999999
#
# number of rings (size 3 to 8) (size 9 to 14) (size 15 to 20)
#    0.000    1.500    1.667    3.500    0.000    5.333 
#    0.000    1.667    0.000    0.000    0.000    0.000 
#    0.000    0.000    0.000    0.000    0.000    0.000 
#
# Total GULP energy -268335.057298 kJ/mol
# GULP energy per Si atom -5590.313694 kJ/mol
# Density = 1.820318 g / cm^3
# Si number density = 18.244708 Si / 1000 Ang^3
#
#
#
# Elastic Constant Matrix: (Units=GPa)
#
#
# Indices 1 2 3 4 5 6 
#
# 1 67.2210 62.2717 70.7959 0.0000 0.0000 0.0000
# 2 62.2717 129.2411 102.5937 0.0000 0.0000 0.0000
# 3 70.7959 102.5937 176.3095 0.0000 0.0000 0.0000
# 4 0.0000 0.0000 0.0000 40.1243 0.0000 0.0000
# 5 0.0000 0.0000 0.0000 0.0000 30.6918 0.0000
# 6 0.0000 0.0000 0.0000 0.0000 0.0000 28.1603
#
#
#
# Elastic Compliance Matrix: (Units=1/GPa)
#
#
# Indices 1 2 3 4 5 6 
#
# 1 0.030858 -0.009352 -0.006949 0.000000 0.000000 0.000000
# 2 -0.009352 0.017214 -0.006261 0.000000 0.000000 0.000000
# 3 -0.006949 -0.006261 0.012106 0.000000 0.000000 0.000000
# 4 0.000000 0.000000 0.000000 0.024923 0.000000 0.000000
# 5 0.000000 0.000000 0.000000 0.000000 0.032582 0.000000
# 6 0.000000 0.000000 0.000000 0.000000 0.000000 0.035511
#
#
# Mechanical properties :
#
#
# Convention : Reuss Voigt Hill
#
# Bulk Modulus (GPa) = 66.43238 93.78824 80.11031
# Shear Modulus (GPa) = 24.58976 28.93598 26.76287
#
# Velocity S-wave (km/s) = 3.67519 3.98677 3.83415
# Velocity P-wave (km/s) = 7.38243 8.52700 7.97528
#
# Compressibility (1/GPa) = 0.01505290
#
# Stress axis : x y z
#
# Youngs Moduli (GPa) = 32.40601 58.09208 82.60552
#
# Poissons Ratio (x) = 0.54328 0.57403
# Poissons Ratio (y) = 0.30307 0.51723
# Poissons Ratio (z) = 0.22519 0.36374
#
# Static dielectric constant tensor:
#      x y z
#    x 1.611730 0.000000 0.000000 
#    y 0.000000 1.605360 0.000000 
#    z 0.000000 0.000000 1.591700 
# 
# From -- ./inp_files/20418.got.cif
#   From: 2010.05.17/outbox.cif.g08.bks.cpg/sg59_11_cif.got.tgz:20418.got - 2010.06.03 14:40:33.
