data_PCOD9452356
_publ_section_title
;
Structure prediction by ZEFSAII (Michael W. Deem and Ramdas Pophale) SiO2 
 PCOD9452356
Probable space group: P M M N
;
_chemical_formula_sum "Si O2"
_cell_formula_units_Z 56
_cell_length_a 15.330530
_cell_length_b 8.570984
_cell_length_c 22.112827
_cell_angle_alpha 90.000000
_cell_angle_beta 90.000000
_cell_angle_gamma 90.000000
_cell_volume 2905.575213
_symmetry_space_group_name_H-M "P M M N"
_symmetry_group_IT_number 59
_space_group.IT_coordinate_system_code '2'
_symmetry_cell_setting 'orthorhombic'
loop_
_space_group_symop_operation_xyz
x,y,z
1/2-x,1/2-y,z
1/2+x,-y,-z
-x,1/2+y,-z
-x,-y,-z
1/2+x,1/2+y,-z
1/2-x,y,z
x,1/2-y,z
loop_
_atom_site_type_symbol
_atom_site_label
_atom_site_fract_x
_atom_site_fract_y
_atom_site_fract_z
Si Si1 0.250000 0.935554 0.250293
Si Si2 0.084294 0.931427 0.049894
Si Si3 0.647185 0.938667 0.499607
Si Si4 0.849885 0.934304 0.072607
Si Si5 0.063817 0.436825 0.281722
Si Si6 0.750000 0.935550 0.883652
Si Si7 0.029877 0.565732 0.843648
Si Si8 0.004899 0.562942 0.406967
O O1 0.250000 0.750000 0.239782
O O2 0.340536 0.984169 0.282028
O O3 0.250000 0.029273 0.187303
O O4 0.080140 0.750000 0.034938
O O5 0.170005 0.982004 0.085338
O O6 0.017481 0.973684 0.102871
O O7 0.092469 0.022217 0.986573
O O8 0.750000 0.987316 0.497269
O O9 0.647197 0.750000 0.504504
O O10 0.585078 0.979933 0.442098
O O11 0.589661 0.006283 0.554878
O O12 0.750000 0.970498 0.055446
O O13 0.857150 0.750000 0.083119
O O14 0.872781 0.024859 0.134796
O O15 0.075562 0.250000 0.280981
O O16 0.012129 0.488360 0.341106
O O17 0.009455 0.480399 0.221073
O O18 0.750000 0.750000 0.894054
O O19 0.013960 0.750000 0.850410
O O20 0.007729 0.750000 0.402954
#
# Coordination Sequence:
#
# PCOD9452356 Si02
#       8
#     4   8   8   8   8   4   8   8
#     4  12  24  38  60  88 118 156 199 242 293 356
#     4  12  23  37  60  86 114 149 193 241 296 357
#     4   9  19  38  63  90 124 166 206 247 302 354
#     4  11  24  41  61  83 112 147 190 245 304 361
#     4  11  24  41  61  85 121 163 197 239 296 354
#     4  12  22  36  56  84 120 154 189 234 297 360
#     4  11  24  41  61  83 114 152 195 244 296 357
#     4  10  21  37  60  92 127 160 204 255 295 348
#
# _framework density 19.273292000000001
#
# number of rings (size 3 to 8) (size 9 to 14) (size 15 to 20)
#    0.000    1.143    2.143    4.714    1.000    3.429 
#    0.000    0.714    0.000    2.571    0.000    0.000 
#    0.000    0.000    0.000    0.000    0.000    0.000 
#
# Total GULP energy -312408.682193 kJ/mol
# GULP energy per Si atom -5578.726468 kJ/mol
# Density = 1.922942 g / cm^3
# Si number density = 19.273292 Si / 1000 Ang^3
#
#
#
# Elastic Constant Matrix: (Units=GPa)
#
#
# Indices 1 2 3 4 5 6 
#
# 1 84.2939 14.5609 43.7117 0.0000 0.0000 0.0000
# 2 14.5609 57.2299 25.2610 0.0000 0.0000 0.0000
# 3 43.7117 25.2610 97.7881 0.0000 0.0000 0.0000
# 4 0.0000 0.0000 0.0000 32.3894 0.0000 0.0000
# 5 0.0000 0.0000 0.0000 0.0000 30.0541 0.0000
# 6 0.0000 0.0000 0.0000 0.0000 0.0000 40.6056
#
#
#
# Elastic Compliance Matrix: (Units=1/GPa)
#
#
# Indices 1 2 3 4 5 6 
#
# 1 0.015493 -0.000999 -0.006668 0.000000 0.000000 0.000000
# 2 -0.000999 0.019787 -0.004665 0.000000 0.000000 0.000000
# 3 -0.006668 -0.004665 0.014412 0.000000 0.000000 0.000000
# 4 0.000000 0.000000 0.000000 0.030874 0.000000 0.000000
# 5 0.000000 0.000000 0.000000 0.000000 0.033273 0.000000
# 6 0.000000 0.000000 0.000000 0.000000 0.000000 0.024627
#
#
# Mechanical properties :
#
#
# Convention : Reuss Voigt Hill
#
# Bulk Modulus (GPa) = 39.95365 45.15320 42.55343
# Shear Modulus (GPa) = 29.15929 30.99503 30.07716
#
# Velocity S-wave (km/s) = 3.89387 4.01457 3.95468
# Velocity P-wave (km/s) = 6.40245 6.70580 6.55588
#
# Compressibility (1/GPa) = 0.02502900
#
# Stress axis : x y z
#
# Youngs Moduli (GPa) = 64.54378 50.53934 69.38832
#
# Poissons Ratio (x) = 0.05049 0.46265
# Poissons Ratio (y) = 0.06447 0.32368
# Poissons Ratio (z) = 0.43035 0.23576
#
# Static dielectric constant tensor:
#      x y z
#    x 1.818790 0.000000 0.000000 
#    y 0.000000 1.620150 0.000000 
#    z 0.000000 0.000000 1.650110 
# 
# From -- ./inp_files/30446.got.cif
#   From: 2010.05.17/outbox.cif.g08.bks.cpg/sg59_16_cif.got.tgz:30446.got - 2010.06.03 14:40:33.
