data_PCOD9452758
_publ_section_title
;
Structure prediction by ZEFSAII (Michael W. Deem and Ramdas Pophale) SiO2 
 PCOD9452758
Probable space group: P M M N
;
_chemical_formula_sum "Si O2"
_cell_formula_units_Z 64
_cell_length_a 25.614648
_cell_length_b 22.162044
_cell_length_c 5.171235
_cell_angle_alpha 90.000000
_cell_angle_beta 90.000000
_cell_angle_gamma 90.000000
_cell_volume 2935.570259
_symmetry_space_group_name_H-M "P M M N"
_symmetry_group_IT_number 59
_space_group.IT_coordinate_system_code '2'
_symmetry_cell_setting 'orthorhombic'
loop_
_space_group_symop_operation_xyz
x,y,z
1/2-x,1/2-y,z
1/2+x,-y,-z
-x,1/2+y,-z
-x,-y,-z
1/2+x,1/2+y,-z
1/2-x,y,z
x,1/2-y,z
loop_
_atom_site_type_symbol
_atom_site_label
_atom_site_fract_x
_atom_site_fract_y
_atom_site_fract_z
Si Si1 0.594207 0.314645 0.467827
Si Si2 0.632694 0.917440 0.732312
Si Si3 0.498759 0.368085 0.609134
Si Si4 0.869582 0.416360 0.125977
Si Si5 0.812521 0.533252 0.245814
Si Si6 0.809056 0.316366 0.833622
Si Si7 0.954837 0.485587 0.790947
Si Si8 0.940857 0.678052 0.896611
O O1 0.585064 0.250000 0.341851
O O2 0.549646 0.327722 0.676964
O O3 0.594161 0.371564 0.284859
O O4 0.650215 0.314948 0.601487
O O5 0.665184 0.924226 0.470846
O O6 0.614059 0.850765 0.807894
O O7 0.578556 0.956326 0.700072
O O8 0.666437 0.944464 0.968078
O O9 0.517160 0.437914 0.599902
O O10 0.478853 0.340447 0.340049
O O11 0.458260 0.355988 0.840353
O O12 0.840287 0.468149 0.286439
O O13 0.826223 0.372734 0.003719
O O14 0.907930 0.447780 0.923753
O O15 0.750000 0.528837 0.250692
O O16 0.750000 0.323101 0.743808
O O17 0.813161 0.250000 0.965668
O O18 0.000000 0.500000 0.000000
O O19 0.940306 0.750000 0.932560
#
# Coordination Sequence:
#
# PCOD9452758 Si02
#       8
#     8   8   8   8   8   8   8   8
#     4  11  23  39  59  87 126 170 223 274 320 385
#     4  11  25  45  69 102 135 175 220 267 338 395
#     4  12  24  42  65  98 135 179 226 268 325 391
#     4  11  23  41  61  92 122 173 222 270 336 390
#     4  11  25  45  72 100 132 170 220 280 335 397
#     4  10  22  39  58  83 120 166 220 278 329 378
#     4  11  23  42  64  96 135 176 218 275 329 399
#     4  12  26  44  69 100 138 178 217 268 329 404
#
# _framework density 21.801555
#
# number of rings (size 3 to 8) (size 9 to 14) (size 15 to 20)
#    0.000    0.875    2.500    4.500    3.500    2.500 
#    0.000    1.250    0.000    2.250    0.000    0.000 
#    0.000    0.000    0.000    0.000    0.000    0.000 
#
# Total GULP energy -357856.395365 kJ/mol
# GULP energy per Si atom -5591.506178 kJ/mol
# Density = 2.175193 g / cm^3
# Si number density = 21.801555 Si / 1000 Ang^3
#
#
#
# Elastic Constant Matrix: (Units=GPa)
#
#
# Indices 1 2 3 4 5 6 
#
# 1 100.9243 12.1036 8.5292 0.0000 0.0000 0.0000
# 2 12.1036 84.5926 -15.0323 0.0000 0.0000 0.0000
# 3 8.5292 -15.0323 41.8234 0.0000 0.0000 0.0000
# 4 0.0000 0.0000 0.0000 22.6585 0.0000 0.0000
# 5 0.0000 0.0000 0.0000 0.0000 33.1117 0.0000
# 6 0.0000 0.0000 0.0000 0.0000 0.0000 -4.4082
#
#
#
# Elastic Compliance Matrix: (Units=1/GPa)
#
#
# Indices 1 2 3 4 5 6 
#
# 1 0.010386 -0.001990 -0.002833 0.000000 0.000000 0.000000
# 2 -0.001990 0.013009 0.005081 0.000000 0.000000 0.000000
# 3 -0.002833 0.005081 0.026314 0.000000 0.000000 0.000000
# 4 0.000000 0.000000 0.000000 0.044134 0.000000 0.000000
# 5 0.000000 0.000000 0.000000 0.000000 0.030201 0.000000
# 6 0.000000 0.000000 0.000000 0.000000 0.000000 -0.226850
#
#
# Mechanical properties :
#
#
# Convention : Reuss Voigt Hill
#
# Bulk Modulus (GPa) = 19.90959 26.50460 23.20709
# Shear Modulus (GPa) = -57.74966 25.05504 -16.34731
#
# Velocity S-wave (km/s) = -5.15231 3.39371 -2.74126
# Velocity P-wave (km/s) = 5.12280 5.24785 0.80527
#
# Compressibility (1/GPa) = 0.05022705
#
# Stress axis : x y z
#
# Youngs Moduli (GPa) = 96.27916 76.86971 38.00220
#
# Poissons Ratio (x) = 0.15294 0.10767
# Poissons Ratio (y) = 0.19156 -0.19311
# Poissons Ratio (z) = 0.27278 -0.39061
#
# Static dielectric constant tensor:
#      x y z
#    x 1.794150 0.000000 0.000000 
#    y 0.000000 1.830770 0.000000 
#    z 0.000000 0.000000 1.839300 
# 
# From -- ./inp_files/4312.got.cif
#   From: 2010.05.17/outbox.cif.g08.bks.cpg/sg59_3_cif.got.tgz:4312.got - 2010.06.03 14:40:33.
