data_PCOD9452032
_publ_section_title
;
Structure prediction by ZEFSAII (Michael W. Deem and Ramdas Pophale) SiO2 
 PCOD9452032
Probable space group: P M M N
;
_chemical_formula_sum "Si O2"
_cell_formula_units_Z 48
_cell_length_a 8.819836
_cell_length_b 9.976504
_cell_length_c 29.406949
_cell_angle_alpha 90.000000
_cell_angle_beta 90.000000
_cell_angle_gamma 90.000000
_cell_volume 2587.550647
_symmetry_space_group_name_H-M "P M M N"
_symmetry_group_IT_number 59
_space_group.IT_coordinate_system_code '2'
_symmetry_cell_setting 'orthorhombic'
loop_
_space_group_symop_operation_xyz
x,y,z
1/2-x,1/2-y,z
1/2+x,-y,-z
-x,1/2+y,-z
-x,-y,-z
1/2+x,1/2+y,-z
1/2-x,y,z
x,1/2-y,z
loop_
_atom_site_type_symbol
_atom_site_label
_atom_site_fract_x
_atom_site_fract_y
_atom_site_fract_z
Si Si1 0.066537 0.592620 0.960031
Si Si2 0.432030 0.250000 0.569802
Si Si3 0.068008 0.022041 0.395263
Si Si4 0.067471 0.404473 0.876136
Si Si5 0.928662 0.403925 0.298940
Si Si6 0.566158 0.750000 0.534842
Si Si7 0.569623 0.093486 0.776944
O O1 0.250000 0.591133 0.963107
O O2 0.019040 0.750000 0.961679
O O3 0.023856 0.515022 0.913482
O O4 0.000000 0.500000 0.000000
O O5 0.250000 0.250000 0.570342
O O6 0.495657 0.379582 0.594662
O O7 0.485594 0.250000 0.517098
O O8 0.250000 0.014612 0.395264
O O9 0.018887 0.121485 0.435854
O O10 0.012294 0.074848 0.346786
O O11 0.250000 0.407803 0.871658
O O12 0.026368 0.250000 0.889505
O O13 0.994166 0.432992 0.827337
O O14 0.750000 0.428004 0.305615
O O15 0.949644 0.250000 0.284449
O O16 0.992881 0.501706 0.260739
O O17 0.750000 0.750000 0.533868
O O18 0.750000 0.073616 0.776494
O O19 0.538423 0.250000 0.766933
#
# Coordination Sequence:
#
# PCOD9452032 Si02
#       7
#     8   4   8   8   8   4   8
#     4  10  21  36  56  84 118 157 200 246 295 347
#     4  11  23  39  59  89 121 153 193 237 284 345
#     4  11  22  40  62  87 117 153 193 239 291 343
#     4   9  18  35  57  81 114 155 196 240 291 345
#     4  11  24  41  61  86 115 151 193 239 292 349
#     4   9  20  39  63  87 117 153 193 237 288 343
#     4  10  22  39  61  89 119 152 191 237 290 349
#
# _framework density 18.550362
#
# number of rings (size 3 to 8) (size 9 to 14) (size 15 to 20)
#    0.000    1.833    0.833    2.750    1.167    4.333 
#    0.000    5.833    0.000    0.000    0.000    0.000 
#    0.000    0.000    0.000    0.000    0.000    0.000 
#
# Total GULP energy -268095.237755 kJ/mol
# GULP energy per Si atom -5585.317453 kJ/mol
# Density = 1.850814 g / cm^3
# Si number density = 18.550362 Si / 1000 Ang^3
#
#
#
# Elastic Constant Matrix: (Units=GPa)
#
#
# Indices 1 2 3 4 5 6 
#
# 1 51.9087 45.8841 40.3397 0.0000 0.0000 0.0000
# 2 45.8841 107.6342 47.9489 0.0000 0.0000 0.0000
# 3 40.3397 47.9489 87.8762 0.0000 0.0000 0.0000
# 4 0.0000 0.0000 0.0000 41.8850 0.0000 0.0000
# 5 0.0000 0.0000 0.0000 0.0000 35.2606 0.0000
# 6 0.0000 0.0000 0.0000 0.0000 0.0000 8.9152
#
#
#
# Elastic Compliance Matrix: (Units=1/GPa)
#
#
# Indices 1 2 3 4 5 6 
#
# 1 0.037886 -0.011101 -0.011334 0.000000 0.000000 0.000000
# 2 -0.011101 0.015527 -0.003376 0.000000 0.000000 0.000000
# 3 -0.011334 -0.003376 0.018425 0.000000 0.000000 0.000000
# 4 0.000000 0.000000 0.000000 0.023875 0.000000 0.000000
# 5 0.000000 0.000000 0.000000 0.000000 0.028360 0.000000
# 6 0.000000 0.000000 0.000000 0.000000 0.000000 0.112168
#
#
# Mechanical properties :
#
#
# Convention : Reuss Voigt Hill
#
# Bulk Modulus (GPa) = 49.46999 57.30717 53.38858
# Shear Modulus (GPa) = 16.97206 24.76193 20.86699
#
# Velocity S-wave (km/s) = 3.02804 3.65752 3.35757
# Velocity P-wave (km/s) = 6.24109 6.98544 6.62373
#
# Compressibility (1/GPa) = 0.02021427
#
# Stress axis : x y z
#
# Youngs Moduli (GPa) = 26.39531 64.40299 54.27475
#
# Poissons Ratio (x) = 0.71496 0.61515
# Poissons Ratio (y) = 0.29302 0.18324
# Poissons Ratio (z) = 0.29917 0.21744
#
# Static dielectric constant tensor:
#      x y z
#    x 1.623100 0.000000 0.000000 
#    y 0.000000 1.649640 0.000000 
#    z 0.000000 0.000000 1.606610 
# 
# From -- ./inp_files/33039.got.cif
#   From: 2010.05.17/outbox.cif.g08.bks.cpg/sg59_17_cif.got.tgz:33039.got - 2010.06.03 14:40:33.
