data_PCOD9452284
_publ_section_title
;
Structure prediction by ZEFSAII (Michael W. Deem and Ramdas Pophale) SiO2 
 PCOD9452284
Probable space group: P M M N
;
_chemical_formula_sum "Si O2"
_cell_formula_units_Z 56
_cell_length_a 7.439031
_cell_length_b 22.228347
_cell_length_c 14.373590
_cell_angle_alpha 90.000000
_cell_angle_beta 90.000000
_cell_angle_gamma 90.000000
_cell_volume 2376.778931
_symmetry_space_group_name_H-M "P M M N"
_symmetry_group_IT_number 59
_space_group.IT_coordinate_system_code '2'
_symmetry_cell_setting 'orthorhombic'
loop_
_space_group_symop_operation_xyz
x,y,z
1/2-x,1/2-y,z
1/2+x,-y,-z
-x,1/2+y,-z
-x,-y,-z
1/2+x,1/2+y,-z
1/2-x,y,z
x,1/2-y,z
loop_
_atom_site_type_symbol
_atom_site_label
_atom_site_fract_x
_atom_site_fract_y
_atom_site_fract_z
Si Si1 0.044721 0.861779 0.104648
Si Si2 0.969136 0.184942 0.289329
Si Si3 0.954184 0.437218 0.376368
Si Si4 0.031229 0.873521 0.895763
Si Si5 0.537284 0.504965 0.110578
Si Si6 0.032596 0.815526 0.295297
Si Si7 0.037901 0.064768 0.590099
O O1 0.250000 0.840902 0.093510
O O2 0.964663 0.824902 0.189704
O O3 0.045361 0.931518 0.138095
O O4 0.964707 0.861579 0.000596
O O5 0.750000 0.185303 0.297492
O O6 0.032096 0.250000 0.323297
O O7 0.036065 0.124895 0.340074
O O8 0.012962 0.175680 0.180629
O O9 0.750000 0.438248 0.338703
O O10 0.030442 0.504116 0.358232
O O11 0.952363 0.432037 0.488294
O O12 0.250000 0.877634 0.902191
O O13 0.973962 0.939309 0.856949
O O14 0.750000 0.510378 0.127724
O O15 0.500000 0.500000 0.000000
O O16 0.250000 0.815677 0.291846
O O17 0.975427 0.750000 0.331291
O O18 0.982953 0.873335 0.355487
O O19 0.250000 0.054688 0.575352
#
# Coordination Sequence:
#
# PCOD9452284 Si02
#       7
#     8   8   8   8   8   8   8
#     4   9  18  32  49  74 107 142 182 224 268 319
#     4   9  17  29  49  79 109 138 174 215 261 316
#     4   9  19  36  58  83 111 140 175 220 274 332
#     4   8  15  27  45  71 104 138 174 216 260 308
#     4   9  16  27  46  70 100 135 176 224 272 315
#     4  10  22  38  55  78 111 149 187 228 276 331
#     4  10  21  37  59  83 108 139 178 227 278 330
#
# _framework density 23.561298000000001
#
# number of rings (size 3 to 8) (size 9 to 14) (size 15 to 20)
#    0.000    2.857    0.000    1.714    2.000    2.571 
#    0.000    4.286    0.000    0.857    0.000    0.000 
#    0.000    0.000    0.000    0.000    0.000    0.000 
#
# Total GULP energy -312444.456847 kJ/mol
# GULP energy per Si atom -5579.365301 kJ/mol
# Density = 2.350767 g / cm^3
# Si number density = 23.561298 Si / 1000 Ang^3
#
#
#
# Elastic Constant Matrix: (Units=GPa)
#
#
# Indices 1 2 3 4 5 6 
#
# 1 80.9893 1.0454 -0.4889 0.0000 0.0000 0.0000
# 2 1.0454 206.5216 69.0428 0.0000 0.0000 0.0000
# 3 -0.4889 69.0428 70.4422 0.0000 0.0000 0.0000
# 4 0.0000 0.0000 0.0000 23.9468 0.0000 0.0000
# 5 0.0000 0.0000 0.0000 0.0000 1.7256 0.0000
# 6 0.0000 0.0000 0.0000 0.0000 0.0000 11.2140
#
#
#
# Elastic Compliance Matrix: (Units=1/GPa)
#
#
# Indices 1 2 3 4 5 6 
#
# 1 0.012350 -0.000136 0.000219 0.000000 0.000000 0.000000
# 2 -0.000136 0.007203 -0.007061 0.000000 0.000000 0.000000
# 3 0.000219 -0.007061 0.021119 0.000000 0.000000 0.000000
# 4 0.000000 0.000000 0.000000 0.041759 0.000000 0.000000
# 5 0.000000 0.000000 0.000000 0.000000 0.579512 0.000000
# 6 0.000000 0.000000 0.000000 0.000000 0.000000 0.089174
#
#
# Mechanical properties :
#
#
# Convention : Reuss Voigt Hill
#
# Bulk Modulus (GPa) = 37.43094 55.23908 46.33501
# Shear Modulus (GPa) = 6.46012 26.60087 16.53050
#
# Velocity S-wave (km/s) = 1.65765 3.36372 2.65164
# Velocity P-wave (km/s) = 4.42547 6.21143 5.39290
#
# Compressibility (1/GPa) = 0.02671587
#
# Stress axis : x y z
#
# Youngs Moduli (GPa) = 80.96918 138.82165 47.35162
#
# Poissons Ratio (x) = 0.01883 -0.01035
# Poissons Ratio (y) = 0.01098 0.33437
# Poissons Ratio (z) = -0.01770 0.98026
#
# Static dielectric constant tensor:
#      x y z
#    x 1.986020 0.000000 0.000000 
#    y 0.000000 1.911540 0.000000 
#    z 0.000000 0.000000 1.875990 
# 
# From -- ./inp_files/20978.got.cif
#   From: 2010.05.17/outbox.cif.g08.bks.cpg/sg59_11_cif.got.tgz:20978.got - 2010.06.03 14:40:33.
