data_PCOD9452049
_publ_section_title
;
Structure prediction by ZEFSAII (Michael W. Deem and Ramdas Pophale) SiO2 
 PCOD9452049
Probable space group: P M M N
;
_chemical_formula_sum "Si O2"
_cell_formula_units_Z 40
_cell_length_a 17.166568
_cell_length_b 9.301248
_cell_length_c 12.987710
_cell_angle_alpha 90.000000
_cell_angle_beta 90.000000
_cell_angle_gamma 90.000000
_cell_volume 2073.754231
_symmetry_space_group_name_H-M "P M M N"
_symmetry_group_IT_number 59
_space_group.IT_coordinate_system_code '2'
_symmetry_cell_setting 'orthorhombic'
loop_
_space_group_symop_operation_xyz
x,y,z
1/2-x,1/2-y,z
1/2+x,-y,-z
-x,1/2+y,-z
-x,-y,-z
1/2+x,1/2+y,-z
1/2-x,y,z
x,1/2-y,z
loop_
_atom_site_type_symbol
_atom_site_label
_atom_site_fract_x
_atom_site_fract_y
_atom_site_fract_z
Si Si1 0.157058 0.089873 0.331546
Si Si2 0.923924 0.579400 0.457979
Si Si3 0.420205 0.077808 0.968032
Si Si4 0.840809 0.924884 0.248178
Si Si5 0.657084 0.410000 0.855908
O O1 0.250000 0.092833 0.320158
O O2 0.126864 0.250000 0.305806
O O3 0.137620 0.061111 0.449635
O O4 0.125235 0.973669 0.251336
O O5 0.940149 0.750000 0.447367
O O6 0.887326 0.527470 0.350338
O O7 0.000000 0.500000 0.500000
O O8 0.428066 0.250000 0.971127
O O9 0.387020 0.035782 0.855754
O O10 0.500000 0.000000 0.000000
O O11 0.360789 0.020875 0.053936
O O12 0.750000 0.972675 0.246794
O O13 0.838603 0.750000 0.251473
O O14 0.750000 0.398417 0.846800
O O15 0.625414 0.250000 0.876625
#
# Coordination Sequence:
#
# PCOD9452049 Si02
#       5
#     8   8   8   8   8
#     4   9  18  34  57  83 111 147 191 236 283 341
#     4  10  21  36  57  86 117 150 189 238 292 348
#     4  11  23  38  59  87 119 155 197 245 297 355
#     4   9  19  38  63  87 113 153 202 245 288 347
#     4  10  21  37  58  84 115 151 192 240 293 348
#
# _framework density 19.288688
#
# number of rings (size 3 to 8) (size 9 to 14) (size 15 to 20)
#    0.000    2.200    0.000    2.400    2.800    5.200 
#    0.000    1.000    0.000    4.200    0.000    0.000 
#    0.000    0.000    0.000    0.000    0.000    0.000 
#
# Total GULP energy -223071.113935 kJ/mol
# GULP energy per Si atom -5576.777848 kJ/mol
# Density = 1.924479 g / cm^3
# Si number density = 19.288688 Si / 1000 Ang^3
#
#
#
# Elastic Constant Matrix: (Units=GPa)
#
#
# Indices 1 2 3 4 5 6 
#
# 1 73.4694 35.0313 52.6514 0.0000 0.0000 0.0000
# 2 35.0313 64.8333 63.2181 0.0000 0.0000 0.0000
# 3 52.6514 63.2181 163.4897 0.0000 0.0000 0.0000
# 4 0.0000 0.0000 0.0000 14.2012 0.0000 0.0000
# 5 0.0000 0.0000 0.0000 0.0000 28.7338 0.0000
# 6 0.0000 0.0000 0.0000 0.0000 0.0000 26.4680
#
#
#
# Elastic Compliance Matrix: (Units=1/GPa)
#
#
# Indices 1 2 3 4 5 6 
#
# 1 0.019538 -0.007098 -0.003548 0.000000 0.000000 0.000000
# 2 -0.007098 0.027338 -0.008285 0.000000 0.000000 0.000000
# 3 -0.003548 -0.008285 0.010463 0.000000 0.000000 0.000000
# 4 0.000000 0.000000 0.000000 0.070416 0.000000 0.000000
# 5 0.000000 0.000000 0.000000 0.000000 0.034802 0.000000
# 6 0.000000 0.000000 0.000000 0.000000 0.000000 0.037781
#
#
# Mechanical properties :
#
#
# Convention : Reuss Voigt Hill
#
# Bulk Modulus (GPa) = 51.34083 67.06599 59.20341
# Shear Modulus (GPa) = 20.43384 23.94006 22.18695
#
# Velocity S-wave (km/s) = 3.25833 3.52681 3.39522
# Velocity P-wave (km/s) = 6.38987 7.17144 6.79191
#
# Compressibility (1/GPa) = 0.01947768
#
# Stress axis : x y z
#
# Youngs Moduli (GPa) = 51.18315 36.57896 95.57635
#
# Poissons Ratio (x) = 0.25962 0.33906
# Poissons Ratio (y) = 0.36328 0.79188
# Poissons Ratio (z) = 0.18158 0.30307
#
# Static dielectric constant tensor:
#      x y z
#    x 1.728950 0.000000 0.000000 
#    y 0.000000 1.702220 0.000000 
#    z 0.000000 0.000000 1.672960 
# 
# From -- ./inp_files/13828.got.cif
#   From: 2010.05.17/outbox.cif.g08.bks.cpg/sg59_7_cif.got.tgz:13828.got - 2010.06.03 14:40:33.
