data_PCOD9452137
_publ_section_title
;
Structure prediction by ZEFSAII (Michael W. Deem and Ramdas Pophale) SiO2 
 PCOD9452137
Probable space group: P M M N
;
_chemical_formula_sum "Si O2"
_cell_formula_units_Z 64
_cell_length_a 9.250976
_cell_length_b 13.377145
_cell_length_c 23.881007
_cell_angle_alpha 90.000000
_cell_angle_beta 90.000000
_cell_angle_gamma 90.000000
_cell_volume 2955.313956
_symmetry_space_group_name_H-M "P M M N"
_symmetry_group_IT_number 59
_space_group.IT_coordinate_system_code '2'
_symmetry_cell_setting 'orthorhombic'
loop_
_space_group_symop_operation_xyz
x,y,z
1/2-x,1/2-y,z
1/2+x,-y,-z
-x,1/2+y,-z
-x,-y,-z
1/2+x,1/2+y,-z
1/2-x,y,z
x,1/2-y,z
loop_
_atom_site_type_symbol
_atom_site_label
_atom_site_fract_x
_atom_site_fract_y
_atom_site_fract_z
Si Si1 0.419542 0.365107 0.751130
Si Si2 0.580257 0.941521 0.582624
Si Si3 0.915664 0.371651 0.864961
Si Si4 0.080466 0.563670 0.692598
Si Si5 0.084591 0.371781 0.976449
Si Si6 0.584291 0.372029 0.088232
Si Si7 0.587051 0.630537 0.801870
Si Si8 0.920754 0.863383 0.459073
O O1 0.250000 0.370973 0.768004
O O2 0.449776 0.250000 0.735822
O O3 0.516665 0.394813 0.804315
O O4 0.439525 0.443913 0.701441
O O5 0.750000 0.947761 0.594242
O O6 0.498112 0.901147 0.636748
O O7 0.560329 0.877530 0.526081
O O8 0.515157 0.050740 0.569051
O O9 0.750000 0.405139 0.871868
O O10 0.913010 0.250000 0.866352
O O11 0.016233 0.401258 0.917033
O O12 0.250000 0.585123 0.690246
O O13 0.010548 0.608153 0.748355
O O14 0.250000 0.405260 0.983669
O O15 0.087979 0.250000 0.976589
O O16 0.984462 0.400346 0.028776
O O17 0.750000 0.404572 0.094759
O O18 0.585929 0.250000 0.089004
O O19 0.486388 0.404387 0.140531
O O20 0.750000 0.591823 0.794402
O O21 0.596382 0.750000 0.806726
O O22 0.750000 0.880792 0.447039
O O23 0.956762 0.750000 0.442910
#
# Coordination Sequence:
#
# PCOD9452137 Si02
#       8
#     8   8   8   8   8   8   8   8
#     4   9  19  36  55  75 103 142 186 229 276 333
#     4  10  21  37  58  88 122 153 191 236 279 327
#     4   9  16  26  43  69  99 131 172 224 279 333
#     4  11  23  38  58  84 115 153 193 233 278 328
#     4   9  15  23  39  65  97 133 173 218 272 336
#     4   9  16  27  45  70 100 133 174 226 280 336
#     4  10  21  37  56  78 107 145 188 234 285 339
#     4   9  19  38  63  88 118 157 194 230 277 329
#
# _framework density 21.655906999999999
#
# number of rings (size 3 to 8) (size 9 to 14) (size 15 to 20)
#    0.000    2.500    0.000    2.250    0.000    8.000 
#    0.000    2.500    0.000    0.750    0.000    0.000 
#    0.000    0.000    0.000    0.000    0.000    0.000 
#
# Total GULP energy -357959.604145 kJ/mol
# GULP energy per Si atom -5593.118815 kJ/mol
# Density = 2.160662 g / cm^3
# Si number density = 21.655907 Si / 1000 Ang^3
#
#
#
# Elastic Constant Matrix: (Units=GPa)
#
#
# Indices 1 2 3 4 5 6 
#
# 1 113.2892 -1.9582 50.2043 0.0000 0.0000 0.0000
# 2 -1.9582 50.8362 -14.2771 0.0000 0.0000 0.0000
# 3 50.2043 -14.2771 88.3121 0.0000 0.0000 0.0000
# 4 0.0000 0.0000 0.0000 9.3383 0.0000 0.0000
# 5 0.0000 0.0000 0.0000 0.0000 39.5351 0.0000
# 6 0.0000 0.0000 0.0000 0.0000 0.0000 21.6321
#
#
#
# Elastic Compliance Matrix: (Units=1/GPa)
#
#
# Indices 1 2 3 4 5 6 
#
# 1 0.011909 -0.001511 -0.007015 0.000000 0.000000 0.000000
# 2 -0.001511 0.020798 0.004222 0.000000 0.000000 0.000000
# 3 -0.007015 0.004222 0.015994 0.000000 0.000000 0.000000
# 4 0.000000 0.000000 0.000000 0.107085 0.000000 0.000000
# 5 0.000000 0.000000 0.000000 0.000000 0.025294 0.000000
# 6 0.000000 0.000000 0.000000 0.000000 0.000000 0.046228
#
#
# Mechanical properties :
#
#
# Convention : Reuss Voigt Hill
#
# Bulk Modulus (GPa) = 24.94220 35.59729 30.26974
# Shear Modulus (GPa) = 20.05764 28.66568 24.36166
#
# Velocity S-wave (km/s) = 3.04665 3.64220 3.35766
# Velocity P-wave (km/s) = 4.89067 5.84473 5.38885
#
# Compressibility (1/GPa) = 0.04009270
#
# Stress axis : x y z
#
# Youngs Moduli (GPa) = 83.96714 48.08064 62.52449
#
# Poissons Ratio (x) = 0.07266 0.43859
# Poissons Ratio (y) = 0.12690 -0.26395
# Poissons Ratio (z) = 0.58900 -0.20298
#
# Static dielectric constant tensor:
#      x y z
#    x 1.731800 0.000000 0.000000 
#    y 0.000000 1.861190 0.000000 
#    z 0.000000 0.000000 1.729500 
# 
# From -- ./inp_files/31430.got.cif
#   From: 2010.05.17/outbox.cif.g08.bks.cpg/sg59_16_cif.got.tgz:31430.got - 2010.06.03 14:40:33.
