data_PCOD9452574
_publ_section_title
;
Structure prediction by ZEFSAII (Michael W. Deem and Ramdas Pophale) SiO2 
 PCOD9452574
Probable space group: P M M N
;
_chemical_formula_sum "Si O2"
_cell_formula_units_Z 48
_cell_length_a 8.493993
_cell_length_b 29.643156
_cell_length_c 10.249021
_cell_angle_alpha 90.000000
_cell_angle_beta 90.000000
_cell_angle_gamma 90.000000
_cell_volume 2580.588284
_symmetry_space_group_name_H-M "P M M N"
_symmetry_group_IT_number 59
_space_group.IT_coordinate_system_code '2'
_symmetry_cell_setting 'orthorhombic'
loop_
_space_group_symop_operation_xyz
x,y,z
1/2-x,1/2-y,z
1/2+x,-y,-z
-x,1/2+y,-z
-x,-y,-z
1/2+x,1/2+y,-z
1/2-x,y,z
x,1/2-y,z
loop_
_atom_site_type_symbol
_atom_site_label
_atom_site_fract_x
_atom_site_fract_y
_atom_site_fract_z
Si Si1 0.061081 0.469753 0.381961
Si Si2 0.938470 0.197676 0.983708
Si Si3 0.058224 0.372310 0.484548
Si Si4 0.438290 0.478157 0.867589
Si Si5 0.940650 0.877581 0.214488
Si Si6 0.440215 0.197930 0.269056
O O1 0.250000 0.471164 0.376771
O O2 0.012321 0.418796 0.414575
O O3 0.000000 0.500000 0.500000
O O4 0.992947 0.490241 0.250419
O O5 0.750000 0.197320 0.979883
O O6 0.991574 0.250000 0.963438
O O7 0.002729 0.163117 0.876567
O O8 0.994463 0.183387 0.128374
O O9 0.250000 0.371300 0.488711
O O10 0.005702 0.371708 0.635093
O O11 0.006007 0.331809 0.391208
O O12 0.250000 0.476871 0.871186
O O13 0.492861 0.426632 0.839726
O O14 0.500000 0.500000 0.000000
O O15 0.750000 0.877623 0.214623
O O16 0.250000 0.195323 0.262548
O O17 0.485435 0.250000 0.287669
#
# Coordination Sequence:
#
# PCOD9452574 Si02
#       6
#     8   8   8   8   8   8
#     4  11  21  38  60  84 118 157 195 239 287 344
#     4  10  22  39  57  82 117 151 186 234 288 340
#     4   9  19  36  58  85 113 144 185 236 285 333
#     4  11  24  41  59  86 119 155 197 244 293 346
#     4  10  21  39  60  83 114 151 192 236 283 340
#     4   9  18  35  60  86 110 142 185 230 282 344
#
# _framework density 18.600411000000001
#
# number of rings (size 3 to 8) (size 9 to 14) (size 15 to 20)
#    0.000    2.000    1.667    1.500    2.333    3.000 
#    0.000    3.333    0.000    2.000    0.000    0.000 
#    0.000    0.000    0.000    0.000    0.000    0.000 
#
# Total GULP energy -267971.423335 kJ/mol
# GULP energy per Si atom -5582.737986 kJ/mol
# Density = 1.855808 g / cm^3
# Si number density = 18.600411 Si / 1000 Ang^3
#
#
#
# Elastic Constant Matrix: (Units=GPa)
#
#
# Indices 1 2 3 4 5 6 
#
# 1 22.2705 24.2322 28.7186 0.0000 0.0000 0.0000
# 2 24.2322 133.5434 117.2773 0.0000 0.0000 0.0000
# 3 28.7186 117.2773 207.2136 0.0000 0.0000 0.0000
# 4 0.0000 0.0000 0.0000 41.8490 0.0000 0.0000
# 5 0.0000 0.0000 0.0000 0.0000 27.1177 0.0000
# 6 0.0000 0.0000 0.0000 0.0000 0.0000 26.9010
#
#
#
# Elastic Compliance Matrix: (Units=1/GPa)
#
#
# Indices 1 2 3 4 5 6 
#
# 1 0.057661 -0.006849 -0.004115 0.000000 0.000000 0.000000
# 2 -0.006849 0.015702 -0.007937 0.000000 0.000000 0.000000
# 3 -0.004115 -0.007937 0.009889 0.000000 0.000000 0.000000
# 4 0.000000 0.000000 0.000000 0.023895 0.000000 0.000000
# 5 0.000000 0.000000 0.000000 0.000000 0.036876 0.000000
# 6 0.000000 0.000000 0.000000 0.000000 0.000000 0.037173
#
#
# Mechanical properties :
#
#
# Convention : Reuss Voigt Hill
#
# Bulk Modulus (GPa) = 22.00302 78.16484 50.08393
# Shear Modulus (GPa) = 21.35387 32.02683 26.69035
#
# Velocity S-wave (km/s) = 3.39194 4.15400 3.79216
# Velocity P-wave (km/s) = 5.21491 8.06982 6.79402
#
# Compressibility (1/GPa) = 0.04544831
#
# Stress axis : x y z
#
# Youngs Moduli (GPa) = 17.34264 63.68750 101.12593
#
# Poissons Ratio (x) = 0.43620 0.41614
# Poissons Ratio (y) = 0.11878 0.80268
# Poissons Ratio (z) = 0.07137 0.50552
#
# Static dielectric constant tensor:
#      x y z
#    x 1.640880 0.000000 0.000000 
#    y 0.000000 1.635200 0.000000 
#    z 0.000000 0.000000 1.599120 
# 
# From -- ./inp_files/6281.got.cif
#   From: 2010.05.17/outbox.cif.g08.bks.cpg/sg59_4_cif.got.tgz:6281.got - 2010.06.03 14:40:33.
