data_PCOD9452482
_publ_section_title
;
Structure prediction by ZEFSAII (Michael W. Deem and Ramdas Pophale) SiO2 
 PCOD9452482
Probable space group: P M M N
;
_chemical_formula_sum "Si O2"
_cell_formula_units_Z 64
_cell_length_a 25.293152
_cell_length_b 8.946877
_cell_length_c 14.896210
_cell_angle_alpha 90.000000
_cell_angle_beta 90.000000
_cell_angle_gamma 90.000000
_cell_volume 3370.933669
_symmetry_space_group_name_H-M "P M M N"
_symmetry_group_IT_number 59
_space_group.IT_coordinate_system_code '2'
_symmetry_cell_setting 'orthorhombic'
loop_
_space_group_symop_operation_xyz
x,y,z
1/2-x,1/2-y,z
1/2+x,-y,-z
-x,1/2+y,-z
-x,-y,-z
1/2+x,1/2+y,-z
1/2-x,y,z
x,1/2-y,z
loop_
_atom_site_type_symbol
_atom_site_label
_atom_site_fract_x
_atom_site_fract_y
_atom_site_fract_z
Si Si1 0.557298 0.071587 0.023454
Si Si2 0.986318 0.921419 0.720674
Si Si3 0.692164 0.929592 0.323229
Si Si4 0.811385 0.572526 0.703072
Si Si5 0.952515 0.076354 0.551917
Si Si6 0.833822 0.423810 0.510223
Si Si7 0.088700 0.429286 0.787032
Si Si8 0.606271 0.576017 0.857840
O O1 0.551620 0.250000 0.027874
O O2 0.578375 0.007228 0.117566
O O3 0.500000 0.000000 0.000000
O O4 0.598349 0.022877 0.945732
O O5 0.000723 0.750000 0.701375
O O6 0.951039 0.925989 0.809618
O O7 0.038435 0.020550 0.727912
O O8 0.948865 0.986448 0.644076
O O9 0.750000 0.969830 0.285392
O O10 0.689042 0.750000 0.329306
O O11 0.642792 0.977735 0.261951
O O12 0.688767 0.993448 0.423793
O O13 0.750000 0.552521 0.729127
O O14 0.821250 0.750000 0.689492
O O15 0.819788 0.492613 0.607255
O O16 0.850498 0.525154 0.783959
O O17 0.963724 0.250000 0.569092
O O18 0.897276 0.066094 0.501379
O O19 0.000000 0.000000 0.500000
O O20 0.818468 0.250000 0.509668
O O21 0.089016 0.250000 0.797679
O O22 0.617854 0.750000 0.880805
#
# Coordination Sequence:
#
# PCOD9452482 Si02
#       8
#     8   8   8   8   8   8   8   8
#     4  12  24  39  63  92 123 157 194 240 295 358
#     4  11  21  35  58  86 120 156 191 239 298 356
#     4  10  23  43  64  86 115 156 204 249 293 345
#     4  10  21  39  63  88 117 158 205 247 290 345
#     4  11  23  36  52  79 118 160 202 245 297 357
#     4  11  23  37  57  87 121 157 199 247 297 350
#     4  11  23  40  64  91 120 155 197 246 298 354
#     4  10  21  38  60  88 121 156 194 242 293 347
#
# _framework density 18.985838999999999
#
# number of rings (size 3 to 8) (size 9 to 14) (size 15 to 20)
#    0.000    1.250    2.500    3.750    0.000    7.500 
#    0.000    0.625    0.000    3.750    0.000    0.000 
#    0.000    0.000    0.000    0.000    0.000    0.000 
#
# Total GULP energy -357521.137183 kJ/mol
# GULP energy per Si atom -5586.267768 kJ/mol
# Density = 1.894263 g / cm^3
# Si number density = 18.985839 Si / 1000 Ang^3
#
#
#
# Elastic Constant Matrix: (Units=GPa)
#
#
# Indices 1 2 3 4 5 6 
#
# 1 115.3027 35.9421 44.7775 0.0000 0.0000 0.0000
# 2 35.9421 71.5208 35.2139 0.0000 0.0000 0.0000
# 3 44.7775 35.2139 89.3044 0.0000 0.0000 0.0000
# 4 0.0000 0.0000 0.0000 33.1205 0.0000 0.0000
# 5 0.0000 0.0000 0.0000 0.0000 17.0324 0.0000
# 6 0.0000 0.0000 0.0000 0.0000 0.0000 18.7306
#
#
#
# Elastic Compliance Matrix: (Units=1/GPa)
#
#
# Indices 1 2 3 4 5 6 
#
# 1 0.011488 -0.003645 -0.004323 0.000000 0.000000 0.000000
# 2 -0.003645 0.018507 -0.005470 0.000000 0.000000 0.000000
# 3 -0.004323 -0.005470 0.015522 0.000000 0.000000 0.000000
# 4 0.000000 0.000000 0.000000 0.030193 0.000000 0.000000
# 5 0.000000 0.000000 0.000000 0.000000 0.058712 0.000000
# 6 0.000000 0.000000 0.000000 0.000000 0.000000 0.053388
#
#
# Mechanical properties :
#
#
# Convention : Reuss Voigt Hill
#
# Bulk Modulus (GPa) = 53.64378 56.44385 55.04382
# Shear Modulus (GPa) = 22.63485 24.45633 23.54559
#
# Velocity S-wave (km/s) = 3.45657 3.59295 3.52542
# Velocity P-wave (km/s) = 6.65180 6.85612 6.75473
#
# Compressibility (1/GPa) = 0.01864149
#
# Stress axis : x y z
#
# Youngs Moduli (GPa) = 87.04969 54.03436 64.42452
#
# Poissons Ratio (x) = 0.19694 0.27850
# Poissons Ratio (y) = 0.31727 0.35240
# Poissons Ratio (z) = 0.37630 0.29557
#
# Static dielectric constant tensor:
#      x y z
#    x 1.674360 0.000000 0.000000 
#    y 0.000000 1.647850 0.000000 
#    z 0.000000 0.000000 1.663600 
# 
# From -- ./inp_files/24749.got.cif
#   From: 2010.05.17/outbox.cif.g08.bks.cpg/sg59_13_cif.got.tgz:24749.got - 2010.06.03 14:40:33.
