data_PCOD9452815
_publ_section_title
;
Structure prediction by ZEFSAII (Michael W. Deem and Ramdas Pophale) SiO2 
 PCOD9452815
Probable space group: P M M N
;
_chemical_formula_sum "Si O2"
_cell_formula_units_Z 64
_cell_length_a 8.460498
_cell_length_b 31.647549
_cell_length_c 12.122237
_cell_angle_alpha 90.000000
_cell_angle_beta 90.000000
_cell_angle_gamma 90.000000
_cell_volume 3245.777749
_symmetry_space_group_name_H-M "P M M N"
_symmetry_group_IT_number 59
_space_group.IT_coordinate_system_code '2'
_symmetry_cell_setting 'orthorhombic'
loop_
_space_group_symop_operation_xyz
x,y,z
1/2-x,1/2-y,z
1/2+x,-y,-z
-x,1/2+y,-z
-x,-y,-z
1/2+x,1/2+y,-z
1/2-x,y,z
x,1/2-y,z
loop_
_atom_site_type_symbol
_atom_site_label
_atom_site_fract_x
_atom_site_fract_y
_atom_site_fract_z
Si Si1 0.065873 0.460667 0.232999
Si Si2 0.936240 0.950702 0.228314
Si Si3 0.058634 0.375131 0.607745
Si Si4 0.057552 0.297726 0.759841
Si Si5 0.061141 0.621102 0.640338
Si Si6 0.439194 0.333873 0.998549
Si Si7 0.065684 0.571451 0.990731
Si Si8 0.559187 0.296940 0.221783
O O1 0.250000 0.468422 0.250204
O O2 0.970754 0.502150 0.269150
O O3 0.013672 0.418788 0.297502
O O4 0.031285 0.452234 0.103993
O O5 0.750000 0.944970 0.207089
O O6 0.985204 0.915001 0.315634
O O7 0.024951 0.944237 0.112804
O O8 0.250000 0.374780 0.599256
O O9 0.007351 0.332441 0.670663
O O10 0.987318 0.378469 0.486889
O O11 0.250000 0.297234 0.758345
O O12 0.002417 0.250000 0.739048
O O13 0.012598 0.313301 0.882219
O O14 0.250000 0.618089 0.650940
O O15 0.009155 0.664739 0.699063
O O16 0.250000 0.340242 0.996433
O O17 0.521367 0.379120 0.013435
O O18 0.486321 0.305192 0.101713
O O19 0.250000 0.565574 0.966553
O O20 0.750000 0.298664 0.212419
O O21 0.515739 0.250000 0.261691
#
# Coordination Sequence:
#
# PCOD9452815 Si02
#       8
#     8   8   8   8   8   8   8   8
#     4  12  25  42  65  93 123 159 203 252 306 367
#     4  11  23  42  65  92 125 162 204 251 305 364
#     4  10  22  41  63  88 120 161 207 256 304 355
#     4   9  18  35  60  91 125 159 199 249 303 356
#     4  11  24  42  63  88 121 163 207 256 308 360
#     4  11  20  35  61  93 125 163 204 250 304 365
#     4  12  23  38  62  93 128 164 200 246 307 369
#     4  10  22  40  61  88 125 165 203 250 307 365
#
# _framework density 19.717924
#
# number of rings (size 3 to 8) (size 9 to 14) (size 15 to 20)
#    0.000    1.250    2.500    4.125    0.000    3.250 
#    0.000    0.000    0.000    1.500    0.000    0.000 
#    0.000    0.000    0.000    0.000    0.000    0.000 
#
# Total GULP energy -357917.845180 kJ/mol
# GULP energy per Si atom -5592.466331 kJ/mol
# Density = 1.967305 g / cm^3
# Si number density = 19.717924 Si / 1000 Ang^3
#
#
#
# Elastic Constant Matrix: (Units=GPa)
#
#
# Indices 1 2 3 4 5 6 
#
# 1 19.0829 -4.2696 -0.9751 0.0000 0.0000 0.0000
# 2 -4.2696 102.1526 17.5400 0.0000 0.0000 0.0000
# 3 -0.9751 17.5400 91.6130 0.0000 0.0000 0.0000
# 4 0.0000 0.0000 0.0000 -12.7402 0.0000 0.0000
# 5 0.0000 0.0000 0.0000 0.0000 24.8895 0.0000
# 6 0.0000 0.0000 0.0000 0.0000 0.0000 21.1170
#
#
#
# Elastic Compliance Matrix: (Units=1/GPa)
#
#
# Indices 1 2 3 4 5 6 
#
# 1 0.052900 0.002186 0.000144 0.000000 0.000000 0.000000
# 2 0.002186 0.010212 -0.001932 0.000000 0.000000 0.000000
# 3 0.000144 -0.001932 0.011287 0.000000 0.000000 0.000000
# 4 0.000000 0.000000 0.000000 -0.078492 0.000000 0.000000
# 5 0.000000 0.000000 0.000000 0.000000 0.040178 0.000000
# 6 0.000000 0.000000 0.000000 0.000000 0.000000 0.047355
#
#
# Mechanical properties :
#
#
# Convention : Reuss Voigt Hill
#
# Bulk Modulus (GPa) = 13.29855 26.38213 19.84034
# Shear Modulus (GPa) = 46.42176 20.02346 33.22261
#
# Velocity S-wave (km/s) = 4.85737 3.19014 4.10920
# Velocity P-wave (km/s) = 6.18205 5.19405 5.70946
#
# Compressibility (1/GPa) = 0.07519619
#
# Stress axis : x y z
#
# Youngs Moduli (GPa) = 18.90377 97.92036 88.59816
#
# Poissons Ratio (x) = -0.21407 -0.01280
# Poissons Ratio (y) = -0.04133 0.17117
# Poissons Ratio (z) = -0.00273 0.18918
#
# Static dielectric constant tensor:
#      x y z
#    x 1.654820 0.000000 0.000000 
#    y 0.000000 1.700370 0.000000 
#    z 0.000000 0.000000 1.653670 
# 
# From -- ./inp_files/15055.got.cif
#   From: 2010.05.17/outbox.cif.g08.bks.cpg/sg59_8_cif.got.tgz:15055.got - 2010.06.03 14:40:33.
