data_PCOD9452351
_publ_section_title
;
Structure prediction by ZEFSAII (Michael W. Deem and Ramdas Pophale) SiO2 
 PCOD9452351
Probable space group: P M M N
;
_chemical_formula_sum "Si O2"
_cell_formula_units_Z 48
_cell_length_a 8.802378
_cell_length_b 14.800396
_cell_length_c 19.974622
_cell_angle_alpha 90.000000
_cell_angle_beta 90.000000
_cell_angle_gamma 90.000000
_cell_volume 2602.267390
_symmetry_space_group_name_H-M "P M M N"
_symmetry_group_IT_number 59
_space_group.IT_coordinate_system_code '2'
_symmetry_cell_setting 'orthorhombic'
loop_
_space_group_symop_operation_xyz
x,y,z
1/2-x,1/2-y,z
1/2+x,-y,-z
-x,1/2+y,-z
-x,-y,-z
1/2+x,1/2+y,-z
1/2-x,y,z
x,1/2-y,z
loop_
_atom_site_type_symbol
_atom_site_label
_atom_site_fract_x
_atom_site_fract_y
_atom_site_fract_z
Si Si1 0.432361 0.061339 0.320255
Si Si2 0.568832 0.983712 0.833164
Si Si3 0.929517 0.142668 0.053865
Si Si4 0.930334 0.250000 0.528960
Si Si5 0.430232 0.750000 0.631918
Si Si6 0.432136 0.057194 0.562017
Si Si7 0.068914 0.144338 0.910425
O O1 0.250000 0.058365 0.328823
O O2 0.493299 0.160461 0.338704
O O3 0.469392 0.038456 0.243448
O O4 0.509700 0.991054 0.370843
O O5 0.750000 0.980080 0.840386
O O6 0.508702 0.081099 0.855977
O O7 0.495114 0.912562 0.884250
O O8 0.750000 0.125857 0.047332
O O9 0.953144 0.250000 0.063974
O O10 0.010355 0.117444 0.984237
O O11 0.750000 0.250000 0.543123
O O12 0.949395 0.250000 0.448423
O O13 0.006576 0.340883 0.556574
O O14 0.250000 0.750000 0.645993
O O15 0.250000 0.055267 0.558505
O O16 0.500000 0.000000 0.500000
O O17 0.250000 0.133878 0.907876
O O18 0.031195 0.250000 0.901073
#
# Coordination Sequence:
#
# PCOD9452351 Si02
#       7
#     8   8   8   4   4   8   8
#     4  11  25  43  63  90 126 166 203 248 305 366
#     4  11  24  40  60  87 121 162 200 244 301 361
#     4  10  21  37  60  90 121 157 199 248 299 355
#     4  11  23  41  67  97 124 159 204 255 308 362
#     4  11  23  39  65  95 124 161 200 249 304 362
#     4  12  24  41  66  95 125 162 206 255 304 361
#     4  10  21  39  63  88 116 155 201 253 302 354
#
# _framework density 18.445453000000001
#
# number of rings (size 3 to 8) (size 9 to 14) (size 15 to 20)
#    0.000    1.167    1.667    4.500    1.167    5.333 
#    1.500    0.000    0.000    0.000    0.000    0.000 
#    0.000    0.000    0.000    0.000    0.000    0.000 
#
# Total GULP energy -268512.503813 kJ/mol
# GULP energy per Si atom -5594.010496 kJ/mol
# Density = 1.840347 g / cm^3
# Si number density = 18.445453 Si / 1000 Ang^3
#
#
#
# Elastic Constant Matrix: (Units=GPa)
#
#
# Indices 1 2 3 4 5 6 
#
# 1 90.9270 58.6856 57.9860 0.0000 0.0000 0.0000
# 2 58.6856 135.5316 69.3841 0.0000 0.0000 0.0000
# 3 57.9860 69.3841 104.1540 0.0000 0.0000 0.0000
# 4 0.0000 0.0000 0.0000 -15.9153 0.0000 0.0000
# 5 0.0000 0.0000 0.0000 0.0000 32.5618 0.0000
# 6 0.0000 0.0000 0.0000 0.0000 0.0000 36.2161
#
#
#
# Elastic Compliance Matrix: (Units=1/GPa)
#
#
# Indices 1 2 3 4 5 6 
#
# 1 0.018471 -0.004148 -0.007520 0.000000 0.000000 0.000000
# 2 -0.004148 0.012129 -0.005770 0.000000 0.000000 0.000000
# 3 -0.007520 -0.005770 0.017632 0.000000 0.000000 0.000000
# 4 0.000000 0.000000 0.000000 -0.062833 0.000000 0.000000
# 5 0.000000 0.000000 0.000000 0.000000 0.030711 0.000000
# 6 0.000000 0.000000 0.000000 0.000000 0.000000 0.027612
#
#
# Mechanical properties :
#
#
# Convention : Reuss Voigt Hill
#
# Bulk Modulus (GPa) = 74.88179 78.08045 76.48112
# Shear Modulus (GPa) = 60.20527 20.20964 40.20745
#
# Velocity S-wave (km/s) = 5.71931 3.31364 4.67390
# Velocity P-wave (km/s) = 9.18142 7.55398 8.40717
#
# Compressibility (1/GPa) = 0.01335438
#
# Stress axis : x y z
#
# Youngs Moduli (GPa) = 54.13979 82.45032 56.71606
#
# Poissons Ratio (x) = 0.34201 0.42650
# Poissons Ratio (y) = 0.22458 0.32726
# Poissons Ratio (z) = 0.40713 0.47576
#
# Static dielectric constant tensor:
#      x y z
#    x 1.613880 0.000000 0.000000 
#    y 0.000000 1.624830 0.000000 
#    z 0.000000 0.000000 1.599400 
# 
# From -- ./inp_files/25560.got.cif
#   From: 2010.05.17/outbox.cif.g08.bks.cpg/sg59_13_cif.got.tgz:25560.got - 2010.06.03 14:40:33.
