data_PCOD9452952
_publ_section_title
;
Structure prediction by ZEFSAII (Michael W. Deem and Ramdas Pophale) SiO2 
 PCOD9452952
Probable space group: P M M N
;
_chemical_formula_sum "Si O2"
_cell_formula_units_Z 40
_cell_length_a 24.983064
_cell_length_b 8.810021
_cell_length_c 8.425929
_cell_angle_alpha 90.000000
_cell_angle_beta 90.000000
_cell_angle_gamma 90.000000
_cell_volume 1854.558082
_symmetry_space_group_name_H-M "P M M N"
_symmetry_group_IT_number 59
_space_group.IT_coordinate_system_code '2'
_symmetry_cell_setting 'orthorhombic'
loop_
_space_group_symop_operation_xyz
x,y,z
1/2-x,1/2-y,z
1/2+x,-y,-z
-x,1/2+y,-z
-x,-y,-z
1/2+x,1/2+y,-z
1/2-x,y,z
x,1/2-y,z
loop_
_atom_site_type_symbol
_atom_site_label
_atom_site_fract_x
_atom_site_fract_y
_atom_site_fract_z
Si Si1 0.517541 0.426953 0.339549
Si Si2 0.687532 0.572361 0.648338
Si Si3 0.134283 0.432749 0.685703
Si Si4 0.664933 0.422556 0.992723
Si Si5 0.956044 0.422319 0.891669
O O1 0.500000 0.500000 0.500000
O O2 0.528984 0.250000 0.338650
O O3 0.572991 0.509946 0.291855
O O4 0.461724 0.460457 0.248990
O O5 0.750000 0.561143 0.603366
O O6 0.673844 0.750000 0.670529
O O7 0.654807 0.516949 0.491163
O O8 0.682580 0.494880 0.823197
O O9 0.135498 0.250000 0.689291
O O10 0.169521 0.493000 0.836621
O O11 0.685437 0.250000 0.004916
O O12 0.601142 0.415394 0.967560
O O13 0.971516 0.250000 0.846360
O O14 0.000000 0.500000 0.000000
#
# Coordination Sequence:
#
# PCOD9452952 Si02
#       5
#     8   8   8   8   8
#     4  12  24  38  58  88 127 169 215 262 314 379
#     4  10  24  46  69  94 124 163 215 272 328 389
#     4  11  23  41  67  95 127 168 215 267 325 386
#     4  11  24  41  65  98 133 170 213 264 324 389
#     4  11  22  37  59  89 127 167 207 253 308 373
#
# _framework density 21.568477999999999
#
# number of rings (size 3 to 8) (size 9 to 14) (size 15 to 20)
#    0.000    1.000    2.000    4.800    0.000    8.400 
#    0.000    2.000    0.000    0.000    0.000    0.000 
#    0.000    0.000    0.000    0.000    0.000    0.000 
#
# Total GULP energy -222683.257897 kJ/mol
# GULP energy per Si atom -5567.081447 kJ/mol
# Density = 2.151939 g / cm^3
# Si number density = 21.568478 Si / 1000 Ang^3
#
#
#
# Elastic Constant Matrix: (Units=GPa)
#
#
# Indices 1 2 3 4 5 6 
#
# 1 60.2958 19.1620 17.0468 0.0000 0.0000 0.0000
# 2 19.1620 113.3129 44.4865 0.0000 0.0000 0.0000
# 3 17.0468 44.4865 138.4477 0.0000 0.0000 0.0000
# 4 0.0000 0.0000 0.0000 33.9956 0.0000 0.0000
# 5 0.0000 0.0000 0.0000 0.0000 29.9333 0.0000
# 6 0.0000 0.0000 0.0000 0.0000 0.0000 10.2230
#
#
#
# Elastic Compliance Matrix: (Units=1/GPa)
#
#
# Indices 1 2 3 4 5 6 
#
# 1 0.017760 -0.002454 -0.001398 0.000000 0.000000 0.000000
# 2 -0.002454 0.010438 -0.003052 0.000000 0.000000 0.000000
# 3 -0.001398 -0.003052 0.008376 0.000000 0.000000 0.000000
# 4 0.000000 0.000000 0.000000 0.029416 0.000000 0.000000
# 5 0.000000 0.000000 0.000000 0.000000 0.033408 0.000000
# 6 0.000000 0.000000 0.000000 0.000000 0.000000 0.097819
#
#
# Mechanical properties :
#
#
# Convention : Reuss Voigt Hill
#
# Bulk Modulus (GPa) = 43.92635 52.60523 48.26579
# Shear Modulus (GPa) = 22.87138 30.25445 26.56292
#
# Velocity S-wave (km/s) = 3.25992 3.74935 3.51317
# Velocity P-wave (km/s) = 5.88045 6.57163 6.23562
#
# Compressibility (1/GPa) = 0.02276538
#
# Stress axis : x y z
#
# Youngs Moduli (GPa) = 56.30566 95.80058 119.39269
#
# Poissons Ratio (x) = 0.23514 0.16692
# Poissons Ratio (y) = 0.13820 0.36437
# Poissons Ratio (z) = 0.07872 0.29237
#
# Static dielectric constant tensor:
#      x y z
#    x 1.729980 0.000000 0.000000 
#    y 0.000000 1.756610 0.000000 
#    z 0.000000 0.000000 1.668020 
# 
# From -- ./inp_files/5846.got.cif
#   From: 2010.05.17/outbox.cif.g08.bks.cpg/sg59_3_cif.got.tgz:5846.got - 2010.06.03 14:40:33.
