data_PCOD9452153
_publ_section_title
;
Structure prediction by ZEFSAII (Michael W. Deem and Ramdas Pophale) SiO2 
 PCOD9452153
Probable space group: P M M N
;
_chemical_formula_sum "Si O2"
_cell_formula_units_Z 56
_cell_length_a 8.651825
_cell_length_b 14.672663
_cell_length_c 23.327451
_cell_angle_alpha 90.000000
_cell_angle_beta 90.000000
_cell_angle_gamma 90.000000
_cell_volume 2961.310558
_symmetry_space_group_name_H-M "P M M N"
_symmetry_group_IT_number 59
_space_group.IT_coordinate_system_code '2'
_symmetry_cell_setting 'orthorhombic'
loop_
_space_group_symop_operation_xyz
x,y,z
1/2-x,1/2-y,z
1/2+x,-y,-z
-x,1/2+y,-z
-x,-y,-z
1/2+x,1/2+y,-z
1/2-x,y,z
x,1/2-y,z
loop_
_atom_site_type_symbol
_atom_site_label
_atom_site_fract_x
_atom_site_fract_y
_atom_site_fract_z
Si Si1 0.563298 0.144721 0.029866
Si Si2 0.065339 0.853258 0.646867
Si Si3 0.068219 0.094450 0.476665
Si Si4 0.434963 0.529997 0.306122
Si Si5 0.063168 0.356050 0.800015
Si Si6 0.930967 0.151811 0.589109
Si Si7 0.563071 0.955049 0.082523
O O1 0.750000 0.146714 0.029233
O O2 0.511449 0.250000 0.040511
O O3 0.503846 0.106652 0.968864
O O4 0.517410 0.061584 0.072975
O O5 0.250000 0.860726 0.648295
O O6 0.020161 0.750000 0.661202
O O7 0.009693 0.873771 0.582018
O O8 0.993723 0.927081 0.689652
O O9 0.250000 0.087854 0.466599
O O10 0.027941 0.155144 0.531407
O O11 0.000000 0.000000 0.500000
O O12 0.250000 0.532669 0.304243
O O13 0.501329 0.589254 0.254587
O O14 0.483815 0.575932 0.366501
O O15 0.250000 0.356076 0.798143
O O16 0.012671 0.250000 0.800954
O O17 0.015508 0.410349 0.857391
O O18 0.750000 0.136041 0.574203
O O19 0.939493 0.250000 0.618965
O O20 0.750000 0.951535 0.079052
#
# Coordination Sequence:
#
# PCOD9452153 Si02
#       7
#     8   8   8   8   8   8   8
#     4   9  17  30  51  81 115 149 187 235 287 336
#     4  11  24  42  63  85 111 145 184 228 280 339
#     4  12  23  36  57  84 113 146 182 223 276 333
#     4  11  23  39  60  83 110 145 185 232 280 329
#     4  10  21  37  57  81 112 150 190 232 279 335
#     4  10  21  37  56  80 110 142 176 220 277 335
#     4   9  18  33  53  79 113 153 194 234 279 333
#
# _framework density 18.910547000000001
#
# number of rings (size 3 to 8) (size 9 to 14) (size 15 to 20)
#    0.000    1.714    1.429    3.429    0.000    6.000 
#    0.000    0.714    0.000    2.571    0.000    0.000 
#    0.000    0.000    0.000    0.000    0.000    0.000 
#
# Total GULP energy -312494.421052 kJ/mol
# GULP energy per Si atom -5580.257519 kJ/mol
# Density = 1.886751 g / cm^3
# Si number density = 18.910547 Si / 1000 Ang^3
#
#
#
# Elastic Constant Matrix: (Units=GPa)
#
#
# Indices 1 2 3 4 5 6 
#
# 1 16.3835 28.6406 19.1908 0.0000 0.0000 0.0000
# 2 28.6406 192.5780 73.3113 0.0000 0.0000 0.0000
# 3 19.1908 73.3113 102.4144 0.0000 0.0000 0.0000
# 4 0.0000 0.0000 0.0000 26.7019 0.0000 0.0000
# 5 0.0000 0.0000 0.0000 0.0000 26.7115 0.0000
# 6 0.0000 0.0000 0.0000 0.0000 0.0000 21.0781
#
#
#
# Elastic Compliance Matrix: (Units=1/GPa)
#
#
# Indices 1 2 3 4 5 6 
#
# 1 0.089269 -0.009496 -0.009930 0.000000 0.000000 0.000000
# 2 -0.009496 0.008148 -0.004053 0.000000 0.000000 0.000000
# 3 -0.009930 -0.004053 0.014526 0.000000 0.000000 0.000000
# 4 0.000000 0.000000 0.000000 0.037451 0.000000 0.000000
# 5 0.000000 0.000000 0.000000 0.000000 0.037437 0.000000
# 6 0.000000 0.000000 0.000000 0.000000 0.000000 0.047443
#
#
# Mechanical properties :
#
#
# Convention : Reuss Voigt Hill
#
# Bulk Modulus (GPa) = 15.38822 61.51790 38.45306
# Shear Modulus (GPa) = 16.50747 27.58051 22.04399
#
# Velocity S-wave (km/s) = 2.95773 3.82314 3.41794
# Velocity P-wave (km/s) = 4.45189 7.21735 5.99622
#
# Compressibility (1/GPa) = 0.06498477
#
# Stress axis : x y z
#
# Youngs Moduli (GPa) = 11.20212 122.73035 68.84065
#
# Poissons Ratio (x) = 1.16546 0.68358
# Poissons Ratio (y) = 0.10638 0.27902
# Poissons Ratio (z) = 0.11124 0.49744
#
# Static dielectric constant tensor:
#      x y z
#    x 1.683470 0.000000 0.000000 
#    y 0.000000 1.753180 0.000000 
#    z 0.000000 0.000000 1.652580 
# 
# From -- ./inp_files/29173.got.cif
#   From: 2010.05.17/outbox.cif.g08.bks.cpg/sg59_15_cif.got.tgz:29173.got - 2010.06.03 14:40:33.
