data_PCOD9452102
_publ_section_title
;
Structure prediction by ZEFSAII (Michael W. Deem and Ramdas Pophale) SiO2 
 PCOD9452102
Probable space group: P M M N
;
_chemical_formula_sum "Si O2"
_cell_formula_units_Z 56
_cell_length_a 24.955506
_cell_length_b 21.196275
_cell_length_c 5.049503
_cell_angle_alpha 90.000000
_cell_angle_beta 90.000000
_cell_angle_gamma 90.000000
_cell_volume 2671.004133
_symmetry_space_group_name_H-M "P M M N"
_symmetry_group_IT_number 59
_space_group.IT_coordinate_system_code '2'
_symmetry_cell_setting 'orthorhombic'
loop_
_space_group_symop_operation_xyz
x,y,z
1/2-x,1/2-y,z
1/2+x,-y,-z
-x,1/2+y,-z
-x,-y,-z
1/2+x,1/2+y,-z
1/2-x,y,z
x,1/2-y,z
loop_
_atom_site_type_symbol
_atom_site_label
_atom_site_fract_x
_atom_site_fract_y
_atom_site_fract_z
Si Si1 0.809626 0.818498 0.845293
Si Si2 0.188613 0.448929 0.824999
Si Si3 0.483836 0.323513 0.765938
Si Si4 0.104903 0.947098 0.836574
Si Si5 0.109026 0.117533 0.466804
Si Si6 0.446556 0.000494 0.324653
Si Si7 0.557003 0.176952 0.269550
O O1 0.750000 0.819662 0.714263
O O2 0.811904 0.750000 0.987791
O O3 0.861843 0.823423 0.662649
O O4 0.812531 0.883789 0.006812
O O5 0.250000 0.466332 0.783372
O O6 0.158394 0.424906 0.564521
O O7 0.154966 0.509542 0.925796
O O8 0.470934 0.250000 0.718188
O O9 0.430940 0.363000 0.701761
O O10 0.529864 0.340408 0.550361
O O11 0.509482 0.328368 0.053878
O O12 0.057605 0.966589 0.042606
O O13 0.092939 0.967569 0.535858
O O14 0.102978 0.871564 0.820471
O O15 0.073378 0.072071 0.284979
O O16 0.500000 0.000000 0.500000
O O17 0.574138 0.250000 0.278231
#
# Coordination Sequence:
#
# PCOD9452102 Si02
#       7
#     8   8   8   8   8   8   8
#     4  10  21  37  55  75 104 144 193 242 286 333
#     4  10  23  40  57  81 113 150 198 248 297 341
#     4  10  22  36  56  85 121 155 188 233 285 347
#     4  11  21  38  58  84 111 153 190 235 293 348
#     4  11  21  35  55  79 110 150 193 237 286 337
#     4  11  22  34  56  84 117 146 189 233 286 344
#     4  10  21  38  58  85 119 153 188 231 287 352
#
# _framework density 20.965896999999998
#
# number of rings (size 3 to 8) (size 9 to 14) (size 15 to 20)
#    0.000    1.571    1.429    3.857    2.000    2.286 
#    0.000    1.429    0.000    0.429    0.000    0.000 
#    0.000    6.000    0.000    0.000    0.000    1.000 
#
# Total GULP energy -312332.111578 kJ/mol
# GULP energy per Si atom -5577.359135 kJ/mol
# Density = 2.091818 g / cm^3
# Si number density = 20.965897 Si / 1000 Ang^3
#
#
#
# Elastic Constant Matrix: (Units=GPa)
#
#
# Indices 1 2 3 4 5 6 
#
# 1 83.2161 64.4846 -3.4295 0.0000 0.0000 0.0000
# 2 64.4846 130.0427 15.2909 0.0000 0.0000 0.0000
# 3 -3.4295 15.2909 65.6698 0.0000 0.0000 0.0000
# 4 0.0000 0.0000 0.0000 22.7822 0.0000 0.0000
# 5 0.0000 0.0000 0.0000 0.0000 19.5728 0.0000
# 6 0.0000 0.0000 0.0000 0.0000 0.0000 30.4299
#
#
#
# Elastic Compliance Matrix: (Units=1/GPa)
#
#
# Indices 1 2 3 4 5 6 
#
# 1 0.020267 -0.010461 0.003494 0.000000 0.000000 0.000000
# 2 -0.010461 0.013305 -0.003644 0.000000 0.000000 0.000000
# 3 0.003494 -0.003644 0.016259 0.000000 0.000000 0.000000
# 4 0.000000 0.000000 0.000000 0.043894 0.000000 0.000000
# 5 0.000000 0.000000 0.000000 0.000000 0.051091 0.000000
# 6 0.000000 0.000000 0.000000 0.000000 0.000000 0.032862
#
#
# Mechanical properties :
#
#
# Convention : Reuss Voigt Hill
#
# Bulk Modulus (GPa) = 34.95374 47.95786 41.45580
# Shear Modulus (GPa) = 23.98804 28.06248 26.02526
#
# Velocity S-wave (km/s) = 3.38619 3.66250 3.52705
# Velocity P-wave (km/s) = 5.65653 6.38820 6.03346
#
# Compressibility (1/GPa) = 0.02860924
#
# Stress axis : x y z
#
# Youngs Moduli (GPa) = 49.34141 75.15707 61.50537
#
# Poissons Ratio (x) = 0.78619 -0.21491
# Poissons Ratio (y) = 0.51614 0.22415
# Poissons Ratio (z) = -0.17240 0.27390
#
# Static dielectric constant tensor:
#      x y z
#    x 1.775650 0.000000 0.000000 
#    y 0.000000 1.813380 0.000000 
#    z 0.000000 0.000000 1.810700 
# 
# From -- ./inp_files/3432.got.cif
#   From: 2010.05.17/outbox.cif.g08.bks.cpg/sg59_2_cif.got.tgz:3432.got - 2010.06.03 14:40:33.
