data_PCOD9452907
_publ_section_title
;
Structure prediction by ZEFSAII (Michael W. Deem and Ramdas Pophale) SiO2 
 PCOD9452907
Probable space group: P M M N
;
_chemical_formula_sum "Si O2"
_cell_formula_units_Z 48
_cell_length_a 8.671626
_cell_length_b 31.394575
_cell_length_c 9.311072
_cell_angle_alpha 90.000000
_cell_angle_beta 90.000000
_cell_angle_gamma 90.000000
_cell_volume 2534.864983
_symmetry_space_group_name_H-M "P M M N"
_symmetry_group_IT_number 59
_space_group.IT_coordinate_system_code '2'
_symmetry_cell_setting 'orthorhombic'
loop_
_space_group_symop_operation_xyz
x,y,z
1/2-x,1/2-y,z
1/2+x,-y,-z
-x,1/2+y,-z
-x,-y,-z
1/2+x,1/2+y,-z
1/2-x,y,z
x,1/2-y,z
loop_
_atom_site_type_symbol
_atom_site_label
_atom_site_fract_x
_atom_site_fract_y
_atom_site_fract_z
Si Si1 0.935753 0.960411 0.910184
Si Si2 0.435787 0.799175 0.581048
Si Si3 0.434747 0.379540 0.580715
Si Si4 0.064460 0.123057 0.912135
Si Si5 0.935712 0.298194 0.084518
Si Si6 0.565867 0.039902 0.411427
O O1 0.750000 0.962134 0.906600
O O2 0.000349 0.961114 0.749546
O O3 0.983799 0.917037 0.991074
O O4 0.000000 0.000000 0.000000
O O5 0.250000 0.803561 0.569050
O O6 0.474192 0.750000 0.545757
O O7 0.517098 0.833981 0.483307
O O8 0.477381 0.806412 0.748638
O O9 0.250000 0.384620 0.572936
O O10 0.484055 0.382504 0.747029
O O11 0.512805 0.416774 0.488754
O O12 0.250000 0.124445 0.913271
O O13 0.002643 0.166264 0.981310
O O14 0.750000 0.299248 0.077358
O O15 0.985594 0.250000 0.048244
O O16 0.750000 0.037483 0.407433
O O17 0.500000 0.000000 0.500000
#
# Coordination Sequence:
#
# PCOD9452907 Si02
#       6
#     8   8   8   8   8   8
#     4  11  23  41  64  90 120 156 197 241 292 349
#     4   9  19  37  59  84 115 152 196 244 294 350
#     4  11  23  39  58  85 120 155 195 241 291 350
#     4  10  23  39  56  82 117 153 190 235 285 342
#     4   9  19  36  58  83 111 146 191 240 288 342
#     4  12  25  42  64  90 119 153 195 243 296 353
#
# _framework density 18.935919999999999
#
# number of rings (size 3 to 8) (size 9 to 14) (size 15 to 20)
#    0.000    1.667    0.000    5.500    0.000    8.667 
#    0.000    5.000    0.000    0.000    0.000    0.000 
#    0.000    0.000    0.000    0.000    0.000    0.000 
#
# Total GULP energy -268352.014786 kJ/mol
# GULP energy per Si atom -5590.666975 kJ/mol
# Density = 1.889282 g / cm^3
# Si number density = 18.935920 Si / 1000 Ang^3
#
#
#
# Elastic Constant Matrix: (Units=GPa)
#
#
# Indices 1 2 3 4 5 6 
#
# 1 64.1974 48.4737 57.9299 0.0000 0.0000 0.0000
# 2 48.4737 144.0998 113.5868 0.0000 0.0000 0.0000
# 3 57.9299 113.5868 185.4156 0.0000 0.0000 0.0000
# 4 0.0000 0.0000 0.0000 42.4585 0.0000 0.0000
# 5 0.0000 0.0000 0.0000 0.0000 34.3487 0.0000
# 6 0.0000 0.0000 0.0000 0.0000 0.0000 38.2284
#
#
#
# Elastic Compliance Matrix: (Units=1/GPa)
#
#
# Indices 1 2 3 4 5 6 
#
# 1 0.022813 -0.003975 -0.004692 0.000000 0.000000 0.000000
# 2 -0.003975 0.014113 -0.007404 0.000000 0.000000 0.000000
# 3 -0.004692 -0.007404 0.011395 0.000000 0.000000 0.000000
# 4 0.000000 0.000000 0.000000 0.023552 0.000000 0.000000
# 5 0.000000 0.000000 0.000000 0.000000 0.029113 0.000000
# 6 0.000000 0.000000 0.000000 0.000000 0.000000 0.026159
#
#
# Mechanical properties :
#
#
# Convention : Reuss Voigt Hill
#
# Bulk Modulus (GPa) = 61.81190 92.63263 77.22226
# Shear Modulus (GPa) = 30.36211 34.58861 32.47536
#
# Velocity S-wave (km/s) = 4.00861 4.27853 4.14576
# Velocity P-wave (km/s) = 7.35791 8.56930 7.98660
#
# Compressibility (1/GPa) = 0.01617812
#
# Stress axis : x y z
#
# Youngs Moduli (GPa) = 43.83530 70.85787 87.76029
#
# Poissons Ratio (x) = 0.28169 0.41178
# Poissons Ratio (y) = 0.17426 0.64973
# Poissons Ratio (z) = 0.20568 0.52460
#
# Static dielectric constant tensor:
#      x y z
#    x 1.641330 0.000000 0.000000 
#    y 0.000000 1.631180 0.000000 
#    z 0.000000 0.000000 1.632390 
# 
# From -- ./inp_files/6219.got.cif
#   From: 2010.05.17/outbox.cif.g08.bks.cpg/sg59_4_cif.got.tgz:6219.got - 2010.06.03 14:40:33.
