data_PCOD9452688
_publ_section_title
;
Structure prediction by ZEFSAII (Michael W. Deem and Ramdas Pophale) SiO2 
 PCOD9452688
Probable space group: P M M N
;
_chemical_formula_sum "Si O2"
_cell_formula_units_Z 64
_cell_length_a 17.430666
_cell_length_b 19.595021
_cell_length_c 10.261925
_cell_angle_alpha 90.000000
_cell_angle_beta 90.000000
_cell_angle_gamma 90.000000
_cell_volume 3505.004264
_symmetry_space_group_name_H-M "P M M N"
_symmetry_group_IT_number 59
_space_group.IT_coordinate_system_code '2'
_symmetry_cell_setting 'orthorhombic'
loop_
_space_group_symop_operation_xyz
x,y,z
1/2-x,1/2-y,z
1/2+x,-y,-z
-x,1/2+y,-z
-x,-y,-z
1/2+x,1/2+y,-z
1/2-x,y,z
x,1/2-y,z
loop_
_atom_site_type_symbol
_atom_site_label
_atom_site_fract_x
_atom_site_fract_y
_atom_site_fract_z
Si Si1 0.509090 0.172498 0.568979
Si Si2 0.891527 0.671315 0.639136
Si Si3 0.839528 0.171095 0.704650
Si Si4 0.166258 0.467509 0.462471
Si Si5 0.445085 0.463052 0.688256
Si Si6 0.340255 0.327146 0.076830
Si Si7 0.111226 0.968438 0.202631
Si Si8 0.659492 0.538126 0.065810
O O1 0.491200 0.250000 0.611692
O O2 0.475810 0.165636 0.423844
O O3 0.600214 0.163423 0.585490
O O4 0.465215 0.116121 0.654549
O O5 0.865001 0.750000 0.620516
O O6 0.843193 0.613413 0.565901
O O7 0.887269 0.657544 0.792400
O O8 0.750000 0.159631 0.673924
O O9 0.846276 0.250000 0.750407
O O10 0.870375 0.112510 0.801093
O O11 0.250000 0.480636 0.521804
O O12 0.095407 0.489584 0.555371
O O13 0.162126 0.502606 0.321290
O O14 0.526416 0.487567 0.745061
O O15 0.384774 0.476090 0.802151
O O16 0.250000 0.331995 0.114580
O O17 0.355560 0.250000 0.035077
O O18 0.353565 0.382185 0.966810
O O19 0.128882 0.999590 0.062529
O O20 0.750000 0.525440 0.077203
#
# Coordination Sequence:
#
# PCOD9452688 Si02
#       8
#     8   8   8   8   8   8   8   8
#     4   8  16  30  48  71 102 136 168 207 256 305
#     4   9  16  28  47  73 105 139 173 208 243 288
#     4   9  17  31  52  77  99 121 160 216 266 305
#     4  11  20  33  53  79 105 135 173 213 252 299
#     4  10  22  35  50  74 108 138 168 210 263 305
#     4   9  17  29  47  72 102 137 176 210 238 279
#     4  11  21  36  55  75 101 135 174 210 253 312
#     4  11  21  35  53  76 104 137 174 214 252 298
#
# _framework density 18.259606999999999
#
# number of rings (size 3 to 8) (size 9 to 14) (size 15 to 20)
#    0.000    2.250    1.250    2.625    0.000    1.250 
#    0.000    0.000    0.000    2.250    0.000    0.875 
#    0.000    4.000    0.000    0.000    0.000    0.000 
#
# Total GULP energy -356375.632216 kJ/mol
# GULP energy per Si atom -5568.369253 kJ/mol
# Density = 1.821805 g / cm^3
# Si number density = 18.259607 Si / 1000 Ang^3
#
#
#
# Elastic Constant Matrix: (Units=GPa)
#
#
# Indices 1 2 3 4 5 6 
#
# 1 43.1484 2.8088 11.1003 0.0000 0.0000 0.0000
# 2 2.8088 40.9383 7.4925 0.0000 0.0000 0.0000
# 3 11.1003 7.4925 63.4377 0.0000 0.0000 0.0000
# 4 0.0000 0.0000 0.0000 7.4212 0.0000 0.0000
# 5 0.0000 0.0000 0.0000 0.0000 25.4223 0.0000
# 6 0.0000 0.0000 0.0000 0.0000 0.0000 17.8413
#
#
#
# Elastic Compliance Matrix: (Units=1/GPa)
#
#
# Indices 1 2 3 4 5 6 
#
# 1 0.024301 -0.000909 -0.004145 0.000000 0.000000 0.000000
# 2 -0.000909 0.025001 -0.002794 0.000000 0.000000 0.000000
# 3 -0.004145 -0.002794 0.016819 0.000000 0.000000 0.000000
# 4 0.000000 0.000000 0.000000 0.134748 0.000000 0.000000
# 5 0.000000 0.000000 0.000000 0.000000 0.039335 0.000000
# 6 0.000000 0.000000 0.000000 0.000000 0.000000 0.056050
#
#
# Mechanical properties :
#
#
# Convention : Reuss Voigt Hill
#
# Bulk Modulus (GPa) = 19.83109 21.14752 20.48931
# Shear Modulus (GPa) = 15.20876 18.54516 16.87696
#
# Velocity S-wave (km/s) = 2.88916 3.19037 3.04349
# Velocity P-wave (km/s) = 4.69190 5.01777 4.85756
#
# Compressibility (1/GPa) = 0.05042587
#
# Stress axis : x y z
#
# Youngs Moduli (GPa) = 41.15002 39.99892 59.45751
#
# Poissons Ratio (x) = 0.03635 0.24645
# Poissons Ratio (y) = 0.03740 0.16611
# Poissons Ratio (z) = 0.17056 0.11175
#
# Static dielectric constant tensor:
#      x y z
#    x 1.656830 0.000000 0.000000 
#    y 0.000000 1.681400 0.000000 
#    z 0.000000 0.000000 1.593660 
# 
# From -- ./inp_files/10696.got.cif
#   From: 2010.05.17/outbox.cif.g08.bks.cpg/sg59_6_cif.got.tgz:10696.got - 2010.06.03 14:40:33.
