data_PCOD9452119
_publ_section_title
;
Structure prediction by ZEFSAII (Michael W. Deem and Ramdas Pophale) SiO2 
 PCOD9452119
Probable space group: P M M N
;
_chemical_formula_sum "Si O2"
_cell_formula_units_Z 48
_cell_length_a 8.143208
_cell_length_b 9.622424
_cell_length_c 32.573580
_cell_angle_alpha 90.000000
_cell_angle_beta 90.000000
_cell_angle_gamma 90.000000
_cell_volume 2552.381041
_symmetry_space_group_name_H-M "P M M N"
_symmetry_group_IT_number 59
_space_group.IT_coordinate_system_code '2'
_symmetry_cell_setting 'orthorhombic'
loop_
_space_group_symop_operation_xyz
x,y,z
1/2-x,1/2-y,z
1/2+x,-y,-z
-x,1/2+y,-z
-x,-y,-z
1/2+x,1/2+y,-z
1/2-x,y,z
x,1/2-y,z
loop_
_atom_site_type_symbol
_atom_site_label
_atom_site_fract_x
_atom_site_fract_y
_atom_site_fract_z
Si Si1 0.548627 0.588789 0.216912
Si Si2 0.554106 0.590256 0.615314
Si Si3 0.948682 0.909752 0.038589
Si Si4 0.441503 0.080642 0.872393
Si Si5 0.054493 0.091854 0.538622
Si Si6 0.551624 0.409659 0.294203
O O1 0.750000 0.584668 0.215780
O O2 0.502678 0.750000 0.221876
O O3 0.489138 0.538417 0.171943
O O4 0.493618 0.500069 0.255767
O O5 0.750000 0.595318 0.612903
O O6 0.491718 0.750000 0.609846
O O7 0.492614 0.488510 0.580064
O O8 0.504276 0.542256 0.660885
O O9 0.750000 0.908853 0.040877
O O10 0.002851 0.750000 0.033228
O O11 0.011337 0.961662 0.083304
O O12 0.000000 0.000000 0.000000
O O13 0.250000 0.037976 0.872233
O O14 0.443728 0.250000 0.872477
O O15 0.250000 0.100965 0.536974
O O16 0.987742 0.250000 0.537212
O O17 0.000000 0.000000 0.500000
O O18 0.750000 0.411642 0.293842
O O19 0.496830 0.250000 0.289652
#
# Coordination Sequence:
#
# PCOD9452119 Si02
#       6
#     8   8   8   8   8   8
#     4   8  13  23  42  66  89 115 151 194 237 283
#     4  10  21  37  56  77 103 138 177 210 242 286
#     4   9  17  29  45  65  90 120 155 195 239 289
#     4   7  11  22  40  61  85 114 148 188 235 284
#     4  11  24  40  59  84 111 138 170 208 250 295
#     4   9  17  29  46  70  99 127 155 194 245 292
#
# _framework density 18.805971
#
# number of rings (size 3 to 8) (size 9 to 14) (size 15 to 20)
#    0.000    3.000    0.000    3.500    0.000    5.333 
#    0.000    2.500    0.000    4.000    0.000    4.667 
#    0.000    0.000    0.000    0.000    0.000    0.000 
#
# Total GULP energy -267422.603361 kJ/mol
# GULP energy per Si atom -5571.304237 kJ/mol
# Density = 1.876317 g / cm^3
# Si number density = 18.805971 Si / 1000 Ang^3
#
#
#
# Elastic Constant Matrix: (Units=GPa)
#
#
# Indices 1 2 3 4 5 6 
#
# 1 15.0984 11.7533 19.6847 0.0000 0.0000 0.0000
# 2 11.7533 83.0093 107.5979 0.0000 0.0000 0.0000
# 3 19.6847 107.5979 241.3062 0.0000 0.0000 0.0000
# 4 0.0000 0.0000 0.0000 36.9376 0.0000 0.0000
# 5 0.0000 0.0000 0.0000 0.0000 22.9222 0.0000
# 6 0.0000 0.0000 0.0000 0.0000 0.0000 15.6559
#
#
#
# Elastic Compliance Matrix: (Units=1/GPa)
#
#
# Indices 1 2 3 4 5 6 
#
# 1 0.075530 -0.006416 -0.003300 0.000000 0.000000 0.000000
# 2 -0.006416 0.029091 -0.012448 0.000000 0.000000 0.000000
# 3 -0.003300 -0.012448 0.009964 0.000000 0.000000 0.000000
# 4 0.000000 0.000000 0.000000 0.027073 0.000000 0.000000
# 5 0.000000 0.000000 0.000000 0.000000 0.043626 0.000000
# 6 0.000000 0.000000 0.000000 0.000000 0.000000 0.063874
#
#
# Mechanical properties :
#
#
# Convention : Reuss Voigt Hill
#
# Bulk Modulus (GPa) = 14.23383 68.60952 41.42168
# Shear Modulus (GPa) = 15.77761 28.46167 22.11964
#
# Velocity S-wave (km/s) = 2.89964 3.89451 3.43330
# Velocity P-wave (km/s) = 4.33541 7.53558 6.14739
#
# Compressibility (1/GPa) = 0.07025514
#
# Stress axis : x y z
#
# Youngs Moduli (GPa) = 13.23976 34.37525 100.36226
#
# Poissons Ratio (x) = 0.22056 0.33123
# Poissons Ratio (y) = 0.08495 1.24932
# Poissons Ratio (z) = 0.04370 0.42791
#
# Static dielectric constant tensor:
#      x y z
#    x 1.679390 0.000000 0.000000 
#    y 0.000000 1.643270 0.000000 
#    z 0.000000 0.000000 1.675940 
# 
# From -- ./inp_files/32922.got.cif
#   From: 2010.05.17/outbox.cif.g08.bks.cpg/sg59_17_cif.got.tgz:32922.got - 2010.06.03 14:40:33.
