data_PCOD9452642
_publ_section_title
;
Structure prediction by ZEFSAII (Michael W. Deem and Ramdas Pophale) SiO2 
 PCOD9452642
Probable space group: P M M N
;
_chemical_formula_sum "Si O2"
_cell_formula_units_Z 58
_cell_length_a 24.958936
_cell_length_b 7.396243
_cell_length_c 12.439449
_cell_angle_alpha 90.000000
_cell_angle_beta 90.000000
_cell_angle_gamma 90.000000
_cell_volume 2296.351589
_symmetry_space_group_name_H-M "P M M N"
_symmetry_group_IT_number 59
_space_group.IT_coordinate_system_code '2'
_symmetry_cell_setting 'orthorhombic'
loop_
_space_group_symop_operation_xyz
x,y,z
1/2-x,1/2-y,z
1/2+x,-y,-z
-x,1/2+y,-z
-x,-y,-z
1/2+x,1/2+y,-z
1/2-x,y,z
x,1/2-y,z
loop_
_atom_site_type_symbol
_atom_site_label
_atom_site_fract_x
_atom_site_fract_y
_atom_site_fract_z
Si Si1 0.667521 0.962480 0.842651
Si Si2 0.853818 0.968231 0.315880
Si Si3 0.461427 0.535622 0.902071
Si Si4 0.808159 0.465229 0.541468
Si Si5 0.911238 0.468760 0.670705
Si Si6 0.339384 0.046019 0.918244
Si Si7 0.750000 0.250000 0.758854
Si Si8 0.026221 0.454261 0.662150
O O1 0.680980 0.750000 0.838781
O O2 0.607829 0.980634 0.791609
O O3 0.703771 0.091627 0.771566
O O4 0.676559 0.029294 0.965546
O O5 0.858863 0.750000 0.303872
O O6 0.831889 0.035984 0.200576
O O7 0.914068 0.036169 0.346113
O O8 0.816312 0.011382 0.414586
O O9 0.455007 0.750000 0.886238
O O10 0.403700 0.452381 0.925737
O O11 0.481613 0.452003 0.791290
O O12 0.500000 0.500000 0.000000
O O13 0.750000 0.542533 0.570076
O O14 0.804863 0.250000 0.563700
O O15 0.862040 0.535652 0.597107
O O16 0.913919 0.250000 0.665097
O O17 0.969002 0.535586 0.628105
O O18 0.317653 0.250000 0.915079
O O19 0.029406 0.250000 0.619804
#
# Coordination Sequence:
#
# PCOD9452642 Si02
#       8
#     8   8   8   8   8   8   2   8
#     4  11  24  42  66  96 129 172 221 267 331 392
#     4   9  19  39  62  88 126 164 207 263 322 385
#     4  11  20  29  50  81 119 161 197 239 300 370
#     4  10  23  41  61  87 120 163 215 268 321 382
#     4  10  21  39  65  91 127 168 211 270 329 386
#     4   9  20  39  60  85 121 158 203 260 309 372
#     4  12  26  44  64  90 134 180 214 280 322 384
#     4   9  19  36  58  87 120 161 202 254 328 387
#
# _framework density 25.257456999999999
#
# number of rings (size 3 to 8) (size 9 to 14) (size 15 to 20)
#    0.000    2.069    0.690    3.103    1.931    6.345 
#    1.241    0.000    0.000    0.000    0.000    0.000 
#    0.000    0.000    0.000    0.000    0.000    0.000 
#
# Total GULP energy -323574.607988 kJ/mol
# GULP energy per Si atom -5578.872552 kJ/mol
# Density = 2.519997 g / cm^3
# Si number density = 25.257457 Si / 1000 Ang^3
#
#
#
# Elastic Constant Matrix: (Units=GPa)
#
#
# Indices 1 2 3 4 5 6 
#
# 1 100.8636 14.0764 34.3125 0.0000 0.0000 0.0000
# 2 14.0764 133.1202 3.3574 0.0000 0.0000 0.0000
# 3 34.3125 3.3574 133.0104 0.0000 0.0000 0.0000
# 4 0.0000 0.0000 0.0000 28.2468 0.0000 0.0000
# 5 0.0000 0.0000 0.0000 0.0000 104.6384 0.0000
# 6 0.0000 0.0000 0.0000 0.0000 0.0000 -33.5132
#
#
#
# Elastic Compliance Matrix: (Units=1/GPa)
#
#
# Indices 1 2 3 4 5 6 
#
# 1 0.011025 -0.001095 -0.002817 0.000000 0.000000 0.000000
# 2 -0.001095 0.007626 0.000090 0.000000 0.000000 0.000000
# 3 -0.002817 0.000090 0.008243 0.000000 0.000000 0.000000
# 4 0.000000 0.000000 0.000000 0.035402 0.000000 0.000000
# 5 0.000000 0.000000 0.000000 0.000000 0.009557 0.000000
# 6 0.000000 0.000000 0.000000 0.000000 0.000000 -0.029839
#
#
# Mechanical properties :
#
#
# Convention : Reuss Voigt Hill
#
# Bulk Modulus (GPa) = 51.94663 52.27631 52.11147
# Shear Modulus (GPa) = 89.16957 40.89095 65.03026
#
# Velocity S-wave (km/s) = 5.94818 4.02800 5.07965
# Velocity P-wave (km/s) = 8.23323 6.50964 7.42164
#
# Compressibility (1/GPa) = 0.01925053
#
# Stress axis : x y z
#
# Youngs Moduli (GPa) = 90.70034 131.13879 121.32215
#
# Poissons Ratio (x) = 0.14357 0.34171
# Poissons Ratio (y) = 0.09930 -0.01091
# Poissons Ratio (z) = 0.25546 -0.01180
#
# Static dielectric constant tensor:
#      x y z
#    x 1.928100 0.000000 0.000000 
#    y 0.000000 1.975820 0.000000 
#    z 0.000000 0.000000 2.075440 
# 
# From -- ./inp_files/18949.got.cif
#   From: 2010.05.17/outbox.cif.g08.bks.cpg/sg59_10_cif.got.tgz:18949.got - 2010.06.03 14:40:33.
