data_PCOD9452817
_publ_section_title
;
Structure prediction by ZEFSAII (Michael W. Deem and Ramdas Pophale) SiO2 
 PCOD9452817
Probable space group: P M M N
;
_chemical_formula_sum "Si O2"
_cell_formula_units_Z 56
_cell_length_a 16.006988
_cell_length_b 15.022739
_cell_length_c 10.730428
_cell_angle_alpha 90.000000
_cell_angle_beta 90.000000
_cell_angle_gamma 90.000000
_cell_volume 2580.333176
_symmetry_space_group_name_H-M "P M M N"
_symmetry_group_IT_number 59
_space_group.IT_coordinate_system_code '2'
_symmetry_cell_setting 'orthorhombic'
loop_
_space_group_symop_operation_xyz
x,y,z
1/2-x,1/2-y,z
1/2+x,-y,-z
-x,1/2+y,-z
-x,-y,-z
1/2+x,1/2+y,-z
1/2-x,y,z
x,1/2-y,z
loop_
_atom_site_type_symbol
_atom_site_label
_atom_site_fract_x
_atom_site_fract_y
_atom_site_fract_z
Si Si1 0.654298 0.145149 0.662251
Si Si2 0.158968 0.153223 0.822131
Si Si3 0.657119 0.034675 0.209354
Si Si4 0.002507 0.142888 0.124893
Si Si5 0.019326 0.649103 0.155617
Si Si6 0.600603 0.504347 0.485255
Si Si7 0.653739 0.643583 0.691585
O O1 0.750000 0.137689 0.701576
O O2 0.636334 0.250000 0.639969
O O3 0.592422 0.105845 0.766739
O O4 0.637239 0.086786 0.542016
O O5 0.250000 0.156419 0.755975
O O6 0.157369 0.250000 0.894010
O O7 0.066022 0.154223 0.764888
O O8 0.159924 0.053852 0.877862
O O9 0.750000 0.075009 0.207578
O O10 0.581396 0.099154 0.178301
O O11 0.635903 0.995070 0.345700
O O12 0.996888 0.250000 0.130776
O O13 0.084846 0.119077 0.203833
O O14 0.003823 0.114583 0.980119
O O15 0.048904 0.750000 0.133653
O O16 0.500000 0.500000 0.500000
O O17 0.633339 0.586096 0.568814
O O18 0.750000 0.626267 0.729623
O O19 0.646198 0.750000 0.667965
#
# Coordination Sequence:
#
# PCOD9452817 Si02
#       7
#     8   8   8   8   8   8   8
#     4  10  22  40  62  91 124 160 205 251 300 359
#     4   9  19  37  59  86 120 155 197 251 306 358
#     4  11  23  38  58  88 122 157 200 245 298 361
#     4  10  22  40  61  89 123 159 200 247 301 360
#     4   9  19  37  62  87 116 157 202 248 299 357
#     4  12  23  40  64  87 122 161 198 253 302 353
#     4  10  22  41  63  89 123 162 203 247 300 361
#
# _framework density 21.702622999999999
#
# number of rings (size 3 to 8) (size 9 to 14) (size 15 to 20)
#    0.000    1.857    1.429    2.143    0.000    3.714 
#    0.000    5.714    0.000    0.000    0.000    0.000 
#    0.000    0.000    0.000    0.000    0.000    0.000 
#
# Total GULP energy -311775.953958 kJ/mol
# GULP energy per Si atom -5567.427749 kJ/mol
# Density = 2.165323 g / cm^3
# Si number density = 21.702623 Si / 1000 Ang^3
#
#
#
# Elastic Constant Matrix: (Units=GPa)
#
#
# Indices 1 2 3 4 5 6 
#
# 1 176.0988 54.6469 44.2169 0.0000 0.0000 0.0000
# 2 54.6469 82.0732 34.7355 0.0000 0.0000 0.0000
# 3 44.2169 34.7355 88.8977 0.0000 0.0000 0.0000
# 4 0.0000 0.0000 0.0000 28.9929 0.0000 0.0000
# 5 0.0000 0.0000 0.0000 0.0000 12.7831 0.0000
# 6 0.0000 0.0000 0.0000 0.0000 0.0000 32.0514
#
#
#
# Elastic Compliance Matrix: (Units=1/GPa)
#
#
# Indices 1 2 3 4 5 6 
#
# 1 0.007478 -0.004080 -0.002126 0.000000 0.000000 0.000000
# 2 -0.004080 0.016824 -0.004545 0.000000 0.000000 0.000000
# 3 -0.002126 -0.004545 0.014082 0.000000 0.000000 0.000000
# 4 0.000000 0.000000 0.000000 0.034491 0.000000 0.000000
# 5 0.000000 0.000000 0.000000 0.000000 0.078228 0.000000
# 6 0.000000 0.000000 0.000000 0.000000 0.000000 0.031200
#
#
# Mechanical properties :
#
#
# Convention : Reuss Voigt Hill
#
# Bulk Modulus (GPa) = 59.22571 68.25203 63.73887
# Shear Modulus (GPa) = 23.87420 28.99685 26.43553
#
# Velocity S-wave (km/s) = 3.32031 3.65923 3.49389
# Velocity P-wave (km/s) = 6.48446 7.02640 6.76086
#
# Compressibility (1/GPa) = 0.01688456
#
# Stress axis : x y z
#
# Youngs Moduli (GPa) = 133.71906 59.43891 71.01352
#
# Poissons Ratio (x) = 0.24249 0.15094
# Poissons Ratio (y) = 0.54554 0.32272
# Poissons Ratio (z) = 0.28423 0.27012
#
# Static dielectric constant tensor:
#      x y z
#    x 1.814400 0.000000 0.000000 
#    y 0.000000 1.825610 0.000000 
#    z 0.000000 0.000000 1.858460 
# 
# From -- ./inp_files/16994.got.cif
#   From: 2010.05.17/outbox.cif.g08.bks.cpg/sg59_9_cif.got.tgz:16994.got - 2010.06.03 14:40:33.
