data_PCOD9452166
_publ_section_title
;
Structure prediction by ZEFSAII (Michael W. Deem and Ramdas Pophale) SiO2 
 PCOD9452166
Probable space group: P M M N
;
_chemical_formula_sum "Si O2"
_cell_formula_units_Z 64
_cell_length_a 19.209539
_cell_length_b 16.069947
_cell_length_c 11.606130
_cell_angle_alpha 90.000000
_cell_angle_beta 90.000000
_cell_angle_gamma 90.000000
_cell_volume 3582.769082
_symmetry_space_group_name_H-M "P M M N"
_symmetry_group_IT_number 59
_space_group.IT_coordinate_system_code '2'
_symmetry_cell_setting 'orthorhombic'
loop_
_space_group_symop_operation_xyz
x,y,z
1/2-x,1/2-y,z
1/2+x,-y,-z
-x,1/2+y,-z
-x,-y,-z
1/2+x,1/2+y,-z
1/2-x,y,z
x,1/2-y,z
loop_
_atom_site_type_symbol
_atom_site_label
_atom_site_fract_x
_atom_site_fract_y
_atom_site_fract_z
Si Si1 0.386292 0.649501 0.888425
Si Si2 0.172702 0.607714 0.125524
Si Si3 0.672808 0.651507 0.905499
Si Si4 0.327964 0.047195 0.297838
Si Si5 0.333415 0.850158 0.629462
Si Si6 0.470948 0.351608 0.993742
Si Si7 0.068453 0.954724 0.454683
Si Si8 0.964887 0.157397 0.761200
O O1 0.379436 0.750000 0.904664
O O2 0.358996 0.631768 0.760406
O O3 0.342482 0.605835 0.989709
O O4 0.466988 0.627236 0.916938
O O5 0.250000 0.640731 0.145256
O O6 0.167663 0.520443 0.193572
O O7 0.111910 0.660862 0.182766
O O8 0.750000 0.618627 0.937219
O O9 0.674113 0.750000 0.925130
O O10 0.662460 0.632769 0.770172
O O11 0.604833 0.618091 0.969634
O O12 0.250000 0.042281 0.345525
O O13 0.382949 0.022915 0.392725
O O14 0.250000 0.867702 0.616942
O O15 0.342123 0.750000 0.609983
O O16 0.382889 0.902805 0.543510
O O17 0.470549 0.250000 0.989422
O O18 0.490573 0.381302 0.865675
O O19 0.042011 0.893713 0.354164
O O20 0.000000 0.000000 0.500000
O O21 0.990660 0.250000 0.737091
#
# Coordination Sequence:
#
# PCOD9452166 Si02
#       8
#     8   8   8   8   8   8   8   8
#     4   9  17  29  48  78 112 139 166 206 257 317
#     4   9  16  28  48  78 111 137 161 200 262 326
#     4   9  17  31  53  78 100 127 167 212 263 321
#     4   9  19  35  52  73 103 133 166 218 268 313
#     4  10  21  37  57  79 106 144 186 226 266 314
#     4   8  15  29  51  76 103 127 156 206 264 312
#     4  11  23  37  51  73 103 142 186 222 264 310
#     4   9  18  34  52  73  99 133 174 216 256 304
#
# _framework density 17.863278000000001
#
# number of rings (size 3 to 8) (size 9 to 14) (size 15 to 20)
#    0.000    2.750    0.000    2.250    1.750    2.000 
#    2.250    2.500    0.000    0.750    0.000    0.000 
#    0.000    0.000    0.000    0.000    0.000    0.000 
#
# Total GULP energy -356388.380067 kJ/mol
# GULP energy per Si atom -5568.568439 kJ/mol
# Density = 1.782262 g / cm^3
# Si number density = 17.863278 Si / 1000 Ang^3
#
#
#
# Elastic Constant Matrix: (Units=GPa)
#
#
# Indices 1 2 3 4 5 6 
#
# 1 151.9969 32.7482 88.7064 0.0000 0.0000 0.0000
# 2 32.7482 12.4417 22.7591 0.0000 0.0000 0.0000
# 3 88.7064 22.7591 117.9978 0.0000 0.0000 0.0000
# 4 0.0000 0.0000 0.0000 -1.0964 0.0000 0.0000
# 5 0.0000 0.0000 0.0000 0.0000 26.5021 0.0000
# 6 0.0000 0.0000 0.0000 0.0000 0.0000 16.6587
#
#
#
# Elastic Compliance Matrix: (Units=1/GPa)
#
#
# Indices 1 2 3 4 5 6 
#
# 1 0.018203 -0.035354 -0.006865 0.000000 0.000000 0.000000
# 2 -0.035354 0.192859 -0.010620 0.000000 0.000000 0.000000
# 3 -0.006865 -0.010620 0.015684 0.000000 0.000000 0.000000
# 4 0.000000 0.000000 0.000000 -0.912096 0.000000 0.000000
# 5 0.000000 0.000000 0.000000 0.000000 0.037733 0.000000
# 6 0.000000 0.000000 0.000000 0.000000 0.000000 0.060029
#
#
# Mechanical properties :
#
#
# Convention : Reuss Voigt Hill
#
# Bulk Modulus (GPa) = 8.25989 63.42929 35.84459
# Shear Modulus (GPa) = -11.32363 17.62774 3.15206
#
# Velocity S-wave (km/s) = -2.52048 3.14477 1.32980
# Velocity P-wave (km/s) = 1.95868 6.98365 4.73999
#
# Compressibility (1/GPa) = 0.12106696
#
# Stress axis : x y z
#
# Youngs Moduli (GPa) = 54.93679 5.18514 63.75864
#
# Poissons Ratio (x) = 0.18331 0.43771
# Poissons Ratio (y) = 1.94223 0.67714
# Poissons Ratio (z) = 0.37715 0.05507
#
# Static dielectric constant tensor:
#      x y z
#    x 1.635890 0.000000 0.000000 
#    y 0.000000 1.664930 0.000000 
#    z 0.000000 0.000000 1.602150 
# 
# From -- ./inp_files/17984.got.cif
#   From: 2010.05.17/outbox.cif.g08.bks.cpg/sg59_9_cif.got.tgz:17984.got - 2010.06.03 14:40:33.
