data_PCOD9452877
_publ_section_title
;
Structure prediction by ZEFSAII (Michael W. Deem and Ramdas Pophale) SiO2 
 PCOD9452877
Probable space group: P M M N
;
_chemical_formula_sum "Si O2"
_cell_formula_units_Z 58
_cell_length_a 29.168402
_cell_length_b 17.802823
_cell_length_c 5.205470
_cell_angle_alpha 90.000000
_cell_angle_beta 90.000000
_cell_angle_gamma 90.000000
_cell_volume 2703.095931
_symmetry_space_group_name_H-M "P M M N"
_symmetry_group_IT_number 59
_space_group.IT_coordinate_system_code '2'
_symmetry_cell_setting 'orthorhombic'
loop_
_space_group_symop_operation_xyz
x,y,z
1/2-x,1/2-y,z
1/2+x,-y,-z
-x,1/2+y,-z
-x,-y,-z
1/2+x,1/2+y,-z
1/2-x,y,z
x,1/2-y,z
loop_
_atom_site_type_symbol
_atom_site_label
_atom_site_fract_x
_atom_site_fract_y
_atom_site_fract_z
Si Si1 0.696483 0.032955 0.062819
Si Si2 0.976665 0.836821 0.573071
Si Si3 0.580665 0.626345 0.073755
Si Si4 0.373642 0.475940 0.578539
Si Si5 0.250000 0.250000 0.248420
Si Si6 0.127750 0.665060 0.972020
Si Si7 0.423597 0.885990 0.451309
Si Si8 0.669818 0.873486 0.807663
O O1 0.750000 0.048878 0.074196
O O2 0.673005 0.016777 0.338472
O O3 0.667162 0.103878 0.964802
O O4 0.688600 0.953209 0.918317
O O5 0.988457 0.750000 0.626759
O O6 0.945022 0.839818 0.319128
O O7 0.022988 0.880980 0.509839
O O8 0.951178 0.868513 0.824399
O O9 0.596010 0.543655 0.171531
O O10 0.630349 0.659056 0.993865
O O11 0.405105 0.529595 0.411216
O O12 0.357770 0.399893 0.443803
O O13 0.209922 0.184352 0.242040
O O14 0.145606 0.750000 0.958636
O O15 0.090414 0.659175 0.198357
O O16 0.103705 0.644307 0.701678
#
# Coordination Sequence:
#
# PCOD9452877 Si02
#       8
#     8   8   8   8   2   8   8   8
#     4  10  22  41  69  97 140 186 228 285 352 417
#     4  12  25  42  66  99 136 187 232 291 360 424
#     4  11  25  44  70  96 142 184 226 295 359 420
#     4  10  23  45  70  96 144 184 233 296 355 423
#     4  12  28  40  86 104 140 188 246 300 350 448
#     4  11  22  41  69 104 143 185 227 290 343 410
#     4  11  24  43  71 102 140 185 237 288 349 421
#     4  11  23  48  65 108 135 184 237 292 358 424
#
# _framework density 21.456879000000001
#
# number of rings (size 3 to 8) (size 9 to 14) (size 15 to 20)
#    0.000    1.103    3.448    2.483    2.897    1.379 
#    1.241    3.448    0.000    1.655    0.000    0.000 
#    0.000    0.000    0.000    0.000    0.000    0.000 
#
# Total GULP energy -323337.971435 kJ/mol
# GULP energy per Si atom -5574.792611 kJ/mol
# Density = 2.140804 g / cm^3
# Si number density = 21.456879 Si / 1000 Ang^3
#
#
#
# Elastic Constant Matrix: (Units=GPa)
#
#
# Indices 1 2 3 4 5 6 
#
# 1 137.4324 56.0178 31.0150 0.0000 0.0000 0.0000
# 2 56.0178 120.4613 26.8529 0.0000 0.0000 0.0000
# 3 31.0150 26.8529 106.0283 0.0000 0.0000 0.0000
# 4 0.0000 0.0000 0.0000 33.0854 0.0000 0.0000
# 5 0.0000 0.0000 0.0000 0.0000 14.5286 0.0000
# 6 0.0000 0.0000 0.0000 0.0000 0.0000 31.2158
#
#
#
# Elastic Compliance Matrix: (Units=1/GPa)
#
#
# Indices 1 2 3 4 5 6 
#
# 1 0.009263 -0.003925 -0.001716 0.000000 0.000000 0.000000
# 2 -0.003925 0.010461 -0.001501 0.000000 0.000000 0.000000
# 3 -0.001716 -0.001501 0.010313 0.000000 0.000000 0.000000
# 4 0.000000 0.000000 0.000000 0.030225 0.000000 0.000000
# 5 0.000000 0.000000 0.000000 0.000000 0.068830 0.000000
# 6 0.000000 0.000000 0.000000 0.000000 0.000000 0.032035
#
#
# Mechanical properties :
#
#
# Convention : Reuss Voigt Hill
#
# Bulk Modulus (GPa) = 63.47567 65.74372 64.60970
# Shear Modulus (GPa) = 27.67572 32.43505 30.05538
#
# Velocity S-wave (km/s) = 3.59532 3.89220 3.74670
# Velocity P-wave (km/s) = 6.84706 7.13480 6.99241
#
# Compressibility (1/GPa) = 0.01575407
#
# Stress axis : x y z
#
# Youngs Moduli (GPa) = 107.95131 95.58887 96.96040
#
# Poissons Ratio (x) = 0.37522 0.16634
# Poissons Ratio (y) = 0.42374 0.14556
# Poissons Ratio (z) = 0.18520 0.14350
#
# Static dielectric constant tensor:
#      x y z
#    x 1.747560 0.000000 0.000000 
#    y 0.000000 1.825710 0.000000 
#    z 0.000000 0.000000 1.847960 
# 
# From -- ./inp_files/4267.got.cif
#   From: 2010.05.17/outbox.cif.g08.bks.cpg/sg59_3_cif.got.tgz:4267.got - 2010.06.03 14:40:33.
