data_PCOD9452272
_publ_section_title
;
Structure prediction by ZEFSAII (Michael W. Deem and Ramdas Pophale) SiO2 
 PCOD9452272
Probable space group: P M M N
;
_chemical_formula_sum "Si O2"
_cell_formula_units_Z 48
_cell_length_a 9.378999
_cell_length_b 16.950995
_cell_length_c 15.227126
_cell_angle_alpha 90.000000
_cell_angle_beta 90.000000
_cell_angle_gamma 90.000000
_cell_volume 2420.859733
_symmetry_space_group_name_H-M "P M M N"
_symmetry_group_IT_number 59
_space_group.IT_coordinate_system_code '2'
_symmetry_cell_setting 'orthorhombic'
loop_
_space_group_symop_operation_xyz
x,y,z
1/2-x,1/2-y,z
1/2+x,-y,-z
-x,1/2+y,-z
-x,-y,-z
1/2+x,1/2+y,-z
1/2-x,y,z
x,1/2-y,z
loop_
_atom_site_type_symbol
_atom_site_label
_atom_site_fract_x
_atom_site_fract_y
_atom_site_fract_z
Si Si1 0.090754 0.344895 0.234450
Si Si2 0.414294 0.908586 0.921394
Si Si3 0.918018 0.067994 0.555635
Si Si4 0.583398 0.901354 0.093823
Si Si5 0.421732 0.842796 0.267472
Si Si6 0.092491 0.157170 0.431207
O O1 0.250000 0.370412 0.205660
O O2 0.090077 0.250000 0.236311
O O3 0.070156 0.376465 0.333437
O O4 0.972694 0.372782 0.168018
O O5 0.250000 0.889507 0.937828
O O6 0.426242 0.003173 0.909284
O O7 0.508199 0.877839 0.002668
O O8 0.750000 0.052999 0.556690
O O9 0.961271 0.096254 0.653649
O O10 0.963372 0.140956 0.495163
O O11 0.000000 0.000000 0.500000
O O12 0.750000 0.879244 0.095863
O O13 0.501750 0.867510 0.178347
O O14 0.250000 0.848490 0.256100
O O15 0.453270 0.750000 0.288508
O O16 0.250000 0.130389 0.463771
O O17 0.103037 0.250000 0.420282
#
# Coordination Sequence:
#
# PCOD9452272 Si02
#       6
#     8   8   8   8   8   8
#     4   9  19  35  56  83 115 152 192 234 285 344
#     4  10  21  37  58  86 119 154 196 243 291 348
#     4  11  24  40  60  88 120 156 200 247 298 356
#     4  10  22  39  60  87 116 152 196 241 295 352
#     4  10  23  43  64  87 118 158 202 248 300 357
#     4   9  19  37  59  84 116 154 194 238 292 349
#
# _framework density 19.827667999999999
#
# number of rings (size 3 to 8) (size 9 to 14) (size 15 to 20)
#    0.000    2.167    0.000    3.000    2.333    6.333 
#    0.000    1.667    0.000    0.000    0.000    0.000 
#    0.000    0.000    0.000    0.000    0.000    0.000 
#
# Total GULP energy -267607.711478 kJ/mol
# GULP energy per Si atom -5575.160656 kJ/mol
# Density = 1.978254 g / cm^3
# Si number density = 19.827668 Si / 1000 Ang^3
#
#
#
# Elastic Constant Matrix: (Units=GPa)
#
#
# Indices 1 2 3 4 5 6 
#
# 1 52.0449 23.4579 34.0607 0.0000 0.0000 0.0000
# 2 23.4579 25.2127 16.3423 0.0000 0.0000 0.0000
# 3 34.0607 16.3423 81.9340 0.0000 0.0000 0.0000
# 4 0.0000 0.0000 0.0000 31.7687 0.0000 0.0000
# 5 0.0000 0.0000 0.0000 0.0000 38.6131 0.0000
# 6 0.0000 0.0000 0.0000 0.0000 0.0000 31.6477
#
#
#
# Elastic Compliance Matrix: (Units=1/GPa)
#
#
# Indices 1 2 3 4 5 6 
#
# 1 0.039626 -0.030079 -0.010473 0.000000 0.000000 0.000000
# 2 -0.030079 0.068384 -0.001135 0.000000 0.000000 0.000000
# 3 -0.010473 -0.001135 0.016785 0.000000 0.000000 0.000000
# 4 0.000000 0.000000 0.000000 0.031478 0.000000 0.000000
# 5 0.000000 0.000000 0.000000 0.000000 0.025898 0.000000
# 6 0.000000 0.000000 0.000000 0.000000 0.000000 0.031598
#
#
# Mechanical properties :
#
#
# Convention : Reuss Voigt Hill
#
# Bulk Modulus (GPa) = 24.14339 34.10148 29.12243
# Shear Modulus (GPa) = 16.07971 26.09462 21.08716
#
# Velocity S-wave (km/s) = 2.85085 3.63170 3.26471
# Velocity P-wave (km/s) = 4.79995 5.90102 5.37873
#
# Compressibility (1/GPa) = 0.04141921
#
# Stress axis : x y z
#
# Youngs Moduli (GPa) = 25.23606 14.62329 59.57605
#
# Poissons Ratio (x) = 0.43986 0.62396
# Poissons Ratio (y) = 0.75908 0.06764
# Poissons Ratio (z) = 0.26431 0.01660
#
# Static dielectric constant tensor:
#      x y z
#    x 1.688280 0.000000 0.000000 
#    y 0.000000 1.787430 0.000000 
#    z 0.000000 0.000000 1.689160 
# 
# From -- ./inp_files/20419.got.cif
#   From: 2010.05.17/outbox.cif.g08.bks.cpg/sg59_11_cif.got.tgz:20419.got - 2010.06.03 14:40:33.
