data_PCOD9452738
_publ_section_title
;
Structure prediction by ZEFSAII (Michael W. Deem and Ramdas Pophale) SiO2 
 PCOD9452738
Probable space group: P M M N
;
_chemical_formula_sum "Si O2"
_cell_formula_units_Z 40
_cell_length_a 13.442947
_cell_length_b 15.060172
_cell_length_c 9.630935
_cell_angle_alpha 90.000000
_cell_angle_beta 90.000000
_cell_angle_gamma 90.000000
_cell_volume 1949.812589
_symmetry_space_group_name_H-M "P M M N"
_symmetry_group_IT_number 59
_space_group.IT_coordinate_system_code '2'
_symmetry_cell_setting 'orthorhombic'
loop_
_space_group_symop_operation_xyz
x,y,z
1/2-x,1/2-y,z
1/2+x,-y,-z
-x,1/2+y,-z
-x,-y,-z
1/2+x,1/2+y,-z
1/2-x,y,z
x,1/2-y,z
loop_
_atom_site_type_symbol
_atom_site_label
_atom_site_fract_x
_atom_site_fract_y
_atom_site_fract_z
Si Si1 0.369240 0.250000 0.164910
Si Si2 0.368537 0.250000 0.490651
Si Si3 0.870017 0.250000 0.350257
Si Si4 0.863919 0.577562 0.009332
Si Si5 0.936563 0.084272 0.844386
Si Si6 0.477414 0.603218 0.464673
Si Si7 0.130984 0.750000 0.974191
O O1 0.250000 0.250000 0.167658
O O2 0.395212 0.250000 0.326294
O O3 0.395842 0.336021 0.077064
O O4 0.250000 0.250000 0.509349
O O5 0.421611 0.161922 0.549660
O O6 0.750000 0.250000 0.359283
O O7 0.913252 0.338547 0.425687
O O8 0.899595 0.250000 0.187556
O O9 0.750000 0.586097 0.058387
O O10 0.946576 0.562931 0.127268
O O11 0.873741 0.498053 0.900124
O O12 0.906253 0.165561 0.940962
O O13 0.923012 0.104090 0.683529
O O14 0.500000 0.500000 0.500000
O O15 0.250000 0.750000 0.974472
#
# Coordination Sequence:
#
# PCOD9452738 Si02
#       7
#     4   4   4   8   8   8   4
#     4   9  18  35  59  86 119 161 202 252 313 380
#     4  10  22  39  61  92 129 172 215 259 326 399
#     4  10  26  46  69  95 130 179 227 274 338 408
#     4  10  22  38  62  94 128 164 212 265 319 386
#     4  11  24  39  64  96 127 171 218 268 328 386
#     4  11  25  42  66  98 137 176 215 280 337 403
#     4  11  24  44  70  95 128 174 225 281 326 391
#
# _framework density 20.514793000000001
#
# number of rings (size 3 to 8) (size 9 to 14) (size 15 to 20)
#    0.000    1.600    0.000    3.600   11.200    4.000 
#    0.000    1.000    0.000    0.000    0.000    0.000 
#    0.000    0.000    0.000    0.000    0.000    0.000 
#
# Total GULP energy -223432.034979 kJ/mol
# GULP energy per Si atom -5585.800874 kJ/mol
# Density = 2.046810 g / cm^3
# Si number density = 20.514793 Si / 1000 Ang^3
#
#
#
# Elastic Constant Matrix: (Units=GPa)
#
#
# Indices 1 2 3 4 5 6 
#
# 1 91.1881 32.8373 13.1755 0.0000 0.0000 0.0000
# 2 32.8373 174.8843 46.9004 0.0000 0.0000 0.0000
# 3 13.1755 46.9004 119.3569 0.0000 0.0000 0.0000
# 4 0.0000 0.0000 0.0000 10.7904 0.0000 0.0000
# 5 0.0000 0.0000 0.0000 0.0000 22.9170 0.0000
# 6 0.0000 0.0000 0.0000 0.0000 0.0000 24.0175
#
#
#
# Elastic Compliance Matrix: (Units=1/GPa)
#
#
# Indices 1 2 3 4 5 6 
#
# 1 0.011786 -0.002084 -0.000482 0.000000 0.000000 0.000000
# 2 -0.002084 0.006760 -0.002426 0.000000 0.000000 0.000000
# 3 -0.000482 -0.002426 0.009385 0.000000 0.000000 0.000000
# 4 0.000000 0.000000 0.000000 0.092675 0.000000 0.000000
# 5 0.000000 0.000000 0.000000 0.000000 0.043636 0.000000
# 6 0.000000 0.000000 0.000000 0.000000 0.000000 0.041636
#
#
# Mechanical properties :
#
#
# Convention : Reuss Voigt Hill
#
# Bulk Modulus (GPa) = 55.72066 63.47284 59.59675
# Shear Modulus (GPa) = 22.53823 31.04604 26.79214
#
# Velocity S-wave (km/s) = 3.31816 3.89440 3.61777
# Velocity P-wave (km/s) = 6.47305 7.15744 6.82383
#
# Compressibility (1/GPa) = 0.01794667
#
# Stress axis : x y z
#
# Youngs Moduli (GPa) = 84.84356 147.92899 106.55462
#
# Poissons Ratio (x) = 0.30825 0.05139
# Poissons Ratio (y) = 0.17679 0.25853
# Poissons Ratio (z) = 0.04092 0.35892
#
# Static dielectric constant tensor:
#      x y z
#    x 1.758760 0.000000 0.000000 
#    y 0.000000 1.680710 0.000000 
#    z 0.000000 0.000000 1.710640 
# 
# From -- ./inp_files/8682.got.cif
#   From: 2010.05.17/outbox.cif.g08.bks.cpg/sg59_5_cif.got.tgz:8682.got - 2010.06.03 14:40:33.
