data_PCOD9452244
_publ_section_title
;
Structure prediction by ZEFSAII (Michael W. Deem and Ramdas Pophale) SiO2 
 PCOD9452244
Probable space group: P M M N
;
_chemical_formula_sum "Si O2"
_cell_formula_units_Z 48
_cell_length_a 17.613874
_cell_length_b 7.668193
_cell_length_c 17.167738
_cell_angle_alpha 90.000000
_cell_angle_beta 90.000000
_cell_angle_gamma 90.000000
_cell_volume 2318.787749
_symmetry_space_group_name_H-M "P M M N"
_symmetry_group_IT_number 59
_space_group.IT_coordinate_system_code '2'
_symmetry_cell_setting 'orthorhombic'
loop_
_space_group_symop_operation_xyz
x,y,z
1/2-x,1/2-y,z
1/2+x,-y,-z
-x,1/2+y,-z
-x,-y,-z
1/2+x,1/2+y,-z
1/2-x,y,z
x,1/2-y,z
loop_
_atom_site_type_symbol
_atom_site_label
_atom_site_fract_x
_atom_site_fract_y
_atom_site_fract_z
Si Si1 0.750000 0.961677 0.340731
Si Si2 0.428439 0.457964 0.092336
Si Si3 0.934135 0.040828 0.606600
Si Si4 0.663410 0.460414 0.752439
Si Si5 0.750000 0.457662 0.159269
Si Si6 0.601697 0.540123 0.432182
Si Si7 0.098134 0.953369 0.918538
O O1 0.750000 0.750000 0.343084
O O2 0.825630 0.023703 0.384926
O O3 0.750000 0.016500 0.251339
O O4 0.432714 0.250000 0.080900
O O5 0.377592 0.495742 0.166849
O O6 0.514890 0.526800 0.102623
O O7 0.396000 0.533495 0.011931
O O8 0.938736 0.250000 0.614465
O O9 0.886265 0.973699 0.679571
O O10 0.020758 0.973868 0.600368
O O11 0.895532 0.003092 0.523603
O O12 0.750000 0.524689 0.750321
O O13 0.666110 0.250000 0.746766
O O14 0.750000 0.250000 0.141908
O O15 0.827642 0.530864 0.122187
O O16 0.600540 0.750000 0.425914
O O17 0.095287 0.750000 0.895828
#
# Coordination Sequence:
#
# PCOD9452244 Si02
#       7
#     4   8   8   8   4   8   8
#     4  10  22  36  54  83 114 141 174 221 278 327
#     4  10  21  37  58  84 111 142 183 226 272 325
#     4   9  19  36  57  79 104 141 185 222 263 320
#     4  10  22  37  55  80 111 146 184 226 273 323
#     4  10  22  38  58  83 110 143 184 223 264 321
#     4   9  19  36  55  79 110 141 174 220 275 323
#     4   9  20  39  59  81 111 146 181 222 273 325
#
# _framework density 20.700472999999999
#
# number of rings (size 3 to 8) (size 9 to 14) (size 15 to 20)
#    0.000    2.500    0.000    0.500    4.667    3.000 
#    0.000    0.000    0.000    0.000    0.000    0.000 
#    0.000    0.000    0.000    0.000    0.000    0.000 
#
# Total GULP energy -267991.559985 kJ/mol
# GULP energy per Si atom -5583.157500 kJ/mol
# Density = 2.065336 g / cm^3
# Si number density = 20.700473 Si / 1000 Ang^3
#
#
#
# Elastic Constant Matrix: (Units=GPa)
#
#
# Indices 1 2 3 4 5 6 
#
# 1 151.9618 -6.6906 107.3458 0.0000 0.0000 0.0000
# 2 -6.6906 34.5056 -23.7593 0.0000 0.0000 0.0000
# 3 107.3458 -23.7593 117.5689 0.0000 0.0000 0.0000
# 4 0.0000 0.0000 0.0000 26.7057 0.0000 0.0000
# 5 0.0000 0.0000 0.0000 0.0000 31.7648 0.0000
# 6 0.0000 0.0000 0.0000 0.0000 0.0000 8.4179
#
#
#
# Elastic Compliance Matrix: (Units=1/GPa)
#
#
# Indices 1 2 3 4 5 6 
#
# 1 0.021564 -0.010892 -0.021890 0.000000 0.000000 0.000000
# 2 -0.010892 0.039166 0.017860 0.000000 0.000000 0.000000
# 3 -0.021890 0.017860 0.032102 0.000000 0.000000 0.000000
# 4 0.000000 0.000000 0.000000 0.037445 0.000000 0.000000
# 5 0.000000 0.000000 0.000000 0.000000 0.031481 0.000000
# 6 0.000000 0.000000 0.000000 0.000000 0.000000 0.118795
#
#
# Mechanical properties :
#
#
# Convention : Reuss Voigt Hill
#
# Bulk Modulus (GPa) = 15.87609 50.86977 33.37293
# Shear Modulus (GPa) = 15.08777 28.52039 21.80408
#
# Velocity S-wave (km/s) = 2.70267 3.71585 3.24900
# Velocity P-wave (km/s) = 4.17437 6.56031 5.49832
#
# Compressibility (1/GPa) = 0.06298779
#
# Stress axis : x y z
#
# Youngs Moduli (GPa) = 46.37283 25.53213 31.15101
#
# Poissons Ratio (x) = 0.27808 0.68190
# Poissons Ratio (y) = 0.50507 -0.55634
# Poissons Ratio (z) = 1.01511 -0.45599
#
# Static dielectric constant tensor:
#      x y z
#    x 1.759000 0.000000 0.000000 
#    y 0.000000 1.783180 0.000000 
#    z 0.000000 0.000000 1.674280 
# 
# From -- ./inp_files/23767.got.cif
#   From: 2010.05.17/outbox.cif.g08.bks.cpg/sg59_12_cif.got.tgz:23767.got - 2010.06.03 14:40:33.
