data_PCOD9452803
_publ_section_title
;
Structure prediction by ZEFSAII (Michael W. Deem and Ramdas Pophale) SiO2 
 PCOD9452803
Probable space group: P M M N
;
_chemical_formula_sum "Si O2"
_cell_formula_units_Z 48
_cell_length_a 8.806199
_cell_length_b 20.849581
_cell_length_c 14.728467
_cell_angle_alpha 90.000000
_cell_angle_beta 90.000000
_cell_angle_gamma 90.000000
_cell_volume 2704.228422
_symmetry_space_group_name_H-M "P M M N"
_symmetry_group_IT_number 59
_space_group.IT_coordinate_system_code '2'
_symmetry_cell_setting 'orthorhombic'
loop_
_space_group_symop_operation_xyz
x,y,z
1/2-x,1/2-y,z
1/2+x,-y,-z
-x,1/2+y,-z
-x,-y,-z
1/2+x,1/2+y,-z
1/2-x,y,z
x,1/2-y,z
loop_
_atom_site_type_symbol
_atom_site_label
_atom_site_fract_x
_atom_site_fract_y
_atom_site_fract_z
Si Si1 0.431070 0.125149 0.246775
Si Si2 0.931697 0.176323 0.060378
Si Si3 0.568470 0.177038 0.431311
Si Si4 0.931437 0.982333 0.254365
Si Si5 0.567812 0.441565 0.558726
Si Si6 0.068759 0.438751 0.947793
O O1 0.250000 0.123642 0.240336
O O2 0.500095 0.159577 0.158781
O O3 0.483389 0.160115 0.338450
O O4 0.495639 0.052953 0.250328
O O5 0.750000 0.168985 0.064618
O O6 0.967273 0.250000 0.036984
O O7 0.998714 0.125338 0.989868
O O8 0.750000 0.171802 0.414301
O O9 0.535688 0.250000 0.459087
O O10 0.529818 0.124421 0.507134
O O11 0.750000 0.989168 0.264717
O O12 0.962561 0.947506 0.158988
O O13 0.999422 0.946285 0.340985
O O14 0.500000 0.500000 0.500000
O O15 0.750000 0.447990 0.562476
O O16 0.250000 0.438626 0.961126
O O17 0.000000 0.500000 0.000000
#
# Coordination Sequence:
#
# PCOD9452803 Si02
#       6
#     8   8   8   8   8   8
#     4  12  23  35  59  91 122 156 195 245 301 359
#     4  11  24  41  61  87 123 163 200 245 303 361
#     4  10  22  40  60  84 119 160 197 239 295 354
#     4  11  23  39  60  88 121 155 196 246 299 354
#     4  11  22  37  61  88 118 156 199 245 292 350
#     4  11  23  39  63  89 119 158 201 249 298 355
#
# _framework density 17.749980000000001
#
# number of rings (size 3 to 8) (size 9 to 14) (size 15 to 20)
#    0.000    1.000    3.333    4.000    0.000    6.333 
#    0.000    0.833    0.000    3.000    0.000    0.000 
#    0.000    0.000    0.000    0.000    0.000    0.000 
#
# Total GULP energy -268429.726296 kJ/mol
# GULP energy per Si atom -5592.285965 kJ/mol
# Density = 1.770958 g / cm^3
# Si number density = 17.749980 Si / 1000 Ang^3
#
#
#
# Elastic Constant Matrix: (Units=GPa)
#
#
# Indices 1 2 3 4 5 6 
#
# 1 84.6702 79.1690 79.2390 0.0000 0.0000 0.0000
# 2 79.1690 172.8551 96.8971 0.0000 0.0000 0.0000
# 3 79.2390 96.8971 150.8180 0.0000 0.0000 0.0000
# 4 0.0000 0.0000 0.0000 -33.9526 0.0000 0.0000
# 5 0.0000 0.0000 0.0000 0.0000 35.2272 0.0000
# 6 0.0000 0.0000 0.0000 0.0000 0.0000 27.1335
#
#
#
# Elastic Compliance Matrix: (Units=1/GPa)
#
#
# Indices 1 2 3 4 5 6 
#
# 1 0.027919 -0.007134 -0.010085 0.000000 0.000000 0.000000
# 2 -0.007134 0.010864 -0.003232 0.000000 0.000000 0.000000
# 3 -0.010085 -0.003232 0.014006 0.000000 0.000000 0.000000
# 4 0.000000 0.000000 0.000000 -0.029453 0.000000 0.000000
# 5 0.000000 0.000000 0.000000 0.000000 0.028387 0.000000
# 6 0.000000 0.000000 0.000000 0.000000 0.000000 0.036855
#
#
# Mechanical properties :
#
#
# Convention : Reuss Voigt Hill
#
# Bulk Modulus (GPa) = 84.12491 102.10593 93.11542
# Shear Modulus (GPa) = 37.46924 15.88417 26.67671
#
# Velocity S-wave (km/s) = 4.59949 2.99471 3.88095
# Velocity P-wave (km/s) = 8.70082 8.34309 8.52383
#
# Compressibility (1/GPa) = 0.01188709
#
# Stress axis : x y z
#
# Youngs Moduli (GPa) = 35.81771 92.04511 71.39889
#
# Poissons Ratio (x) = 0.65662 0.72008
# Poissons Ratio (y) = 0.25551 0.23076
# Poissons Ratio (z) = 0.36123 0.29749
#
# Static dielectric constant tensor:
#      x y z
#    x 1.595550 0.000000 0.000000 
#    y 0.000000 1.587430 0.000000 
#    z 0.000000 0.000000 1.581370 
# 
# From -- ./inp_files/20462.got.cif
#   From: 2010.05.17/outbox.cif.g08.bks.cpg/sg59_11_cif.got.tgz:20462.got - 2010.06.03 14:40:33.
