data_PCOD9452335
_publ_section_title
;
Structure prediction by ZEFSAII (Michael W. Deem and Ramdas Pophale) SiO2 
 PCOD9452335
Probable space group: P M M N
;
_chemical_formula_sum "Si O2"
_cell_formula_units_Z 40
_cell_length_a 14.278343
_cell_length_b 9.486098
_cell_length_c 14.411047
_cell_angle_alpha 90.000000
_cell_angle_beta 90.000000
_cell_angle_gamma 90.000000
_cell_volume 1951.915227
_symmetry_space_group_name_H-M "P M M N"
_symmetry_group_IT_number 59
_space_group.IT_coordinate_system_code '2'
_symmetry_cell_setting 'orthorhombic'
loop_
_space_group_symop_operation_xyz
x,y,z
1/2-x,1/2-y,z
1/2+x,-y,-z
-x,1/2+y,-z
-x,-y,-z
1/2+x,1/2+y,-z
1/2-x,y,z
x,1/2-y,z
loop_
_atom_site_type_symbol
_atom_site_label
_atom_site_fract_x
_atom_site_fract_y
_atom_site_fract_z
Si Si1 0.138878 0.084788 0.259780
Si Si2 0.526375 0.082805 0.593177
Si Si3 0.854604 0.976925 0.070851
Si Si4 0.648319 0.586161 0.270928
Si Si5 0.437231 0.898059 0.098528
O O1 0.250000 0.071554 0.243986
O O2 0.116508 0.250000 0.272493
O O3 0.107938 0.995109 0.349460
O O4 0.085856 0.022155 0.169873
O O5 0.543850 0.250000 0.577887
O O6 0.436191 0.068873 0.660142
O O7 0.500000 0.000000 0.500000
O O8 0.750000 0.914064 0.055862
O O9 0.855746 0.011779 0.180270
O O10 0.870220 0.089767 0.990340
O O11 0.955056 0.898799 0.063981
O O12 0.750000 0.567872 0.316249
O O13 0.644763 0.750000 0.236353
O O14 0.420968 0.750000 0.149183
#
# Coordination Sequence:
#
# PCOD9452335 Si02
#       5
#     8   8   8   8   8
#     4  11  25  44  65  91 126 171 218 263 316 379
#     4  11  23  42  67  96 127 162 207 261 320 379
#     4  10  21  37  59  91 129 168 208 250 307 378
#     4   9  18  36  62  90 121 159 203 249 302 367
#     4  11  23  40  63  94 129 167 212 264 315 369
#
# _framework density 20.492692999999999
#
# number of rings (size 3 to 8) (size 9 to 14) (size 15 to 20)
#    0.000    1.600    2.000    2.400    0.000    8.800 
#    0.000    4.000    0.000    1.800    0.000    0.000 
#    0.000    0.000    0.000    0.000    0.000    0.000 
#
# Total GULP energy -222814.414427 kJ/mol
# GULP energy per Si atom -5570.360361 kJ/mol
# Density = 2.044605 g / cm^3
# Si number density = 20.492693 Si / 1000 Ang^3
#
#
#
# Elastic Constant Matrix: (Units=GPa)
#
#
# Indices 1 2 3 4 5 6 
#
# 1 125.5302 45.0551 35.5886 0.0000 0.0000 0.0000
# 2 45.0551 124.6599 51.8492 0.0000 0.0000 0.0000
# 3 35.5886 51.8492 91.3682 0.0000 0.0000 0.0000
# 4 0.0000 0.0000 0.0000 21.4060 0.0000 0.0000
# 5 0.0000 0.0000 0.0000 0.0000 21.8092 0.0000
# 6 0.0000 0.0000 0.0000 0.0000 0.0000 15.1945
#
#
#
# Elastic Compliance Matrix: (Units=1/GPa)
#
#
# Indices 1 2 3 4 5 6 
#
# 1 0.009508 -0.002482 -0.002295 0.000000 0.000000 0.000000
# 2 -0.002482 0.011148 -0.005360 0.000000 0.000000 0.000000
# 3 -0.002295 -0.005360 0.014880 0.000000 0.000000 0.000000
# 4 0.000000 0.000000 0.000000 0.046716 0.000000 0.000000
# 5 0.000000 0.000000 0.000000 0.000000 0.045852 0.000000
# 6 0.000000 0.000000 0.000000 0.000000 0.000000 0.065813
#
#
# Mechanical properties :
#
#
# Convention : Reuss Voigt Hill
#
# Bulk Modulus (GPa) = 65.51740 67.39379 66.45560
# Shear Modulus (GPa) = 22.80220 25.61963 24.21092
#
# Velocity S-wave (km/s) = 3.33933 3.53963 3.44094
# Velocity P-wave (km/s) = 6.84899 7.04723 6.94882
#
# Compressibility (1/GPa) = 0.01526312
#
# Stress axis : x y z
#
# Youngs Moduli (GPa) = 105.17920 89.70256 67.20422
#
# Poissons Ratio (x) = 0.22262 0.15423
# Poissons Ratio (y) = 0.26103 0.36018
# Poissons Ratio (z) = 0.24138 0.48076
#
# Static dielectric constant tensor:
#      x y z
#    x 1.756900 0.000000 0.000000 
#    y 0.000000 1.761030 0.000000 
#    z 0.000000 0.000000 1.714510 
# 
# From -- ./inp_files/22971.got.cif
#   From: 2010.05.17/outbox.cif.g08.bks.cpg/sg59_12_cif.got.tgz:22971.got - 2010.06.03 14:40:33.
