data_PCOD9452474
_publ_section_title
;
Structure prediction by ZEFSAII (Michael W. Deem and Ramdas Pophale) SiO2 
 PCOD9452474
Probable space group: P M M N
;
_chemical_formula_sum "Si O2"
_cell_formula_units_Z 64
_cell_length_a 8.851334
_cell_length_b 18.637850
_cell_length_c 20.605694
_cell_angle_alpha 90.000000
_cell_angle_beta 90.000000
_cell_angle_gamma 90.000000
_cell_volume 3399.317947
_symmetry_space_group_name_H-M "P M M N"
_symmetry_group_IT_number 59
_space_group.IT_coordinate_system_code '2'
_symmetry_cell_setting 'orthorhombic'
loop_
_space_group_symop_operation_xyz
x,y,z
1/2-x,1/2-y,z
1/2+x,-y,-z
-x,1/2+y,-z
-x,-y,-z
1/2+x,1/2+y,-z
1/2-x,y,z
x,1/2-y,z
loop_
_atom_site_type_symbol
_atom_site_label
_atom_site_fract_x
_atom_site_fract_y
_atom_site_fract_z
Si Si1 0.570663 0.086736 0.754385
Si Si2 0.429427 0.166629 0.498262
Si Si3 0.569671 0.832818 0.128618
Si Si4 0.430690 0.578307 0.011045
Si Si5 0.431280 0.833832 0.881124
Si Si6 0.069721 0.907076 0.622369
Si Si7 0.569466 0.436802 0.605511
Si Si8 0.569753 0.580887 0.761730
O O1 0.750000 0.097419 0.764350
O O2 0.480454 0.139292 0.800887
O O3 0.539033 0.093869 0.677750
O O4 0.535082 0.003698 0.771595
O O5 0.250000 0.152759 0.497796
O O6 0.454568 0.250000 0.513879
O O7 0.497820 0.148050 0.428197
O O8 0.508839 0.115816 0.550713
O O9 0.750000 0.837136 0.122586
O O10 0.523067 0.750000 0.119072
O O11 0.494472 0.883758 0.075069
O O12 0.250000 0.572560 0.016146
O O13 0.500000 0.500000 0.000000
O O14 0.468078 0.627489 0.948818
O O15 0.250000 0.839440 0.871764
O O16 0.471224 0.750000 0.883490
O O17 0.513356 0.873652 0.822363
O O18 0.250000 0.904514 0.620111
O O19 0.010777 0.895395 0.695367
O O20 0.011052 0.986132 0.601842
O O21 0.750000 0.447233 0.599768
O O22 0.750000 0.586694 0.753388
#
# Coordination Sequence:
#
# PCOD9452474 Si02
#       8
#     8   8   8   8   8   8   8   8
#     4   9  20  38  60  85 113 149 191 234 282 339
#     4  11  24  40  58  83 117 154 192 237 289 344
#     4  11  24  39  57  85 120 155 192 236 285 339
#     4  11  23  40  63  87 114 151 194 241 289 340
#     4  10  22  39  58  83 115 151 190 231 281 342
#     4  11  22  38  62  87 114 151 194 238 284 339
#     4  10  21  39  62  87 116 150 192 240 288 341
#     4  10  21  38  60  87 116 147 188 236 286 339
#
# _framework density 18.827304999999999
#
# number of rings (size 3 to 8) (size 9 to 14) (size 15 to 20)
#    0.000    1.625    0.000    5.250    0.000    9.750 
#    0.000    2.500    0.000    0.000    0.000    0.000 
#    0.000    0.000    0.000    0.000    0.000    0.000 
#
# Total GULP energy -357847.656281 kJ/mol
# GULP energy per Si atom -5591.369629 kJ/mol
# Density = 1.878445 g / cm^3
# Si number density = 18.827305 Si / 1000 Ang^3
#
#
#
# Elastic Constant Matrix: (Units=GPa)
#
#
# Indices 1 2 3 4 5 6 
#
# 1 49.1114 20.5669 20.7425 0.0000 0.0000 0.0000
# 2 20.5669 45.1129 18.0761 0.0000 0.0000 0.0000
# 3 20.7425 18.0761 47.3453 0.0000 0.0000 0.0000
# 4 0.0000 0.0000 0.0000 -14.9294 0.0000 0.0000
# 5 0.0000 0.0000 0.0000 0.0000 34.5224 0.0000
# 6 0.0000 0.0000 0.0000 0.0000 0.0000 29.4164
#
#
#
# Elastic Compliance Matrix: (Units=1/GPa)
#
#
# Indices 1 2 3 4 5 6 
#
# 1 0.027904 -0.009236 -0.008699 0.000000 0.000000 0.000000
# 2 -0.009236 0.029227 -0.007112 0.000000 0.000000 0.000000
# 3 -0.008699 -0.007112 0.027648 0.000000 0.000000 0.000000
# 4 0.000000 0.000000 0.000000 -0.066982 0.000000 0.000000
# 5 0.000000 0.000000 0.000000 0.000000 0.028967 0.000000
# 6 0.000000 0.000000 0.000000 0.000000 0.000000 0.033995
#
#
# Mechanical properties :
#
#
# Convention : Reuss Voigt Hill
#
# Bulk Modulus (GPa) = 28.83111 28.92674 28.87892
# Shear Modulus (GPa) = 35.10912 15.28082 25.19497
#
# Velocity S-wave (km/s) = 4.32302 2.85200 3.66213
# Velocity P-wave (km/s) = 6.34544 5.12278 5.76661
#
# Compressibility (1/GPa) = 0.03468476
#
# Stress axis : x y z
#
# Youngs Moduli (GPa) = 35.83769 34.21499 36.16917
#
# Poissons Ratio (x) = 0.31600 0.31463
# Poissons Ratio (y) = 0.33099 0.25725
# Poissons Ratio (z) = 0.31174 0.24335
#
# Static dielectric constant tensor:
#      x y z
#    x 1.630610 0.000000 0.000000 
#    y 0.000000 1.627510 0.000000 
#    z 0.000000 0.000000 1.625980 
# 
# From -- ./inp_files/29476.got.cif
#   From: 2010.05.17/outbox.cif.g08.bks.cpg/sg59_15_cif.got.tgz:29476.got - 2010.06.03 14:40:33.
