data_PCOD9452497
_publ_section_title
;
Structure prediction by ZEFSAII (Michael W. Deem and Ramdas Pophale) SiO2 
 PCOD9452497
Probable space group: P M M N
;
_chemical_formula_sum "Si O2"
_cell_formula_units_Z 64
_cell_length_a 14.282315
_cell_length_b 7.735760
_cell_length_c 24.949924
_cell_angle_alpha 90.000000
_cell_angle_beta 90.000000
_cell_angle_gamma 90.000000
_cell_volume 2756.581402
_symmetry_space_group_name_H-M "P M M N"
_symmetry_group_IT_number 59
_space_group.IT_coordinate_system_code '2'
_symmetry_cell_setting 'orthorhombic'
loop_
_space_group_symop_operation_xyz
x,y,z
1/2-x,1/2-y,z
1/2+x,-y,-z
-x,1/2+y,-z
-x,-y,-z
1/2+x,1/2+y,-z
1/2-x,y,z
x,1/2-y,z
loop_
_atom_site_type_symbol
_atom_site_label
_atom_site_fract_x
_atom_site_fract_y
_atom_site_fract_z
Si Si1 0.857282 0.947891 0.905797
Si Si2 0.643061 0.037633 0.698182
Si Si3 0.951342 0.945577 0.129664
Si Si4 0.862921 0.458641 0.466236
Si Si5 0.364160 0.954034 0.419167
Si Si6 0.640751 0.041302 0.350624
Si Si7 0.032708 0.455571 0.757027
Si Si8 0.856620 0.448562 0.022333
O O1 0.750000 0.011819 0.901988
O O2 0.859561 0.750000 0.887404
O O3 0.935985 0.050844 0.874291
O O4 0.884441 0.950106 0.969015
O O5 0.750000 0.985324 0.706999
O O6 0.641958 0.250000 0.696609
O O7 0.609574 0.975520 0.639139
O O8 0.570490 0.977606 0.742546
O O9 0.915695 0.750000 0.126192
O O10 0.926421 0.025632 0.187341
O O11 0.914226 0.034722 0.076423
O O12 0.750000 0.487882 0.465059
O O13 0.874448 0.250000 0.467557
O O14 0.897539 0.528930 0.523753
O O15 0.898848 0.521837 0.408439
O O16 0.250000 0.964602 0.419655
O O17 0.386837 0.750000 0.419240
O O18 0.750000 0.991172 0.348194
O O19 0.636805 0.250000 0.351723
O O20 0.591337 0.980963 0.296858
O O21 0.025028 0.250000 0.766218
O O22 0.750000 0.498803 0.035129
O O23 0.858798 0.250000 0.004811
#
# Coordination Sequence:
#
# PCOD9452497 Si02
#       8
#     8   8   8   8   8   8   8   8
#     4  10  21  38  61  88 116 143 172 210 256 307
#     4   8  14  27  47  69  95 129 168 210 256 306
#     4  11  23  37  54  77 109 148 184 220 261 305
#     4   7  10  19  38  65  92 118 155 202 252 307
#     4   7   9  16  36  65  92 118 153 201 253 304
#     4   9  18  33  52  71  95 131 171 212 259 311
#     4  10  22  36  50  73 103 136 175 217 258 299
#     4  10  21  38  61  87 113 141 174 214 261 312
#
# _framework density 23.217161999999998
#
# number of rings (size 3 to 8) (size 9 to 14) (size 15 to 20)
#    0.000    3.000    0.000    3.750    0.000    3.750 
#    0.000    4.375    0.000    0.375    0.000    0.000 
#    0.000    3.000    0.000    0.000    0.000    0.000 
#
# Total GULP energy -357111.022649 kJ/mol
# GULP energy per Si atom -5579.859729 kJ/mol
# Density = 2.316432 g / cm^3
# Si number density = 23.217162 Si / 1000 Ang^3
#
#
#
# Elastic Constant Matrix: (Units=GPa)
#
#
# Indices 1 2 3 4 5 6 
#
# 1 37.6448 -0.7014 17.2230 0.0000 0.0000 0.0000
# 2 -0.7014 40.1769 5.3060 0.0000 0.0000 0.0000
# 3 17.2230 5.3060 59.5265 0.0000 0.0000 0.0000
# 4 0.0000 0.0000 0.0000 8.1227 0.0000 0.0000
# 5 0.0000 0.0000 0.0000 0.0000 22.3771 0.0000
# 6 0.0000 0.0000 0.0000 0.0000 0.0000 15.2949
#
#
#
# Elastic Compliance Matrix: (Units=1/GPa)
#
#
# Indices 1 2 3 4 5 6 
#
# 1 0.030736 0.001731 -0.009047 0.000000 0.000000 0.000000
# 2 0.001731 0.025284 -0.002755 0.000000 0.000000 0.000000
# 3 -0.009047 -0.002755 0.019662 0.000000 0.000000 0.000000
# 4 0.000000 0.000000 0.000000 0.123111 0.000000 0.000000
# 5 0.000000 0.000000 0.000000 0.000000 0.044689 0.000000
# 6 0.000000 0.000000 0.000000 0.000000 0.000000 0.065381
#
#
# Mechanical properties :
#
#
# Convention : Reuss Voigt Hill
#
# Bulk Modulus (GPa) = 18.00470 20.11150 19.05810
# Shear Modulus (GPa) = 14.38777 16.86031 15.62404
#
# Velocity S-wave (km/s) = 2.49209 2.69773 2.59695
# Velocity P-wave (km/s) = 4.00654 4.28775 4.14953
#
# Compressibility (1/GPa) = 0.05554107
#
# Stress axis : x y z
#
# Youngs Moduli (GPa) = 32.53563 39.55073 50.85833
#
# Poissons Ratio (x) = -0.06848 0.46012
# Poissons Ratio (y) = -0.05633 0.14010
# Poissons Ratio (z) = 0.29436 0.10895
#
# Static dielectric constant tensor:
#      x y z
#    x 1.890290 0.000000 0.000000 
#    y 0.000000 1.829590 0.000000 
#    z 0.000000 0.000000 1.911210 
# 
# From -- ./inp_files/32160.got.cif
#   From: 2010.05.17/outbox.cif.g08.bks.cpg/sg59_17_cif.got.tgz:32160.got - 2010.06.03 14:40:33.
