data_PCOD9452217
_publ_section_title
;
Structure prediction by ZEFSAII (Michael W. Deem and Ramdas Pophale) SiO2 
 PCOD9452217
Probable space group: P M M N
;
_chemical_formula_sum "Si O2"
_cell_formula_units_Z 64
_cell_length_a 9.026810
_cell_length_b 14.751493
_cell_length_c 26.746542
_cell_angle_alpha 90.000000
_cell_angle_beta 90.000000
_cell_angle_gamma 90.000000
_cell_volume 3561.540768
_symmetry_space_group_name_H-M "P M M N"
_symmetry_group_IT_number 59
_space_group.IT_coordinate_system_code '2'
_symmetry_cell_setting 'orthorhombic'
loop_
_space_group_symop_operation_xyz
x,y,z
1/2-x,1/2-y,z
1/2+x,-y,-z
-x,1/2+y,-z
-x,-y,-z
1/2+x,1/2+y,-z
1/2-x,y,z
x,1/2-y,z
loop_
_atom_site_type_symbol
_atom_site_label
_atom_site_fract_x
_atom_site_fract_y
_atom_site_fract_z
Si Si1 0.075434 0.858098 0.126851
Si Si2 0.423286 0.141571 0.240084
Si Si3 0.926359 0.497586 0.312459
Si Si4 0.572383 0.643949 0.496270
Si Si5 0.426464 0.496637 0.945965
Si Si6 0.073087 0.994620 0.420863
Si Si7 0.426746 0.642576 0.241464
Si Si8 0.074125 0.643557 0.864304
O O1 0.250000 0.879357 0.120797
O O2 0.058972 0.750000 0.121571
O O3 0.033422 0.881431 0.184082
O O4 0.982304 0.911645 0.086294
O O5 0.250000 0.118061 0.243872
O O6 0.438883 0.250000 0.245393
O O7 0.484540 0.117006 0.185231
O O8 0.514124 0.089015 0.281954
O O9 0.750000 0.497189 0.315313
O O10 0.996658 0.499701 0.367336
O O11 0.983989 0.583322 0.280614
O O12 0.750000 0.639067 0.487734
O O13 0.531824 0.750000 0.500355
O O14 0.489414 0.590875 0.451995
O O15 0.541341 0.584746 0.546038
O O16 0.250000 0.494582 0.951441
O O17 0.466657 0.583617 0.911935
O O18 0.500000 0.500000 0.000000
O O19 0.250000 0.986946 0.415457
O O20 0.250000 0.626802 0.247157
O O21 0.451876 0.750000 0.247898
O O22 0.250000 0.631106 0.854564
O O23 0.048470 0.750000 0.873702
#
# Coordination Sequence:
#
# PCOD9452217 Si02
#       8
#     8   8   8   8   8   8   8   8
#     4   9  19  37  59  80 105 139 177 221 274 328
#     4  10  21  37  58  83 110 143 183 225 272 328
#     4  12  24  36  54  82 118 154 185 226 275 320
#     4   9  19  38  62  84 108 141 182 229 279 328
#     4  11  23  36  53  79 108 141 180 222 270 323
#     4  10  21  37  57  83 113 146 186 228 272 324
#     4   9  19  37  60  84 110 144 185 225 270 327
#     4   9  19  37  58  79 106 140 178 221 271 327
#
# _framework density 17.969750999999999
#
# number of rings (size 3 to 8) (size 9 to 14) (size 15 to 20)
#    0.000    2.125    0.000    3.750    0.000    7.000 
#    0.000    3.750    0.000    0.000    0.000    0.000 
#    0.000    0.000    0.000    0.000    0.000    0.000 
#
# Total GULP energy -357449.610144 kJ/mol
# GULP energy per Si atom -5585.150159 kJ/mol
# Density = 1.792885 g / cm^3
# Si number density = 17.969751 Si / 1000 Ang^3
#
#
#
# Elastic Constant Matrix: (Units=GPa)
#
#
# Indices 1 2 3 4 5 6 
#
# 1 86.8309 60.1310 95.9409 0.0000 0.0000 0.0000
# 2 60.1310 102.5423 79.0244 0.0000 0.0000 0.0000
# 3 95.9409 79.0244 183.4959 0.0000 0.0000 0.0000
# 4 0.0000 0.0000 0.0000 41.3318 0.0000 0.0000
# 5 0.0000 0.0000 0.0000 0.0000 30.9577 0.0000
# 6 0.0000 0.0000 0.0000 0.0000 0.0000 29.7884
#
#
#
# Elastic Compliance Matrix: (Units=1/GPa)
#
#
# Indices 1 2 3 4 5 6 
#
# 1 0.031744 -0.008717 -0.012843 0.000000 0.000000 0.000000
# 2 -0.008717 0.016990 -0.002759 0.000000 0.000000 0.000000
# 3 -0.012843 -0.002759 0.013353 0.000000 0.000000 0.000000
# 4 0.000000 0.000000 0.000000 0.024194 0.000000 0.000000
# 5 0.000000 0.000000 0.000000 0.000000 0.032302 0.000000
# 6 0.000000 0.000000 0.000000 0.000000 0.000000 0.033570
#
#
# Mechanical properties :
#
#
# Convention : Reuss Voigt Hill
#
# Bulk Modulus (GPa) = 74.35990 93.67352 84.01671
# Shear Modulus (GPa) = 24.35744 29.60042 26.97893
#
# Velocity S-wave (km/s) = 3.68566 4.06302 3.87893
# Velocity P-wave (km/s) = 7.71898 8.61699 8.18031
#
# Compressibility (1/GPa) = 0.01344811
#
# Stress axis : x y z
#
# Youngs Moduli (GPa) = 31.50203 58.85735 74.88877
#
# Poissons Ratio (x) = 0.51306 0.96182
# Poissons Ratio (y) = 0.27461 0.20664
# Poissons Ratio (z) = 0.40459 0.16240
#
# Static dielectric constant tensor:
#      x y z
#    x 1.600130 0.000000 0.000000 
#    y 0.000000 1.615910 0.000000 
#    z 0.000000 0.000000 1.578650 
# 
# From -- ./inp_files/31417.got.cif
#   From: 2010.05.17/outbox.cif.g08.bks.cpg/sg59_16_cif.got.tgz:31417.got - 2010.06.03 14:40:33.
