data_PCOD9452417
_publ_section_title
;
Structure prediction by ZEFSAII (Michael W. Deem and Ramdas Pophale) SiO2 
 PCOD9452417
Probable space group: P M M N
;
_chemical_formula_sum "Si O2"
_cell_formula_units_Z 56
_cell_length_a 20.553120
_cell_length_b 12.791625
_cell_length_c 12.026617
_cell_angle_alpha 90.000000
_cell_angle_beta 90.000000
_cell_angle_gamma 90.000000
_cell_volume 3161.891460
_symmetry_space_group_name_H-M "P M M N"
_symmetry_group_IT_number 59
_space_group.IT_coordinate_system_code '2'
_symmetry_cell_setting 'orthorhombic'
loop_
_space_group_symop_operation_xyz
x,y,z
1/2-x,1/2-y,z
1/2+x,-y,-z
-x,1/2+y,-z
-x,-y,-z
1/2+x,1/2+y,-z
1/2-x,y,z
x,1/2-y,z
loop_
_atom_site_type_symbol
_atom_site_label
_atom_site_fract_x
_atom_site_fract_y
_atom_site_fract_z
Si Si1 0.594456 0.474292 0.935692
Si Si2 0.440068 0.525918 0.646064
Si Si3 0.824555 0.124549 0.736581
Si Si4 0.325076 0.369182 0.654749
Si Si5 0.980063 0.372327 0.129980
Si Si6 0.445469 0.871763 0.412978
Si Si7 0.174414 0.364562 0.922679
O O1 0.641598 0.423848 0.845156
O O2 0.542712 0.552300 0.878691
O O3 0.557043 0.390891 0.012991
O O4 0.634789 0.544984 0.020800
O O5 0.376534 0.456136 0.620465
O O6 0.439419 0.584998 0.763972
O O7 0.500716 0.445440 0.643652
O O8 0.448742 0.605439 0.544085
O O9 0.750000 0.088377 0.721167
O O10 0.822888 0.250000 0.748965
O O11 0.874104 0.102222 0.635459
O O12 0.250000 0.390108 0.622781
O O13 0.341458 0.250000 0.618724
O O14 0.327962 0.369507 0.789329
O O15 0.995045 0.250000 0.144428
O O16 0.458720 0.750000 0.389220
O O17 0.250000 0.371135 0.954801
O O18 0.148932 0.250000 0.956294
#
# Coordination Sequence:
#
# PCOD9452417 Si02
#       7
#     8   8   8   8   8   8   8
#     4  11  20  36  54  80 112 154 181 223 277 333
#     4  11  20  38  59  81 111 148 180 237 294 327
#     4  10  21  38  59  83 113 150 191 230 269 329
#     4   9  18  33  55  83 111 141 181 227 276 332
#     4  11  23  35  53  84 115 143 185 233 281 336
#     4  10  22  38  59  83 106 144 196 234 274 335
#     4   9  17  30  51  78 107 141 181 219 261 322
#
# _framework density 17.710917999999999
#
# number of rings (size 3 to 8) (size 9 to 14) (size 15 to 20)
#    0.000    1.857    2.857    3.000    0.000    0.571 
#    0.000    0.000    0.000    2.143    0.000    0.000 
#    0.000    0.000    0.000    0.000    0.000    0.000 
#
# Total GULP energy -312297.164795 kJ/mol
# GULP energy per Si atom -5576.735086 kJ/mol
# Density = 1.767061 g / cm^3
# Si number density = 17.710918 Si / 1000 Ang^3
#
#
#
# Elastic Constant Matrix: (Units=GPa)
#
#
# Indices 1 2 3 4 5 6 
#
# 1 74.2204 27.3357 14.3621 0.0000 0.0000 0.0000
# 2 27.3357 57.9981 26.2123 0.0000 0.0000 0.0000
# 3 14.3621 26.2123 46.9921 0.0000 0.0000 0.0000
# 4 0.0000 0.0000 0.0000 16.8810 0.0000 0.0000
# 5 0.0000 0.0000 0.0000 0.0000 20.4966 0.0000
# 6 0.0000 0.0000 0.0000 0.0000 0.0000 21.0726
#
#
#
# Elastic Compliance Matrix: (Units=1/GPa)
#
#
# Indices 1 2 3 4 5 6 
#
# 1 0.016334 -0.007277 -0.000933 0.000000 0.000000 0.000000
# 2 -0.007277 0.026296 -0.012444 0.000000 0.000000 0.000000
# 3 -0.000933 -0.012444 0.028507 0.000000 0.000000 0.000000
# 4 0.000000 0.000000 0.000000 0.059238 0.000000 0.000000
# 5 0.000000 0.000000 0.000000 0.000000 0.048789 0.000000
# 6 0.000000 0.000000 0.000000 0.000000 0.000000 0.047455
#
#
# Mechanical properties :
#
#
# Convention : Reuss Voigt Hill
#
# Bulk Modulus (GPa) = 33.52466 35.00341 34.26403
# Shear Modulus (GPa) = 17.99413 19.11007 18.55210
#
# Velocity S-wave (km/s) = 3.19092 3.28838 3.24001
# Velocity P-wave (km/s) = 5.70490 5.85017 5.77799
#
# Compressibility (1/GPa) = 0.02982879
#
# Stress axis : x y z
#
# Youngs Moduli (GPa) = 61.22181 38.02906 35.07969
#
# Poissons Ratio (x) = 0.27673 0.03273
# Poissons Ratio (y) = 0.44550 0.43652
# Poissons Ratio (z) = 0.05712 0.47323
#
# Static dielectric constant tensor:
#      x y z
#    x 1.614870 0.000000 0.000000 
#    y 0.000000 1.590520 0.000000 
#    z 0.000000 0.000000 1.583380 
# 
# From -- ./inp_files/16034.got.cif
#   From: 2010.05.17/outbox.cif.g08.bks.cpg/sg59_9_cif.got.tgz:16034.got - 2010.06.03 14:40:33.
