data_PCOD9452097
_publ_section_title
;
Structure prediction by ZEFSAII (Michael W. Deem and Ramdas Pophale) SiO2 
 PCOD9452097
Probable space group: P M M N
;
_chemical_formula_sum "Si O2"
_cell_formula_units_Z 48
_cell_length_a 9.380143
_cell_length_b 15.219335
_cell_length_c 16.060898
_cell_angle_alpha 90.000000
_cell_angle_beta 90.000000
_cell_angle_gamma 90.000000
_cell_volume 2292.846389
_symmetry_space_group_name_H-M "P M M N"
_symmetry_group_IT_number 59
_space_group.IT_coordinate_system_code '2'
_symmetry_cell_setting 'orthorhombic'
loop_
_space_group_symop_operation_xyz
x,y,z
1/2-x,1/2-y,z
1/2+x,-y,-z
-x,1/2+y,-z
-x,-y,-z
1/2+x,1/2+y,-z
1/2-x,y,z
x,1/2-y,z
loop_
_atom_site_type_symbol
_atom_site_label
_atom_site_fract_x
_atom_site_fract_y
_atom_site_fract_z
Si Si1 0.588475 0.608628 0.924706
Si Si2 0.409267 0.355357 0.440606
Si Si3 0.413554 0.606567 0.083283
Si Si4 0.919393 0.901983 0.246218
Si Si5 0.407923 0.853939 0.408339
Si Si6 0.581238 0.582652 0.745678
O O1 0.750000 0.632977 0.947851
O O2 0.584065 0.501073 0.920056
O O3 0.559434 0.638188 0.830070
O O4 0.480648 0.636767 0.996195
O O5 0.250000 0.388675 0.459934
O O6 0.405906 0.250000 0.449524
O O7 0.521424 0.390711 0.507621
O O8 0.439261 0.374418 0.344105
O O9 0.250000 0.633349 0.093551
O O10 0.507630 0.634578 0.162285
O O11 0.750000 0.892240 0.244298
O O12 0.989056 0.864505 0.329848
O O13 0.971109 0.002919 0.249043
O O14 0.250000 0.891376 0.391828
O O15 0.392600 0.750000 0.420813
O O16 0.750000 0.554613 0.750221
#
# Coordination Sequence:
#
# PCOD9452097 Si02
#       6
#     8   8   8   8   8   8
#     4   8  14  25  42  66  96 130 164 197 238 287
#     4   9  18  34  55  76  98 128 166 204 243 290
#     4   9  16  27  44  67  97 130 162 199 244 291
#     4  11  21  32  50  75 101 129 164 206 247 289
#     4  10  21  37  55  73  96 128 163 200 246 299
#     4   9  18  32  50  74 104 133 163 203 248 291
#
# _framework density 20.934677000000001
#
# number of rings (size 3 to 8) (size 9 to 14) (size 15 to 20)
#    0.000    2.667    0.000    3.500    0.000    6.333 
#    0.000    0.000    0.000    1.000    0.000    2.333 
#    0.000    0.000    0.000    0.000    0.000    0.000 
#
# Total GULP energy -267758.006064 kJ/mol
# GULP energy per Si atom -5578.291793 kJ/mol
# Density = 2.088703 g / cm^3
# Si number density = 20.934677 Si / 1000 Ang^3
#
#
#
# Elastic Constant Matrix: (Units=GPa)
#
#
# Indices 1 2 3 4 5 6 
#
# 1 180.9332 14.6068 120.4290 0.0000 0.0000 0.0000
# 2 14.6068 27.6545 5.2510 0.0000 0.0000 0.0000
# 3 120.4290 5.2510 191.7693 0.0000 0.0000 0.0000
# 4 0.0000 0.0000 0.0000 38.3578 0.0000 0.0000
# 5 0.0000 0.0000 0.0000 0.0000 41.3523 0.0000
# 6 0.0000 0.0000 0.0000 0.0000 0.0000 9.6151
#
#
#
# Elastic Compliance Matrix: (Units=1/GPa)
#
#
# Indices 1 2 3 4 5 6 
#
# 1 0.009935 -0.004084 -0.006127 0.000000 0.000000 0.000000
# 2 -0.004084 0.038028 0.001523 0.000000 0.000000 0.000000
# 3 -0.006127 0.001523 0.009021 0.000000 0.000000 0.000000
# 4 0.000000 0.000000 0.000000 0.026070 0.000000 0.000000
# 5 0.000000 0.000000 0.000000 0.000000 0.024182 0.000000
# 6 0.000000 0.000000 0.000000 0.000000 0.000000 0.104003
#
#
# Mechanical properties :
#
#
# Convention : Reuss Voigt Hill
#
# Bulk Modulus (GPa) = 25.24722 75.65897 50.45309
# Shear Modulus (GPa) = 20.67676 35.20308 27.93992
#
# Velocity S-wave (km/s) = 3.14615 4.10514 3.65721
# Velocity P-wave (km/s) = 5.02830 7.66084 6.47967
#
# Compressibility (1/GPa) = 0.03960832
#
# Stress axis : x y z
#
# Youngs Moduli (GPa) = 100.65614 26.29620 110.85677
#
# Poissons Ratio (x) = 0.10739 0.67923
# Poissons Ratio (y) = 0.41108 -0.16888
# Poissons Ratio (z) = 0.61673 -0.04006
#
# Static dielectric constant tensor:
#      x y z
#    x 1.732360 0.000000 0.000000 
#    y 0.000000 1.798820 0.000000 
#    z 0.000000 0.000000 1.759320 
# 
# From -- ./inp_files/20772.got.cif
#   From: 2010.05.17/outbox.cif.g08.bks.cpg/sg59_11_cif.got.tgz:20772.got - 2010.06.03 14:40:33.
