data_PCOD9452981
_publ_section_title
;
Structure prediction by ZEFSAII (Michael W. Deem and Ramdas Pophale) SiO2 
 PCOD9452981
Probable space group: P M M N
;
_chemical_formula_sum "Si O2"
_cell_formula_units_Z 48
_cell_length_a 27.021478
_cell_length_b 7.816790
_cell_length_c 12.404316
_cell_angle_alpha 90.000000
_cell_angle_beta 90.000000
_cell_angle_gamma 90.000000
_cell_volume 2620.054747
_symmetry_space_group_name_H-M "P M M N"
_symmetry_group_IT_number 59
_space_group.IT_coordinate_system_code '2'
_symmetry_cell_setting 'orthorhombic'
loop_
_space_group_symop_operation_xyz
x,y,z
1/2-x,1/2-y,z
1/2+x,-y,-z
-x,1/2+y,-z
-x,-y,-z
1/2+x,1/2+y,-z
1/2-x,y,z
x,1/2-y,z
loop_
_atom_site_type_symbol
_atom_site_label
_atom_site_fract_x
_atom_site_fract_y
_atom_site_fract_z
Si Si1 0.942994 0.549074 0.477293
Si Si2 0.882966 0.547567 0.674538
Si Si3 0.306690 0.040093 0.152470
Si Si4 0.965830 0.952449 0.859377
Si Si5 0.067804 0.952829 0.767261
Si Si6 0.886222 0.956543 0.023434
O O1 0.942011 0.750000 0.496714
O O2 0.904195 0.471922 0.563615
O O3 0.928063 0.516282 0.354330
O O4 0.000000 0.500000 0.500000
O O5 0.872551 0.750000 0.658143
O O6 0.835614 0.479633 0.740028
O O7 0.928141 0.535228 0.759332
O O8 0.250000 0.985077 0.147541
O O9 0.307331 0.250000 0.153704
O O10 0.339522 0.988324 0.048745
O O11 0.973386 0.750000 0.880585
O O12 0.935607 0.023405 0.961287
O O13 0.017733 0.028168 0.821512
O O14 0.061484 0.750000 0.758585
O O15 0.110923 0.990665 0.852562
O O16 0.887263 0.750000 0.018698
#
# Coordination Sequence:
#
# PCOD9452981 Si02
#       6
#     8   8   8   8   8   8
#     4  11  20  31  47  67  96 133 167 199 235 281
#     4   8  14  26  44  67  95 122 151 192 238 279
#     4   8  14  27  51  77  95 114 146 195 251 295
#     4   8  14  26  43  63  91 124 153 187 228 273
#     4  11  20  30  44  64  96 133 165 191 226 280
#     4   9  17  29  46  69  95 120 153 195 239 283
#
# _framework density 18.320228
#
# number of rings (size 3 to 8) (size 9 to 14) (size 15 to 20)
#    0.000    2.833    1.667    3.500    0.000    0.000 
#    0.000    0.833    0.000    1.500    0.000    4.667 
#    0.000    0.000    0.000    0.000    0.000    0.000 
#
# Total GULP energy -267400.630929 kJ/mol
# GULP energy per Si atom -5570.846478 kJ/mol
# Density = 1.827853 g / cm^3
# Si number density = 18.320228 Si / 1000 Ang^3
#
#
#
# Elastic Constant Matrix: (Units=GPa)
#
#
# Indices 1 2 3 4 5 6 
#
# 1 78.0342 -3.1987 33.1946 0.0000 0.0000 0.0000
# 2 -3.1987 24.0720 -8.8640 0.0000 0.0000 0.0000
# 3 33.1946 -8.8640 107.8482 0.0000 0.0000 0.0000
# 4 0.0000 0.0000 0.0000 15.7182 0.0000 0.0000
# 5 0.0000 0.0000 0.0000 0.0000 5.7184 0.0000
# 6 0.0000 0.0000 0.0000 0.0000 0.0000 9.0675
#
#
#
# Elastic Compliance Matrix: (Units=1/GPa)
#
#
# Indices 1 2 3 4 5 6 
#
# 1 0.014748 0.000297 -0.004515 0.000000 0.000000 0.000000
# 2 0.000297 0.042845 0.003430 0.000000 0.000000 0.000000
# 3 -0.004515 0.003430 0.010944 0.000000 0.000000 0.000000
# 4 0.000000 0.000000 0.000000 0.063621 0.000000 0.000000
# 5 0.000000 0.000000 0.000000 0.000000 0.174873 0.000000
# 6 0.000000 0.000000 0.000000 0.000000 0.000000 0.110284
#
#
# Mechanical properties :
#
#
# Convention : Reuss Voigt Hill
#
# Bulk Modulus (GPa) = 14.93414 28.02424 21.47919
# Shear Modulus (GPa) = 11.33248 18.68898 15.01073
#
# Velocity S-wave (km/s) = 2.48982 3.19741 2.86554
# Velocity P-wave (km/s) = 4.05401 5.38157 4.76426
#
# Compressibility (1/GPa) = 0.06696065
#
# Stress axis : x y z
#
# Youngs Moduli (GPa) = 67.80775 23.34021 91.37615
#
# Poissons Ratio (x) = -0.00694 0.41254
# Poissons Ratio (y) = -0.02015 -0.31341
# Poissons Ratio (z) = 0.30613 -0.08005
#
# Static dielectric constant tensor:
#      x y z
#    x 1.633600 0.000000 0.000000 
#    y 0.000000 1.701340 0.000000 
#    z 0.000000 0.000000 1.677070 
# 
# From -- ./inp_files/14525.got.cif
#   From: 2010.05.17/outbox.cif.g08.bks.cpg/sg59_8_cif.got.tgz:14525.got - 2010.06.03 14:40:33.
