data_PCOD9452157
_publ_section_title
;
Structure prediction by ZEFSAII (Michael W. Deem and Ramdas Pophale) SiO2 
 PCOD9452157
Probable space group: P M M N
;
_chemical_formula_sum "Si O2"
_cell_formula_units_Z 56
_cell_length_a 7.859782
_cell_length_b 15.985722
_cell_length_c 21.777205
_cell_angle_alpha 90.000000
_cell_angle_beta 90.000000
_cell_angle_gamma 90.000000
_cell_volume 2736.181461
_symmetry_space_group_name_H-M "P M M N"
_symmetry_group_IT_number 59
_space_group.IT_coordinate_system_code '2'
_symmetry_cell_setting 'orthorhombic'
loop_
_space_group_symop_operation_xyz
x,y,z
1/2-x,1/2-y,z
1/2+x,-y,-z
-x,1/2+y,-z
-x,-y,-z
1/2+x,1/2+y,-z
1/2-x,y,z
x,1/2-y,z
loop_
_atom_site_type_symbol
_atom_site_label
_atom_site_fract_x
_atom_site_fract_y
_atom_site_fract_z
Si Si1 0.952466 0.982772 0.153234
Si Si2 0.043452 0.159237 0.094069
Si Si3 0.550879 0.158179 0.628865
Si Si4 0.548504 0.503366 0.289089
Si Si5 0.545586 0.588722 0.030580
Si Si6 0.951691 0.902256 0.502453
Si Si7 0.545199 0.157062 0.361916
O O1 0.750000 0.967032 0.155952
O O2 0.023753 0.976250 0.221794
O O3 0.021340 0.920494 0.100103
O O4 0.977855 0.078096 0.129857
O O5 0.250000 0.154976 0.095425
O O6 0.990935 0.250000 0.118828
O O7 0.988356 0.152113 0.022361
O O8 0.750000 0.157622 0.643918
O O9 0.479657 0.250000 0.644260
O O10 0.471189 0.080977 0.665101
O O11 0.531767 0.142616 0.556283
O O12 0.750000 0.488867 0.280866
O O13 0.477609 0.418858 0.320075
O O14 0.750000 0.597308 0.034430
O O15 0.500000 0.500000 0.000000
O O16 0.750000 0.894740 0.496771
O O17 0.006644 0.864233 0.567316
O O18 0.000000 0.000000 0.500000
O O19 0.750000 0.158193 0.355870
O O20 0.480879 0.250000 0.346552
#
# Coordination Sequence:
#
# PCOD9452157 Si02
#       7
#     8   8   8   8   8   8   8
#     4   9  18  32  51  75 102 136 179 220 265 318
#     4   9  17  29  47  73 103 136 174 216 267 323
#     4  11  24  41  61  84 111 145 184 229 281 331
#     4  10  21  37  57  81 111 149 188 227 272 328
#     4   8  14  27  46  68  96 128 165 210 254 301
#     4  12  23  37  60  87 113 142 181 230 282 332
#     4  10  21  37  56  80 112 148 184 225 276 332
#
# _framework density 20.466479
#
# number of rings (size 3 to 8) (size 9 to 14) (size 15 to 20)
#    0.000    2.143    1.429    2.143    0.000    4.571 
#    0.000    2.143    0.000    2.571    0.000    0.000 
#    0.000    0.000    0.000    0.000    0.000    0.000 
#
# Total GULP energy -312324.452964 kJ/mol
# GULP energy per Si atom -5577.222374 kJ/mol
# Density = 2.041990 g / cm^3
# Si number density = 20.466479 Si / 1000 Ang^3
#
#
#
# Elastic Constant Matrix: (Units=GPa)
#
#
# Indices 1 2 3 4 5 6 
#
# 1 23.9903 -5.9392 -4.3536 0.0000 0.0000 0.0000
# 2 -5.9392 77.5199 8.9354 0.0000 0.0000 0.0000
# 3 -4.3536 8.9354 110.4808 0.0000 0.0000 0.0000
# 4 0.0000 0.0000 0.0000 47.0598 0.0000 0.0000
# 5 0.0000 0.0000 0.0000 0.0000 9.3041 0.0000
# 6 0.0000 0.0000 0.0000 0.0000 0.0000 17.1559
#
#
#
# Elastic Compliance Matrix: (Units=1/GPa)
#
#
# Indices 1 2 3 4 5 6 
#
# 1 0.042713 0.003107 0.001432 0.000000 0.000000 0.000000
# 2 0.003107 0.013247 -0.000949 0.000000 0.000000 0.000000
# 3 0.001432 -0.000949 0.009185 0.000000 0.000000 0.000000
# 4 0.000000 0.000000 0.000000 0.021250 0.000000 0.000000
# 5 0.000000 0.000000 0.000000 0.000000 0.107479 0.000000
# 6 0.000000 0.000000 0.000000 0.000000 0.000000 0.058289
#
#
# Mechanical properties :
#
#
# Convention : Reuss Voigt Hill
#
# Bulk Modulus (GPa) = 13.82650 23.25293 18.53971
# Shear Modulus (GPa) = 18.58113 28.92719 23.75416
#
# Velocity S-wave (km/s) = 3.01638 3.76359 3.41051
# Velocity P-wave (km/s) = 4.34761 5.50203 4.95853
#
# Compressibility (1/GPa) = 0.07232490
#
# Stress axis : x y z
#
# Youngs Moduli (GPa) = 23.41230 75.48668 108.87886
#
# Poissons Ratio (x) = -0.23457 -0.15589
# Poissons Ratio (y) = -0.07275 0.10332
# Poissons Ratio (z) = -0.03352 0.07163
#
# Static dielectric constant tensor:
#      x y z
#    x 1.723600 0.000000 0.000000 
#    y 0.000000 1.730980 0.000000 
#    z 0.000000 0.000000 1.744990 
# 
# From -- ./inp_files/28975.got.cif
#   From: 2010.05.17/outbox.cif.g08.bks.cpg/sg59_15_cif.got.tgz:28975.got - 2010.06.03 14:40:33.
