data_PCOD9452876
_publ_section_title
;
Structure prediction by ZEFSAII (Michael W. Deem and Ramdas Pophale) SiO2 
 PCOD9452876
Probable space group: P M M N
;
_chemical_formula_sum "Si O2"
_cell_formula_units_Z 56
_cell_length_a 14.637092
_cell_length_b 22.010251
_cell_length_c 8.942293
_cell_angle_alpha 90.000000
_cell_angle_beta 90.000000
_cell_angle_gamma 90.000000
_cell_volume 2880.903382
_symmetry_space_group_name_H-M "P M M N"
_symmetry_group_IT_number 59
_space_group.IT_coordinate_system_code '2'
_symmetry_cell_setting 'orthorhombic'
loop_
_space_group_symop_operation_xyz
x,y,z
1/2-x,1/2-y,z
1/2+x,-y,-z
-x,1/2+y,-z
-x,-y,-z
1/2+x,1/2+y,-z
1/2-x,y,z
x,1/2-y,z
loop_
_atom_site_type_symbol
_atom_site_label
_atom_site_fract_x
_atom_site_fract_y
_atom_site_fract_z
Si Si1 0.355224 0.909084 0.634831
Si Si2 0.143657 0.385655 0.139821
Si Si3 0.151390 0.822169 0.886038
Si Si4 0.495319 0.514003 0.823149
Si Si5 0.496534 0.891841 0.371873
Si Si6 0.019738 0.321908 0.917477
Si Si7 0.857551 0.680081 0.556923
O O1 0.250000 0.927369 0.610959
O O2 0.356699 0.843928 0.716632
O O3 0.406833 0.951392 0.756242
O O4 0.413391 0.903401 0.484918
O O5 0.250000 0.401732 0.128199
O O6 0.132988 0.333700 0.266383
O O7 0.082278 0.441637 0.197006
O O8 0.104795 0.359539 0.983784
O O9 0.250000 0.845596 0.942160
O O10 0.152166 0.750000 0.895282
O O11 0.064795 0.842609 0.979403
O O12 0.496682 0.452668 0.726623
O O13 0.500000 0.500000 0.000000
O O14 0.490731 0.838634 0.249439
O O15 0.582906 0.870038 0.470578
O O16 0.035687 0.250000 0.932479
O O17 0.750000 0.674134 0.519604
O O18 0.885347 0.750000 0.525281
#
# Coordination Sequence:
#
# PCOD9452876 Si02
#       7
#     8   8   8   8   8   8   8
#     4  11  24  41  64  95 126 167 217 263 320 389
#     4  11  23  42  68  98 129 174 226 276 329 394
#     4   9  18  36  62  89 121 163 210 259 311 374
#     4  12  24  46  67  91 128 173 222 273 327 389
#     4  12  24  41  64  92 135 172 211 267 330 395
#     4  11  22  39  65  95 130 170 216 273 331 390
#     4  10  22  41  67  98 133 172 214 267 336 406
#
# _framework density 19.438347
#
# number of rings (size 3 to 8) (size 9 to 14) (size 15 to 20)
#    0.000    1.143    4.286    1.286    0.000    6.000 
#    0.000    0.000    0.000    0.000    0.000    0.000 
#    0.000    0.000    0.000    0.000    0.000    0.000 
#
# Total GULP energy -312358.647968 kJ/mol
# GULP energy per Si atom -5577.832999 kJ/mol
# Density = 1.939410 g / cm^3
# Si number density = 19.438347 Si / 1000 Ang^3
#
#
#
# Elastic Constant Matrix: (Units=GPa)
#
#
# Indices 1 2 3 4 5 6 
#
# 1 134.0081 51.0195 58.6559 0.0000 0.0000 0.0000
# 2 51.0195 63.6686 23.8881 0.0000 0.0000 0.0000
# 3 58.6559 23.8881 112.0433 0.0000 0.0000 0.0000
# 4 0.0000 0.0000 0.0000 35.5653 0.0000 0.0000
# 5 0.0000 0.0000 0.0000 0.0000 -7.0307 0.0000
# 6 0.0000 0.0000 0.0000 0.0000 0.0000 17.3475
#
#
#
# Elastic Compliance Matrix: (Units=1/GPa)
#
#
# Indices 1 2 3 4 5 6 
#
# 1 0.012824 -0.008432 -0.004916 0.000000 0.000000 0.000000
# 2 -0.008432 0.022616 -0.000408 0.000000 0.000000 0.000000
# 3 -0.004916 -0.000408 0.011586 0.000000 0.000000 0.000000
# 4 0.000000 0.000000 0.000000 0.028117 0.000000 0.000000
# 5 0.000000 0.000000 0.000000 0.000000 -0.142233 0.000000
# 6 0.000000 0.000000 0.000000 0.000000 0.000000 0.057645
#
#
# Mechanical properties :
#
#
# Convention : Reuss Voigt Hill
#
# Bulk Modulus (GPa) = 51.24300 64.09411 57.66856
# Shear Modulus (GPa) = 203.49507 20.92019 112.20763
#
# Velocity S-wave (km/s) = 10.24279 3.28416 7.60593
# Velocity P-wave (km/s) = 12.89594 6.88662 10.33757
#
# Compressibility (1/GPa) = 0.01951486
#
# Stress axis : x y z
#
# Youngs Moduli (GPa) = 77.97804 44.21645 86.31462
#
# Poissons Ratio (x) = 0.37283 0.42431
# Poissons Ratio (y) = 0.65751 0.03518
# Poissons Ratio (z) = 0.38333 0.01802
#
# Static dielectric constant tensor:
#      x y z
#    x 1.707990 0.000000 0.000000 
#    y 0.000000 1.710070 0.000000 
#    z 0.000000 0.000000 1.757100 
# 
# From -- ./inp_files/9386.got.cif
#   From: 2010.05.17/outbox.cif.g08.bks.cpg/sg59_5_cif.got.tgz:9386.got - 2010.06.03 14:40:33.
