data_PCOD9452664
_publ_section_title
;
Structure prediction by ZEFSAII (Michael W. Deem and Ramdas Pophale) SiO2 
 PCOD9452664
Probable space group: P M M N
;
_chemical_formula_sum "Si O2"
_cell_formula_units_Z 48
_cell_length_a 34.915643
_cell_length_b 8.287723
_cell_length_c 7.809736
_cell_angle_alpha 90.000000
_cell_angle_beta 90.000000
_cell_angle_gamma 90.000000
_cell_volume 2259.912503
_symmetry_space_group_name_H-M "P M M N"
_symmetry_group_IT_number 59
_space_group.IT_coordinate_system_code '2'
_symmetry_cell_setting 'orthorhombic'
loop_
_space_group_symop_operation_xyz
x,y,z
1/2-x,1/2-y,z
1/2+x,-y,-z
-x,1/2+y,-z
-x,-y,-z
1/2+x,1/2+y,-z
1/2-x,y,z
x,1/2-y,z
loop_
_atom_site_type_symbol
_atom_site_label
_atom_site_fract_x
_atom_site_fract_y
_atom_site_fract_z
Si Si1 0.353458 0.059918 0.268184
Si Si2 0.793302 0.445441 0.447196
Si Si3 0.414093 0.433006 0.801999
Si Si4 0.495085 0.560575 0.690633
Si Si5 0.834308 0.440593 0.113012
Si Si6 0.928925 0.434804 0.845466
O O1 0.360009 0.250000 0.279393
O O2 0.323504 0.008593 0.413717
O O3 0.394653 0.969855 0.287867
O O4 0.337353 0.018207 0.076322
O O5 0.750000 0.493821 0.491752
O O6 0.795463 0.250000 0.448850
O O7 0.803041 0.496659 0.251541
O O8 0.411947 0.250000 0.737447
O O9 0.451434 0.522315 0.735224
O O10 0.374013 0.523630 0.786276
O O11 0.420680 0.438185 0.005774
O O12 0.500000 0.500000 0.500000
O O13 0.502703 0.750000 0.710207
O O14 0.527499 0.462481 0.792030
O O15 0.830115 0.250000 0.084443
O O16 0.924271 0.250000 0.905822
#
# Coordination Sequence:
#
# PCOD9452664 Si02
#       6
#     8   8   8   8   8   8
#     4  11  23  40  64  95 130 167 208 257 315 378
#     4  10  23  43  67  94 125 164 209 257 313 379
#     4  11  22  39  61  87 120 160 204 253 307 365
#     4  12  25  40  57  85 121 160 205 254 306 362
#     4  10  21  40  66  94 125 165 214 262 312 373
#     4  11  22  40  63  87 118 160 207 254 303 363
#
# _framework density 21.239761000000001
#
# number of rings (size 3 to 8) (size 9 to 14) (size 15 to 20)
#    0.000    1.167    0.000    9.000    2.333    2.333 
#    0.000    1.667    0.000    0.000    0.000    0.000 
#    0.000    0.000    0.000    0.000    0.000    0.000 
#
# Total GULP energy -268081.684639 kJ/mol
# GULP energy per Si atom -5585.035097 kJ/mol
# Density = 2.119142 g / cm^3
# Si number density = 21.239761 Si / 1000 Ang^3
#
#
#
# Elastic Constant Matrix: (Units=GPa)
#
#
# Indices 1 2 3 4 5 6 
#
# 1 37.4276 -8.9543 2.9080 0.0000 0.0000 0.0000
# 2 -8.9543 80.8463 -0.3668 0.0000 0.0000 0.0000
# 3 2.9080 -0.3668 42.0161 0.0000 0.0000 0.0000
# 4 0.0000 0.0000 0.0000 24.3263 0.0000 0.0000
# 5 0.0000 0.0000 0.0000 0.0000 40.9602 0.0000
# 6 0.0000 0.0000 0.0000 0.0000 0.0000 16.5403
#
#
#
# Elastic Compliance Matrix: (Units=1/GPa)
#
#
# Indices 1 2 3 4 5 6 
#
# 1 0.027594 0.003048 -0.001883 0.000000 0.000000 0.000000
# 2 0.003048 0.012706 -0.000100 0.000000 0.000000 0.000000
# 3 -0.001883 -0.000100 0.023930 0.000000 0.000000 0.000000
# 4 0.000000 0.000000 0.000000 0.041108 0.000000 0.000000
# 5 0.000000 0.000000 0.000000 0.000000 0.024414 0.000000
# 6 0.000000 0.000000 0.000000 0.000000 0.000000 0.060459
#
#
# Mechanical properties :
#
#
# Convention : Reuss Voigt Hill
#
# Bulk Modulus (GPa) = 15.06959 16.38486 15.72722
# Shear Modulus (GPa) = 23.78678 27.47888 25.63283
#
# Velocity S-wave (km/s) = 3.35015 3.60077 3.47772
# Velocity P-wave (km/s) = 4.69841 5.00184 4.85250
#
# Compressibility (1/GPa) = 0.06635879
#
# Stress axis : x y z
#
# Youngs Moduli (GPa) = 36.24013 78.70148 41.78875
#
# Poissons Ratio (x) = -0.23986 0.07870
# Poissons Ratio (y) = -0.11045 0.00418
# Poissons Ratio (z) = 0.06825 0.00787
#
# Static dielectric constant tensor:
#      x y z
#    x 2.078900 0.000000 0.000000 
#    y 0.000000 1.705930 0.000000 
#    z 0.000000 0.000000 1.794740 
# 
# From -- ./inp_files/12942.got.cif
#   From: 2010.05.17/outbox.cif.g08.bks.cpg/sg59_7_cif.got.tgz:12942.got - 2010.06.03 14:40:33.
