data_PCOD9452163
_publ_section_title
;
Structure prediction by ZEFSAII (Michael W. Deem and Ramdas Pophale) SiO2 
 PCOD9452163
Probable space group: P M M N
;
_chemical_formula_sum "Si O2"
_cell_formula_units_Z 48
_cell_length_a 9.880528
_cell_length_b 8.470717
_cell_length_c 30.209909
_cell_angle_alpha 90.000000
_cell_angle_beta 90.000000
_cell_angle_gamma 90.000000
_cell_volume 2528.423062
_symmetry_space_group_name_H-M "P M M N"
_symmetry_group_IT_number 59
_space_group.IT_coordinate_system_code '2'
_symmetry_cell_setting 'orthorhombic'
loop_
_space_group_symop_operation_xyz
x,y,z
1/2-x,1/2-y,z
1/2+x,-y,-z
-x,1/2+y,-z
-x,-y,-z
1/2+x,1/2+y,-z
1/2-x,y,z
x,1/2-y,z
loop_
_atom_site_type_symbol
_atom_site_label
_atom_site_fract_x
_atom_site_fract_y
_atom_site_fract_z
Si Si1 0.592605 0.940406 0.124572
Si Si2 0.593869 0.559173 0.797381
Si Si3 0.250000 0.942442 0.447569
Si Si4 0.409215 0.558822 0.040970
Si Si5 0.595305 0.940027 0.696073
Si Si6 0.008318 0.061469 0.607561
Si Si7 0.250000 0.561764 0.548714
O O1 0.750000 0.995226 0.120908
O O2 0.596556 0.750000 0.123359
O O3 0.493511 0.992474 0.084530
O O4 0.517028 0.993436 0.169141
O O5 0.750000 0.510436 0.808055
O O6 0.591496 0.750000 0.799222
O O7 0.564968 0.511513 0.746524
O O8 0.250000 0.750000 0.448941
O O9 0.376769 0.993862 0.418991
O O10 0.250000 0.998963 0.498162
O O11 0.250000 0.506904 0.040189
O O12 0.406849 0.750000 0.040314
O O13 0.500000 0.500000 0.000000
O O14 0.750000 0.992739 0.686372
O O15 0.594007 0.750000 0.695197
O O16 0.498790 0.002242 0.657801
O O17 0.012054 0.250000 0.608483
O O18 0.125955 0.997173 0.577332
O O19 0.250000 0.750000 0.546385
#
# Coordination Sequence:
#
# PCOD9452163 Si02
#       7
#     8   8   4   8   8   8   4
#     4  10  21  37  56  81 114 150 189 233 281 333
#     4   9  19  36  58  83 110 141 183 231 276 330
#     4   9  20  37  59  83 111 141 183 231 276 329
#     4  10  21  37  58  84 114 151 194 238 285 337
#     4   9  18  35  58  83 109 142 185 228 275 336
#     4  11  21  37  58  84 113 143 181 231 281 331
#     4  11  23  39  55  79 113 151 185 223 274 333
#
# _framework density 18.984164
#
# number of rings (size 3 to 8) (size 9 to 14) (size 15 to 20)
#    0.000    2.167    0.833    3.250    0.000    3.667 
#    1.500    4.167    0.000    0.000    0.000    0.000 
#    0.000    0.000    0.000    0.000    0.000    0.000 
#
# Total GULP energy -267728.613147 kJ/mol
# GULP energy per Si atom -5577.679441 kJ/mol
# Density = 1.894096 g / cm^3
# Si number density = 18.984164 Si / 1000 Ang^3
#
#
#
# Elastic Constant Matrix: (Units=GPa)
#
#
# Indices 1 2 3 4 5 6 
#
# 1 159.6517 18.2031 80.1240 0.0000 0.0000 0.0000
# 2 18.2031 9.0126 18.3176 0.0000 0.0000 0.0000
# 3 80.1240 18.3176 151.3062 0.0000 0.0000 0.0000
# 4 0.0000 0.0000 0.0000 25.3089 0.0000 0.0000
# 5 0.0000 0.0000 0.0000 0.0000 3.9079 0.0000
# 6 0.0000 0.0000 0.0000 0.0000 0.0000 22.6377
#
#
#
# Elastic Compliance Matrix: (Units=1/GPa)
#
#
# Indices 1 2 3 4 5 6 
#
# 1 0.009382 -0.011741 -0.003547 0.000000 0.000000 0.000000
# 2 -0.011741 0.161860 -0.013378 0.000000 0.000000 0.000000
# 3 -0.003547 -0.013378 0.010107 0.000000 0.000000 0.000000
# 4 0.000000 0.000000 0.000000 0.039512 0.000000 0.000000
# 5 0.000000 0.000000 0.000000 0.000000 0.255889 0.000000
# 6 0.000000 0.000000 0.000000 0.000000 0.000000 0.044174
#
#
# Mechanical properties :
#
#
# Convention : Reuss Voigt Hill
#
# Bulk Modulus (GPa) = 8.06338 61.47330 34.76834
# Shear Modulus (GPa) = 8.06978 23.92597 15.99788
#
# Velocity S-wave (km/s) = 2.06398 3.55394 2.90607
# Velocity P-wave (km/s) = 3.15225 7.02085 5.44192
#
# Compressibility (1/GPa) = 0.12401753
#
# Stress axis : x y z
#
# Youngs Moduli (GPa) = 106.58174 6.17819 98.94107
#
# Poissons Ratio (x) = 0.07254 0.35095
# Poissons Ratio (y) = 1.25137 1.32362
# Poissons Ratio (z) = 0.37805 0.08265
#
# Static dielectric constant tensor:
#      x y z
#    x 1.629840 0.000000 0.000000 
#    y 0.000000 1.648280 0.000000 
#    z 0.000000 0.000000 1.648200 
# 
# From -- ./inp_files/33066.got.cif
#   From: 2010.05.17/outbox.cif.g08.bks.cpg/sg59_17_cif.got.tgz:33066.got - 2010.06.03 14:40:33.
