data_PCOD9452511
_publ_section_title
;
Structure prediction by ZEFSAII (Michael W. Deem and Ramdas Pophale) SiO2 
 PCOD9452511
Probable space group: P M M N
;
_chemical_formula_sum "Si O2"
_cell_formula_units_Z 48
_cell_length_a 17.864472
_cell_length_b 8.798071
_cell_length_c 16.367378
_cell_angle_alpha 90.000000
_cell_angle_beta 90.000000
_cell_angle_gamma 90.000000
_cell_volume 2572.508152
_symmetry_space_group_name_H-M "P M M N"
_symmetry_group_IT_number 59
_space_group.IT_coordinate_system_code '2'
_symmetry_cell_setting 'orthorhombic'
loop_
_space_group_symop_operation_xyz
x,y,z
1/2-x,1/2-y,z
1/2+x,-y,-z
-x,1/2+y,-z
-x,-y,-z
1/2+x,1/2+y,-z
1/2-x,y,z
x,1/2-y,z
loop_
_atom_site_type_symbol
_atom_site_label
_atom_site_fract_x
_atom_site_fract_y
_atom_site_fract_z
Si Si1 0.454030 0.066981 0.197992
Si Si2 0.337353 0.433282 0.060510
Si Si3 0.115184 0.073873 0.531450
Si Si4 0.043570 0.927639 0.377554
Si Si5 0.750000 0.570042 0.202080
Si Si6 0.391367 0.932249 0.892216
Si Si7 0.750000 0.425914 0.377653
O O1 0.455028 0.250000 0.208973
O O2 0.382328 0.027135 0.142598
O O3 0.529269 0.025081 0.148081
O O4 0.453112 0.988894 0.285898
O O5 0.250000 0.479565 0.061327
O O6 0.339542 0.250000 0.052074
O O7 0.379333 0.504780 0.983132
O O8 0.138952 0.250000 0.533166
O O9 0.040547 0.059099 0.586544
O O10 0.094214 0.023012 0.440128
O O11 0.177858 0.967200 0.569298
O O12 0.064153 0.750000 0.380784
O O13 0.750000 0.750000 0.188783
O O14 0.676451 0.498933 0.161047
O O15 0.750000 0.529011 0.297124
O O16 0.386665 0.750000 0.893349
O O17 0.750000 0.250000 0.353168
#
# Coordination Sequence:
#
# PCOD9452511 Si02
#       7
#     8   8   8   8   4   8   4
#     4  10  22  38  58  86 118 156 199 243 291 351
#     4  10  21  39  60  83 116 158 198 238 291 352
#     4  10  21  39  62  86 118 158 196 237 295 357
#     4  10  21  38  61  88 116 153 199 246 291 343
#     4  12  24  38  58  85 120 157 194 240 298 359
#     4  11  22  37  59  87 118 152 196 246 298 348
#     4  12  24  38  58  89 122 151 192 244 294 347
#
# _framework density 18.658833000000001
#
# number of rings (size 3 to 8) (size 9 to 14) (size 15 to 20)
#    0.000    1.500    0.833    4.500    0.000    6.667 
#    1.500    0.000    0.000    0.000    0.000    0.000 
#    0.000    0.000    0.000    0.000    0.000    0.000 
#
# Total GULP energy -268317.504938 kJ/mol
# GULP energy per Si atom -5589.948020 kJ/mol
# Density = 1.861636 g / cm^3
# Si number density = 18.658833 Si / 1000 Ang^3
#
#
#
# Elastic Constant Matrix: (Units=GPa)
#
#
# Indices 1 2 3 4 5 6 
#
# 1 26.4125 9.5014 38.8943 0.0000 0.0000 0.0000
# 2 9.5014 34.3396 29.7646 0.0000 0.0000 0.0000
# 3 38.8943 29.7646 147.5948 0.0000 0.0000 0.0000
# 4 0.0000 0.0000 0.0000 33.8051 0.0000 0.0000
# 5 0.0000 0.0000 0.0000 0.0000 20.1108 0.0000
# 6 0.0000 0.0000 0.0000 0.0000 0.0000 6.1323
#
#
#
# Elastic Compliance Matrix: (Units=1/GPa)
#
#
# Indices 1 2 3 4 5 6 
#
# 1 0.062243 -0.003641 -0.015668 0.000000 0.000000 0.000000
# 2 -0.003641 0.035502 -0.006200 0.000000 0.000000 0.000000
# 3 -0.015668 -0.006200 0.012154 0.000000 0.000000 0.000000
# 4 0.000000 0.000000 0.000000 0.029581 0.000000 0.000000
# 5 0.000000 0.000000 0.000000 0.000000 0.049725 0.000000
# 6 0.000000 0.000000 0.000000 0.000000 0.000000 0.163071
#
#
# Mechanical properties :
#
#
# Convention : Reuss Voigt Hill
#
# Bulk Modulus (GPa) = 16.98335 40.51862 28.75099
# Shear Modulus (GPa) = 11.82248 20.68873 16.25560
#
# Velocity S-wave (km/s) = 2.51990 3.33346 2.95481
# Velocity P-wave (km/s) = 4.19384 6.04803 5.20418
#
# Compressibility (1/GPa) = 0.05888119
#
# Stress axis : x y z
#
# Youngs Moduli (GPa) = 16.06602 28.16714 82.27424
#
# Poissons Ratio (x) = 0.10257 1.28908
# Poissons Ratio (y) = 0.05850 0.51010
# Poissons Ratio (z) = 0.25172 0.17464
#
# Static dielectric constant tensor:
#      x y z
#    x 1.632450 0.000000 0.000000 
#    y 0.000000 1.831610 0.000000 
#    z 0.000000 0.000000 1.609770 
# 
# From -- ./inp_files/20614.got.cif
#   From: 2010.05.17/outbox.cif.g08.bks.cpg/sg59_11_cif.got.tgz:20614.got - 2010.06.03 14:40:33.
