data_PCOD9452618
_publ_section_title
;
Structure prediction by ZEFSAII (Michael W. Deem and Ramdas Pophale) SiO2 
 PCOD9452618
Probable space group: P M M N
;
_chemical_formula_sum "Si O2"
_cell_formula_units_Z 40
_cell_length_a 31.018546
_cell_length_b 8.874251
_cell_length_c 7.324376
_cell_angle_alpha 90.000000
_cell_angle_beta 90.000000
_cell_angle_gamma 90.000000
_cell_volume 2016.154342
_symmetry_space_group_name_H-M "P M M N"
_symmetry_group_IT_number 59
_space_group.IT_coordinate_system_code '2'
_symmetry_cell_setting 'orthorhombic'
loop_
_space_group_symop_operation_xyz
x,y,z
1/2-x,1/2-y,z
1/2+x,-y,-z
-x,1/2+y,-z
-x,-y,-z
1/2+x,1/2+y,-z
1/2-x,y,z
x,1/2-y,z
loop_
_atom_site_type_symbol
_atom_site_label
_atom_site_fract_x
_atom_site_fract_y
_atom_site_fract_z
Si Si1 0.452803 0.071557 0.000509
Si Si2 0.608962 0.071956 0.713515
Si Si3 0.202690 0.070272 0.713804
Si Si4 0.296630 0.569870 0.311988
Si Si5 0.613135 0.071960 0.276771
O O1 0.456204 0.250000 0.990908
O O2 0.424418 0.009699 0.832802
O O3 0.500000 0.000000 0.000000
O O4 0.426472 0.021668 0.180170
O O5 0.601729 0.250000 0.747224
O O6 0.657717 0.033346 0.779116
O O7 0.608401 0.047820 0.495028
O O8 0.250000 0.026017 0.788557
O O9 0.198225 0.250000 0.730610
O O10 0.203954 0.022044 0.500660
O O11 0.159939 0.989025 0.784058
O O12 0.250000 0.543446 0.220920
O O13 0.298967 0.750000 0.355134
O O14 0.611196 0.250000 0.242764
#
# Coordination Sequence:
#
# PCOD9452618 Si02
#       5
#     8   8   8   8   8
#     4  12  26  43  63  85 113 148 189 242 297 350
#     4   9  19  37  61  88 118 152 192 237 284 339
#     4   9  16  27  48  81 119 155 191 232 278 330
#     4   8  14  27  50  80 114 153 193 230 272 327
#     4  10  21  39  63  88 117 154 194 236 283 340
#
# _framework density 19.839752000000001
#
# number of rings (size 3 to 8) (size 9 to 14) (size 15 to 20)
#    0.000    2.400    0.000    4.200    0.000    6.000 
#    0.000    1.000    0.000    3.600    0.000    0.000 
#    0.000    0.000    0.000    0.000    0.000    0.000 
#
# Total GULP energy -223186.651853 kJ/mol
# GULP energy per Si atom -5579.666296 kJ/mol
# Density = 1.979460 g / cm^3
# Si number density = 19.839752 Si / 1000 Ang^3
#
#
#
# Elastic Constant Matrix: (Units=GPa)
#
#
# Indices 1 2 3 4 5 6 
#
# 1 228.1453 105.4325 57.1809 0.0000 0.0000 0.0000
# 2 105.4325 110.4346 51.8532 0.0000 0.0000 0.0000
# 3 57.1809 51.8532 79.2686 0.0000 0.0000 0.0000
# 4 0.0000 0.0000 0.0000 23.9881 0.0000 0.0000
# 5 0.0000 0.0000 0.0000 0.0000 33.0822 0.0000
# 6 0.0000 0.0000 0.0000 0.0000 0.0000 35.4330
#
#
#
# Elastic Compliance Matrix: (Units=1/GPa)
#
#
# Indices 1 2 3 4 5 6 
#
# 1 0.007910 -0.007033 -0.001106 0.000000 0.000000 0.000000
# 2 -0.007033 0.019322 -0.007566 0.000000 0.000000 0.000000
# 3 -0.001106 -0.007566 0.018362 0.000000 0.000000 0.000000
# 4 0.000000 0.000000 0.000000 0.041687 0.000000 0.000000
# 5 0.000000 0.000000 0.000000 0.000000 0.030228 0.000000
# 6 0.000000 0.000000 0.000000 0.000000 0.000000 0.028222
#
#
# Mechanical properties :
#
#
# Convention : Reuss Voigt Hill
#
# Bulk Modulus (GPa) = 70.49599 94.08687 82.29143
# Shear Modulus (GPa) = 27.49211 32.05946 29.77578
#
# Velocity S-wave (km/s) = 3.72655 4.02421 3.87824
# Velocity P-wave (km/s) = 7.35704 8.31377 7.84999
#
# Compressibility (1/GPa) = 0.01418520
#
# Stress axis : x y z
#
# Youngs Moduli (GPa) = 126.41546 51.75399 54.45936
#
# Poissons Ratio (x) = 0.36398 0.06021
# Poissons Ratio (y) = 0.88908 0.41205
# Poissons Ratio (z) = 0.13977 0.39158
#
# Static dielectric constant tensor:
#      x y z
#    x 1.712850 0.000000 0.000000 
#    y 0.000000 1.644280 0.000000 
#    z 0.000000 0.000000 1.734930 
# 
# From -- ./inp_files/12776.got.cif
#   From: 2010.05.17/outbox.cif.g08.bks.cpg/sg59_7_cif.got.tgz:12776.got - 2010.06.03 14:40:33.
