data_PCOD9452966
_publ_section_title
;
Structure prediction by ZEFSAII (Michael W. Deem and Ramdas Pophale) SiO2 
 PCOD9452966
Probable space group: P M M N
;
_chemical_formula_sum "Si O2"
_cell_formula_units_Z 56
_cell_length_a 22.020135
_cell_length_b 15.199006
_cell_length_c 9.601105
_cell_angle_alpha 90.000000
_cell_angle_beta 90.000000
_cell_angle_gamma 90.000000
_cell_volume 3213.337800
_symmetry_space_group_name_H-M "P M M N"
_symmetry_group_IT_number 59
_space_group.IT_coordinate_system_code '2'
_symmetry_cell_setting 'orthorhombic'
loop_
_space_group_symop_operation_xyz
x,y,z
1/2-x,1/2-y,z
1/2+x,-y,-z
-x,1/2+y,-z
-x,-y,-z
1/2+x,1/2+y,-z
1/2-x,y,z
x,1/2-y,z
loop_
_atom_site_type_symbol
_atom_site_label
_atom_site_fract_x
_atom_site_fract_y
_atom_site_fract_z
Si Si1 0.488875 0.092782 0.745124
Si Si2 0.888935 0.849722 0.059509
Si Si3 0.181001 0.486538 0.085785
Si Si4 0.949819 0.850672 0.535569
Si Si5 0.995736 0.893446 0.839780
Si Si6 0.319430 0.353628 0.347589
Si Si7 0.093302 0.846961 0.067028
O O1 0.483085 0.090953 0.579858
O O2 0.544884 0.147192 0.806867
O O3 0.496392 0.997581 0.816689
O O4 0.426926 0.135634 0.800985
O O5 0.867329 0.750000 0.047323
O O6 0.837749 0.922282 0.039919
O O7 0.938561 0.869572 0.937773
O O8 0.250000 0.515607 0.075928
O O9 0.175368 0.422596 0.220667
O O10 0.137836 0.570933 0.086158
O O11 0.954653 0.750000 0.487502
O O12 0.878065 0.871384 0.556126
O O13 0.981167 0.857233 0.686898
O O14 0.053842 0.859220 0.925269
O O15 0.250000 0.362319 0.403787
O O16 0.325468 0.250000 0.303451
O O17 0.121781 0.750000 0.065782
#
# Coordination Sequence:
#
# PCOD9452966 Si02
#       7
#     8   8   8   8   8   8   8
#     4  11  20  34  53  81 113 143 170 221 279 324
#     4  11  19  34  55  80 110 139 170 216 274 327
#     4  11  21  35  55  79 104 137 187 228 259 312
#     4  11  20  31  50  83 112 139 182 221 260 322
#     4  11  19  34  55  77 107 147 177 215 265 326
#     4   9  18  33  53  77 110 149 182 215 257 316
#     4  11  21  37  56  78 109 144 179 223 276 319
#
# _framework density 17.427361000000001
#
# number of rings (size 3 to 8) (size 9 to 14) (size 15 to 20)
#    0.000    1.286    4.286    5.143    0.000    1.143 
#    0.000    0.714    0.000    1.714    0.000    0.000 
#    0.000    3.429    0.000    0.000    0.000    0.000 
#
# Total GULP energy -312343.052535 kJ/mol
# GULP energy per Si atom -5577.554510 kJ/mol
# Density = 1.738770 g / cm^3
# Si number density = 17.427361 Si / 1000 Ang^3
#
#
#
# Elastic Constant Matrix: (Units=GPa)
#
#
# Indices 1 2 3 4 5 6 
#
# 1 79.0011 31.7711 24.3506 0.0000 0.0000 0.0000
# 2 31.7711 109.4820 12.1413 0.0000 0.0000 0.0000
# 3 24.3506 12.1413 84.7816 0.0000 0.0000 0.0000
# 4 0.0000 0.0000 0.0000 17.8944 0.0000 0.0000
# 5 0.0000 0.0000 0.0000 0.0000 14.7076 0.0000
# 6 0.0000 0.0000 0.0000 0.0000 0.0000 4.4076
#
#
#
# Elastic Compliance Matrix: (Units=1/GPa)
#
#
# Indices 1 2 3 4 5 6 
#
# 1 0.015484 -0.004065 -0.003865 0.000000 0.000000 0.000000
# 2 -0.004065 0.010348 -0.000314 0.000000 0.000000 0.000000
# 3 -0.003865 -0.000314 0.012950 0.000000 0.000000 0.000000
# 4 0.000000 0.000000 0.000000 0.055883 0.000000 0.000000
# 5 0.000000 0.000000 0.000000 0.000000 0.067992 0.000000
# 6 0.000000 0.000000 0.000000 0.000000 0.000000 0.226882
#
#
# Mechanical properties :
#
#
# Convention : Reuss Voigt Hill
#
# Bulk Modulus (GPa) = 44.85554 45.53231 45.19392
# Shear Modulus (GPa) = 12.09306 21.06868 16.58087
#
# Velocity S-wave (km/s) = 2.63708 3.48076 3.08787
# Velocity P-wave (km/s) = 5.92171 6.50675 6.22112
#
# Compressibility (1/GPa) = 0.02229379
#
# Stress axis : x y z
#
# Youngs Moduli (GPa) = 64.58235 96.63349 77.21894
#
# Poissons Ratio (x) = 0.39279 0.29847
# Poissons Ratio (y) = 0.26251 0.02428
# Poissons Ratio (z) = 0.24962 0.03039
#
# Static dielectric constant tensor:
#      x y z
#    x 1.594590 0.000000 0.000000 
#    y 0.000000 1.623970 0.000000 
#    z 0.000000 0.000000 1.605700 
# 
# From -- ./inp_files/11403.got.cif
#   From: 2010.05.17/outbox.cif.g08.bks.cpg/sg59_6_cif.got.tgz:11403.got - 2010.06.03 14:40:33.
