data_PCOD9452050
_publ_section_title
;
Structure prediction by ZEFSAII (Michael W. Deem and Ramdas Pophale) SiO2 
 PCOD9452050
Probable space group: P M M N
;
_chemical_formula_sum "Si O2"
_cell_formula_units_Z 56
_cell_length_a 14.564371
_cell_length_b 8.550642
_cell_length_c 22.360085
_cell_angle_alpha 90.000000
_cell_angle_beta 90.000000
_cell_angle_gamma 90.000000
_cell_volume 2784.606978
_symmetry_space_group_name_H-M "P M M N"
_symmetry_group_IT_number 59
_space_group.IT_coordinate_system_code '2'
_symmetry_cell_setting 'orthorhombic'
loop_
_space_group_symop_operation_xyz
x,y,z
1/2-x,1/2-y,z
1/2+x,-y,-z
-x,1/2+y,-z
-x,-y,-z
1/2+x,1/2+y,-z
1/2-x,y,z
x,1/2-y,z
loop_
_atom_site_type_symbol
_atom_site_label
_atom_site_fract_x
_atom_site_fract_y
_atom_site_fract_z
Si Si1 0.144263 0.939044 0.465823
Si Si2 0.478445 0.561952 0.934132
Si Si3 0.148640 0.432845 0.277893
Si Si4 0.653762 0.934319 0.865585
Si Si5 0.643554 0.937991 0.166893
Si Si6 0.952858 0.933109 0.288658
Si Si7 0.957253 0.063962 0.412944
O O1 0.250000 0.991502 0.454761
O O2 0.144405 0.750000 0.462301
O O3 0.108592 0.985757 0.532252
O O4 0.060846 0.999773 0.424356
O O5 0.476094 0.750000 0.935660
O O6 0.563340 0.499231 0.894271
O O7 0.391311 0.505052 0.896205
O O8 0.500000 0.500000 0.000000
O O9 0.250000 0.480435 0.300270
O O10 0.133435 0.250000 0.294558
O O11 0.151978 0.439489 0.205761
O O12 0.061866 0.536832 0.292676
O O13 0.750000 0.005330 0.886671
O O14 0.654621 0.750000 0.881378
O O15 0.750000 0.975886 0.176624
O O16 0.633813 0.750000 0.164116
O O17 0.585746 0.994635 0.225089
O O18 0.932497 0.750000 0.290763
O O19 0.917415 0.011917 0.349198
O O20 0.963660 0.250000 0.414441
#
# Coordination Sequence:
#
# PCOD9452050 Si02
#       7
#     8   8   8   8   8   8   8
#     4   9  19  38  61  84 114 151 192 241 290 333
#     4  11  22  37  60  87 116 149 190 237 288 345
#     4   9  17  32  55  80 106 139 180 225 277 340
#     4   8  15  30  53  78 103 135 174 217 271 332
#     4  10  23  43  62  82 114 156 199 243 292 343
#     4  11  22  36  57  84 117 153 191 238 290 341
#     4  10  21  36  57  86 117 151 193 236 284 343
#
# _framework density 20.110558999999999
#
# number of rings (size 3 to 8) (size 9 to 14) (size 15 to 20)
#    0.000    2.286    1.429    2.143    0.000    3.714 
#    0.000    1.429    0.000    1.286    0.000    0.000 
#    0.000    0.000    0.000    0.000    0.000    0.000 
#
# Total GULP energy -312162.461181 kJ/mol
# GULP energy per Si atom -5574.329664 kJ/mol
# Density = 2.006479 g / cm^3
# Si number density = 20.110559 Si / 1000 Ang^3
#
#
#
# Elastic Constant Matrix: (Units=GPa)
#
#
# Indices 1 2 3 4 5 6 
#
# 1 77.7204 20.1138 34.2167 0.0000 0.0000 0.0000
# 2 20.1138 24.3654 22.9510 0.0000 0.0000 0.0000
# 3 34.2167 22.9510 114.5978 0.0000 0.0000 0.0000
# 4 0.0000 0.0000 0.0000 30.1021 0.0000 0.0000
# 5 0.0000 0.0000 0.0000 0.0000 2.7466 0.0000
# 6 0.0000 0.0000 0.0000 0.0000 0.0000 23.7424
#
#
#
# Elastic Compliance Matrix: (Units=1/GPa)
#
#
# Indices 1 2 3 4 5 6 
#
# 1 0.017062 -0.011446 -0.002802 0.000000 0.000000 0.000000
# 2 -0.011446 0.058262 -0.008251 0.000000 0.000000 0.000000
# 3 -0.002802 -0.008251 0.011215 0.000000 0.000000 0.000000
# 4 0.000000 0.000000 0.000000 0.033220 0.000000 0.000000
# 5 0.000000 0.000000 0.000000 0.000000 0.364087 0.000000
# 6 0.000000 0.000000 0.000000 0.000000 0.000000 0.042119
#
#
# Mechanical properties :
#
#
# Convention : Reuss Voigt Hill
#
# Bulk Modulus (GPa) = 24.07185 41.24963 32.66074
# Shear Modulus (GPa) = 8.54977 20.61170 14.58074
#
# Velocity S-wave (km/s) = 2.06413 3.20491 2.69556
# Velocity P-wave (km/s) = 4.20435 5.85245 5.09548
#
# Compressibility (1/GPa) = 0.04154230
#
# Stress axis : x y z
#
# Youngs Moduli (GPa) = 58.60840 17.16382 89.16368
#
# Poissons Ratio (x) = 0.19645 0.24986
# Poissons Ratio (y) = 0.67080 0.73569
# Poissons Ratio (z) = 0.16424 0.14162
#
# Static dielectric constant tensor:
#      x y z
#    x 1.770460 0.000000 0.000000 
#    y 0.000000 1.693370 0.000000 
#    z 0.000000 0.000000 1.734270 
# 
# From -- ./inp_files/30409.got.cif
#   From: 2010.05.17/outbox.cif.g08.bks.cpg/sg59_16_cif.got.tgz:30409.got - 2010.06.03 14:40:33.
