data_PCOD9452842
_publ_section_title
;
Structure prediction by ZEFSAII (Michael W. Deem and Ramdas Pophale) SiO2 
 PCOD9452842
Probable space group: P M M N
;
_chemical_formula_sum "Si O2"
_cell_formula_units_Z 48
_cell_length_a 8.647530
_cell_length_b 14.901100
_cell_length_c 20.129212
_cell_angle_alpha 90.000000
_cell_angle_beta 90.000000
_cell_angle_gamma 90.000000
_cell_volume 2593.804148
_symmetry_space_group_name_H-M "P M M N"
_symmetry_group_IT_number 59
_space_group.IT_coordinate_system_code '2'
_symmetry_cell_setting 'orthorhombic'
loop_
_space_group_symop_operation_xyz
x,y,z
1/2-x,1/2-y,z
1/2+x,-y,-z
-x,1/2+y,-z
-x,-y,-z
1/2+x,1/2+y,-z
1/2-x,y,z
x,1/2-y,z
loop_
_atom_site_type_symbol
_atom_site_label
_atom_site_fract_x
_atom_site_fract_y
_atom_site_fract_z
Si Si1 0.564220 0.250000 0.622134
Si Si2 0.938435 0.352253 0.085786
Si Si3 0.434112 0.016171 0.825320
Si Si4 0.932751 0.142493 0.936173
Si Si5 0.433852 0.250000 0.473711
Si Si6 0.065573 0.557049 0.318720
Si Si7 0.065876 0.942000 0.561521
O O1 0.750000 0.250000 0.610608
O O2 0.481648 0.250000 0.551201
O O3 0.524932 0.340510 0.661640
O O4 0.750000 0.351593 0.084543
O O5 0.989037 0.250000 0.097884
O O6 0.987123 0.422692 0.141193
O O7 0.985831 0.380351 0.011189
O O8 0.250000 0.012497 0.815106
O O9 0.474902 0.091417 0.879671
O O10 0.514923 0.036057 0.755857
O O11 0.750000 0.120499 0.930035
O O12 0.946713 0.250000 0.929639
O O13 0.250000 0.250000 0.467518
O O14 0.501452 0.158861 0.442795
O O15 0.250000 0.547720 0.325523
O O16 0.985104 0.491170 0.371178
O O17 0.250000 0.939796 0.555979
O O18 0.000000 0.000000 0.500000
#
# Coordination Sequence:
#
# PCOD9452842 Si02
#       7
#     4   8   8   8   4   8   8
#     4  10  22  40  64  88 116 157 202 245 298 356
#     4   8  16  34  58  81 108 148 195 241 289 352
#     4  11  22  35  55  85 118 151 191 241 300 354
#     4   9  18  34  57  82 110 149 195 237 288 353
#     4  12  24  40  68  98 124 159 202 251 300 352
#     4  11  24  42  62  87 122 161 202 245 296 359
#     4  12  24  42  66  95 127 160 202 249 302 360
#
# _framework density 18.505638000000001
#
# number of rings (size 3 to 8) (size 9 to 14) (size 15 to 20)
#    0.000    1.667    1.667    4.750    1.167    1.000 
#    1.500    0.833    0.000    3.500    0.000    0.000 
#    0.000    0.000    0.000    0.000    0.000    0.000 
#
# Total GULP energy -268215.693335 kJ/mol
# GULP energy per Si atom -5587.826944 kJ/mol
# Density = 1.846352 g / cm^3
# Si number density = 18.505638 Si / 1000 Ang^3
#
#
#
# Elastic Constant Matrix: (Units=GPa)
#
#
# Indices 1 2 3 4 5 6 
#
# 1 72.2490 57.0699 50.0489 0.0000 0.0000 0.0000
# 2 57.0699 141.8355 85.7277 0.0000 0.0000 0.0000
# 3 50.0489 85.7277 131.5570 0.0000 0.0000 0.0000
# 4 0.0000 0.0000 0.0000 -33.5645 0.0000 0.0000
# 5 0.0000 0.0000 0.0000 0.0000 24.1037 0.0000
# 6 0.0000 0.0000 0.0000 0.0000 0.0000 26.1015
#
#
#
# Elastic Compliance Matrix: (Units=1/GPa)
#
#
# Indices 1 2 3 4 5 6 
#
# 1 0.021621 -0.006150 -0.004217 0.000000 0.000000 0.000000
# 2 -0.006150 0.013381 -0.006380 0.000000 0.000000 0.000000
# 3 -0.004217 -0.006380 0.013363 0.000000 0.000000 0.000000
# 4 0.000000 0.000000 0.000000 -0.029793 0.000000 0.000000
# 5 0.000000 0.000000 0.000000 0.000000 0.041487 0.000000
# 6 0.000000 0.000000 0.000000 0.000000 0.000000 0.038312
#
#
# Mechanical properties :
#
#
# Convention : Reuss Voigt Hill
#
# Bulk Modulus (GPa) = 67.25115 81.25939 74.25527
# Shear Modulus (GPa) = 36.54348 13.51448 25.02898
#
# Velocity S-wave (km/s) = 4.44860 2.70532 3.68163
# Velocity P-wave (km/s) = 7.92506 7.33241 7.63449
#
# Compressibility (1/GPa) = 0.01486963
#
# Stress axis : x y z
#
# Youngs Moduli (GPa) = 46.25176 74.73132 74.83248
#
# Poissons Ratio (x) = 0.45962 0.31561
# Poissons Ratio (y) = 0.28447 0.47743
# Poissons Ratio (z) = 0.19507 0.47678
#
# Static dielectric constant tensor:
#      x y z
#    x 3.873430 0.000000 0.000000 
#    y 0.000000 1.637500 0.000000 
#    z 0.000000 0.000000 1.602030 
# 
# From -- ./inp_files/25600.got.cif
#   From: 2010.05.17/outbox.cif.g08.bks.cpg/sg59_13_cif.got.tgz:25600.got - 2010.06.03 14:40:33.
