data_PCOD9452533
_publ_section_title
;
Structure prediction by ZEFSAII (Michael W. Deem and Ramdas Pophale) SiO2 
 PCOD9452533
Probable space group: P M M N
;
_chemical_formula_sum "Si O2"
_cell_formula_units_Z 48
_cell_length_a 11.395988
_cell_length_b 17.776440
_cell_length_c 11.658836
_cell_angle_alpha 90.000000
_cell_angle_beta 90.000000
_cell_angle_gamma 90.000000
_cell_volume 2361.848127
_symmetry_space_group_name_H-M "P M M N"
_symmetry_group_IT_number 59
_space_group.IT_coordinate_system_code '2'
_symmetry_cell_setting 'orthorhombic'
loop_
_space_group_symop_operation_xyz
x,y,z
1/2-x,1/2-y,z
1/2+x,-y,-z
-x,1/2+y,-z
-x,-y,-z
1/2+x,1/2+y,-z
1/2-x,y,z
x,1/2-y,z
loop_
_atom_site_type_symbol
_atom_site_label
_atom_site_fract_x
_atom_site_fract_y
_atom_site_fract_z
Si Si1 0.111290 0.333201 0.897413
Si Si2 0.963971 0.561318 0.905914
Si Si3 0.574023 0.665723 0.559994
Si Si4 0.612475 0.165291 0.257026
Si Si5 0.390624 0.417759 0.665625
Si Si6 0.375470 0.010686 0.324858
O O1 0.250000 0.325826 0.884405
O O2 0.057284 0.250000 0.889106
O O3 0.078817 0.387110 0.791886
O O4 0.088704 0.371482 0.019009
O O5 0.882446 0.521986 0.811932
O O6 0.062773 0.600977 0.826660
O O7 0.000000 0.500000 0.000000
O O8 0.616805 0.750000 0.586488
O O9 0.444754 0.661771 0.616578
O O10 0.592653 0.648604 0.426779
O O11 0.629794 0.594125 0.622239
O O12 0.750000 0.157433 0.264652
O O13 0.583982 0.250000 0.212661
O O14 0.250000 0.441439 0.661942
O O15 0.498954 0.474627 0.638208
O O16 0.250000 0.972633 0.355753
#
# Coordination Sequence:
#
# PCOD9452533 Si02
#       6
#     8   8   8   8   8   8
#     4  10  21  38  61  90 123 160 209 264 313 367
#     4  11  21  38  59  87 121 164 207 260 309 373
#     4  10  22  40  63  92 124 161 210 265 317 375
#     4   9  20  38  61  89 122 164 210 258 317 381
#     4  11  23  41  65  93 126 171 214 258 318 383
#     4  11  24  40  61  93 128 165 211 265 320 376
#
# _framework density 20.323069
#
# number of rings (size 3 to 8) (size 9 to 14) (size 15 to 20)
#    0.000    1.667    1.667    2.500    0.000    7.333 
#    0.000    0.000    0.000    1.500    0.000    0.000 
#    0.000    0.000    0.000    0.000    0.000    0.000 
#
# Total GULP energy -267222.714556 kJ/mol
# GULP energy per Si atom -5567.139887 kJ/mol
# Density = 2.027681 g / cm^3
# Si number density = 20.323069 Si / 1000 Ang^3
#
#
#
# Elastic Constant Matrix: (Units=GPa)
#
#
# Indices 1 2 3 4 5 6 
#
# 1 115.4422 52.1321 12.3263 0.0000 0.0000 0.0000
# 2 52.1321 79.0550 -2.6988 0.0000 0.0000 0.0000
# 3 12.3263 -2.6988 67.1847 0.0000 0.0000 0.0000
# 4 0.0000 0.0000 0.0000 15.3239 0.0000 0.0000
# 5 0.0000 0.0000 0.0000 0.0000 -6.2335 0.0000
# 6 0.0000 0.0000 0.0000 0.0000 0.0000 17.2838
#
#
#
# Elastic Compliance Matrix: (Units=1/GPa)
#
#
# Indices 1 2 3 4 5 6 
#
# 1 0.012804 -0.008536 -0.002692 0.000000 0.000000 0.000000
# 2 -0.008536 0.018357 0.002303 0.000000 0.000000 0.000000
# 3 -0.002692 0.002303 0.015471 0.000000 0.000000 0.000000
# 4 0.000000 0.000000 0.000000 0.065258 0.000000 0.000000
# 5 0.000000 0.000000 0.000000 0.000000 -0.160423 0.000000
# 6 0.000000 0.000000 0.000000 0.000000 0.000000 0.057858
#
#
# Mechanical properties :
#
#
# Convention : Reuss Voigt Hill
#
# Bulk Modulus (GPa) = 34.74232 42.80015 38.77124
# Shear Modulus (GPa) = 135.99213 18.60298 77.29756
#
# Velocity S-wave (km/s) = 8.18904 3.02878 6.17389
# Velocity P-wave (km/s) = 10.32211 5.77382 8.36310
#
# Compressibility (1/GPa) = 0.02878334
#
# Stress axis : x y z
#
# Youngs Moduli (GPa) = 78.09837 54.47572 64.63800
#
# Poissons Ratio (x) = 0.46498 0.17401
# Poissons Ratio (y) = 0.66662 -0.14889
# Poissons Ratio (z) = 0.21025 -0.12548
#
# Static dielectric constant tensor:
#      x y z
#    x 1.729630 0.000000 0.000000 
#    y 0.000000 1.776470 0.000000 
#    z 0.000000 0.000000 1.744380 
# 
# From -- ./inp_files/15768.got.cif
#   From: 2010.05.17/outbox.cif.g08.bks.cpg/sg59_8_cif.got.tgz:15768.got - 2010.06.03 14:40:33.
