data_PCOD9452837
_publ_section_title
;
Structure prediction by ZEFSAII (Michael W. Deem and Ramdas Pophale) SiO2 
 PCOD9452837
Probable space group: P M M N
;
_chemical_formula_sum "Si O2"
_cell_formula_units_Z 40
_cell_length_a 13.936678
_cell_length_b 11.535546
_cell_length_c 11.230651
_cell_angle_alpha 90.000000
_cell_angle_beta 90.000000
_cell_angle_gamma 90.000000
_cell_volume 1805.520205
_symmetry_space_group_name_H-M "P M M N"
_symmetry_group_IT_number 59
_space_group.IT_coordinate_system_code '2'
_symmetry_cell_setting 'orthorhombic'
loop_
_space_group_symop_operation_xyz
x,y,z
1/2-x,1/2-y,z
1/2+x,-y,-z
-x,1/2+y,-z
-x,-y,-z
1/2+x,1/2+y,-z
1/2-x,y,z
x,1/2-y,z
loop_
_atom_site_type_symbol
_atom_site_label
_atom_site_fract_x
_atom_site_fract_y
_atom_site_fract_z
Si Si1 0.549678 0.619538 0.380369
Si Si2 0.863479 0.380658 0.273825
Si Si3 0.143398 0.119442 0.374564
Si Si4 0.945455 0.123029 0.011215
Si Si5 0.358374 0.905705 0.241889
O O1 0.592776 0.750000 0.353370
O O2 0.592794 0.502356 0.321826
O O3 0.567566 0.602809 0.520645
O O4 0.440532 0.630099 0.334884
O O5 0.750000 0.384648 0.296392
O O6 0.896991 0.250000 0.316876
O O7 0.885841 0.381280 0.132934
O O8 0.250000 0.094981 0.427033
O O9 0.139720 0.250000 0.337074
O O10 0.133652 0.043334 0.258261
O O11 0.998250 0.250000 0.012568
O O12 0.882409 0.127284 0.891409
O O13 0.000000 0.000000 0.000000
O O14 0.250000 0.873163 0.274121
#
# Coordination Sequence:
#
# PCOD9452837 Si02
#       5
#     8   8   8   8   8
#     4  11  22  39  65  96 130 169 213 262 315 371
#     4  10  22  40  63  91 125 166 208 257 320 381
#     4   9  20  39  62  91 128 168 211 264 323 376
#     4  11  23  41  64  90 125 165 209 261 318 378
#     4  11  23  39  62  92 127 170 217 262 314 376
#
# _framework density 22.15428
#
# number of rings (size 3 to 8) (size 9 to 14) (size 15 to 20)
#    0.000    1.600    2.000    2.400    0.000    5.200 
#    0.000    2.000    0.000    6.000    0.000    0.000 
#    0.000    0.000    0.000    0.000    0.000    0.000 
#
# Total GULP energy -222864.524099 kJ/mol
# GULP energy per Si atom -5571.613102 kJ/mol
# Density = 2.210386 g / cm^3
# Si number density = 22.154280 Si / 1000 Ang^3
#
#
#
# Elastic Constant Matrix: (Units=GPa)
#
#
# Indices 1 2 3 4 5 6 
#
# 1 95.5240 61.8138 13.0191 0.0000 0.0000 0.0000
# 2 61.8138 224.0006 74.5038 0.0000 0.0000 0.0000
# 3 13.0191 74.5038 71.6401 0.0000 0.0000 0.0000
# 4 0.0000 0.0000 0.0000 25.1704 0.0000 0.0000
# 5 0.0000 0.0000 0.0000 0.0000 17.7563 0.0000
# 6 0.0000 0.0000 0.0000 0.0000 0.0000 15.4651
#
#
#
# Elastic Compliance Matrix: (Units=1/GPa)
#
#
# Indices 1 2 3 4 5 6 
#
# 1 0.012945 -0.004265 0.002083 0.000000 0.000000 0.000000
# 2 -0.004265 0.008230 -0.007784 0.000000 0.000000 0.000000
# 3 0.002083 -0.007784 0.021675 0.000000 0.000000 0.000000
# 4 0.000000 0.000000 0.000000 0.039729 0.000000 0.000000
# 5 0.000000 0.000000 0.000000 0.000000 0.056318 0.000000
# 6 0.000000 0.000000 0.000000 0.000000 0.000000 0.064662
#
#
# Mechanical properties :
#
#
# Convention : Reuss Voigt Hill
#
# Bulk Modulus (GPa) = 43.63375 76.64865 60.14120
# Shear Modulus (GPa) = 21.63280 27.80024 24.71652
#
# Velocity S-wave (km/s) = 3.12823 3.54623 3.34376
# Velocity P-wave (km/s) = 5.72590 7.17220 6.48947
#
# Compressibility (1/GPa) = 0.02291804
#
# Stress axis : x y z
#
# Youngs Moduli (GPa) = 77.25288 121.50304 46.13509
#
# Poissons Ratio (x) = 0.51820 -0.09610
# Poissons Ratio (y) = 0.32948 0.35912
# Poissons Ratio (z) = -0.16092 0.94580
#
# Static dielectric constant tensor:
#      x y z
#    x 1.878470 0.000000 0.000000 
#    y 0.000000 2.001650 0.000000 
#    z 0.000000 0.000000 1.746940 
# 
# From -- ./inp_files/16617.got.cif
#   From: 2010.05.17/outbox.cif.g08.bks.cpg/sg59_9_cif.got.tgz:16617.got - 2010.06.03 14:40:33.
