data_PCOD9452214
_publ_section_title
;
Structure prediction by ZEFSAII (Michael W. Deem and Ramdas Pophale) SiO2 
 PCOD9452214
Probable space group: P M M N
;
_chemical_formula_sum "Si O2"
_cell_formula_units_Z 64
_cell_length_a 8.775935
_cell_length_b 14.891718
_cell_length_c 24.894119
_cell_angle_alpha 90.000000
_cell_angle_beta 90.000000
_cell_angle_gamma 90.000000
_cell_volume 3253.381275
_symmetry_space_group_name_H-M "P M M N"
_symmetry_group_IT_number 59
_space_group.IT_coordinate_system_code '2'
_symmetry_cell_setting 'orthorhombic'
loop_
_space_group_symop_operation_xyz
x,y,z
1/2-x,1/2-y,z
1/2+x,-y,-z
-x,1/2+y,-z
-x,-y,-z
1/2+x,1/2+y,-z
1/2-x,y,z
x,1/2-y,z
loop_
_atom_site_type_symbol
_atom_site_label
_atom_site_fract_x
_atom_site_fract_y
_atom_site_fract_z
Si Si1 0.573960 0.348874 0.240474
Si Si2 0.072295 0.144030 0.528287
Si Si3 0.436526 0.854029 0.150649
Si Si4 0.576844 0.350769 0.111086
Si Si5 0.427920 0.514429 0.058017
Si Si6 0.568440 0.146622 0.411590
Si Si7 0.932432 0.459765 0.743166
Si Si8 0.432547 0.966668 0.374009
O O1 0.750000 0.358309 0.258669
O O2 0.519015 0.250000 0.258444
O O3 0.575625 0.347787 0.175537
O O4 0.480242 0.436414 0.254710
O O5 0.250000 0.122487 0.518406
O O6 0.060988 0.250000 0.541255
O O7 0.978941 0.129624 0.473528
O O8 0.008482 0.085858 0.576939
O O9 0.250000 0.856943 0.150789
O O10 0.481718 0.750000 0.151164
O O11 0.489693 0.905970 0.204564
O O12 0.488266 0.906444 0.097033
O O13 0.750000 0.375400 0.094445
O O14 0.545366 0.250000 0.091306
O O15 0.459442 0.423170 0.090409
O O16 0.250000 0.530539 0.050619
O O17 0.500000 0.500000 0.000000
O O18 0.750000 0.138338 0.405655
O O19 0.525280 0.250000 0.398986
O O20 0.485307 0.070199 0.377718
O O21 0.750000 0.454310 0.745007
O O22 0.980065 0.426874 0.683982
O O23 0.250000 0.961943 0.378697
#
# Coordination Sequence:
#
# PCOD9452214 Si02
#       8
#     8   8   8   8   8   8   8   8
#     4   9  18  33  55  81 109 143 179 221 279 340
#     4  10  21  38  60  84 113 149 191 241 293 346
#     4   9  19  38  61  82 108 147 192 234 279 331
#     4   9  18  34  56  81 110 144 180 221 276 337
#     4  11  22  36  58  86 116 149 188 236 286 338
#     4  10  21  38  60  84 113 152 195 238 287 345
#     4  10  21  37  57  83 111 146 193 240 281 329
#     4  11  23  36  55  84 118 152 189 238 292 343
#
# _framework density 19.671841000000001
#
# number of rings (size 3 to 8) (size 9 to 14) (size 15 to 20)
#    0.000    2.125    1.250    2.625    0.000    4.500 
#    0.000    6.250    0.000    3.000    0.000    0.000 
#    0.000    0.000    0.000    0.000    0.000    0.000 
#
# Total GULP energy -357200.830985 kJ/mol
# GULP energy per Si atom -5581.262984 kJ/mol
# Density = 1.962707 g / cm^3
# Si number density = 19.671841 Si / 1000 Ang^3
#
#
#
# Elastic Constant Matrix: (Units=GPa)
#
#
# Indices 1 2 3 4 5 6 
#
# 1 16.5995 9.7900 18.6992 0.0000 0.0000 0.0000
# 2 9.7900 85.0749 55.0651 0.0000 0.0000 0.0000
# 3 18.6992 55.0651 111.5261 0.0000 0.0000 0.0000
# 4 0.0000 0.0000 0.0000 -1.3022 0.0000 0.0000
# 5 0.0000 0.0000 0.0000 0.0000 21.3541 0.0000
# 6 0.0000 0.0000 0.0000 0.0000 0.0000 24.7675
#
#
#
# Elastic Compliance Matrix: (Units=1/GPa)
#
#
# Indices 1 2 3 4 5 6 
#
# 1 0.074300 -0.000715 -0.012104 0.000000 0.000000 0.000000
# 2 -0.000715 0.017282 -0.008413 0.000000 0.000000 0.000000
# 3 -0.012104 -0.008413 0.015150 0.000000 0.000000 0.000000
# 4 0.000000 0.000000 0.000000 -0.767908 0.000000 0.000000
# 5 0.000000 0.000000 0.000000 0.000000 0.046829 0.000000
# 6 0.000000 0.000000 0.000000 0.000000 0.000000 0.040375
#
#
# Mechanical properties :
#
#
# Convention : Reuss Voigt Hill
#
# Bulk Modulus (GPa) = 15.56024 42.25657 28.90840
# Shear Modulus (GPa) = -9.80231 17.60697 3.90233
#
# Velocity S-wave (km/s) = -2.23467 2.99496 1.40997
# Velocity P-wave (km/s) = 1.12639 5.78680 4.16868
#
# Compressibility (1/GPa) = 0.06426638
#
# Stress axis : x y z
#
# Youngs Moduli (GPa) = 13.45894 57.86391 66.00753
#
# Poissons Ratio (x) = 0.04140 0.79898
# Poissons Ratio (y) = 0.00963 0.55531
# Poissons Ratio (z) = 0.16291 0.48680
#
# Static dielectric constant tensor:
#      x y z
#    x 1.494170 0.000000 0.000000 
#    y 0.000000 1.688650 0.000000 
#    z 0.000000 0.000000 1.714320 
# 
# From -- ./inp_files/31492.got.cif
#   From: 2010.05.17/outbox.cif.g08.bks.cpg/sg59_16_cif.got.tgz:31492.got - 2010.06.03 14:40:33.
