data_PCOD9452404
_publ_section_title
;
Structure prediction by ZEFSAII (Michael W. Deem and Ramdas Pophale) SiO2 
 PCOD9452404
Probable space group: P M M N
;
_chemical_formula_sum "Si O2"
_cell_formula_units_Z 64
_cell_length_a 14.847361
_cell_length_b 8.767693
_cell_length_c 25.474191
_cell_angle_alpha 90.000000
_cell_angle_beta 90.000000
_cell_angle_gamma 90.000000
_cell_volume 3316.156388
_symmetry_space_group_name_H-M "P M M N"
_symmetry_group_IT_number 59
_space_group.IT_coordinate_system_code '2'
_symmetry_cell_setting 'orthorhombic'
loop_
_space_group_symop_operation_xyz
x,y,z
1/2-x,1/2-y,z
1/2+x,-y,-z
-x,1/2+y,-z
-x,-y,-z
1/2+x,1/2+y,-z
1/2-x,y,z
x,1/2-y,z
loop_
_atom_site_type_symbol
_atom_site_label
_atom_site_fract_x
_atom_site_fract_y
_atom_site_fract_z
Si Si1 0.000320 0.430368 0.254113
Si Si2 0.355657 0.934595 0.332466
Si Si3 0.646793 0.564167 0.054646
Si Si4 0.499247 0.568096 0.138461
Si Si5 0.857480 0.571183 0.329751
Si Si6 0.140243 0.572316 0.560480
Si Si7 0.358893 0.568623 0.447054
Si Si8 0.642289 0.929975 0.936862
O O1 0.008679 0.250000 0.252520
O O2 0.911876 0.478733 0.286532
O O3 0.083625 0.499908 0.286621
O O4 0.997077 0.495286 0.195566
O O5 0.250000 0.973841 0.326390
O O6 0.361432 0.750000 0.332587
O O7 0.388908 0.990270 0.390237
O O8 0.750000 0.515987 0.063396
O O9 0.646628 0.750000 0.053717
O O10 0.580422 0.514402 0.100472
O O11 0.617989 0.516665 0.995953
O O12 0.505040 0.750000 0.143697
O O13 0.409452 0.521771 0.107383
O O14 0.750000 0.546606 0.325417
O O15 0.876025 0.750000 0.322857
O O16 0.886366 0.520506 0.388209
O O17 0.250000 0.571424 0.559271
O O18 0.113255 0.750000 0.565688
O O19 0.110271 0.507711 0.503709
O O20 0.250000 0.554013 0.445663
O O21 0.377654 0.750000 0.448640
O O22 0.750000 0.943777 0.932380
O O23 0.620017 0.750000 0.932155
#
# Coordination Sequence:
#
# PCOD9452404 Si02
#       8
#     8   8   8   8   8   8   8   8
#     4  12  26  41  56  77 109 148 192 236 277 328
#     4   9  18  36  61  84 108 141 182 230 282 333
#     4   8  16  33  58  87 116 145 177 215 265 324
#     4  11  22  36  57  83 111 145 186 231 274 316
#     4  10  21  38  59  81 107 141 182 230 281 330
#     4   8  13  25  49  80 110 138 170 211 267 335
#     4   7  11  23  48  80 108 135 169 213 270 333
#     4   9  18  35  59  86 117 150 180 214 263 322
#
# _framework density 19.299453
#
# number of rings (size 3 to 8) (size 9 to 14) (size 15 to 20)
#    0.000    2.750    0.000    4.500    0.000    2.250 
#    0.000    3.125    0.000    4.875    0.000    0.000 
#    0.000    0.000    0.000    0.000    0.000    0.000 
#
# Total GULP energy -357046.598480 kJ/mol
# GULP energy per Si atom -5578.853101 kJ/mol
# Density = 1.925553 g / cm^3
# Si number density = 19.299453 Si / 1000 Ang^3
#
#
#
# Elastic Constant Matrix: (Units=GPa)
#
#
# Indices 1 2 3 4 5 6 
#
# 1 46.1897 20.3478 42.8459 0.0000 0.0000 0.0000
# 2 20.3478 38.0351 40.8689 0.0000 0.0000 0.0000
# 3 42.8459 40.8689 180.1700 0.0000 0.0000 0.0000
# 4 0.0000 0.0000 0.0000 -125.3770 0.0000 0.0000
# 5 0.0000 0.0000 0.0000 0.0000 -770.6862 0.0000
# 6 0.0000 0.0000 0.0000 0.0000 0.0000 20.3248
#
#
#
# Elastic Compliance Matrix: (Units=1/GPa)
#
#
# Indices 1 2 3 4 5 6 
#
# 1 0.031179 -0.011521 -0.004801 0.000000 0.000000 0.000000
# 2 -0.011521 0.039022 -0.006112 0.000000 0.000000 0.000000
# 3 -0.004801 -0.006112 0.008078 0.000000 0.000000 0.000000
# 4 0.000000 0.000000 0.000000 -0.007976 0.000000 0.000000
# 5 0.000000 0.000000 0.000000 0.000000 -0.001298 0.000000
# 6 0.000000 0.000000 0.000000 0.000000 0.000000 0.049201
#
#
# Mechanical properties :
#
#
# Convention : Reuss Voigt Hill
#
# Bulk Modulus (GPa) = 29.92990 52.50222 41.21606
# Shear Modulus (GPa) = 28.70069 -164.45887 -67.87909
#
# Velocity S-wave (km/s) = 3.86051 -9.24117 -5.93699
# Velocity P-wave (km/s) = 5.95090 9.30605 5.05912
#
# Compressibility (1/GPa) = 0.03341141
#
# Stress axis : x y z
#
# Youngs Moduli (GPa) = 32.07308 25.62656 123.78609
#
# Poissons Ratio (x) = 0.29524 0.59432
# Poissons Ratio (y) = 0.36951 0.75656
# Poissons Ratio (z) = 0.15399 0.15662
#
# Static dielectric constant tensor:
#      x y z
#    x 1.695340 0.000000 0.000000 
#    y 0.000000 1.643760 0.000000 
#    z 0.000000 0.000000 1.672040 
# 
# From -- ./inp_files/32187.got.cif
#   From: 2010.05.17/outbox.cif.g08.bks.cpg/sg59_17_cif.got.tgz:32187.got - 2010.06.03 14:40:33.
