data_PCOD9452079
_publ_section_title
;
Structure prediction by ZEFSAII (Michael W. Deem and Ramdas Pophale) SiO2 
 PCOD9452079
Probable space group: P M M N
;
_chemical_formula_sum "Si O2"
_cell_formula_units_Z 56
_cell_length_a 19.678737
_cell_length_b 13.991689
_cell_length_c 9.267816
_cell_angle_alpha 90.000000
_cell_angle_beta 90.000000
_cell_angle_gamma 90.000000
_cell_volume 2551.789040
_symmetry_space_group_name_H-M "P M M N"
_symmetry_group_IT_number 59
_space_group.IT_coordinate_system_code '2'
_symmetry_cell_setting 'orthorhombic'
loop_
_space_group_symop_operation_xyz
x,y,z
1/2-x,1/2-y,z
1/2+x,-y,-z
-x,1/2+y,-z
-x,-y,-z
1/2+x,1/2+y,-z
1/2-x,y,z
x,1/2-y,z
loop_
_atom_site_type_symbol
_atom_site_label
_atom_site_fract_x
_atom_site_fract_y
_atom_site_fract_z
Si Si1 0.102863 0.992289 0.256233
Si Si2 0.093016 0.355693 0.051920
Si Si3 0.136219 0.643201 0.482872
Si Si4 0.975434 0.641055 0.543182
Si Si5 0.629560 0.644145 0.283517
Si Si6 0.563354 0.136292 0.003537
Si Si7 0.323422 0.561172 0.776793
O O1 0.133924 0.066409 0.141513
O O2 0.052974 0.059329 0.351665
O O3 0.152026 0.936956 0.364861
O O4 0.068334 0.912796 0.153388
O O5 0.108082 0.250000 0.105973
O O6 0.012639 0.377079 0.063941
O O7 0.105921 0.355456 0.882082
O O8 0.148900 0.750000 0.428788
O O9 0.170094 0.627666 0.636756
O O10 0.055104 0.631390 0.511786
O O11 0.965799 0.750000 0.599842
O O12 0.932392 0.634750 0.395605
O O13 0.660828 0.750000 0.311329
O O14 0.670977 0.546132 0.287370
O O15 0.575676 0.250000 0.994053
O O16 0.616528 0.087602 0.112899
O O17 0.250000 0.573425 0.847529
#
# Coordination Sequence:
#
# PCOD9452079 Si02
#       7
#     8   8   8   8   8   8   8
#     4  12  20  33  61  90 125 158 194 247 322 375
#     4  10  21  36  61  97 131 159 196 253 329 386
#     4  11  24  39  59  92 128 166 209 257 307 367
#     4  10  21  36  61  97 131 159 196 253 329 386
#     4  10  21  41  67  98 129 159 202 259 315 377
#     4  11  24  39  59  92 128 166 209 257 307 367
#     4  12  26  45  66  86 118 176 226 250 292 361
#
# _framework density 21.945387
#
# number of rings (size 3 to 8) (size 9 to 14) (size 15 to 20)
#    0.000    1.143    2.857    3.857    4.000    6.000 
#    0.000    0.714    0.000    1.714    0.000    4.000 
#    0.000    0.000    0.000    0.000    0.000    0.000 
#
# Total GULP energy -312903.095789 kJ/mol
# GULP energy per Si atom -5587.555282 kJ/mol
# Density = 2.189544 g / cm^3
# Si number density = 21.945387 Si / 1000 Ang^3
#
#
#
# Elastic Constant Matrix: (Units=GPa)
#
#
# Indices 1 2 3 4 5 6 
#
# 1 35.0199 10.8661 -2.9253 0.0000 0.0000 0.0000
# 2 10.8661 133.2625 35.6102 0.0000 0.0000 0.0000
# 3 -2.9253 35.6102 94.9011 0.0000 0.0000 0.0000
# 4 0.0000 0.0000 0.0000 45.4583 0.0000 0.0000
# 5 0.0000 0.0000 0.0000 0.0000 -4.9658 0.0000
# 6 0.0000 0.0000 0.0000 0.0000 0.0000 -19.9711
#
#
#
# Elastic Compliance Matrix: (Units=1/GPa)
#
#
# Indices 1 2 3 4 5 6 
#
# 1 0.029642 -0.002958 0.002024 0.000000 0.000000 0.000000
# 2 -0.002958 0.008635 -0.003331 0.000000 0.000000 0.000000
# 3 0.002024 -0.003331 0.011850 0.000000 0.000000 0.000000
# 4 0.000000 0.000000 0.000000 0.021998 0.000000 0.000000
# 5 0.000000 0.000000 0.000000 0.000000 -0.201379 0.000000
# 6 0.000000 0.000000 0.000000 0.000000 0.000000 -0.050072
#
#
# Mechanical properties :
#
#
# Convention : Reuss Voigt Hill
#
# Bulk Modulus (GPa) = 24.04085 38.92061 31.48073
# Shear Modulus (GPa) = -31.86151 18.74646 -6.55753
#
# Velocity S-wave (km/s) = -3.81445 2.92590 -1.73049
# Velocity P-wave (km/s) = 2.90197 5.40261 3.22232
#
# Compressibility (1/GPa) = 0.04159586
#
# Stress axis : x y z
#
# Youngs Moduli (GPa) = 33.73594 115.80260 84.39003
#
# Poissons Ratio (x) = 0.34251 -0.17077
# Poissons Ratio (y) = 0.09978 0.28114
# Poissons Ratio (z) = -0.06827 0.38579
#
# Static dielectric constant tensor:
#      x y z
#    x 1.809540 0.000000 0.000000 
#    y 0.000000 1.863650 0.000000 
#    z 0.000000 0.000000 1.820830 
# 
# From -- ./inp_files/11409.got.cif
#   From: 2010.05.17/outbox.cif.g08.bks.cpg/sg59_6_cif.got.tgz:11409.got - 2010.06.03 14:40:33.
