data_PCOD9452700
_publ_section_title
;
Structure prediction by ZEFSAII (Michael W. Deem and Ramdas Pophale) SiO2 
 PCOD9452700
Probable space group: P M M N
;
_chemical_formula_sum "Si O2"
_cell_formula_units_Z 40
_cell_length_a 8.599719
_cell_length_b 26.844585
_cell_length_c 9.360703
_cell_angle_alpha 90.000000
_cell_angle_beta 90.000000
_cell_angle_gamma 90.000000
_cell_volume 2160.973400
_symmetry_space_group_name_H-M "P M M N"
_symmetry_group_IT_number 59
_space_group.IT_coordinate_system_code '2'
_symmetry_cell_setting 'orthorhombic'
loop_
_space_group_symop_operation_xyz
x,y,z
1/2-x,1/2-y,z
1/2+x,-y,-z
-x,1/2+y,-z
-x,-y,-z
1/2+x,1/2+y,-z
1/2-x,y,z
x,1/2-y,z
loop_
_atom_site_type_symbol
_atom_site_label
_atom_site_fract_x
_atom_site_fract_y
_atom_site_fract_z
Si Si1 0.928908 0.250000 0.075290
Si Si2 0.428998 0.750000 0.576981
Si Si3 0.937508 0.046785 0.912873
Si Si4 0.435352 0.143211 0.415510
Si Si5 0.062886 0.951812 0.417075
Si Si6 0.939562 0.357400 0.093671
O O1 0.750000 0.250000 0.025328
O O2 0.929000 0.250000 0.248936
O O3 0.996856 0.303617 0.036146
O O4 0.250000 0.750000 0.530029
O O5 0.509214 0.698163 0.534889
O O6 0.750000 0.045292 0.914872
O O7 0.987373 0.045604 0.748266
O O8 0.985825 0.097391 0.992545
O O9 0.000000 0.000000 0.000000
O O10 0.250000 0.141422 0.414161
O O11 0.502093 0.098792 0.511199
O O12 0.498047 0.135727 0.253901
O O13 0.250000 0.952040 0.422845
O O14 0.000000 0.000000 0.500000
O O15 0.750000 0.355472 0.101906
#
# Coordination Sequence:
#
# PCOD9452700 Si02
#       6
#     4   4   8   8   8   8
#     4   7  12  25  50  77 100 128 166 206 254 309
#     4   9  17  33  56  81 110 148 186 224 266 315
#     4  10  22  37  55  78 105 137 179 225 273 326
#     4  11  21  34  55  85 115 146 182 224 270 323
#     4  11  23  39  56  79 109 145 186 229 276 330
#     4   9  17  33  55  79 106 139 176 220 268 319
#
# _framework density 18.510178
#
# number of rings (size 3 to 8) (size 9 to 14) (size 15 to 20)
#    0.000    2.200    0.000    5.100    0.000    5.600 
#    0.000    1.000    0.000    3.600    0.000    2.800 
#    0.000    0.000    0.000    0.000    0.000    0.000 
#
# Total GULP energy -223207.925988 kJ/mol
# GULP energy per Si atom -5580.198150 kJ/mol
# Density = 1.846805 g / cm^3
# Si number density = 18.510178 Si / 1000 Ang^3
#
#
#
# Elastic Constant Matrix: (Units=GPa)
#
#
# Indices 1 2 3 4 5 6 
#
# 1 60.0996 48.2607 34.5150 0.0000 0.0000 0.0000
# 2 48.2607 227.0575 109.1752 0.0000 0.0000 0.0000
# 3 34.5150 109.1752 120.5313 0.0000 0.0000 0.0000
# 4 0.0000 0.0000 0.0000 34.1019 0.0000 0.0000
# 5 0.0000 0.0000 0.0000 0.0000 19.4199 0.0000
# 6 0.0000 0.0000 0.0000 0.0000 0.0000 34.2140
#
#
#
# Elastic Compliance Matrix: (Units=1/GPa)
#
#
# Indices 1 2 3 4 5 6 
#
# 1 0.020850 -0.002765 -0.003466 0.000000 0.000000 0.000000
# 2 -0.002765 0.008169 -0.006607 0.000000 0.000000 0.000000
# 3 -0.003466 -0.006607 0.015274 0.000000 0.000000 0.000000
# 4 0.000000 0.000000 0.000000 0.029324 0.000000 0.000000
# 5 0.000000 0.000000 0.000000 0.000000 0.051494 0.000000
# 6 0.000000 0.000000 0.000000 0.000000 0.000000 0.029228
#
#
# Mechanical properties :
#
#
# Convention : Reuss Voigt Hill
#
# Bulk Modulus (GPa) = 53.71759 87.95446 70.83602
# Shear Modulus (GPa) = 26.84989 31.92966 29.38977
#
# Velocity S-wave (km/s) = 3.81274 4.15779 3.98900
# Velocity P-wave (km/s) = 6.96177 8.40652 7.71802
#
# Compressibility (1/GPa) = 0.01861588
#
# Stress axis : x y z
#
# Youngs Moduli (GPa) = 47.96175 122.41489 65.47059
#
# Poissons Ratio (x) = 0.33849 0.22692
# Poissons Ratio (y) = 0.13262 0.43260
# Poissons Ratio (z) = 0.16623 0.80885
#
# Static dielectric constant tensor:
#      x y z
#    x 1.640870 0.000000 0.000000 
#    y 0.000000 1.648150 0.000000 
#    z 0.000000 0.000000 1.612260 
# 
# From -- ./inp_files/5953.got.cif
#   From: 2010.05.17/outbox.cif.g08.bks.cpg/sg59_3_cif.got.tgz:5953.got - 2010.06.03 14:40:33.
