data_PCOD9452435
_publ_section_title
;
Structure prediction by ZEFSAII (Michael W. Deem and Ramdas Pophale) SiO2 
 PCOD9452435
Probable space group: P M M N
;
_chemical_formula_sum "Si O2"
_cell_formula_units_Z 40
_cell_length_a 15.704530
_cell_length_b 8.914287
_cell_length_c 14.848344
_cell_angle_alpha 90.000000
_cell_angle_beta 90.000000
_cell_angle_gamma 90.000000
_cell_volume 2078.689280
_symmetry_space_group_name_H-M "P M M N"
_symmetry_group_IT_number 59
_space_group.IT_coordinate_system_code '2'
_symmetry_cell_setting 'orthorhombic'
loop_
_space_group_symop_operation_xyz
x,y,z
1/2-x,1/2-y,z
1/2+x,-y,-z
-x,1/2+y,-z
-x,-y,-z
1/2+x,1/2+y,-z
1/2-x,y,z
x,1/2-y,z
loop_
_atom_site_type_symbol
_atom_site_label
_atom_site_fract_x
_atom_site_fract_y
_atom_site_fract_z
Si Si1 0.250000 0.069520 0.571327
Si Si2 0.149858 0.424348 0.294262
Si Si3 0.088370 0.928175 0.469213
Si Si4 0.608919 0.428041 0.090992
Si Si5 0.750000 0.928984 0.216093
Si Si6 0.907539 0.571173 0.903833
O O1 0.250000 0.250000 0.559763
O O2 0.250000 0.034356 0.677880
O O3 0.166460 0.000944 0.524467
O O4 0.250000 0.429910 0.314309
O O5 0.121691 0.250000 0.304474
O O6 0.102544 0.528149 0.365076
O O7 0.134927 0.467790 0.190863
O O8 0.088046 0.750000 0.481491
O O9 0.000000 0.000000 0.500000
O O10 0.621011 0.250000 0.095580
O O11 0.667905 0.505547 0.164823
O O12 0.508554 0.461077 0.104590
O O13 0.628735 0.487132 0.990644
O O14 0.750000 0.750000 0.207480
O O15 0.897633 0.750000 0.918371
#
# Coordination Sequence:
#
# PCOD9452435 Si02
#       6
#     4   8   8   8   4   8
#     4  11  25  47  68  95 128 165 213 266 320 379
#     4  10  21  39  64  93 126 163 206 257 312 374
#     4  12  26  44  68  96 128 168 211 262 320 380
#     4  10  21  38  59  89 125 161 205 253 299 361
#     4  11  25  41  62  87 120 161 205 254 308 365
#     4   9  20  38  61  90 124 164 203 247 306 364
#
# _framework density 19.242895000000001
#
# number of rings (size 3 to 8) (size 9 to 14) (size 15 to 20)
#    0.000    1.600    1.000    3.000    4.200    3.200 
#    0.000    0.000    0.000    0.000    0.000    0.000 
#    0.000    0.000    0.000    0.000    0.000    0.000 
#
# Total GULP energy -223625.754533 kJ/mol
# GULP energy per Si atom -5590.643863 kJ/mol
# Density = 1.919910 g / cm^3
# Si number density = 19.242895 Si / 1000 Ang^3
#
#
#
# Elastic Constant Matrix: (Units=GPa)
#
#
# Indices 1 2 3 4 5 6 
#
# 1 83.0700 46.7128 42.8657 0.0000 0.0000 0.0000
# 2 46.7128 88.2010 55.8563 0.0000 0.0000 0.0000
# 3 42.8657 55.8563 108.5159 0.0000 0.0000 0.0000
# 4 0.0000 0.0000 0.0000 34.2385 0.0000 0.0000
# 5 0.0000 0.0000 0.0000 0.0000 34.4444 0.0000
# 6 0.0000 0.0000 0.0000 0.0000 0.0000 30.4799
#
#
#
# Elastic Compliance Matrix: (Units=1/GPa)
#
#
# Indices 1 2 3 4 5 6 
#
# 1 0.017883 -0.007415 -0.003248 0.000000 0.000000 0.000000
# 2 -0.007415 0.019895 -0.007312 0.000000 0.000000 0.000000
# 3 -0.003248 -0.007312 0.014262 0.000000 0.000000 0.000000
# 4 0.000000 0.000000 0.000000 0.029207 0.000000 0.000000
# 5 0.000000 0.000000 0.000000 0.000000 0.029032 0.000000
# 6 0.000000 0.000000 0.000000 0.000000 0.000000 0.032809
#
#
# Mechanical properties :
#
#
# Convention : Reuss Voigt Hill
#
# Bulk Modulus (GPa) = 62.14235 63.40627 62.77431
# Shear Modulus (GPa) = 27.11500 28.78935 27.95217
#
# Velocity S-wave (km/s) = 3.75786 3.87215 3.81543
# Velocity P-wave (km/s) = 7.15489 7.28103 7.21823
#
# Compressibility (1/GPa) = 0.01609209
#
# Stress axis : x y z
#
# Youngs Moduli (GPa) = 55.91781 50.26392 70.11804
#
# Poissons Ratio (x) = 0.37269 0.22772
# Poissons Ratio (y) = 0.41461 0.51268
# Poissons Ratio (z) = 0.18161 0.36751
#
# Static dielectric constant tensor:
#      x y z
#    x 1.667450 0.000000 0.000000 
#    y 0.000000 1.649850 0.000000 
#    z 0.000000 0.000000 1.650970 
# 
# From -- ./inp_files/19980.got.cif
#   From: 2010.05.17/outbox.cif.g08.bks.cpg/sg59_10_cif.got.tgz:19980.got - 2010.06.03 14:40:33.
