data_PCOD9452980
_publ_section_title
;
Structure prediction by ZEFSAII (Michael W. Deem and Ramdas Pophale) SiO2 
 PCOD9452980
Probable space group: P M M N
;
_chemical_formula_sum "Si O2"
_cell_formula_units_Z 34
_cell_length_a 7.613961
_cell_length_b 9.928679
_cell_length_c 22.367028
_cell_angle_alpha 90.000000
_cell_angle_beta 90.000000
_cell_angle_gamma 90.000000
_cell_volume 1690.870703
_symmetry_space_group_name_H-M "P M M N"
_symmetry_group_IT_number 59
_space_group.IT_coordinate_system_code '2'
_symmetry_cell_setting 'orthorhombic'
loop_
_space_group_symop_operation_xyz
x,y,z
1/2-x,1/2-y,z
1/2+x,-y,-z
-x,1/2+y,-z
-x,-y,-z
1/2+x,1/2+y,-z
1/2-x,y,z
x,1/2-y,z
loop_
_atom_site_type_symbol
_atom_site_label
_atom_site_fract_x
_atom_site_fract_y
_atom_site_fract_z
Si Si1 0.750000 0.250000 0.597030
Si Si2 0.952257 0.750000 0.627794
Si Si3 0.034937 0.750000 0.963192
Si Si4 0.451241 0.471114 0.568998
Si Si5 0.541449 0.043489 0.135610
Si Si6 0.957827 0.250000 0.901337
Si Si7 0.963850 0.250000 0.234474
O O1 0.594739 0.367664 0.593960
O O2 0.750000 0.750000 0.608091
O O3 0.037629 0.614251 0.602710
O O4 0.963507 0.750000 0.699395
O O5 0.250000 0.750000 0.965456
O O6 0.977109 0.879151 0.924088
O O7 0.968764 0.750000 0.030868
O O8 0.500000 0.500000 0.500000
O O9 0.250000 0.421944 0.572439
O O10 0.750000 0.063564 0.135287
O O11 0.478935 0.121681 0.194469
O O12 0.507146 0.886409 0.132018
O O13 0.750000 0.250000 0.906895
O O14 0.750000 0.250000 0.239043
#
# Coordination Sequence:
#
# PCOD9452980 Si02
#       7
#     2   4   4   8   8   4   4
#     4  12  24  42  62 100 138 172 220 264 328 374
#     4  12  24  44  70  98 129 170 219 266 320 399
#     4   8  16  31  51  77 108 150 192 244 291 360
#     4  12  24  43  69  99 142 178 218 267 324 387
#     4   9  18  35  56  77 110 149 198 247 297 361
#     4  11  20  29  48  81 118 147 188 238 309 366
#     4   9  20  40  64  86 105 149 214 257 299 363
#
# _framework density 20.107984999999999
#
# number of rings (size 3 to 8) (size 9 to 14) (size 15 to 20)
#    0.000    1.647    2.353    4.588    0.000    0.941 
#    0.000    4.118    2.588    2.824    0.000    0.000 
#    0.000    0.000    0.000    0.000    0.000    0.000 
#
# Total GULP energy -189370.302697 kJ/mol
# GULP energy per Si atom -5569.714785 kJ/mol
# Density = 2.006222 g / cm^3
# Si number density = 20.107985 Si / 1000 Ang^3
#
#
#
# Elastic Constant Matrix: (Units=GPa)
#
#
# Indices 1 2 3 4 5 6 
#
# 1 128.7206 24.0223 4.5290 0.0000 0.0000 0.0000
# 2 24.0223 181.2834 59.9148 0.0000 0.0000 0.0000
# 3 4.5290 59.9148 112.2853 0.0000 0.0000 0.0000
# 4 0.0000 0.0000 0.0000 -18.3911 0.0000 0.0000
# 5 0.0000 0.0000 0.0000 0.0000 18.9891 0.0000
# 6 0.0000 0.0000 0.0000 0.0000 0.0000 -173.0012
#
#
#
# Elastic Compliance Matrix: (Units=1/GPa)
#
#
# Indices 1 2 3 4 5 6 
#
# 1 0.007974 -0.001154 0.000294 0.000000 0.000000 0.000000
# 2 -0.001154 0.006864 -0.003616 0.000000 0.000000 0.000000
# 3 0.000294 -0.003616 0.010824 0.000000 0.000000 0.000000
# 4 0.000000 0.000000 0.000000 -0.054374 0.000000 0.000000
# 5 0.000000 0.000000 0.000000 0.000000 0.052662 0.000000
# 6 0.000000 0.000000 0.000000 0.000000 0.000000 -0.005780
#
#
# Mechanical properties :
#
#
# Convention : Reuss Voigt Hill
#
# Bulk Modulus (GPa) = 59.84543 66.58017 63.21280
# Shear Modulus (GPa) = 152.94822 -12.22575 70.36123
#
# Velocity S-wave (km/s) = 8.73090 -2.46845 5.92179
# Velocity P-wave (km/s) = 11.46581 5.00588 8.84657
#
# Compressibility (1/GPa) = 0.01670971
#
# Stress axis : x y z
#
# Youngs Moduli (GPa) = 125.41156 145.68157 92.39060
#
# Poissons Ratio (x) = 0.16809 -0.02717
# Poissons Ratio (y) = 0.14470 0.33410
# Poissons Ratio (z) = -0.03688 0.52681
#
# Static dielectric constant tensor:
#      x y z
#    x 1.736270 0.000000 0.000000 
#    y 0.000000 1.598370 0.000000 
#    z 0.000000 0.000000 1.683430 
# 
# From -- ./inp_files/28672.got.cif
#   From: 2010.05.17/outbox.cif.g08.bks.cpg/sg59_15_cif.got.tgz:28672.got - 2010.06.03 14:40:33.
