data_PCOD9452172
_publ_section_title
;
Structure prediction by ZEFSAII (Michael W. Deem and Ramdas Pophale) SiO2 
 PCOD9452172
Probable space group: P M M N
;
_chemical_formula_sum "Si O2"
_cell_formula_units_Z 64
_cell_length_a 9.411285
_cell_length_b 30.715173
_cell_length_c 11.849121
_cell_angle_alpha 90.000000
_cell_angle_beta 90.000000
_cell_angle_gamma 90.000000
_cell_volume 3425.216484
_symmetry_space_group_name_H-M "P M M N"
_symmetry_group_IT_number 59
_space_group.IT_coordinate_system_code '2'
_symmetry_cell_setting 'orthorhombic'
loop_
_space_group_symop_operation_xyz
x,y,z
1/2-x,1/2-y,z
1/2+x,-y,-z
-x,1/2+y,-z
-x,-y,-z
1/2+x,1/2+y,-z
1/2-x,y,z
x,1/2-y,z
loop_
_atom_site_type_symbol
_atom_site_label
_atom_site_fract_x
_atom_site_fract_y
_atom_site_fract_z
Si Si1 0.082509 0.936916 0.544096
Si Si2 0.419066 0.030281 0.660713
Si Si3 0.412507 0.696968 0.354364
Si Si4 0.417754 0.301159 0.869243
Si Si5 0.912686 0.697701 0.574759
Si Si6 0.919153 0.361925 0.275540
Si Si7 0.581251 0.965814 0.078845
Si Si8 0.416542 0.375120 0.049087
O O1 0.250000 0.935696 0.518220
O O2 0.049377 0.897805 0.628514
O O3 0.996344 0.938278 0.427881
O O4 0.054702 0.981647 0.612904
O O5 0.250000 0.038339 0.657888
O O6 0.466469 0.033153 0.790542
O O7 0.250000 0.681553 0.362068
O O8 0.409673 0.750000 0.355908
O O9 0.488691 0.684934 0.237850
O O10 0.504688 0.683208 0.461891
O O11 0.250000 0.305241 0.840436
O O12 0.444840 0.250000 0.892976
O O13 0.445800 0.332210 0.974837
O O14 0.750000 0.682097 0.576094
O O15 0.910223 0.750000 0.573758
O O16 0.999717 0.680756 0.681596
O O17 0.750000 0.355960 0.269113
O O18 0.983378 0.376736 0.157167
O O19 0.750000 0.976139 0.077785
O O20 0.563243 0.917681 0.027862
O O21 0.500000 0.000000 0.000000
O O22 0.250000 0.373936 0.083484
#
# Coordination Sequence:
#
# PCOD9452172 Si02
#       8
#     8   8   8   8   8   8   8   8
#     4   9  19  35  54  79 110 141 176 219 269 324
#     4   9  18  34  56  81 109 142 180 220 263 315
#     4   9  17  31  53  81 111 140 174 220 273 326
#     4   9  18  34  55  78 109 149 188 227 272 323
#     4  10  21  37  57  80 107 142 184 227 272 325
#     4  11  23  38  56  79 110 145 181 227 280 331
#     4  10  21  37  57  81 110 144 183 228 276 327
#     4  10  22  38  55  79 109 144 191 236 275 330
#
# _framework density 18.684951000000002
#
# number of rings (size 3 to 8) (size 9 to 14) (size 15 to 20)
#    0.000    2.375    0.000    1.875    0.000    7.250 
#    0.000    5.000    0.000    0.000    0.000    0.000 
#    0.000    0.000    0.000    0.000    0.000    0.000 
#
# Total GULP energy -357265.413485 kJ/mol
# GULP energy per Si atom -5582.272086 kJ/mol
# Density = 1.864242 g / cm^3
# Si number density = 18.684951 Si / 1000 Ang^3
#
#
#
# Elastic Constant Matrix: (Units=GPa)
#
#
# Indices 1 2 3 4 5 6 
#
# 1 79.7444 37.2197 77.8588 0.0000 0.0000 0.0000
# 2 37.2197 41.9166 37.6291 0.0000 0.0000 0.0000
# 3 77.8588 37.6291 149.1072 0.0000 0.0000 0.0000
# 4 0.0000 0.0000 0.0000 18.5080 0.0000 0.0000
# 5 0.0000 0.0000 0.0000 0.0000 33.7896 0.0000
# 6 0.0000 0.0000 0.0000 0.0000 0.0000 19.5648
#
#
#
# Elastic Compliance Matrix: (Units=1/GPa)
#
#
# Indices 1 2 3 4 5 6 
#
# 1 0.033823 -0.018331 -0.013035 0.000000 0.000000 0.000000
# 2 -0.018331 0.040780 -0.000719 0.000000 0.000000 0.000000
# 3 -0.013035 -0.000719 0.013695 0.000000 0.000000 0.000000
# 4 0.000000 0.000000 0.000000 0.054031 0.000000 0.000000
# 5 0.000000 0.000000 0.000000 0.000000 0.029595 0.000000
# 6 0.000000 0.000000 0.000000 0.000000 0.000000 0.051112
#
#
# Mechanical properties :
#
#
# Convention : Reuss Voigt Hill
#
# Bulk Modulus (GPa) = 41.44899 64.02038 52.73469
# Shear Modulus (GPa) = 16.93495 22.24318 19.58907
#
# Velocity S-wave (km/s) = 3.01382 3.45401 3.24139
# Velocity P-wave (km/s) = 5.86021 7.08833 6.50332
#
# Compressibility (1/GPa) = 0.02412604
#
# Stress axis : x y z
#
# Youngs Moduli (GPa) = 29.56609 24.52200 73.02178
#
# Poissons Ratio (x) = 0.44951 0.95183
# Poissons Ratio (y) = 0.54198 0.05253
# Poissons Ratio (z) = 0.38539 0.01764
#
# Static dielectric constant tensor:
#      x y z
#    x 1.629240 0.000000 0.000000 
#    y 0.000000 1.660830 0.000000 
#    z 0.000000 0.000000 1.617170 
# 
# From -- ./inp_files/15001.got.cif
#   From: 2010.05.17/outbox.cif.g08.bks.cpg/sg59_8_cif.got.tgz:15001.got - 2010.06.03 14:40:33.
