data_PCOD9452974
_publ_section_title
;
Structure prediction by ZEFSAII (Michael W. Deem and Ramdas Pophale) SiO2 
 PCOD9452974
Probable space group: P M M N
;
_chemical_formula_sum "Si O2"
_cell_formula_units_Z 64
_cell_length_a 8.292168
_cell_length_b 14.445775
_cell_length_c 32.823037
_cell_angle_alpha 90.000000
_cell_angle_beta 90.000000
_cell_angle_gamma 90.000000
_cell_volume 3931.766345
_symmetry_space_group_name_H-M "P M M N"
_symmetry_group_IT_number 59
_space_group.IT_coordinate_system_code '2'
_symmetry_cell_setting 'orthorhombic'
loop_
_space_group_symop_operation_xyz
x,y,z
1/2-x,1/2-y,z
1/2+x,-y,-z
-x,1/2+y,-z
-x,-y,-z
1/2+x,1/2+y,-z
1/2-x,y,z
x,1/2-y,z
loop_
_atom_site_type_symbol
_atom_site_label
_atom_site_fract_x
_atom_site_fract_y
_atom_site_fract_z
Si Si1 0.445922 0.641901 0.973821
Si Si2 0.557115 0.355975 0.359463
Si Si3 0.941865 0.467681 0.105169
Si Si4 0.944649 0.357170 0.935257
Si Si5 0.936436 0.862328 0.728216
Si Si6 0.944980 0.032967 0.437579
Si Si7 0.444545 0.143759 0.182921
Si Si8 0.555493 0.144318 0.518239
O O1 0.250000 0.635701 0.974266
O O2 0.486268 0.750000 0.968460
O O3 0.506634 0.584690 0.935329
O O4 0.501499 0.613801 0.019115
O O5 0.750000 0.350952 0.363749
O O6 0.494610 0.250000 0.364011
O O7 0.520161 0.389510 0.313771
O O8 0.496927 0.422786 0.395235
O O9 0.750000 0.457430 0.105728
O O10 0.987417 0.573949 0.098190
O O11 0.008023 0.420907 0.145743
O O12 0.750000 0.361807 0.934895
O O13 0.989970 0.250000 0.929533
O O14 0.750000 0.890975 0.725489
O O15 0.940642 0.750000 0.729516
O O16 0.003563 0.890036 0.772527
O O17 0.750000 0.032146 0.437442
O O18 0.997143 0.099500 0.475034
O O19 0.002079 0.929538 0.447836
O O20 0.250000 0.146956 0.185658
O O21 0.500525 0.250000 0.175818
O O22 0.750000 0.146613 0.517771
O O23 0.497914 0.250000 0.523139
#
# Coordination Sequence:
#
# PCOD9452974 Si02
#       8
#     8   8   8   8   8   8   8   8
#     4   8  15  28  44  63  88 116 144 174 209 249
#     4   9  16  26  42  64  89 116 144 175 214 259
#     4  11  20  28  44  69  93 115 141 178 219 256
#     4   9  18  33  49  61  80 115 153 184 214 251
#     4   8  15  28  44  62  86 115 144 175 210 248
#     4   9  17  28  42  62  87 115 148 183 218 257
#     4   9  18  32  47  64  90 121 148 173 206 256
#     4   9  17  29  43  59  84 118 152 185 219 253
#
# _framework density 16.277671000000002
#
# number of rings (size 3 to 8) (size 9 to 14) (size 15 to 20)
#    0.000    3.000    0.000    3.000    0.000    3.750 
#    0.000    1.875    0.000    3.750    0.000    0.875 
#    0.000    5.000    0.000    0.000    0.000    0.000 
#
# Total GULP energy -356488.521984 kJ/mol
# GULP energy per Si atom -5570.133156 kJ/mol
# Density = 1.624062 g / cm^3
# Si number density = 16.277671 Si / 1000 Ang^3
#
#
#
# Elastic Constant Matrix: (Units=GPa)
#
#
# Indices 1 2 3 4 5 6 
#
# 1 6.0049 11.0765 15.5652 0.0000 0.0000 0.0000
# 2 11.0765 93.7110 75.6231 0.0000 0.0000 0.0000
# 3 15.5652 75.6231 139.6415 0.0000 0.0000 0.0000
# 4 0.0000 0.0000 0.0000 25.6953 0.0000 0.0000
# 5 0.0000 0.0000 0.0000 0.0000 20.7869 0.0000
# 6 0.0000 0.0000 0.0000 0.0000 0.0000 16.9260
#
#
#
# Elastic Compliance Matrix: (Units=1/GPa)
#
#
# Indices 1 2 3 4 5 6 
#
# 1 0.241718 -0.012128 -0.020375 0.000000 0.000000 0.000000
# 2 -0.012128 0.019563 -0.009243 0.000000 0.000000 0.000000
# 3 -0.020375 -0.009243 0.014438 0.000000 0.000000 0.000000
# 4 0.000000 0.000000 0.000000 0.038918 0.000000 0.000000
# 5 0.000000 0.000000 0.000000 0.000000 0.048107 0.000000
# 6 0.000000 0.000000 0.000000 0.000000 0.000000 0.059081
#
#
# Mechanical properties :
#
#
# Convention : Reuss Voigt Hill
#
# Bulk Modulus (GPa) = 5.20219 49.32078 27.26149
# Shear Modulus (GPa) = 8.78130 21.82116 15.30123
#
# Velocity S-wave (km/s) = 2.32517 3.66533 3.06929
# Velocity P-wave (km/s) = 3.22667 6.94826 5.41709
#
# Compressibility (1/GPa) = 0.19222670
#
# Stress axis : x y z
#
# Youngs Moduli (GPa) = 4.13706 51.11612 69.26305
#
# Poissons Ratio (x) = 0.61995 1.41125
# Poissons Ratio (y) = 0.05018 0.64018
# Poissons Ratio (z) = 0.08429 0.47245
#
# Static dielectric constant tensor:
#      x y z
#    x 1.570000 0.000000 0.000000 
#    y 0.000000 1.536980 0.000000 
#    z 0.000000 0.000000 1.560150 
# 
# From -- ./inp_files/33220.got.cif
#   From: 2010.05.17/outbox.cif.g08.bks.cpg/sg59_17_cif.got.tgz:33220.got - 2010.06.03 14:40:33.
