data_PCOD9452825
_publ_section_title
;
Structure prediction by ZEFSAII (Michael W. Deem and Ramdas Pophale) SiO2 
 PCOD9452825
Probable space group: P M M N
;
_chemical_formula_sum "Si O2"
_cell_formula_units_Z 48
_cell_length_a 18.052505
_cell_length_b 8.802982
_cell_length_c 15.626878
_cell_angle_alpha 90.000000
_cell_angle_beta 90.000000
_cell_angle_gamma 90.000000
_cell_volume 2483.359015
_symmetry_space_group_name_H-M "P M M N"
_symmetry_group_IT_number 59
_space_group.IT_coordinate_system_code '2'
_symmetry_cell_setting 'orthorhombic'
loop_
_space_group_symop_operation_xyz
x,y,z
1/2-x,1/2-y,z
1/2+x,-y,-z
-x,1/2+y,-z
-x,-y,-z
1/2+x,1/2+y,-z
1/2-x,y,z
x,1/2-y,z
loop_
_atom_site_type_symbol
_atom_site_label
_atom_site_fract_x
_atom_site_fract_y
_atom_site_fract_z
Si Si1 0.664231 0.932938 0.821508
Si Si2 0.416094 0.068912 0.677157
Si Si3 0.836611 0.432392 0.159671
Si Si4 0.921473 0.567569 0.647370
Si Si5 0.336788 0.931356 0.514397
Si Si6 0.080889 0.568452 0.015992
O O1 0.750000 0.981260 0.825499
O O2 0.661729 0.750000 0.829665
O O3 0.628288 0.971466 0.730109
O O4 0.617442 0.004268 0.898179
O O5 0.420697 0.250000 0.673464
O O6 0.383617 0.015189 0.767736
O O7 0.496740 0.997192 0.661911
O O8 0.363027 0.006940 0.602419
O O9 0.750000 0.471690 0.166290
O O10 0.843693 0.250000 0.171892
O O11 0.867927 0.468929 0.065835
O O12 0.924623 0.750000 0.639487
O O13 0.885013 0.497715 0.562894
O O14 0.250000 0.962171 0.499284
O O15 0.347189 0.750000 0.520124
O O16 0.075375 0.750000 0.021988
O O17 0.000000 0.500000 0.000000
#
# Coordination Sequence:
#
# PCOD9452825 Si02
#       6
#     8   8   8   8   8   8
#     4  10  22  40  62  89 121 157 197 244 298 354
#     4  12  25  40  61  90 122 156 198 247 298 353
#     4  10  22  41  62  85 117 157 200 246 298 355
#     4  11  23  41  64  89 121 160 201 244 293 351
#     4  11  24  42  64  90 121 157 197 244 298 354
#     4  11  23  39  61  89 121 159 201 246 297 352
#
# _framework density 19.328659999999999
#
# number of rings (size 3 to 8) (size 9 to 14) (size 15 to 20)
#    0.000    1.167    0.000    6.000    0.000   12.000 
#    0.000    0.000    0.000    0.000    0.000    0.000 
#    0.000    0.000    0.000    0.000    0.000    0.000 
#
# Total GULP energy -268638.018182 kJ/mol
# GULP energy per Si atom -5596.625379 kJ/mol
# Density = 1.928467 g / cm^3
# Si number density = 19.328660 Si / 1000 Ang^3
#
#
#
# Elastic Constant Matrix: (Units=GPa)
#
#
# Indices 1 2 3 4 5 6 
#
# 1 53.3971 13.4231 -32.2494 0.0000 0.0000 0.0000
# 2 13.4231 38.2660 11.6213 0.0000 0.0000 0.0000
# 3 -32.2494 11.6213 48.3813 0.0000 0.0000 0.0000
# 4 0.0000 0.0000 0.0000 41.1456 0.0000 0.0000
# 5 0.0000 0.0000 0.0000 0.0000 44.2309 0.0000
# 6 0.0000 0.0000 0.0000 0.0000 0.0000 26.7499
#
#
#
# Elastic Compliance Matrix: (Units=1/GPa)
#
#
# Indices 1 2 3 4 5 6 
#
# 1 0.051900 -0.030971 0.042034 0.000000 0.000000 0.000000
# 2 -0.030971 0.046671 -0.031855 0.000000 0.000000 0.000000
# 3 0.042034 -0.031855 0.056339 0.000000 0.000000 0.000000
# 4 0.000000 0.000000 0.000000 0.024304 0.000000 0.000000
# 5 0.000000 0.000000 0.000000 0.000000 0.022609 0.000000
# 6 0.000000 0.000000 0.000000 0.000000 0.000000 0.037383
#
#
# Mechanical properties :
#
#
# Convention : Reuss Voigt Hill
#
# Bulk Modulus (GPa) = 8.82407 13.95937 11.39172
# Shear Modulus (GPa) = 15.69533 32.24190 23.96861
#
# Velocity S-wave (km/s) = 2.85269 4.08865 3.52526
# Velocity P-wave (km/s) = 3.92755 5.43390 4.74093
#
# Compressibility (1/GPa) = 0.11332642
#
# Stress axis : x y z
#
# Youngs Moduli (GPa) = 19.26785 21.42644 17.74958
#
# Poissons Ratio (x) = 0.66360 -0.74609
# Poissons Ratio (y) = 0.59675 0.56541
# Poissons Ratio (z) = -0.80991 0.68254
#
# Static dielectric constant tensor:
#      x y z
#    x 1.645250 0.000000 0.000000 
#    y 0.000000 1.648840 0.000000 
#    z 0.000000 0.000000 1.632340 
# 
# From -- ./inp_files/23675.got.cif
#   From: 2010.05.17/outbox.cif.g08.bks.cpg/sg59_12_cif.got.tgz:23675.got - 2010.06.03 14:40:33.
