data_PCOD9452742
_publ_section_title
;
Structure prediction by ZEFSAII (Michael W. Deem and Ramdas Pophale) SiO2 
 PCOD9452742
Probable space group: P M M N
;
_chemical_formula_sum "Si O2"
_cell_formula_units_Z 38
_cell_length_a 9.483140
_cell_length_b 24.375829
_cell_length_c 7.960010
_cell_angle_alpha 90.000000
_cell_angle_beta 90.000000
_cell_angle_gamma 90.000000
_cell_volume 1840.031128
_symmetry_space_group_name_H-M "P M M N"
_symmetry_group_IT_number 59
_space_group.IT_coordinate_system_code '2'
_symmetry_cell_setting 'orthorhombic'
loop_
_space_group_symop_operation_xyz
x,y,z
1/2-x,1/2-y,z
1/2+x,-y,-z
-x,1/2+y,-z
-x,-y,-z
1/2+x,1/2+y,-z
1/2-x,y,z
x,1/2-y,z
loop_
_atom_site_type_symbol
_atom_site_label
_atom_site_fract_x
_atom_site_fract_y
_atom_site_fract_z
Si Si1 0.994932 0.113498 0.873719
Si Si2 0.250000 0.053778 0.341015
Si Si3 0.750000 0.750000 0.694116
Si Si4 0.250000 0.687279 0.277781
Si Si5 0.448172 0.352239 0.230013
Si Si6 0.250000 0.686558 0.679956
Si Si7 0.250000 0.530647 0.032464
Si Si8 0.750000 0.950205 0.281417
O O1 0.889584 0.156147 0.785650
O O2 0.890455 0.067156 0.948815
O O3 0.110863 0.086460 0.753321
O O4 0.074501 0.141205 0.030384
O O5 0.116583 0.094129 0.316568
O O6 0.250000 0.029375 0.527365
O O7 0.250000 0.010541 0.190840
O O8 0.871122 0.701488 0.701215
O O9 0.250000 0.750000 0.217459
O O10 0.250000 0.686893 0.478699
O O11 0.612806 0.344432 0.256699
O O12 0.250000 0.750000 0.738727
O O13 0.250000 0.497241 0.859635
#
# Coordination Sequence:
#
# PCOD9452742 Si02
#       8
#     8   4   2   4   8   4   4   4
#     4  11  24  44  67  93 138 168 221 281 329 394
#     4  11  25  42  69  96 135 173 231 266 339 389
#     4  10  22  38  66  94 130 166 230 254 336 400
#     4  10  24  42  63  97 134 171 221 277 326 403
#     4  11  22  42  66  97 129 178 216 279 321 402
#     4  11  21  39  65  95 134 172 222 272 332 392
#     4  11  24  48  63  99 132 175 221 280 337 388
#     4  12  23  44  69  98 132 179 219 281 324 397
#
# _framework density 20.651824999999999
#
# number of rings (size 3 to 8) (size 9 to 14) (size 15 to 20)
#    0.000    1.053    3.158    3.789    1.474    1.684 
#    7.579    0.000    0.000    0.000    0.000    0.000 
#    0.000    0.000    0.000    0.000    0.000    0.000 
#
# Total GULP energy -212083.813707 kJ/mol
# GULP energy per Si atom -5581.152992 kJ/mol
# Density = 2.060482 g / cm^3
# Si number density = 20.651825 Si / 1000 Ang^3
#
#
#
# Elastic Constant Matrix: (Units=GPa)
#
#
# Indices 1 2 3 4 5 6 
#
# 1 131.7168 28.5348 -2.8488 0.0000 0.0000 0.0000
# 2 28.5348 102.7457 22.8641 0.0000 0.0000 0.0000
# 3 -2.8488 22.8641 93.1925 0.0000 0.0000 0.0000
# 4 0.0000 0.0000 0.0000 24.9359 0.0000 0.0000
# 5 0.0000 0.0000 0.0000 0.0000 15.5416 0.0000
# 6 0.0000 0.0000 0.0000 0.0000 0.0000 240.6065
#
#
#
# Elastic Compliance Matrix: (Units=1/GPa)
#
#
# Indices 1 2 3 4 5 6 
#
# 1 0.008141 -0.002450 0.000850 0.000000 0.000000 0.000000
# 2 -0.002450 0.011032 -0.002782 0.000000 0.000000 0.000000
# 3 0.000850 -0.002782 0.011439 0.000000 0.000000 0.000000
# 4 0.000000 0.000000 0.000000 0.040103 0.000000 0.000000
# 5 0.000000 0.000000 0.000000 0.000000 0.064343 0.000000
# 6 0.000000 0.000000 0.000000 0.000000 0.000000 0.004156
#
#
# Mechanical properties :
#
#
# Convention : Reuss Voigt Hill
#
# Bulk Modulus (GPa) = 45.76895 47.19504 46.48200
# Shear Modulus (GPa) = 32.20381 74.82379 53.51380
#
# Velocity S-wave (km/s) = 3.95317 6.02576 5.09594
# Velocity P-wave (km/s) = 6.56102 8.44484 7.56182
#
# Compressibility (1/GPa) = 0.02184887
#
# Stress axis : x y z
#
# Youngs Moduli (GPa) = 122.83170 90.64362 87.42094
#
# Poissons Ratio (x) = 0.22209 -0.07431
# Poissons Ratio (y) = 0.30096 0.24317
# Poissons Ratio (z) = -0.10441 0.25213
#
# Static dielectric constant tensor:
#      x y z
#    x 1.739800 0.000000 0.000000 
#    y 0.000000 1.674620 0.000000 
#    z 0.000000 0.000000 1.743480 
# 
# From -- ./inp_files/5741.got.cif
#   From: 2010.05.17/outbox.cif.g08.bks.cpg/sg59_3_cif.got.tgz:5741.got - 2010.06.03 14:40:33.
