data_PCOD9452434
_publ_section_title
;
Structure prediction by ZEFSAII (Michael W. Deem and Ramdas Pophale) SiO2 
 PCOD9452434
Probable space group: P M M N
;
_chemical_formula_sum "Si O2"
_cell_formula_units_Z 48
_cell_length_a 15.616006
_cell_length_b 7.851850
_cell_length_c 19.591762
_cell_angle_alpha 90.000000
_cell_angle_beta 90.000000
_cell_angle_gamma 90.000000
_cell_volume 2402.234821
_symmetry_space_group_name_H-M "P M M N"
_symmetry_group_IT_number 59
_space_group.IT_coordinate_system_code '2'
_symmetry_cell_setting 'orthorhombic'
loop_
_space_group_symop_operation_xyz
x,y,z
1/2-x,1/2-y,z
1/2+x,-y,-z
-x,1/2+y,-z
-x,-y,-z
1/2+x,1/2+y,-z
1/2-x,y,z
x,1/2-y,z
loop_
_atom_site_type_symbol
_atom_site_label
_atom_site_fract_x
_atom_site_fract_y
_atom_site_fract_z
Si Si1 0.851964 0.545479 0.175719
Si Si2 0.750000 0.450548 0.417400
Si Si3 0.145273 0.937233 0.973851
Si Si4 0.146913 0.250000 0.222950
Si Si5 0.100044 0.955261 0.325976
Si Si6 0.355119 0.250000 0.066640
Si Si7 0.750000 0.456408 0.570558
Si Si8 0.092442 0.452917 0.677587
O O1 0.750000 0.514444 0.182807
O O2 0.863352 0.750000 0.170020
O O3 0.881829 0.467381 0.104363
O O4 0.894453 0.479815 0.245300
O O5 0.750000 0.250000 0.426132
O O6 0.750000 0.526063 0.493748
O O7 0.666594 0.494139 0.373488
O O8 0.250000 0.944311 0.972534
O O9 0.119473 0.750000 0.997088
O O10 0.116454 0.084651 0.024522
O O11 0.250000 0.250000 0.223044
O O12 0.118577 0.421177 0.262386
O O13 0.116701 0.250000 0.144791
O O14 0.108363 0.750000 0.311127
O O15 0.166838 0.002203 0.385174
O O16 0.002659 0.990234 0.347744
O O17 0.250000 0.250000 0.066720
O O18 0.750000 0.250000 0.567715
O O19 0.100101 0.250000 0.684198
#
# Coordination Sequence:
#
# PCOD9452434 Si02
#       8
#     8   4   8   4   8   4   4   8
#     4   9  15  28  51  76 114 156 197 245 297 356
#     4  11  23  37  59  93 131 160 195 252 307 365
#     4   9  16  27  46  76 112 154 194 236 302 363
#     4  11  22  38  66  95 113 155 212 254 316 361
#     4  10  22  42  65  88 122 162 207 257 303 362
#     4   9  18  32  50  82 119 143 190 261 300 350
#     4   9  20  42  64  86 123 162 199 253 314 358
#     4  10  21  38  59  89 124 164 206 249 304 365
#
# _framework density 19.981393000000001
#
# number of rings (size 3 to 8) (size 9 to 14) (size 15 to 20)
#    0.000    2.333    2.500    0.250    1.167    2.000 
#    3.000    1.667    0.000    1.000    0.000    0.000 
#    0.000    0.000    0.000    0.000    0.000    0.000 
#
# Total GULP energy -267895.033833 kJ/mol
# GULP energy per Si atom -5581.146538 kJ/mol
# Density = 1.993591 g / cm^3
# Si number density = 19.981393 Si / 1000 Ang^3
#
#
#
# Elastic Constant Matrix: (Units=GPa)
#
#
# Indices 1 2 3 4 5 6 
#
# 1 89.0663 50.1572 69.9865 0.0000 0.0000 0.0000
# 2 50.1572 69.2092 64.4257 0.0000 0.0000 0.0000
# 3 69.9865 64.4257 183.3946 0.0000 0.0000 0.0000
# 4 0.0000 0.0000 0.0000 25.4601 0.0000 0.0000
# 5 0.0000 0.0000 0.0000 0.0000 -2.5472 0.0000
# 6 0.0000 0.0000 0.0000 0.0000 0.0000 9.3744
#
#
#
# Elastic Compliance Matrix: (Units=1/GPa)
#
#
# Indices 1 2 3 4 5 6 
#
# 1 0.020696 -0.011362 -0.003906 0.000000 0.000000 0.000000
# 2 -0.011362 0.027708 -0.005398 0.000000 0.000000 0.000000
# 3 -0.003906 -0.005398 0.008840 0.000000 0.000000 0.000000
# 4 0.000000 0.000000 0.000000 0.039277 0.000000 0.000000
# 5 0.000000 0.000000 0.000000 0.000000 -0.392593 0.000000
# 6 0.000000 0.000000 0.000000 0.000000 0.000000 0.106674
#
#
# Mechanical properties :
#
#
# Convention : Reuss Voigt Hill
#
# Bulk Modulus (GPa) = 62.85024 78.97877 70.91450
# Shear Modulus (GPa) = -35.02315 16.93085 -9.04615
#
# Velocity S-wave (km/s) = -4.19117 2.91405 -2.13005
# Velocity P-wave (km/s) = 2.84630 7.13682 5.43303
#
# Compressibility (1/GPa) = 0.01591084
#
# Stress axis : x y z
#
# Youngs Moduli (GPa) = 48.31932 36.09081 113.12696
#
# Poissons Ratio (x) = 0.41007 0.44191
# Poissons Ratio (y) = 0.54901 0.61062
# Poissons Ratio (z) = 0.18875 0.19481
#
# Static dielectric constant tensor:
#      x y z
#    x 1.690040 0.000000 0.000000 
#    y 0.000000 1.720680 0.000000 
#    z 0.000000 0.000000 1.697630 
# 
# From -- ./inp_files/27517.got.cif
#   From: 2010.05.17/outbox.cif.g08.bks.cpg/sg59_14_cif.got.tgz:27517.got - 2010.06.03 14:40:33.
