data_PCOD9452743
_publ_section_title
;
Structure prediction by ZEFSAII (Michael W. Deem and Ramdas Pophale) SiO2 
 PCOD9452743
Probable space group: P M M N
;
_chemical_formula_sum "Si O2"
_cell_formula_units_Z 64
_cell_length_a 22.887359
_cell_length_b 7.667349
_cell_length_c 19.655426
_cell_angle_alpha 90.000000
_cell_angle_beta 90.000000
_cell_angle_gamma 90.000000
_cell_volume 3449.239687
_symmetry_space_group_name_H-M "P M M N"
_symmetry_group_IT_number 59
_space_group.IT_coordinate_system_code '2'
_symmetry_cell_setting 'orthorhombic'
loop_
_space_group_symop_operation_xyz
x,y,z
1/2-x,1/2-y,z
1/2+x,-y,-z
-x,1/2+y,-z
-x,-y,-z
1/2+x,1/2+y,-z
1/2-x,y,z
x,1/2-y,z
loop_
_atom_site_type_symbol
_atom_site_label
_atom_site_fract_x
_atom_site_fract_y
_atom_site_fract_z
Si Si1 0.007720 0.044318 0.327602
Si Si2 0.561566 0.050619 0.535883
Si Si3 0.060108 0.459510 0.040025
Si Si4 0.814698 0.536671 0.212121
Si Si5 0.997936 0.961694 0.827969
Si Si6 0.875959 0.540408 0.345848
Si Si7 0.315753 0.954670 0.518435
Si Si8 0.883379 0.957360 0.089961
O O1 0.019080 0.250000 0.325158
O O2 0.009105 0.976315 0.249674
O O3 0.942508 0.014890 0.356440
O O4 0.050973 0.966038 0.383439
O O5 0.568083 0.250000 0.515592
O O6 0.624361 0.967518 0.515161
O O7 0.500000 0.000000 0.500000
O O8 0.066054 0.250000 0.043752
O O9 0.051334 0.520718 0.117390
O O10 0.107343 0.529008 0.985987
O O11 0.000000 0.500000 0.000000
O O12 0.750000 0.483964 0.231059
O O13 0.816638 0.750000 0.210989
O O14 0.858453 0.479262 0.270706
O O15 0.832494 0.473066 0.137724
O O16 0.998422 0.750000 0.826271
O O17 0.058541 0.017619 0.863618
O O18 0.873396 0.750000 0.348406
O O19 0.831474 0.470253 0.401797
O O20 0.250000 0.027344 0.505461
O O21 0.312528 0.750000 0.499770
O O22 0.875066 0.750000 0.082279
#
# Coordination Sequence:
#
# PCOD9452743 Si02
#       8
#     8   8   8   8   8   8   8   8
#     4  11  21  32  48  70  99 133 165 200 245 294
#     4  11  22  36  55  77 102 129 160 200 247 299
#     4   8  14  24  39  60  83 111 145 181 224 271
#     4   9  17  27  39  61  92 123 157 197 237 278
#     4   9  17  28  42  62  90 119 149 188 234 280
#     4  11  20  31  49  70  96 130 167 204 240 286
#     4  10  22  39  56  74  98 128 162 202 248 298
#     4   9  15  25  42  61  84 116 153 191 230 275
#
# _framework density 18.554812999999999
#
# number of rings (size 3 to 8) (size 9 to 14) (size 15 to 20)
#    0.000    2.250    2.500    1.500    0.000    1.750 
#    0.000    0.000    0.000    1.125    0.000    0.875 
#    0.000    3.000    0.000    0.000    0.000    0.000 
#
# Total GULP energy -356369.805769 kJ/mol
# GULP energy per Si atom -5568.278215 kJ/mol
# Density = 1.851258 g / cm^3
# Si number density = 18.554813 Si / 1000 Ang^3
#
#
#
# Elastic Constant Matrix: (Units=GPa)
#
#
# Indices 1 2 3 4 5 6 
#
# 1 89.3956 3.0454 41.4662 0.0000 0.0000 0.0000
# 2 3.0454 35.3054 -8.0596 0.0000 0.0000 0.0000
# 3 41.4662 -8.0596 83.2217 0.0000 0.0000 0.0000
# 4 0.0000 0.0000 0.0000 9.5536 0.0000 0.0000
# 5 0.0000 0.0000 0.0000 0.0000 24.0185 0.0000
# 6 0.0000 0.0000 0.0000 0.0000 0.0000 8.5322
#
#
#
# Elastic Compliance Matrix: (Units=1/GPa)
#
#
# Indices 1 2 3 4 5 6 
#
# 1 0.014861 -0.003039 -0.007699 0.000000 0.000000 0.000000
# 2 -0.003039 0.029586 0.004380 0.000000 0.000000 0.000000
# 3 -0.007699 0.004380 0.016276 0.000000 0.000000 0.000000
# 4 0.000000 0.000000 0.000000 0.104673 0.000000 0.000000
# 5 0.000000 0.000000 0.000000 0.000000 0.041635 0.000000
# 6 0.000000 0.000000 0.000000 0.000000 0.000000 0.117203
#
#
# Mechanical properties :
#
#
# Convention : Reuss Voigt Hill
#
# Bulk Modulus (GPa) = 20.83065 31.20297 26.01681
# Shear Modulus (GPa) = 14.16618 19.85224 17.00921
#
# Velocity S-wave (km/s) = 2.76611 3.27452 3.03099
# Velocity P-wave (km/s) = 4.63171 5.58120 5.12847
#
# Compressibility (1/GPa) = 0.04800617
#
# Stress axis : x y z
#
# Youngs Moduli (GPa) = 67.29036 33.79943 61.43874
#
# Poissons Ratio (x) = 0.10273 0.47302
# Poissons Ratio (y) = 0.20452 -0.26908
# Poissons Ratio (z) = 0.51807 -0.14803
#
# Static dielectric constant tensor:
#      x y z
#    x 1.670960 0.000000 0.000000 
#    y 0.000000 1.676940 0.000000 
#    z 0.000000 0.000000 1.688670 
# 
# From -- ./inp_files/28401.got.cif
#   From: 2010.05.17/outbox.cif.g08.bks.cpg/sg59_15_cif.got.tgz:28401.got - 2010.06.03 14:40:33.
