data_PCOD9452875
_publ_section_title
;
Structure prediction by ZEFSAII (Michael W. Deem and Ramdas Pophale) SiO2 
 PCOD9452875
Probable space group: P M M N
;
_chemical_formula_sum "Si O2"
_cell_formula_units_Z 64
_cell_length_a 27.530452
_cell_length_b 8.742075
_cell_length_c 13.388494
_cell_angle_alpha 90.000000
_cell_angle_beta 90.000000
_cell_angle_gamma 90.000000
_cell_volume 3222.252714
_symmetry_space_group_name_H-M "P M M N"
_symmetry_group_IT_number 59
_space_group.IT_coordinate_system_code '2'
_symmetry_cell_setting 'orthorhombic'
loop_
_space_group_symop_operation_xyz
x,y,z
1/2-x,1/2-y,z
1/2+x,-y,-z
-x,1/2+y,-z
-x,-y,-z
1/2+x,1/2+y,-z
1/2-x,y,z
x,1/2-y,z
loop_
_atom_site_type_symbol
_atom_site_label
_atom_site_fract_x
_atom_site_fract_y
_atom_site_fract_z
Si Si1 0.192637 0.933257 0.493042
Si Si2 0.449903 0.422776 0.772337
Si Si3 0.464882 0.923285 0.078426
Si Si4 0.192068 0.074018 0.704345
Si Si5 0.364324 0.071189 0.102235
Si Si6 0.011078 0.067450 0.391497
Si Si7 0.360794 0.568263 0.889822
Si Si8 0.378705 0.064768 0.325442
O O1 0.250000 0.975978 0.478706
O O2 0.189827 0.750000 0.489838
O O3 0.176337 0.991934 0.602301
O O4 0.157505 0.004673 0.410236
O O5 0.433619 0.250000 0.748631
O O6 0.501766 0.410635 0.825633
O O7 0.464781 0.518870 0.676014
O O8 0.412014 0.498791 0.849368
O O9 0.448410 0.750000 0.051412
O O10 0.421623 0.040364 0.092885
O O11 0.500000 0.000000 0.000000
O O12 0.250000 0.073021 0.702834
O O13 0.175726 0.250000 0.704999
O O14 0.174990 0.989871 0.803778
O O15 0.351927 0.250000 0.096619
O O16 0.357270 0.014385 0.216480
O O17 0.346029 0.990065 0.000658
O O18 0.013006 0.250000 0.395655
O O19 0.065039 0.017957 0.349887
O O20 0.000000 0.000000 0.500000
O O21 0.363341 0.750000 0.890566
O O22 0.378638 0.250000 0.323369
#
# Coordination Sequence:
#
# PCOD9452875 Si02
#       8
#     8   8   8   8   8   8   8   8
#     4  10  22  41  67  97 125 155 198 252 307 364
#     4  11  23  38  57  83 118 160 205 251 298 356
#     4  11  21  33  54  80 112 154 200 246 291 341
#     4  10  22  43  70  95 122 156 196 246 305 368
#     4  11  22  39  59  84 121 163 208 255 302 360
#     4  11  24  41  58  84 122 164 209 255 309 366
#     4  12  25  39  61  92 125 161 203 253 307 366
#     4  10  23  41  63  88 121 165 209 254 305 365
#
# _framework density 19.861882000000001
#
# number of rings (size 3 to 8) (size 9 to 14) (size 15 to 20)
#    0.000    1.250    2.500    3.375    1.750    4.500 
#    0.000    0.625    0.000    0.750    0.000    0.000 
#    0.000    0.000    0.000    0.000    0.000    0.000 
#
# Total GULP energy -356934.351487 kJ/mol
# GULP energy per Si atom -5577.099242 kJ/mol
# Density = 1.981668 g / cm^3
# Si number density = 19.861882 Si / 1000 Ang^3
#
#
#
# Elastic Constant Matrix: (Units=GPa)
#
#
# Indices 1 2 3 4 5 6 
#
# 1 47.4088 18.2357 41.3473 0.0000 0.0000 0.0000
# 2 18.2357 78.3884 51.9891 0.0000 0.0000 0.0000
# 3 41.3473 51.9891 176.7741 0.0000 0.0000 0.0000
# 4 0.0000 0.0000 0.0000 33.2373 0.0000 0.0000
# 5 0.0000 0.0000 0.0000 0.0000 38.1005 0.0000
# 6 0.0000 0.0000 0.0000 0.0000 0.0000 26.7148
#
#
#
# Elastic Compliance Matrix: (Units=1/GPa)
#
#
# Indices 1 2 3 4 5 6 
#
# 1 0.026916 -0.002592 -0.005533 0.000000 0.000000 0.000000
# 2 -0.002592 0.016098 -0.004128 0.000000 0.000000 0.000000
# 3 -0.005533 -0.004128 0.008165 0.000000 0.000000 0.000000
# 4 0.000000 0.000000 0.000000 0.030087 0.000000 0.000000
# 5 0.000000 0.000000 0.000000 0.000000 0.026246 0.000000
# 6 0.000000 0.000000 0.000000 0.000000 0.000000 0.037432
#
#
# Mechanical properties :
#
#
# Convention : Reuss Voigt Hill
#
# Bulk Modulus (GPa) = 37.49163 58.41284 47.95224
# Shear Modulus (GPa) = 28.03605 32.34380 30.18993
#
# Velocity S-wave (km/s) = 3.76114 4.03977 3.90294
# Velocity P-wave (km/s) = 6.14644 7.15772 6.67127
#
# Compressibility (1/GPa) = 0.02667262
#
# Stress axis : x y z
#
# Youngs Moduli (GPa) = 37.15266 62.12035 122.46953
#
# Poissons Ratio (x) = 0.16099 0.67768
# Poissons Ratio (y) = 0.09629 0.50558
# Poissons Ratio (z) = 0.20558 0.25644
#
# Static dielectric constant tensor:
#      x y z
#    x 1.705240 0.000000 0.000000 
#    y 0.000000 1.697530 0.000000 
#    z 0.000000 0.000000 1.738320 
# 
# From -- ./inp_files/19313.got.cif
#   From: 2010.05.17/outbox.cif.g08.bks.cpg/sg59_10_cif.got.tgz:19313.got - 2010.06.03 14:40:33.
