data_PCOD9452294
_publ_section_title
;
Structure prediction by ZEFSAII (Michael W. Deem and Ramdas Pophale) SiO2 
 PCOD9452294
Probable space group: P M M N
;
_chemical_formula_sum "Si O2"
_cell_formula_units_Z 40
_cell_length_a 8.348785
_cell_length_b 16.897057
_cell_length_c 12.455796
_cell_angle_alpha 90.000000
_cell_angle_beta 90.000000
_cell_angle_gamma 90.000000
_cell_volume 1757.137847
_symmetry_space_group_name_H-M "P M M N"
_symmetry_group_IT_number 59
_space_group.IT_coordinate_system_code '2'
_symmetry_cell_setting 'orthorhombic'
loop_
_space_group_symop_operation_xyz
x,y,z
1/2-x,1/2-y,z
1/2+x,-y,-z
-x,1/2+y,-z
-x,-y,-z
1/2+x,1/2+y,-z
1/2-x,y,z
x,1/2-y,z
loop_
_atom_site_type_symbol
_atom_site_label
_atom_site_fract_x
_atom_site_fract_y
_atom_site_fract_z
Si Si1 0.941792 0.580815 0.445653
Si Si2 0.442195 0.250000 0.797135
Si Si3 0.054558 0.837917 0.812204
Si Si4 0.557593 0.505998 0.229982
Si Si5 0.940981 0.390338 0.948251
Si Si6 0.438930 0.750000 0.447684
O O1 0.750000 0.583384 0.447105
O O2 0.998017 0.566066 0.322112
O O3 0.000000 0.500000 0.500000
O O4 0.001936 0.664786 0.490745
O O5 0.250000 0.250000 0.793652
O O6 0.505537 0.176177 0.864210
O O7 0.504294 0.250000 0.676055
O O8 0.250000 0.835716 0.808379
O O9 0.997866 0.750000 0.781913
O O10 0.002638 0.915998 0.747627
O O11 0.007448 0.858730 0.935078
O O12 0.750000 0.506638 0.232909
O O13 0.509081 0.531951 0.110454
O O14 0.750000 0.397895 0.952591
O O15 0.250000 0.750000 0.456411
#
# Coordination Sequence:
#
# PCOD9452294 Si02
#       6
#     8   4   8   8   8   4
#     4  11  24  43  66  96 130 164 206 259 317 380
#     4  12  22  34  56  87 122 157 200 249 298 354
#     4   9  18  34  55  82 118 160 204 249 298 360
#     4  10  21  37  59  86 119 158 202 252 307 362
#     4  11  20  33  57  86 118 156 200 247 299 355
#     4  12  24  42  70  97 122 159 206 259 324 380
#
# _framework density 22.764291
#
# number of rings (size 3 to 8) (size 9 to 14) (size 15 to 20)
#    0.000    1.400    3.000    3.600    0.000    0.800 
#    1.800    1.000    0.000    0.000    0.000    0.000 
#    0.000    0.000    0.000    0.000    0.000    0.000 
#
# Total GULP energy -223388.239941 kJ/mol
# GULP energy per Si atom -5584.705999 kJ/mol
# Density = 2.271248 g / cm^3
# Si number density = 22.764291 Si / 1000 Ang^3
#
#
#
# Elastic Constant Matrix: (Units=GPa)
#
#
# Indices 1 2 3 4 5 6 
#
# 1 59.3794 37.7355 8.8380 0.0000 0.0000 0.0000
# 2 37.7355 209.3669 16.8824 0.0000 0.0000 0.0000
# 3 8.8380 16.8824 30.6901 0.0000 0.0000 0.0000
# 4 0.0000 0.0000 0.0000 33.7315 0.0000 0.0000
# 5 0.0000 0.0000 0.0000 0.0000 12.0697 0.0000
# 6 0.0000 0.0000 0.0000 0.0000 0.0000 32.8156
#
#
#
# Elastic Compliance Matrix: (Units=1/GPa)
#
#
# Indices 1 2 3 4 5 6 
#
# 1 0.019443 -0.003195 -0.003842 0.000000 0.000000 0.000000
# 2 -0.003195 0.005523 -0.002118 0.000000 0.000000 0.000000
# 3 -0.003842 -0.002118 0.034855 0.000000 0.000000 0.000000
# 4 0.000000 0.000000 0.000000 0.029646 0.000000 0.000000
# 5 0.000000 0.000000 0.000000 0.000000 0.082852 0.000000
# 6 0.000000 0.000000 0.000000 0.000000 0.000000 0.030473
#
#
# Mechanical properties :
#
#
# Convention : Reuss Voigt Hill
#
# Bulk Modulus (GPa) = 24.08938 47.37203 35.73070
# Shear Modulus (GPa) = 21.28215 31.45538 26.36877
#
# Velocity S-wave (km/s) = 3.06092 3.72127 3.40713
# Velocity P-wave (km/s) = 4.80597 6.27047 5.58642
#
# Compressibility (1/GPa) = 0.04151208
#
# Stress axis : x y z
#
# Youngs Moduli (GPa) = 51.43307 181.06536 28.69007
#
# Poissons Ratio (x) = 0.57841 0.11022
# Poissons Ratio (y) = 0.16430 0.06077
# Poissons Ratio (z) = 0.19759 0.38353
#
# Static dielectric constant tensor:
#      x y z
#    x 1.774720 0.000000 0.000000 
#    y 0.000000 1.885980 0.000000 
#    z 0.000000 0.000000 1.868860 
# 
# From -- ./inp_files/19954.got.cif
#   From: 2010.05.17/outbox.cif.g08.bks.cpg/sg59_10_cif.got.tgz:19954.got - 2010.06.03 14:40:33.
