data_PCOD9452002
_publ_section_title
;
Structure prediction by ZEFSAII (Michael W. Deem and Ramdas Pophale) SiO2 
 PCOD9452002
Probable space group: P M M N
;
_chemical_formula_sum "Si O2"
_cell_formula_units_Z 48
_cell_length_a 30.894776
_cell_length_b 13.664520
_cell_length_c 4.974241
_cell_angle_alpha 90.000000
_cell_angle_beta 90.000000
_cell_angle_gamma 90.000000
_cell_volume 2099.936944
_symmetry_space_group_name_H-M "P M M N"
_symmetry_group_IT_number 59
_space_group.IT_coordinate_system_code '2'
_symmetry_cell_setting 'orthorhombic'
loop_
_space_group_symop_operation_xyz
x,y,z
1/2-x,1/2-y,z
1/2+x,-y,-z
-x,1/2+y,-z
-x,-y,-z
1/2+x,1/2+y,-z
1/2-x,y,z
x,1/2-y,z
loop_
_atom_site_type_symbol
_atom_site_label
_atom_site_fract_x
_atom_site_fract_y
_atom_site_fract_z
Si Si1 0.300972 0.857323 0.335954
Si Si2 0.700136 0.017380 0.179588
Si Si3 0.486845 0.865960 0.726705
Si Si4 0.568703 0.365239 0.783882
Si Si5 0.573246 0.865202 0.441832
Si Si6 0.381486 0.448457 0.070506
O O1 0.250000 0.850631 0.411806
O O2 0.320745 0.750000 0.373119
O O3 0.317023 0.941027 0.537832
O O4 0.300800 0.891925 0.029441
O O5 0.750000 0.983167 0.198938
O O6 0.666374 0.942262 0.051814
O O7 0.496121 0.750000 0.751272
O O8 0.471365 0.895059 0.021644
O O9 0.529701 0.905986 0.583612
O O10 0.446768 0.875849 0.521948
O O11 0.577889 0.250000 0.834224
O O12 0.606823 0.439140 0.855933
O O13 0.568106 0.750000 0.388634
O O14 0.585758 0.915113 0.163671
O O15 0.609751 0.885166 0.665388
#
# Coordination Sequence:
#
# PCOD9452002 Si02
#       6
#     8   8   8   8   8   8
#     4   9  17  31  53  79 108 148 194 232 270 329
#     4  10  21  37  55  80 116 153 193 241 291 344
#     4   9  19  37  58  82 118 159 189 228 286 338
#     4  10  21  36  55  87 127 157 187 224 271 346
#     4  11  24  42  63  86 113 146 196 253 293 341
#     4  12  24  38  61  89 114 154 197 237 298 341
#
# _framework density 22.857828000000001
#
# number of rings (size 3 to 8) (size 9 to 14) (size 15 to 20)
#    0.000    1.833    0.000    4.000    0.000   10.000 
#    0.000    1.667    0.000    3.000    0.000    0.000 
#    0.000    0.000    0.000    0.000    0.000    0.000 
#
# Total GULP energy -268416.127028 kJ/mol
# GULP energy per Si atom -5592.002646 kJ/mol
# Density = 2.280580 g / cm^3
# Si number density = 22.857828 Si / 1000 Ang^3
#
#
#
# Elastic Constant Matrix: (Units=GPa)
#
#
# Indices 1 2 3 4 5 6 
#
# 1 75.8229 10.7840 -5.1101 0.0000 0.0000 0.0000
# 2 10.7840 61.5337 1.8254 0.0000 0.0000 0.0000
# 3 -5.1101 1.8254 99.4063 0.0000 0.0000 0.0000
# 4 0.0000 0.0000 0.0000 19.5142 0.0000 0.0000
# 5 0.0000 0.0000 0.0000 0.0000 29.7093 0.0000
# 6 0.0000 0.0000 0.0000 0.0000 0.0000 13.5547
#
#
#
# Elastic Compliance Matrix: (Units=1/GPa)
#
#
# Indices 1 2 3 4 5 6 
#
# 1 0.013580 -0.002402 0.000742 0.000000 0.000000 0.000000
# 2 -0.002402 0.016685 -0.000430 0.000000 0.000000 0.000000
# 3 0.000742 -0.000430 0.010106 0.000000 0.000000 0.000000
# 4 0.000000 0.000000 0.000000 0.051245 0.000000 0.000000
# 5 0.000000 0.000000 0.000000 0.000000 0.033660 0.000000
# 6 0.000000 0.000000 0.000000 0.000000 0.000000 0.073775
#
#
# Mechanical properties :
#
#
# Convention : Reuss Voigt Hill
#
# Bulk Modulus (GPa) = 27.63064 27.97350 27.80207
# Shear Modulus (GPa) = 23.22409 27.83987 25.53198
#
# Velocity S-wave (km/s) = 3.19097 3.49371 3.34577
# Velocity P-wave (km/s) = 5.06860 5.34222 5.20721
#
# Compressibility (1/GPa) = 0.03619171
#
# Stress axis : x y z
#
# Youngs Moduli (GPa) = 73.63623 59.93421 98.95330
#
# Poissons Ratio (x) = 0.14396 -0.07345
# Poissons Ratio (y) = 0.17687 0.04254
# Poissons Ratio (z) = -0.05465 0.02576
#
# Static dielectric constant tensor:
#      x y z
#    x 1.922410 0.000000 0.000000 
#    y 0.000000 1.889490 0.000000 
#    z 0.000000 0.000000 1.800470 
# 
# From -- ./inp_files/4186.got.cif
#   From: 2010.05.17/outbox.cif.g08.bks.cpg/sg59_3_cif.got.tgz:4186.got - 2010.06.03 14:40:33.
