data_PCOD9452067
_publ_section_title
;
Structure prediction by ZEFSAII (Michael W. Deem and Ramdas Pophale) SiO2 
 PCOD9452067
Probable space group: P M M N
;
_chemical_formula_sum "Si O2"
_cell_formula_units_Z 56
_cell_length_a 13.165818
_cell_length_b 22.323212
_cell_length_c 8.684194
_cell_angle_alpha 90.000000
_cell_angle_beta 90.000000
_cell_angle_gamma 90.000000
_cell_volume 2552.313677
_symmetry_space_group_name_H-M "P M M N"
_symmetry_group_IT_number 59
_space_group.IT_coordinate_system_code '2'
_symmetry_cell_setting 'orthorhombic'
loop_
_space_group_symop_operation_xyz
x,y,z
1/2-x,1/2-y,z
1/2+x,-y,-z
-x,1/2+y,-z
-x,-y,-z
1/2+x,1/2+y,-z
1/2-x,y,z
x,1/2-y,z
loop_
_atom_site_type_symbol
_atom_site_label
_atom_site_fract_x
_atom_site_fract_y
_atom_site_fract_z
Si Si1 0.133007 0.682036 0.801045
Si Si2 0.921873 0.569757 0.498187
Si Si3 0.869120 0.555282 0.149162
Si Si4 0.132140 0.951438 0.364106
Si Si5 0.921737 0.815155 0.659433
Si Si6 0.871983 0.432097 0.989095
Si Si7 0.630059 0.682903 0.018849
O O1 0.250000 0.672829 0.748712
O O2 0.129228 0.750000 0.868472
O O3 0.044602 0.681727 0.674436
O O4 0.105349 0.628877 0.918622
O O5 0.882380 0.550650 0.331824
O O6 0.882127 0.522959 0.623597
O O7 0.884772 0.634168 0.547042
O O8 0.044719 0.569793 0.481694
O O9 0.750000 0.556984 0.111188
O O10 0.906964 0.493167 0.073446
O O11 0.908879 0.620535 0.092930
O O12 0.250000 0.935957 0.397252
O O13 0.102903 0.931702 0.192017
O O14 0.891020 0.750000 0.605054
O O15 0.884024 0.822668 0.834590
O O16 0.750000 0.434846 0.990682
O O17 0.750000 0.685294 0.053033
O O18 0.588375 0.750000 0.061459
#
# Coordination Sequence:
#
# PCOD9452067 Si02
#       7
#     8   8   8   8   8   8   8
#     4   9  19  36  60  87 112 146 194 242 289 342
#     4  11  24  37  57  87 116 160 192 229 293 353
#     4  10  21  36  58  89 118 147 192 244 290 340
#     4  10  23  41  57  83 120 153 190 236 290 351
#     4  10  22  39  58  84 116 153 195 237 284 347
#     4   9  19  36  60  84 111 147 186 240 293 336
#     4   9  19  37  60  84 114 156 200 242 291 343
#
# _framework density 21.940877
#
# number of rings (size 3 to 8) (size 9 to 14) (size 15 to 20)
#    0.000    2.286    0.000    1.286    6.000    4.000 
#    0.000    0.714    0.000    0.857    0.000    0.000 
#    0.000    0.000    0.000    0.000    0.000    0.000 
#
# Total GULP energy -312406.178146 kJ/mol
# GULP energy per Si atom -5578.681753 kJ/mol
# Density = 2.189094 g / cm^3
# Si number density = 21.940877 Si / 1000 Ang^3
#
#
#
# Elastic Constant Matrix: (Units=GPa)
#
#
# Indices 1 2 3 4 5 6 
#
# 1 59.1485 11.1887 -0.1996 0.0000 0.0000 0.0000
# 2 11.1887 153.3172 31.6918 0.0000 0.0000 0.0000
# 3 -0.1996 31.6918 18.3857 0.0000 0.0000 0.0000
# 4 0.0000 0.0000 0.0000 39.4702 0.0000 0.0000
# 5 0.0000 0.0000 0.0000 0.0000 5.8947 0.0000
# 6 0.0000 0.0000 0.0000 0.0000 0.0000 -2.1629
#
#
#
# Elastic Compliance Matrix: (Units=1/GPa)
#
#
# Indices 1 2 3 4 5 6 
#
# 1 0.017301 -0.002022 0.003673 0.000000 0.000000 0.000000
# 2 -0.002022 0.010369 -0.017895 0.000000 0.000000 0.000000
# 3 0.003673 -0.017895 0.085276 0.000000 0.000000 0.000000
# 4 0.000000 0.000000 0.000000 0.025336 0.000000 0.000000
# 5 0.000000 0.000000 0.000000 0.000000 0.169643 0.000000
# 6 0.000000 0.000000 0.000000 0.000000 0.000000 -0.462347
#
#
# Mechanical properties :
#
#
# Convention : Reuss Voigt Hill
#
# Bulk Modulus (GPa) = 12.42878 35.13479 23.78178
# Shear Modulus (GPa) = -52.56891 21.18511 -15.69190
#
# Velocity S-wave (km/s) = -4.90014 3.11071 -2.67721
# Velocity P-wave (km/s) = 5.13207 5.38054 1.14280
#
# Compressibility (1/GPa) = 0.08045844
#
# Stress axis : x y z
#
# Youngs Moduli (GPa) = 57.79863 96.44071 11.72657
#
# Poissons Ratio (x) = 0.19499 -0.04307
# Poissons Ratio (y) = 0.11686 0.20985
# Poissons Ratio (z) = -0.21229 1.72584
#
# Static dielectric constant tensor:
#      x y z
#    x 1.872660 0.000000 0.000000 
#    y 0.000000 1.837500 0.000000 
#    z 0.000000 0.000000 1.738480 
# 
# From -- ./inp_files/9334.got.cif
#   From: 2010.05.17/outbox.cif.g08.bks.cpg/sg59_5_cif.got.tgz:9334.got - 2010.06.03 14:40:33.
