data_PCOD9452116
_publ_section_title
;
Structure prediction by ZEFSAII (Michael W. Deem and Ramdas Pophale) SiO2 
 PCOD9452116
Probable space group: P M M N
;
_chemical_formula_sum "Si O2"
_cell_formula_units_Z 48
_cell_length_a 8.040503
_cell_length_b 15.221052
_cell_length_c 20.717705
_cell_angle_alpha 90.000000
_cell_angle_beta 90.000000
_cell_angle_gamma 90.000000
_cell_volume 2535.534550
_symmetry_space_group_name_H-M "P M M N"
_symmetry_group_IT_number 59
_space_group.IT_coordinate_system_code '2'
_symmetry_cell_setting 'orthorhombic'
loop_
_space_group_symop_operation_xyz
x,y,z
1/2-x,1/2-y,z
1/2+x,-y,-z
-x,1/2+y,-z
-x,-y,-z
1/2+x,1/2+y,-z
1/2-x,y,z
x,1/2-y,z
loop_
_atom_site_type_symbol
_atom_site_label
_atom_site_fract_x
_atom_site_fract_y
_atom_site_fract_z
Si Si1 0.559633 0.750000 0.559723
Si Si2 0.052178 0.250000 0.020098
Si Si3 0.548636 0.937769 0.557734
Si Si4 0.049122 0.057693 0.295075
Si Si5 0.549273 0.939318 0.179626
Si Si6 0.448288 0.558087 0.938393
Si Si7 0.060287 0.250000 0.283777
Si Si8 0.046279 0.250000 0.870948
O O1 0.750000 0.750000 0.535441
O O2 0.480313 0.841150 0.540965
O O3 0.568934 0.750000 0.637869
O O4 0.250000 0.250000 0.016564
O O5 0.001475 0.340899 0.053905
O O6 0.989915 0.250000 0.945733
O O7 0.750000 0.933227 0.560673
O O8 0.493358 0.958462 0.631008
O O9 0.500000 0.000000 0.500000
O O10 0.250000 0.065536 0.296273
O O11 0.985213 0.153648 0.269598
O O12 0.000943 0.979545 0.247908
O O13 0.750000 0.937684 0.176540
O O14 0.492348 0.840398 0.163247
O O15 0.487150 0.007083 0.124722
O O16 0.250000 0.557319 0.935397
O O17 0.500000 0.500000 0.000000
O O18 0.250000 0.250000 0.257969
O O19 0.250000 0.250000 0.871419
#
# Coordination Sequence:
#
# PCOD9452116 Si02
#       8
#     4   4   8   8   8   8   4   4
#     4   7  12  26  47  69  93 129 170 202 243 302
#     4  11  21  38  60  82 111 145 183 229 275 324
#     4   9  17  31  52  76 103 135 173 218 261 310
#     4   9  18  33  53  78 105 134 174 218 261 314
#     4  10  21  37  56  76 105 140 176 220 267 316
#     4  11  22  37  57  83 110 140 181 229 277 327
#     4   7  12  27  50  70  95 130 164 203 251 303
#     4   9  18  37  57  73  99 142 183 214 257 315
#
# _framework density 18.930918999999999
#
# number of rings (size 3 to 8) (size 9 to 14) (size 15 to 20)
#    0.000    2.667    1.667    2.750    0.000    2.667 
#    0.000    3.750    0.000    8.000    0.000    0.000 
#    0.000    0.000    0.000    0.000    0.000    0.000 
#
# Total GULP energy -267444.302116 kJ/mol
# GULP energy per Si atom -5571.756294 kJ/mol
# Density = 1.888783 g / cm^3
# Si number density = 18.930919 Si / 1000 Ang^3
#
#
#
# Elastic Constant Matrix: (Units=GPa)
#
#
# Indices 1 2 3 4 5 6 
#
# 1 18.3403 16.8003 8.8556 0.0000 0.0000 0.0000
# 2 16.8003 204.1910 96.5693 0.0000 0.0000 0.0000
# 3 8.8556 96.5693 112.3856 0.0000 0.0000 0.0000
# 4 0.0000 0.0000 0.0000 34.4999 0.0000 0.0000
# 5 0.0000 0.0000 0.0000 0.0000 24.2479 0.0000
# 6 0.0000 0.0000 0.0000 0.0000 0.0000 24.3501
#
#
#
# Elastic Compliance Matrix: (Units=1/GPa)
#
#
# Indices 1 2 3 4 5 6 
#
# 1 0.059012 -0.004475 -0.000805 0.000000 0.000000 0.000000
# 2 -0.004475 0.008589 -0.007028 0.000000 0.000000 0.000000
# 3 -0.000805 -0.007028 0.015000 0.000000 0.000000 0.000000
# 4 0.000000 0.000000 0.000000 0.028986 0.000000 0.000000
# 5 0.000000 0.000000 0.000000 0.000000 0.041241 0.000000
# 6 0.000000 0.000000 0.000000 0.000000 0.000000 0.041068
#
#
# Mechanical properties :
#
#
# Convention : Reuss Voigt Hill
#
# Bulk Modulus (GPa) = 17.24539 64.37416 40.80978
# Shear Modulus (GPa) = 21.02256 30.79903 25.91080
#
# Velocity S-wave (km/s) = 3.33601 4.03788 3.70361
# Velocity P-wave (km/s) = 4.89572 7.47114 6.31609
#
# Compressibility (1/GPa) = 0.05798652
#
# Stress axis : x y z
#
# Youngs Moduli (GPa) = 16.94564 116.42400 66.66558
#
# Poissons Ratio (x) = 0.52095 0.05367
# Poissons Ratio (y) = 0.07583 0.46852
# Poissons Ratio (z) = 0.01364 0.81822
#
# Static dielectric constant tensor:
#      x y z
#    x 1.690770 0.000000 0.000000 
#    y 0.000000 1.687330 0.000000 
#    z 0.000000 0.000000 1.645220 
# 
# From -- ./inp_files/25642.got.cif
#   From: 2010.05.17/outbox.cif.g08.bks.cpg/sg59_13_cif.got.tgz:25642.got - 2010.06.03 14:40:33.
