data_PCOD9452583
_publ_section_title
;
Structure prediction by ZEFSAII (Michael W. Deem and Ramdas Pophale) SiO2 
 PCOD9452583
Probable space group: P M M N
;
_chemical_formula_sum "Si O2"
_cell_formula_units_Z 48
_cell_length_a 17.246106
_cell_length_b 14.398123
_cell_length_c 9.648061
_cell_angle_alpha 90.000000
_cell_angle_beta 90.000000
_cell_angle_gamma 90.000000
_cell_volume 2395.725034
_symmetry_space_group_name_H-M "P M M N"
_symmetry_group_IT_number 59
_space_group.IT_coordinate_system_code '2'
_symmetry_cell_setting 'orthorhombic'
loop_
_space_group_symop_operation_xyz
x,y,z
1/2-x,1/2-y,z
1/2+x,-y,-z
-x,1/2+y,-z
-x,-y,-z
1/2+x,1/2+y,-z
1/2-x,y,z
x,1/2-y,z
loop_
_atom_site_type_symbol
_atom_site_label
_atom_site_fract_x
_atom_site_fract_y
_atom_site_fract_z
Si Si1 0.365946 0.355577 0.992675
Si Si2 0.544539 0.359484 0.719572
Si Si3 0.447716 0.644424 0.972871
Si Si4 0.341163 0.965213 0.464458
Si Si5 0.339031 0.146504 0.309530
Si Si6 0.104692 0.486917 0.762132
O O1 0.343084 0.250000 0.961450
O O2 0.459365 0.358836 0.007716
O O3 0.337790 0.377808 0.146828
O O4 0.346048 0.422896 0.867228
O O5 0.523887 0.250000 0.716794
O O6 0.605493 0.385929 0.601625
O O7 0.468207 0.423798 0.712235
O O8 0.581903 0.378239 0.872055
O O9 0.425851 0.750000 0.936723
O O10 0.424555 0.571379 0.857461
O O11 0.250000 0.953360 0.430321
O O12 0.372472 0.061366 0.395113
O O13 0.351774 0.976025 0.628080
O O14 0.250000 0.154048 0.356552
O O15 0.375097 0.250000 0.323497
#
# Coordination Sequence:
#
# PCOD9452583 Si02
#       6
#     8   8   8   8   8   8
#     4   9  17  31  54  81 106 134 174 229 284 330
#     4  10  21  39  61  82 107 145 191 231 272 331
#     4   9  18  33  56  83 107 136 179 231 282 329
#     4  11  24  38  53  79 116 155 189 225 274 329
#     4   9  18  33  52  74 105 148 190 223 267 334
#     4  11  20  34  57  85 112 140 180 235 288 333
#
# _framework density 20.035686999999999
#
# number of rings (size 3 to 8) (size 9 to 14) (size 15 to 20)
#    0.000    2.167    0.000    6.000    0.000    3.000 
#    0.000    2.500    0.000    1.000    0.000    0.000 
#    0.000    0.000    0.000    0.000    0.000    0.000 
#
# Total GULP energy -267838.784599 kJ/mol
# GULP energy per Si atom -5579.974679 kJ/mol
# Density = 1.999008 g / cm^3
# Si number density = 20.035687 Si / 1000 Ang^3
#
#
#
# Elastic Constant Matrix: (Units=GPa)
#
#
# Indices 1 2 3 4 5 6 
#
# 1 33.9850 17.4398 9.3805 0.0000 0.0000 0.0000
# 2 17.4398 76.9241 35.6598 0.0000 0.0000 0.0000
# 3 9.3805 35.6598 70.6922 0.0000 0.0000 0.0000
# 4 0.0000 0.0000 0.0000 5.0669 0.0000 0.0000
# 5 0.0000 0.0000 0.0000 0.0000 29.4392 0.0000
# 6 0.0000 0.0000 0.0000 0.0000 0.0000 1.2980
#
#
#
# Elastic Compliance Matrix: (Units=1/GPa)
#
#
# Indices 1 2 3 4 5 6 
#
# 1 0.033333 -0.007187 -0.000798 0.000000 0.000000 0.000000
# 2 -0.007187 0.018517 -0.008387 0.000000 0.000000 0.000000
# 3 -0.000798 -0.008387 0.018482 0.000000 0.000000 0.000000
# 4 0.000000 0.000000 0.000000 0.197358 0.000000 0.000000
# 5 0.000000 0.000000 0.000000 0.000000 0.033968 0.000000
# 6 0.000000 0.000000 0.000000 0.000000 0.000000 0.770400
#
#
# Mechanical properties :
#
#
# Convention : Reuss Voigt Hill
#
# Bulk Modulus (GPa) = 26.60367 34.06240 30.33303
# Shear Modulus (GPa) = 4.47494 15.10225 9.78860
#
# Velocity S-wave (km/s) = 1.49611 2.74846 2.21273
# Velocity P-wave (km/s) = 4.03626 5.20671 4.65839
#
# Compressibility (1/GPa) = 0.03758880
#
# Stress axis : x y z
#
# Youngs Moduli (GPa) = 30.00018 54.00345 54.10542
#
# Poissons Ratio (x) = 0.38814 0.04315
# Poissons Ratio (y) = 0.21562 0.45379
# Poissons Ratio (z) = 0.02393 0.45293
#
# Static dielectric constant tensor:
#      x y z
#    x 1.727880 0.000000 0.000000 
#    y 0.000000 1.743670 0.000000 
#    z 0.000000 0.000000 1.709230 
# 
# From -- ./inp_files/10240.got.cif
#   From: 2010.05.17/outbox.cif.g08.bks.cpg/sg59_6_cif.got.tgz:10240.got - 2010.06.03 14:40:33.
