data_PCOD9452560
_publ_section_title
;
Structure prediction by ZEFSAII (Michael W. Deem and Ramdas Pophale) SiO2 
 PCOD9452560
Probable space group: P M M N
;
_chemical_formula_sum "Si O2"
_cell_formula_units_Z 56
_cell_length_a 9.015356
_cell_length_b 20.739597
_cell_length_c 15.900761
_cell_angle_alpha 90.000000
_cell_angle_beta 90.000000
_cell_angle_gamma 90.000000
_cell_volume 2973.042407
_symmetry_space_group_name_H-M "P M M N"
_symmetry_group_IT_number 59
_space_group.IT_coordinate_system_code '2'
_symmetry_cell_setting 'orthorhombic'
loop_
_space_group_symop_operation_xyz
x,y,z
1/2-x,1/2-y,z
1/2+x,-y,-z
-x,1/2+y,-z
-x,-y,-z
1/2+x,1/2+y,-z
1/2-x,y,z
x,1/2-y,z
loop_
_atom_site_type_symbol
_atom_site_label
_atom_site_fract_x
_atom_site_fract_y
_atom_site_fract_z
Si Si1 0.418895 0.326700 0.414866
Si Si2 0.582166 0.984448 0.413956
Si Si3 0.572147 0.530526 0.878488
Si Si4 0.430251 0.750000 0.285987
Si Si5 0.570641 0.103033 0.961879
Si Si6 0.081728 0.597429 0.720030
Si Si7 0.430491 0.750000 0.093006
Si Si8 0.073470 0.637317 0.409883
O O1 0.250000 0.351394 0.414045
O O2 0.417304 0.250000 0.423092
O O3 0.496528 0.345256 0.327144
O O4 0.502332 0.352013 0.498256
O O5 0.750000 0.961917 0.429369
O O6 0.482435 0.929681 0.373457
O O7 0.500000 0.000000 0.500000
O O8 0.589097 0.045375 0.354599
O O9 0.750000 0.536061 0.877118
O O10 0.537652 0.453669 0.892376
O O11 0.502036 0.562792 0.796091
O O12 0.506540 0.572366 0.956021
O O13 0.250000 0.750000 0.282237
O O14 0.481372 0.750000 0.190300
O O15 0.475203 0.810098 0.342575
O O16 0.750000 0.103083 0.972207
O O17 0.526731 0.178390 0.943981
O O18 0.250000 0.615142 0.744722
O O19 0.250000 0.750000 0.090472
O O20 0.250000 0.639303 0.419868
#
# Coordination Sequence:
#
# PCOD9452560 Si02
#       8
#     8   8   8   4   8   8   4   8
#     4  11  23  39  59  82 114 154 198 248 300 350
#     4  11  23  37  55  82 115 154 198 248 294 341
#     4  10  21  38  63  91 119 153 193 242 299 358
#     4   9  20  34  55  86 117 150 193 239 282 343
#     4   9  19  38  65  90 118 154 192 238 296 359
#     4  11  24  40  60  86 116 152 200 247 291 348
#     4   9  18  36  61  92 121 150 193 239 286 349
#     4  11  21  35  56  82 116 158 199 240 289 346
#
# _framework density 18.835923000000001
#
# number of rings (size 3 to 8) (size 9 to 14) (size 15 to 20)
#    0.000    1.714    2.143    2.143    2.000    3.143 
#    1.286    0.357    0.000    1.714    0.000    0.000 
#    0.000    0.000    0.000    0.000    0.000    0.000 
#
# Total GULP energy -312123.367310 kJ/mol
# GULP energy per Si atom -5573.631559 kJ/mol
# Density = 1.879305 g / cm^3
# Si number density = 18.835923 Si / 1000 Ang^3
#
#
#
# Elastic Constant Matrix: (Units=GPa)
#
#
# Indices 1 2 3 4 5 6 
#
# 1 69.2830 21.3954 27.9641 0.0000 0.0000 0.0000
# 2 21.3954 97.7330 20.8559 0.0000 0.0000 0.0000
# 3 27.9641 20.8559 77.9469 0.0000 0.0000 0.0000
# 4 0.0000 0.0000 0.0000 30.1093 0.0000 0.0000
# 5 0.0000 0.0000 0.0000 0.0000 26.3824 0.0000
# 6 0.0000 0.0000 0.0000 0.0000 0.0000 26.0042
#
#
#
# Elastic Compliance Matrix: (Units=1/GPa)
#
#
# Indices 1 2 3 4 5 6 
#
# 1 0.017498 -0.002642 -0.005571 0.000000 0.000000 0.000000
# 2 -0.002642 0.011250 -0.002062 0.000000 0.000000 0.000000
# 3 -0.005571 -0.002062 0.015380 0.000000 0.000000 0.000000
# 4 0.000000 0.000000 0.000000 0.033212 0.000000 0.000000
# 5 0.000000 0.000000 0.000000 0.000000 0.037904 0.000000
# 6 0.000000 0.000000 0.000000 0.000000 0.000000 0.038455
#
#
# Mechanical properties :
#
#
# Convention : Reuss Voigt Hill
#
# Bulk Modulus (GPa) = 42.41234 42.82152 42.61693
# Shear Modulus (GPa) = 27.45614 28.14902 27.80258
#
# Velocity S-wave (km/s) = 3.82206 3.86998 3.84609
# Velocity P-wave (km/s) = 6.48407 6.53853 6.51135
#
# Compressibility (1/GPa) = 0.02357804
#
# Stress axis : x y z
#
# Youngs Moduli (GPa) = 57.15001 88.88564 65.02113
#
# Poissons Ratio (x) = 0.23482 0.36221
# Poissons Ratio (y) = 0.15098 0.13410
# Poissons Ratio (z) = 0.31836 0.18332
#
# Static dielectric constant tensor:
#      x y z
#    x 1.676700 0.000000 0.000000 
#    y 0.000000 1.616550 0.000000 
#    z 0.000000 0.000000 1.627920 
# 
# From -- ./inp_files/21172.got.cif
#   From: 2010.05.17/outbox.cif.g08.bks.cpg/sg59_11_cif.got.tgz:21172.got - 2010.06.03 14:40:33.
