data_PCOD9452235
_publ_section_title
;
Structure prediction by ZEFSAII (Michael W. Deem and Ramdas Pophale) SiO2 
 PCOD9452235
Probable space group: P M M N
;
_chemical_formula_sum "Si O2"
_cell_formula_units_Z 48
_cell_length_a 17.096583
_cell_length_b 13.170956
_cell_length_c 10.719227
_cell_angle_alpha 90.000000
_cell_angle_beta 90.000000
_cell_angle_gamma 90.000000
_cell_volume 2413.737768
_symmetry_space_group_name_H-M "P M M N"
_symmetry_group_IT_number 59
_space_group.IT_coordinate_system_code '2'
_symmetry_cell_setting 'orthorhombic'
loop_
_space_group_symop_operation_xyz
x,y,z
1/2-x,1/2-y,z
1/2+x,-y,-z
-x,1/2+y,-z
-x,-y,-z
1/2+x,1/2+y,-z
1/2-x,y,z
x,1/2-y,z
loop_
_atom_site_type_symbol
_atom_site_label
_atom_site_fract_x
_atom_site_fract_y
_atom_site_fract_z
Si Si1 0.573890 0.865513 0.773937
Si Si2 0.656941 0.358363 0.606631
Si Si3 0.933813 0.459669 0.094772
Si Si4 0.585199 0.948124 0.502296
Si Si5 0.842792 0.061587 0.869893
Si Si6 0.155745 0.367944 0.751366
O O1 0.587421 0.750000 0.811753
O O2 0.589280 0.881275 0.627311
O O3 0.629794 0.945468 0.845154
O O4 0.484288 0.897587 0.804857
O O5 0.750000 0.351989 0.617258
O O6 0.625687 0.250000 0.561307
O O7 0.639447 0.453657 0.521407
O O8 0.626270 0.380444 0.746790
O O9 0.885256 0.551099 0.156814
O O10 0.877106 0.400383 0.000451
O O11 0.000000 0.500000 0.000000
O O12 0.613414 0.888143 0.381363
O O13 0.500000 0.000000 0.500000
O O14 0.750000 0.067298 0.872171
O O15 0.250000 0.384861 0.743253
O O16 0.143831 0.250000 0.788200
#
# Coordination Sequence:
#
# PCOD9452235 Si02
#       6
#     8   8   8   8   8   8
#     4  10  21  37  57  86 121 157 200 245 299 359
#     4   9  19  36  59  86 116 155 199 243 298 361
#     4  10  21  39  57  85 121 159 202 247 298 353
#     4  11  21  39  59  89 122 157 199 249 302 358
#     4   9  19  36  59  86 118 155 199 252 301 352
#     4  11  24  42  66  94 125 162 203 252 311 370
#
# _framework density 19.886168000000001
#
# number of rings (size 3 to 8) (size 9 to 14) (size 15 to 20)
#    0.000    2.000    1.667    1.500    0.000    5.667 
#    0.000    0.000    0.000    1.500    0.000    0.000 
#    0.000    0.000    0.000    0.000    0.000    0.000 
#
# Total GULP energy -267625.757488 kJ/mol
# GULP energy per Si atom -5575.536614 kJ/mol
# Density = 1.984091 g / cm^3
# Si number density = 19.886168 Si / 1000 Ang^3
#
#
#
# Elastic Constant Matrix: (Units=GPa)
#
#
# Indices 1 2 3 4 5 6 
#
# 1 56.3228 -3.3354 -2.0113 0.0000 0.0000 0.0000
# 2 -3.3354 62.8325 -19.8987 0.0000 0.0000 0.0000
# 3 -2.0113 -19.8987 46.1738 0.0000 0.0000 0.0000
# 4 0.0000 0.0000 0.0000 3.3479 0.0000 0.0000
# 5 0.0000 0.0000 0.0000 0.0000 34.4070 0.0000
# 6 0.0000 0.0000 0.0000 0.0000 0.0000 23.4963
#
#
#
# Elastic Compliance Matrix: (Units=1/GPa)
#
#
# Indices 1 2 3 4 5 6 
#
# 1 0.017886 0.001385 0.001376 0.000000 0.000000 0.000000
# 2 0.001385 0.018538 0.008049 0.000000 0.000000 0.000000
# 3 0.001376 0.008049 0.025186 0.000000 0.000000 0.000000
# 4 0.000000 0.000000 0.000000 0.298697 0.000000 0.000000
# 5 0.000000 0.000000 0.000000 0.000000 0.029064 0.000000
# 6 0.000000 0.000000 0.000000 0.000000 0.000000 0.042560
#
#
# Mechanical properties :
#
#
# Convention : Reuss Voigt Hill
#
# Bulk Modulus (GPa) = 12.01468 12.75981 12.38724
# Shear Modulus (GPa) = 11.41413 24.95522 18.18467
#
# Velocity S-wave (km/s) = 2.39837 3.54630 3.02725
# Velocity P-wave (km/s) = 3.70465 4.81650 4.29669
#
# Compressibility (1/GPa) = 0.08323152
#
# Stress axis : x y z
#
# Youngs Moduli (GPa) = 55.90970 53.94312 39.70441
#
# Poissons Ratio (x) = -0.07473 -0.05464
# Poissons Ratio (y) = -0.07745 -0.31959
# Poissons Ratio (z) = -0.07694 -0.43421
#
# Static dielectric constant tensor:
#      x y z
#    x 2.820790 0.000000 0.000000 
#    y 0.000000 1.684200 0.000000 
#    z 0.000000 0.000000 1.741050 
# 
# From -- ./inp_files/15787.got.cif
#   From: 2010.05.17/outbox.cif.g08.bks.cpg/sg59_8_cif.got.tgz:15787.got - 2010.06.03 14:40:33.
