data_PCOD9452494
_publ_section_title
;
Structure prediction by ZEFSAII (Michael W. Deem and Ramdas Pophale) SiO2 
 PCOD9452494
Probable space group: P M M N
;
_chemical_formula_sum "Si O2"
_cell_formula_units_Z 48
_cell_length_a 9.010635
_cell_length_b 9.343955
_cell_length_c 31.526245
_cell_angle_alpha 90.000000
_cell_angle_beta 90.000000
_cell_angle_gamma 90.000000
_cell_volume 2654.351188
_symmetry_space_group_name_H-M "P M M N"
_symmetry_group_IT_number 59
_space_group.IT_coordinate_system_code '2'
_symmetry_cell_setting 'orthorhombic'
loop_
_space_group_symop_operation_xyz
x,y,z
1/2-x,1/2-y,z
1/2+x,-y,-z
-x,1/2+y,-z
-x,-y,-z
1/2+x,1/2+y,-z
1/2-x,y,z
x,1/2-y,z
loop_
_atom_site_type_symbol
_atom_site_label
_atom_site_fract_x
_atom_site_fract_y
_atom_site_fract_z
Si Si1 0.927904 0.082177 0.038762
Si Si2 0.927756 0.079126 0.134089
Si Si3 0.073482 0.580646 0.212569
Si Si4 0.073245 0.080368 0.381640
Si Si5 0.427560 0.080429 0.539803
Si Si6 0.925913 0.419622 0.291060
O O1 0.750000 0.068390 0.036586
O O2 0.964216 0.250000 0.035456
O O3 0.972501 0.034748 0.086271
O O4 0.000000 0.000000 0.000000
O O5 0.750000 0.057969 0.138332
O O6 0.953943 0.250000 0.138203
O O7 0.011766 0.993714 0.170271
O O8 0.250000 0.558580 0.215755
O O9 0.043901 0.750000 0.211426
O O10 0.994297 0.509419 0.252875
O O11 0.250000 0.056740 0.381791
O O12 0.047198 0.250000 0.389829
O O13 0.005748 0.047353 0.335519
O O14 0.995236 0.987600 0.417709
O O15 0.250000 0.060911 0.539141
O O16 0.458496 0.250000 0.537635
O O17 0.500000 0.000000 0.500000
O O18 0.750000 0.445106 0.294743
O O19 0.947724 0.250000 0.282522
#
# Coordination Sequence:
#
# PCOD9452494 Si02
#       6
#     8   8   8   8   8   8
#     4   9  19  35  54  78 108 140 176 220 268 320
#     4   9  19  37  58  78 103 139 182 224 268 321
#     4  11  24  38  53  79 113 145 179 223 274 324
#     4  10  21  38  61  88 116 147 185 228 275 328
#     4  11  24  40  59  85 116 151 191 233 279 330
#     4  10  21  38  61  86 111 144 185 226 271 325
#
# _framework density 18.083514999999998
#
# number of rings (size 3 to 8) (size 9 to 14) (size 15 to 20)
#    0.000    2.000    0.000    4.000    0.000   11.333 
#    0.000    5.000    0.000    0.000    0.000    0.000 
#    0.000    0.000    0.000    0.000    0.000    0.000 
#
# Total GULP energy -268157.841997 kJ/mol
# GULP energy per Si atom -5586.621708 kJ/mol
# Density = 1.804236 g / cm^3
# Si number density = 18.083515 Si / 1000 Ang^3
#
#
#
# Elastic Constant Matrix: (Units=GPa)
#
#
# Indices 1 2 3 4 5 6 
#
# 1 88.0411 80.9985 92.1248 0.0000 0.0000 0.0000
# 2 80.9985 93.4593 110.4198 0.0000 0.0000 0.0000
# 3 92.1248 110.4198 192.0136 0.0000 0.0000 0.0000
# 4 0.0000 0.0000 0.0000 39.0337 0.0000 0.0000
# 5 0.0000 0.0000 0.0000 0.0000 41.8853 0.0000
# 6 0.0000 0.0000 0.0000 0.0000 0.0000 32.8113
#
#
#
# Elastic Compliance Matrix: (Units=1/GPa)
#
#
# Indices 1 2 3 4 5 6 
#
# 1 0.056707 -0.053035 0.003291 0.000000 0.000000 0.000000
# 2 -0.053035 0.082977 -0.022272 0.000000 0.000000 0.000000
# 3 0.003291 -0.022272 0.016437 0.000000 0.000000 0.000000
# 4 0.000000 0.000000 0.000000 0.025619 0.000000 0.000000
# 5 0.000000 0.000000 0.000000 0.000000 0.023875 0.000000
# 6 0.000000 0.000000 0.000000 0.000000 0.000000 0.030477
#
#
# Mechanical properties :
#
#
# Convention : Reuss Voigt Hill
#
# Bulk Modulus (GPa) = 82.71349 104.51114 93.61231
# Shear Modulus (GPa) = 13.01569 28.74413 20.87991
#
# Velocity S-wave (km/s) = 2.68573 3.99121 3.40168
# Velocity P-wave (km/s) = 7.44692 8.89712 8.20412
#
# Compressibility (1/GPa) = 0.01208993
#
# Stress axis : x y z
#
# Youngs Moduli (GPa) = 17.63466 12.05149 60.83987
#
# Poissons Ratio (x) = 0.63915 -0.20025
# Poissons Ratio (y) = 0.93525 1.35503
# Poissons Ratio (z) = -0.05804 0.26841
#
# Static dielectric constant tensor:
#      x y z
#    x 1.600210 0.000000 0.000000 
#    y 0.000000 1.600220 0.000000 
#    z 0.000000 0.000000 1.592940 
# 
# From -- ./inp_files/32892.got.cif
#   From: 2010.05.17/outbox.cif.g08.bks.cpg/sg59_17_cif.got.tgz:32892.got - 2010.06.03 14:40:33.
