data_PCOD9452195
_publ_section_title
;
Structure prediction by ZEFSAII (Michael W. Deem and Ramdas Pophale) SiO2 
 PCOD9452195
Probable space group: P M M N
;
_chemical_formula_sum "Si O2"
_cell_formula_units_Z 64
_cell_length_a 29.791207
_cell_length_b 7.887509
_cell_length_c 12.947854
_cell_angle_alpha 90.000000
_cell_angle_beta 90.000000
_cell_angle_gamma 90.000000
_cell_volume 3042.466189
_symmetry_space_group_name_H-M "P M M N"
_symmetry_group_IT_number 59
_space_group.IT_coordinate_system_code '2'
_symmetry_cell_setting 'orthorhombic'
loop_
_space_group_symop_operation_xyz
x,y,z
1/2-x,1/2-y,z
1/2+x,-y,-z
-x,1/2+y,-z
-x,-y,-z
1/2+x,1/2+y,-z
1/2-x,y,z
x,1/2-y,z
loop_
_atom_site_type_symbol
_atom_site_label
_atom_site_fract_x
_atom_site_fract_y
_atom_site_fract_z
Si Si1 0.048936 0.547187 0.544054
Si Si2 0.606723 0.049379 0.031444
Si Si3 0.552326 0.042170 0.835393
Si Si4 0.300914 0.454124 0.454463
Si Si5 0.195778 0.057733 0.677802
Si Si6 0.547878 0.549429 0.219196
Si Si7 0.199809 0.949217 0.906195
Si Si8 0.889093 0.453674 0.640743
O O1 0.051912 0.750000 0.547808
O O2 0.055431 0.482053 0.659860
O O3 0.084927 0.481574 0.460893
O O4 0.000000 0.500000 0.500000
O O5 0.611141 0.250000 0.011313
O O6 0.657265 0.976679 0.033156
O O7 0.584359 0.027966 0.142986
O O8 0.573333 0.982615 0.943373
O O9 0.550877 0.250000 0.835306
O O10 0.501723 0.984789 0.812526
O O11 0.584942 0.987729 0.742487
O O12 0.250000 0.513793 0.434890
O O13 0.299274 0.250000 0.464235
O O14 0.317761 0.518503 0.567343
O O15 0.337180 0.499763 0.369194
O O16 0.250000 0.067689 0.668599
O O17 0.178076 0.250000 0.688364
O O18 0.187725 0.963723 0.784549
O O19 0.548819 0.750000 0.201730
O O20 0.250000 0.023401 0.920755
O O21 0.202830 0.750000 0.930667
O O22 0.892342 0.250000 0.640391
#
# Coordination Sequence:
#
# PCOD9452195 Si02
#       8
#     8   8   8   8   8   8   8   8
#     4  11  22  38  59  86 119 150 185 229 282 341
#     4  10  21  37  58  82 110 144 188 236 284 332
#     4   9  19  39  59  78 110 149 185 235 287 329
#     4   9  19  35  53  78 112 148 187 230 278 332
#     4   8  15  29  48  69  98 137 174 212 264 321
#     4  11  22  38  59  83 115 149 188 233 283 341
#     4   9  18  32  50  75 106 138 174 220 275 330
#     4  10  21  37  57  81 112 149 190 233 278 333
#
# _framework density 21.035567
#
# number of rings (size 3 to 8) (size 9 to 14) (size 15 to 20)
#    0.000    2.375    1.250    1.875    1.750    2.250 
#    0.000    3.125    0.000    2.250    0.000    1.750 
#    0.000    0.000    0.000    0.000    0.000    0.000 
#
# Total GULP energy -357166.746480 kJ/mol
# GULP energy per Si atom -5580.730414 kJ/mol
# Density = 2.098769 g / cm^3
# Si number density = 21.035567 Si / 1000 Ang^3
#
#
#
# Elastic Constant Matrix: (Units=GPa)
#
#
# Indices 1 2 3 4 5 6 
#
# 1 105.4254 -0.2218 39.7775 0.0000 0.0000 0.0000
# 2 -0.2218 19.4627 -8.7421 0.0000 0.0000 0.0000
# 3 39.7775 -8.7421 76.1752 0.0000 0.0000 0.0000
# 4 0.0000 0.0000 0.0000 0.7431 0.0000 0.0000
# 5 0.0000 0.0000 0.0000 0.0000 19.3582 0.0000
# 6 0.0000 0.0000 0.0000 0.0000 0.0000 18.3532
#
#
#
# Elastic Compliance Matrix: (Units=1/GPa)
#
#
# Indices 1 2 3 4 5 6 
#
# 1 0.011957 -0.002813 -0.006567 0.000000 0.000000 0.000000
# 2 -0.002813 0.054835 0.007762 0.000000 0.000000 0.000000
# 3 -0.006567 0.007762 0.017447 0.000000 0.000000 0.000000
# 4 0.000000 0.000000 0.000000 1.345765 0.000000 0.000000
# 5 0.000000 0.000000 0.000000 0.000000 0.051658 0.000000
# 6 0.000000 0.000000 0.000000 0.000000 0.000000 0.054486
#
#
# Mechanical properties :
#
#
# Convention : Reuss Voigt Hill
#
# Bulk Modulus (GPa) = 12.34512 29.18783 20.76648
# Shear Modulus (GPa) = 3.19206 19.04089 11.11647
#
# Velocity S-wave (km/s) = 1.23319 3.01188 2.30132
# Velocity P-wave (km/s) = 2.81231 5.09910 4.11764
#
# Compressibility (1/GPa) = 0.08100366
#
# Stress axis : x y z
#
# Youngs Moduli (GPa) = 83.63235 18.23657 57.31496
#
# Poissons Ratio (x) = 0.05131 0.37637
# Poissons Ratio (y) = 0.23528 -0.44488
# Poissons Ratio (z) = 0.54919 -0.14155
#
# Static dielectric constant tensor:
#      x y z
#    x 1.782390 0.000000 0.000000 
#    y 0.000000 1.778620 0.000000 
#    z 0.000000 0.000000 1.737880 
# 
# From -- ./inp_files/19332.got.cif
#   From: 2010.05.17/outbox.cif.g08.bks.cpg/sg59_10_cif.got.tgz:19332.got - 2010.06.03 14:40:33.
