data_PCOD9452938
_publ_section_title
;
Structure prediction by ZEFSAII (Michael W. Deem and Ramdas Pophale) SiO2 
 PCOD9452938
Probable space group: P M M N
;
_chemical_formula_sum "Si O2"
_cell_formula_units_Z 32
_cell_length_a 14.547648
_cell_length_b 7.655208
_cell_length_c 14.446638
_cell_angle_alpha 90.000000
_cell_angle_beta 90.000000
_cell_angle_gamma 90.000000
_cell_volume 1608.853761
_symmetry_space_group_name_H-M "P M M N"
_symmetry_group_IT_number 59
_space_group.IT_coordinate_system_code '2'
_symmetry_cell_setting 'orthorhombic'
loop_
_space_group_symop_operation_xyz
x,y,z
1/2-x,1/2-y,z
1/2+x,-y,-z
-x,1/2+y,-z
-x,-y,-z
1/2+x,1/2+y,-z
1/2-x,y,z
x,1/2-y,z
loop_
_atom_site_type_symbol
_atom_site_label
_atom_site_fract_x
_atom_site_fract_y
_atom_site_fract_z
Si Si1 0.063611 0.455563 0.414006
Si Si2 0.250000 0.457724 0.517977
Si Si3 0.750000 0.250000 0.325328
Si Si4 0.750000 0.250000 0.020495
Si Si5 0.948773 0.446304 0.790765
Si Si6 0.250000 0.453375 0.132505
Si Si7 0.909227 0.250000 0.170943
O O1 0.057403 0.250000 0.392268
O O2 0.163638 0.495113 0.453132
O O3 0.040117 0.552645 0.320097
O O4 0.000000 0.500000 0.500000
O O5 0.250000 0.250000 0.542295
O O6 0.250000 0.580748 0.607791
O O7 0.841085 0.250000 0.260616
O O8 0.840075 0.250000 0.084733
O O9 0.750000 0.419293 0.955267
O O10 0.961359 0.250000 0.827197
O O11 0.844230 0.506554 0.812048
O O12 0.023647 0.582400 0.828593
O O13 0.250000 0.250000 0.107437
#
# Coordination Sequence:
#
# PCOD9452938 Si02
#       7
#     8   4   2   2   8   4   4
#     4  11  22  38  60  95 134 175 228 274 319 391
#     4  10  24  38  58  91 129 182 227 279 326 384
#     4  11  24  42  65  88 140 186 235 270 342 393
#     4  11  28  50  73 104 136 170 231 276 358 415
#     4  12  24  43  71 103 140 180 222 278 350 400
#     4  12  24  48  74 105 137 168 221 290 340 417
#     4  11  26  47  68 100 136 181 220 287 340 424
#
# _framework density 19.889935999999999
#
# number of rings (size 3 to 8) (size 9 to 14) (size 15 to 20)
#    0.000    0.750    3.750    3.000    3.500    6.000 
#    0.000    2.500    0.000    0.000    0.000    0.000 
#    0.000    0.000    0.000    0.000    0.000    0.000 
#
# Total GULP energy -178970.429325 kJ/mol
# GULP energy per Si atom -5592.825916 kJ/mol
# Density = 1.984467 g / cm^3
# Si number density = 19.889936 Si / 1000 Ang^3
#
#
#
# Elastic Constant Matrix: (Units=GPa)
#
#
# Indices 1 2 3 4 5 6 
#
# 1 144.4722 48.3430 30.9056 0.0000 0.0000 0.0000
# 2 48.3430 139.0854 33.7310 0.0000 0.0000 0.0000
# 3 30.9056 33.7310 89.9293 0.0000 0.0000 0.0000
# 4 0.0000 0.0000 0.0000 12.2366 0.0000 0.0000
# 5 0.0000 0.0000 0.0000 0.0000 -1.1323 0.0000
# 6 0.0000 0.0000 0.0000 0.0000 0.0000 28.0590
#
#
#
# Elastic Compliance Matrix: (Units=1/GPa)
#
#
# Indices 1 2 3 4 5 6 
#
# 1 0.008119 -0.002360 -0.001905 0.000000 0.000000 0.000000
# 2 -0.002360 0.008595 -0.002413 0.000000 0.000000 0.000000
# 3 -0.001905 -0.002413 0.012680 0.000000 0.000000 0.000000
# 4 0.000000 0.000000 0.000000 0.081722 0.000000 0.000000
# 5 0.000000 0.000000 0.000000 0.000000 -0.883131 0.000000
# 6 0.000000 0.000000 0.000000 0.000000 0.000000 0.035639
#
#
# Mechanical properties :
#
#
# Convention : Reuss Voigt Hill
#
# Bulk Modulus (GPa) = 62.35185 66.60515 64.47850
# Shear Modulus (GPa) = -6.96695 25.19982 9.11644
#
# Velocity S-wave (km/s) = -1.87359 3.56330 2.14322
# Velocity P-wave (km/s) = 5.17069 7.10557 6.21390
#
# Compressibility (1/GPa) = 0.01603802
#
# Stress axis : x y z
#
# Youngs Moduli (GPa) = 123.16849 116.34297 78.86700
#
# Poissons Ratio (x) = 0.27457 0.15024
# Poissons Ratio (y) = 0.29067 0.19030
# Poissons Ratio (z) = 0.23464 0.28072
#
# Static dielectric constant tensor:
#      x y z
#    x 1.671560 0.000000 0.000000 
#    y 0.000000 1.705250 0.000000 
#    z 0.000000 0.000000 1.669850 
# 
# From -- ./inp_files/22106.got.cif
#   From: 2010.05.17/outbox.cif.g08.bks.cpg/sg59_12_cif.got.tgz:22106.got - 2010.06.03 14:40:33.
