data_PCOD9452120
_publ_section_title
;
Structure prediction by ZEFSAII (Michael W. Deem and Ramdas Pophale) SiO2 
 PCOD9452120
Probable space group: P M M N
;
_chemical_formula_sum "Si O2"
_cell_formula_units_Z 40
_cell_length_a 14.111219
_cell_length_b 8.744397
_cell_length_c 16.432440
_cell_angle_alpha 90.000000
_cell_angle_beta 90.000000
_cell_angle_gamma 90.000000
_cell_volume 2027.666163
_symmetry_space_group_name_H-M "P M M N"
_symmetry_group_IT_number 59
_space_group.IT_coordinate_system_code '2'
_symmetry_cell_setting 'orthorhombic'
loop_
_space_group_symop_operation_xyz
x,y,z
1/2-x,1/2-y,z
1/2+x,-y,-z
-x,1/2+y,-z
-x,-y,-z
1/2+x,1/2+y,-z
1/2-x,y,z
x,1/2-y,z
loop_
_atom_site_type_symbol
_atom_site_label
_atom_site_fract_x
_atom_site_fract_y
_atom_site_fract_z
Si Si1 0.638832 0.569683 0.631216
Si Si2 0.957578 0.565792 0.122239
Si Si3 0.857083 0.565289 0.956604
Si Si4 0.540544 0.568866 0.302374
Si Si5 0.136330 0.575030 0.540596
O O1 0.750000 0.534299 0.642449
O O2 0.624859 0.750000 0.644680
O O3 0.570071 0.472971 0.688106
O O4 0.612897 0.526970 0.538048
O O5 0.963362 0.750000 0.122270
O O6 0.926986 0.518673 0.212605
O O7 0.060977 0.500754 0.100475
O O8 0.887589 0.521346 0.048812
O O9 0.750000 0.515217 0.938291
O O10 0.859696 0.750000 0.951643
O O11 0.554826 0.750000 0.310763
O O12 0.591949 0.484899 0.376348
O O13 0.250000 0.571680 0.548556
O O14 0.106784 0.750000 0.524582
#
# Coordination Sequence:
#
# PCOD9452120 Si02
#       5
#     8   8   8   8   8
#     4  10  21  37  56  77 104 141 183 223 264 312
#     4   9  20  36  53  78 108 137 172 212 256 311
#     4   9  18  35  58  79 102 135 172 212 259 309
#     4  11  22  35  54  79 109 143 176 216 264 313
#     4  10  21  37  56  78 106 140 179 222 265 311
#
# _framework density 19.727112999999999
#
# number of rings (size 3 to 8) (size 9 to 14) (size 15 to 20)
#    0.000    2.200    0.000    2.400    0.000    6.000 
#    0.000    6.000    0.000    0.000    0.000    0.000 
#    0.000    0.000    0.000    0.000    0.000    0.000 
#
# Total GULP energy -223384.149883 kJ/mol
# GULP energy per Si atom -5584.603747 kJ/mol
# Density = 1.968221 g / cm^3
# Si number density = 19.727113 Si / 1000 Ang^3
#
#
#
# Elastic Constant Matrix: (Units=GPa)
#
#
# Indices 1 2 3 4 5 6 
#
# 1 26.8094 0.6215 -19.4055 0.0000 0.0000 0.0000
# 2 0.6215 17.6144 -3.4727 0.0000 0.0000 0.0000
# 3 -19.4055 -3.4727 40.8288 0.0000 0.0000 0.0000
# 4 0.0000 0.0000 0.0000 24.9436 0.0000 0.0000
# 5 0.0000 0.0000 0.0000 0.0000 8.1549 0.0000
# 6 0.0000 0.0000 0.0000 0.0000 0.0000 29.2877
#
#
#
# Elastic Compliance Matrix: (Units=1/GPa)
#
#
# Indices 1 2 3 4 5 6 
#
# 1 0.057061 0.003390 0.027409 0.000000 0.000000 0.000000
# 2 0.003390 0.057941 0.006540 0.000000 0.000000 0.000000
# 3 0.027409 0.006540 0.038076 0.000000 0.000000 0.000000
# 4 0.000000 0.000000 0.000000 0.040090 0.000000 0.000000
# 5 0.000000 0.000000 0.000000 0.000000 0.122626 0.000000
# 6 0.000000 0.000000 0.000000 0.000000 0.000000 0.034144
#
#
# Mechanical properties :
#
#
# Convention : Reuss Voigt Hill
#
# Bulk Modulus (GPa) = 4.39066 4.52658 4.45862
# Shear Modulus (GPa) = 14.23774 19.64454 16.94114
#
# Velocity S-wave (km/s) = 2.68943 3.15908 2.93366
# Velocity P-wave (km/s) = 3.44595 3.95043 3.70678
#
# Compressibility (1/GPa) = 0.22775637
#
# Stress axis : x y z
#
# Youngs Moduli (GPa) = 17.52501 17.25885 26.26328
#
# Poissons Ratio (x) = -0.05851 -0.71985
# Poissons Ratio (y) = -0.05942 -0.17175
# Poissons Ratio (z) = -0.48034 -0.11287
#
# Static dielectric constant tensor:
#      x y z
#    x 1.703760 0.000000 0.000000 
#    y 0.000000 1.668970 0.000000 
#    z 0.000000 0.000000 1.691380 
# 
# From -- ./inp_files/19849.got.cif
#   From: 2010.05.17/outbox.cif.g08.bks.cpg/sg59_10_cif.got.tgz:19849.got - 2010.06.03 14:40:33.
