data_PCOD9452658
_publ_section_title
;
Structure prediction by ZEFSAII (Michael W. Deem and Ramdas Pophale) SiO2 
 PCOD9452658
Probable space group: P M M N
;
_chemical_formula_sum "Si O2"
_cell_formula_units_Z 40
_cell_length_a 13.235215
_cell_length_b 23.735630
_cell_length_c 4.793749
_cell_angle_alpha 90.000000
_cell_angle_beta 90.000000
_cell_angle_gamma 90.000000
_cell_volume 1505.937870
_symmetry_space_group_name_H-M "P M M N"
_symmetry_group_IT_number 59
_space_group.IT_coordinate_system_code '2'
_symmetry_cell_setting 'orthorhombic'
loop_
_space_group_symop_operation_xyz
x,y,z
1/2-x,1/2-y,z
1/2+x,-y,-z
-x,1/2+y,-z
-x,-y,-z
1/2+x,1/2+y,-z
1/2-x,y,z
x,1/2-y,z
loop_
_atom_site_type_symbol
_atom_site_label
_atom_site_fract_x
_atom_site_fract_y
_atom_site_fract_z
Si Si1 0.135312 0.932620 0.544152
Si Si2 0.938851 0.958110 0.190916
Si Si3 0.362057 0.139623 0.177847
Si Si4 0.451305 0.311211 0.684743
Si Si5 0.131572 0.812771 0.711362
O O1 0.250000 0.924542 0.425507
O O2 0.121781 0.881444 0.774205
O O3 0.031714 0.929572 0.362598
O O4 0.130316 0.998178 0.639007
O O5 0.878226 0.919176 0.975100
O O6 0.000000 0.000000 0.000000
O O7 0.250000 0.160464 0.123344
O O8 0.442109 0.177796 0.011617
O O9 0.384694 0.145019 0.503611
O O10 0.406734 0.250000 0.622773
O O11 0.563777 0.311385 0.568195
O O12 0.250000 0.809437 0.654524
O O13 0.111128 0.750000 0.849244
#
# Coordination Sequence:
#
# PCOD9452658 Si02
#       5
#     8   8   8   8   8
#     4  10  21  40  65  94 130 173 224 280 345 409
#     4  11  24  41  63  94 135 177 227 282 340 410
#     4  12  26  44  69 100 137 182 232 286 345 408
#     4  11  24  45  70 101 139 180 230 287 343 410
#     4   9  18  38  68  99 132 172 221 280 345 408
#
# _framework density 26.561518
#
# number of rings (size 3 to 8) (size 9 to 14) (size 15 to 20)
#    0.000    1.400    2.000    3.000    2.800    4.000 
#    0.000    2.000    0.000    4.800    0.000    0.000 
#    0.000    0.000    0.000    0.000    0.000    0.000 
#
# Total GULP energy -222876.458283 kJ/mol
# GULP energy per Si atom -5571.911457 kJ/mol
# Density = 2.650106 g / cm^3
# Si number density = 26.561518 Si / 1000 Ang^3
#
#
#
# Elastic Constant Matrix: (Units=GPa)
#
#
# Indices 1 2 3 4 5 6 
#
# 1 86.5005 35.2105 12.5551 0.0000 0.0000 0.0000
# 2 35.2105 161.6426 18.5538 0.0000 0.0000 0.0000
# 3 12.5551 18.5538 60.8369 0.0000 0.0000 0.0000
# 4 0.0000 0.0000 0.0000 47.0751 0.0000 0.0000
# 5 0.0000 0.0000 0.0000 0.0000 11.6065 0.0000
# 6 0.0000 0.0000 0.0000 0.0000 0.0000 35.4181
#
#
#
# Elastic Compliance Matrix: (Units=1/GPa)
#
#
# Indices 1 2 3 4 5 6 
#
# 1 0.012887 -0.002593 -0.001869 0.000000 0.000000 0.000000
# 2 -0.002593 0.006933 -0.001579 0.000000 0.000000 0.000000
# 3 -0.001869 -0.001579 0.017305 0.000000 0.000000 0.000000
# 4 0.000000 0.000000 0.000000 0.021243 0.000000 0.000000
# 5 0.000000 0.000000 0.000000 0.000000 0.086158 0.000000
# 6 0.000000 0.000000 0.000000 0.000000 0.000000 0.028234
#
#
# Mechanical properties :
#
#
# Convention : Reuss Voigt Hill
#
# Bulk Modulus (GPa) = 39.93144 49.06877 44.50011
# Shear Modulus (GPa) = 25.88143 34.99732 30.43938
#
# Velocity S-wave (km/s) = 3.12492 3.63381 3.38893
# Velocity P-wave (km/s) = 5.29966 6.00998 5.66596
#
# Compressibility (1/GPa) = 0.02504293
#
# Stress axis : x y z
#
# Youngs Moduli (GPa) = 77.59602 144.24771 57.78783
#
# Poissons Ratio (x) = 0.37399 0.10800
# Poissons Ratio (y) = 0.20118 0.09126
# Poissons Ratio (z) = 0.14502 0.22779
#
# Static dielectric constant tensor:
#      x y z
#    x 2.223470 0.000000 0.000000 
#    y 0.000000 2.269450 0.000000 
#    z 0.000000 0.000000 8.789280 
# 
# From -- ./inp_files/2003.got.cif
#   From: 2010.05.17/outbox.cif.g08.bks.cpg/sg59_2_cif.got.tgz:2003.got - 2010.06.03 14:40:33.
