data_PCOD9452697
_publ_section_title
;
Structure prediction by ZEFSAII (Michael W. Deem and Ramdas Pophale) SiO2 
 PCOD9452697
Probable space group: P M M N
;
_chemical_formula_sum "Si O2"
_cell_formula_units_Z 56
_cell_length_a 7.390376
_cell_length_b 22.308601
_cell_length_c 14.201006
_cell_angle_alpha 90.000000
_cell_angle_beta 90.000000
_cell_angle_gamma 90.000000
_cell_volume 2341.304940
_symmetry_space_group_name_H-M "P M M N"
_symmetry_group_IT_number 59
_space_group.IT_coordinate_system_code '2'
_symmetry_cell_setting 'orthorhombic'
loop_
_space_group_symop_operation_xyz
x,y,z
1/2-x,1/2-y,z
1/2+x,-y,-z
-x,1/2+y,-z
-x,-y,-z
1/2+x,1/2+y,-z
1/2-x,y,z
x,1/2-y,z
loop_
_atom_site_type_symbol
_atom_site_label
_atom_site_fract_x
_atom_site_fract_y
_atom_site_fract_z
Si Si1 0.030743 0.874242 0.110035
Si Si2 0.971501 0.184751 0.293440
Si Si3 0.969721 0.434019 0.400187
Si Si4 0.043754 0.862207 0.898308
Si Si5 0.536246 0.505238 0.887771
Si Si6 0.961599 0.814915 0.296683
Si Si7 0.460315 0.062667 0.621885
O O1 0.250000 0.877092 0.106135
O O2 0.974850 0.824883 0.184649
O O3 0.970608 0.940268 0.146850
O O4 0.964176 0.863299 0.003418
O O5 0.750000 0.182935 0.292375
O O6 0.024641 0.250000 0.330581
O O7 0.031214 0.126982 0.351616
O O8 0.034993 0.176459 0.185821
O O9 0.750000 0.435377 0.398757
O O10 0.034407 0.496538 0.353187
O O11 0.028103 0.434287 0.508708
O O12 0.250000 0.841735 0.910715
O O13 0.046487 0.931108 0.860757
O O14 0.750000 0.509943 0.872021
O O15 0.500000 0.500000 0.000000
O O16 0.750000 0.813767 0.323488
O O17 0.038899 0.750000 0.322881
O O18 0.043136 0.875757 0.339580
O O19 0.250000 0.062306 0.649865
#
# Coordination Sequence:
#
# PCOD9452697 Si02
#       7
#     8   8   8   8   8   8   8
#     4   9  19  33  49  75 106 139 178 219 262 307
#     4   9  18  32  52  80 110 140 178 218 256 310
#     4   9  18  34  57  82 104 132 172 215 263 316
#     4   9  18  32  52  76 106 143 181 218 263 311
#     4   9  17  30  48  73 102 132 173 221 267 309
#     4  10  22  37  53  76 105 141 182 219 262 315
#     4   9  19  36  56  78 104 134 170 216 268 320
#
# _framework density 23.918285999999998
#
# number of rings (size 3 to 8) (size 9 to 14) (size 15 to 20)
#    0.000    2.857    0.000    1.286    2.000    4.857 
#    0.000    2.143    0.000    1.286    0.000    0.000 
#    0.000    0.000    0.000    0.000    0.000    0.000 
#
# Total GULP energy -312628.359469 kJ/mol
# GULP energy per Si atom -5582.649276 kJ/mol
# Density = 2.386385 g / cm^3
# Si number density = 23.918286 Si / 1000 Ang^3
#
#
#
# Elastic Constant Matrix: (Units=GPa)
#
#
# Indices 1 2 3 4 5 6 
#
# 1 95.3778 3.1438 -0.6865 0.0000 0.0000 0.0000
# 2 3.1438 219.2276 60.3815 0.0000 0.0000 0.0000
# 3 -0.6865 60.3815 62.9238 0.0000 0.0000 0.0000
# 4 0.0000 0.0000 0.0000 20.2283 0.0000 0.0000
# 5 0.0000 0.0000 0.0000 0.0000 14.5796 0.0000
# 6 0.0000 0.0000 0.0000 0.0000 0.0000 -10.9252
#
#
#
# Elastic Compliance Matrix: (Units=1/GPa)
#
#
# Indices 1 2 3 4 5 6 
#
# 1 0.010495 -0.000247 0.000352 0.000000 0.000000 0.000000
# 2 -0.000247 0.006206 -0.005958 0.000000 0.000000 0.000000
# 3 0.000352 -0.005958 0.021613 0.000000 0.000000 0.000000
# 4 0.000000 0.000000 0.000000 0.049436 0.000000 0.000000
# 5 0.000000 0.000000 0.000000 0.000000 0.068589 0.000000
# 6 0.000000 0.000000 0.000000 0.000000 0.000000 -0.091531
#
#
# Mechanical properties :
#
#
# Convention : Reuss Voigt Hill
#
# Bulk Modulus (GPa) = 37.58304 55.91185 46.74745
# Shear Modulus (GPa) = 58.55882 25.75590 42.15736
#
# Velocity S-wave (km/s) = 4.95338 3.28507 4.20284
# Velocity P-wave (km/s) = 6.96146 6.14946 6.56802
#
# Compressibility (1/GPa) = 0.02660774
#
# Stress axis : x y z
#
# Youngs Moduli (GPa) = 95.28068 161.13405 46.26771
#
# Poissons Ratio (x) = 0.03987 -0.01628
# Poissons Ratio (y) = 0.02358 0.27566
# Poissons Ratio (z) = -0.03353 0.96003
#
# Static dielectric constant tensor:
#      x y z
#    x 1.913420 0.000000 0.000000 
#    y 0.000000 1.939340 0.000000 
#    z 0.000000 0.000000 1.881990 
# 
# From -- ./inp_files/20976.got.cif
#   From: 2010.05.17/outbox.cif.g08.bks.cpg/sg59_11_cif.got.tgz:20976.got - 2010.06.03 14:40:33.
