data_PCOD9452352
_publ_section_title
;
Structure prediction by ZEFSAII (Michael W. Deem and Ramdas Pophale) SiO2 
 PCOD9452352
Probable space group: P M M N
;
_chemical_formula_sum "Si O2"
_cell_formula_units_Z 56
_cell_length_a 22.163199
_cell_length_b 8.303033
_cell_length_c 15.188969
_cell_angle_alpha 90.000000
_cell_angle_beta 90.000000
_cell_angle_gamma 90.000000
_cell_volume 2795.101001
_symmetry_space_group_name_H-M "P M M N"
_symmetry_group_IT_number 59
_space_group.IT_coordinate_system_code '2'
_symmetry_cell_setting 'orthorhombic'
loop_
_space_group_symop_operation_xyz
x,y,z
1/2-x,1/2-y,z
1/2+x,-y,-z
-x,1/2+y,-z
-x,-y,-z
1/2+x,1/2+y,-z
1/2-x,y,z
x,1/2-y,z
loop_
_atom_site_type_symbol
_atom_site_label
_atom_site_fract_x
_atom_site_fract_y
_atom_site_fract_z
Si Si1 0.632072 0.062947 0.140032
Si Si2 0.585458 0.054913 0.774999
Si Si3 0.955141 0.554825 0.296617
Si Si4 0.433721 0.441151 0.026775
Si Si5 0.250000 0.073067 0.792930
Si Si6 0.374720 0.060024 0.541057
Si Si7 0.750000 0.067107 0.385853
Si Si8 0.319507 0.943035 0.364439
O O1 0.646905 0.250000 0.151805
O O2 0.583623 0.014191 0.215147
O O3 0.689967 0.952105 0.152926
O O4 0.608018 0.031981 0.042710
O O5 0.586201 0.250000 0.781709
O O6 0.524877 0.011894 0.720041
O O7 0.645512 0.001737 0.723158
O O8 0.579780 0.984242 0.872401
O O9 0.949931 0.750000 0.293731
O O10 0.925812 0.501201 0.389932
O O11 0.429333 0.250000 0.013589
O O12 0.500000 0.500000 0.000000
O O13 0.250000 0.250000 0.750784
O O14 0.250000 0.937890 0.718554
O O15 0.383258 0.250000 0.529923
O O16 0.310435 0.022414 0.585953
O O17 0.363956 0.984000 0.445494
O O18 0.750000 0.250000 0.421007
O O19 0.250000 0.003776 0.375656
O O20 0.315416 0.750000 0.360636
#
# Coordination Sequence:
#
# PCOD9452352 Si02
#       8
#     8   8   8   8   4   8   4   8
#     4  12  24  39  62  93 127 168 212 257 313 384
#     4  10  22  42  65  89 122 164 211 263 318 377
#     4  10  21  37  60  90 127 165 204 256 317 374
#     4  12  24  41  66  94 124 162 209 261 318 383
#     4  12  24  40  60  89 130 169 206 260 320 376
#     4  11  22  36  59  90 123 162 206 254 310 373
#     4  12  22  34  56  87 122 163 210 252 300 370
#     4  10  22  41  64  89 122 167 214 260 310 368
#
# _framework density 20.035053000000001
#
# number of rings (size 3 to 8) (size 9 to 14) (size 15 to 20)
#    0.000    1.000    3.571    4.286    0.000    1.714 
#    1.286    0.000    0.000    0.000    0.000    0.000 
#    0.000    0.000    0.000    0.000    0.000    0.000 
#
# Total GULP energy -312796.425846 kJ/mol
# GULP energy per Si atom -5585.650462 kJ/mol
# Density = 1.998945 g / cm^3
# Si number density = 20.035053 Si / 1000 Ang^3
#
#
#
# Elastic Constant Matrix: (Units=GPa)
#
#
# Indices 1 2 3 4 5 6 
#
# 1 66.2855 13.9958 40.2660 0.0000 0.0000 0.0000
# 2 13.9958 50.0471 9.5295 0.0000 0.0000 0.0000
# 3 40.2660 9.5295 128.7587 0.0000 0.0000 0.0000
# 4 0.0000 0.0000 0.0000 33.0928 0.0000 0.0000
# 5 0.0000 0.0000 0.0000 0.0000 42.6263 0.0000
# 6 0.0000 0.0000 0.0000 0.0000 0.0000 22.0043
#
#
#
# Elastic Compliance Matrix: (Units=1/GPa)
#
#
# Indices 1 2 3 4 5 6 
#
# 1 0.019518 -0.004358 -0.005781 0.000000 0.000000 0.000000
# 2 -0.004358 0.021240 -0.000209 0.000000 0.000000 0.000000
# 3 -0.005781 -0.000209 0.009590 0.000000 0.000000 0.000000
# 4 0.000000 0.000000 0.000000 0.030218 0.000000 0.000000
# 5 0.000000 0.000000 0.000000 0.000000 0.023460 0.000000
# 6 0.000000 0.000000 0.000000 0.000000 0.000000 0.045446
#
#
# Mechanical properties :
#
#
# Convention : Reuss Voigt Hill
#
# Bulk Modulus (GPa) = 33.72501 41.40821 37.56661
# Shear Modulus (GPa) = 27.76989 31.63136 29.70063
#
# Velocity S-wave (km/s) = 3.72703 3.97772 3.85441
# Velocity P-wave (km/s) = 5.94899 6.46600 6.21288
#
# Compressibility (1/GPa) = 0.02965158
#
# Stress axis : x y z
#
# Youngs Moduli (GPa) = 51.23407 47.08188 104.27626
#
# Poissons Ratio (x) = 0.20516 0.60286
# Poissons Ratio (y) = 0.22325 0.02182
# Poissons Ratio (z) = 0.29620 0.00985
#
# Static dielectric constant tensor:
#      x y z
#    x 1.709520 0.000000 0.000000 
#    y 0.000000 1.669850 0.000000 
#    z 0.000000 0.000000 1.705220 
# 
# From -- ./inp_files/24404.got.cif
#   From: 2010.05.17/outbox.cif.g08.bks.cpg/sg59_13_cif.got.tgz:24404.got - 2010.06.03 14:40:33.
