data_PCOD9452465
_publ_section_title
;
Structure prediction by ZEFSAII (Michael W. Deem and Ramdas Pophale) SiO2 
 PCOD9452465
Probable space group: P M M N
;
_chemical_formula_sum "Si O2"
_cell_formula_units_Z 48
_cell_length_a 15.244337
_cell_length_b 8.814663
_cell_length_c 19.347544
_cell_angle_alpha 90.000000
_cell_angle_beta 90.000000
_cell_angle_gamma 90.000000
_cell_volume 2599.800944
_symmetry_space_group_name_H-M "P M M N"
_symmetry_group_IT_number 59
_space_group.IT_coordinate_system_code '2'
_symmetry_cell_setting 'orthorhombic'
loop_
_space_group_symop_operation_xyz
x,y,z
1/2-x,1/2-y,z
1/2+x,-y,-z
-x,1/2+y,-z
-x,-y,-z
1/2+x,1/2+y,-z
1/2-x,y,z
x,1/2-y,z
loop_
_atom_site_type_symbol
_atom_site_label
_atom_site_fract_x
_atom_site_fract_y
_atom_site_fract_z
Si Si1 0.897357 0.569057 0.826153
Si Si2 0.409916 0.931734 0.672013
Si Si3 0.750000 0.930701 0.580840
Si Si4 0.750000 0.571367 0.073905
Si Si5 0.399967 0.569213 0.324670
Si Si6 0.750000 0.069221 0.922548
Si Si7 0.750000 0.068086 0.429345
Si Si8 0.396067 0.570287 0.830954
O O1 0.883728 0.750000 0.822226
O O2 0.878365 0.496751 0.751298
O O3 0.834476 0.497271 0.882958
O O4 0.000306 0.542672 0.841807
O O5 0.427637 0.750000 0.670338
O O6 0.335502 0.967495 0.616578
O O7 0.378346 0.965035 0.750222
O O8 0.500408 0.018846 0.659877
O O9 0.750000 0.750000 0.586276
O O10 0.665637 0.998244 0.619907
O O11 0.750000 0.982637 0.501559
O O12 0.750000 0.750000 0.060912
O O13 0.834470 0.523150 0.118684
O O14 0.750000 0.484193 0.001466
O O15 0.391942 0.750000 0.324032
O O16 0.750000 0.250000 0.918157
O O17 0.750000 0.250000 0.441629
O O18 0.379240 0.750000 0.841159
#
# Coordination Sequence:
#
# PCOD9452465 Si02
#       8
#     8   8   4   4   8   4   4   8
#     4  10  21  40  64  88 115 148 189 236 286 339
#     4   9  19  38  63  88 115 150 190 234 286 339
#     4  12  25  40  57  80 115 156 195 236 287 344
#     4  12  25  38  56  84 119 156 192 234 283 336
#     4  11  22  38  61  88 116 148 191 238 283 336
#     4  12  25  40  59  84 117 154 191 234 285 342
#     4  10  21  38  60  86 117 152 192 238 287 340
#     4   9  19  38  63  87 113 149 190 233 282 337
#
# _framework density 18.462951
#
# number of rings (size 3 to 8) (size 9 to 14) (size 15 to 20)
#    0.000    1.667    0.000    6.250    0.000    6.667 
#    0.000    0.833    0.000    0.000    0.000    0.000 
#    0.000    0.000    0.000    0.000    0.000    0.000 
#
# Total GULP energy -268366.608507 kJ/mol
# GULP energy per Si atom -5590.971011 kJ/mol
# Density = 1.842093 g / cm^3
# Si number density = 18.462951 Si / 1000 Ang^3
#
#
#
# Elastic Constant Matrix: (Units=GPa)
#
#
# Indices 1 2 3 4 5 6 
#
# 1 93.3343 77.3071 90.7759 0.0000 0.0000 0.0000
# 2 77.3071 130.4067 87.9307 0.0000 0.0000 0.0000
# 3 90.7759 87.9307 141.6043 0.0000 0.0000 0.0000
# 4 0.0000 0.0000 0.0000 34.5108 0.0000 0.0000
# 5 0.0000 0.0000 0.0000 0.0000 -35.3815 0.0000
# 6 0.0000 0.0000 0.0000 0.0000 0.0000 30.9164
#
#
#
# Elastic Compliance Matrix: (Units=1/GPa)
#
#
# Indices 1 2 3 4 5 6 
#
# 1 0.034062 -0.009408 -0.015993 0.000000 0.000000 0.000000
# 2 -0.009408 0.015791 -0.003774 0.000000 0.000000 0.000000
# 3 -0.015993 -0.003774 0.019658 0.000000 0.000000 0.000000
# 4 0.000000 0.000000 0.000000 0.028976 0.000000 0.000000
# 5 0.000000 0.000000 0.000000 0.000000 -0.028263 0.000000
# 6 0.000000 0.000000 0.000000 0.000000 0.000000 0.032345
#
#
# Mechanical properties :
#
#
# Convention : Reuss Voigt Hill
#
# Bulk Modulus (GPa) = 89.61349 97.48584 93.54967
# Shear Modulus (GPa) = 30.36941 13.29791 21.83366
#
# Velocity S-wave (km/s) = 4.06012 2.68666 3.44258
# Velocity P-wave (km/s) = 8.40367 7.90820 8.15970
#
# Compressibility (1/GPa) = 0.01115903
#
# Stress axis : x y z
#
# Youngs Moduli (GPa) = 29.35841 63.32917 50.87025
#
# Poissons Ratio (x) = 0.59583 0.81357
# Poissons Ratio (y) = 0.27622 0.19198
# Poissons Ratio (z) = 0.46953 0.23900
#
# Static dielectric constant tensor:
#      x y z
#    x 1.624270 0.000000 0.000000 
#    y 0.000000 1.614190 0.000000 
#    z 0.000000 0.000000 1.601560 
# 
# From -- ./inp_files/27511.got.cif
#   From: 2010.05.17/outbox.cif.g08.bks.cpg/sg59_14_cif.got.tgz:27511.got - 2010.06.03 14:40:33.
