data_PCOD9452454
_publ_section_title
;
Structure prediction by ZEFSAII (Michael W. Deem and Ramdas Pophale) SiO2 
 PCOD9452454
Probable space group: P M M N
;
_chemical_formula_sum "Si O2"
_cell_formula_units_Z 48
_cell_length_a 18.200558
_cell_length_b 9.317755
_cell_length_c 15.301931
_cell_angle_alpha 90.000000
_cell_angle_beta 90.000000
_cell_angle_gamma 90.000000
_cell_volume 2595.029082
_symmetry_space_group_name_H-M "P M M N"
_symmetry_group_IT_number 59
_space_group.IT_coordinate_system_code '2'
_symmetry_cell_setting 'orthorhombic'
loop_
_space_group_symop_operation_xyz
x,y,z
1/2-x,1/2-y,z
1/2+x,-y,-z
-x,1/2+y,-z
-x,-y,-z
1/2+x,1/2+y,-z
1/2-x,y,z
x,1/2-y,z
loop_
_atom_site_type_symbol
_atom_site_label
_atom_site_fract_x
_atom_site_fract_y
_atom_site_fract_z
Si Si1 0.374550 0.920957 0.368645
Si Si2 0.250000 0.419151 0.261032
Si Si3 0.750000 0.583620 0.948780
Si Si4 0.493472 0.586298 0.860979
Si Si5 0.107085 0.586849 0.033781
Si Si6 0.458232 0.080564 0.692672
Si Si7 0.164545 0.420116 0.547321
O O1 0.360726 0.750000 0.365496
O O2 0.460688 0.944647 0.347993
O O3 0.321391 0.003016 0.301165
O O4 0.354993 0.985379 0.463208
O O5 0.250000 0.250000 0.284943
O O6 0.250000 0.430065 0.156509
O O7 0.750000 0.750000 0.971461
O O8 0.678524 0.505304 0.983689
O O9 0.516535 0.750000 0.842627
O O10 0.561973 0.488233 0.888625
O O11 0.453803 0.516080 0.778705
O O12 0.442189 0.588037 0.946629
O O13 0.125268 0.750000 0.057595
O O14 0.453829 0.250000 0.715306
O O15 0.393422 0.049046 0.624209
O O16 0.250000 0.444184 0.571830
O O17 0.157079 0.250000 0.525625
#
# Coordination Sequence:
#
# PCOD9452454 Si02
#       7
#     8   4   4   8   8   8   8
#     4  11  22  36  57  85 115 149 191 236 287 343
#     4  11  23  37  55  82 117 150 185 237 290 341
#     4  11  23  37  57  88 117 150 195 237 284 347
#     4  10  21  38  60  86 114 151 196 240 285 341
#     4  10  21  38  60  84 118 155 188 237 295 345
#     4  10  22  38  58  86 117 152 194 238 286 344
#     4  10  21  39  60  82 115 155 193 235 287 343
#
# _framework density 18.496901999999999
#
# number of rings (size 3 to 8) (size 9 to 14) (size 15 to 20)
#    0.000    1.667    0.833    3.500    0.000    8.000 
#    1.500    0.000    0.000    0.000    0.000    0.000 
#    0.000    0.000    0.000    0.000    0.000    0.000 
#
# Total GULP energy -268201.671480 kJ/mol
# GULP energy per Si atom -5587.534822 kJ/mol
# Density = 1.845480 g / cm^3
# Si number density = 18.496902 Si / 1000 Ang^3
#
#
#
# Elastic Constant Matrix: (Units=GPa)
#
#
# Indices 1 2 3 4 5 6 
#
# 1 77.9150 47.2710 10.2252 0.0000 0.0000 0.0000
# 2 47.2710 111.4431 29.2548 0.0000 0.0000 0.0000
# 3 10.2252 29.2548 36.6142 0.0000 0.0000 0.0000
# 4 0.0000 0.0000 0.0000 31.3738 0.0000 0.0000
# 5 0.0000 0.0000 0.0000 0.0000 15.9960 0.0000
# 6 0.0000 0.0000 0.0000 0.0000 0.0000 23.4641
#
#
#
# Elastic Compliance Matrix: (Units=1/GPa)
#
#
# Indices 1 2 3 4 5 6 
#
# 1 0.017331 -0.007695 0.001308 0.000000 0.000000 0.000000
# 2 -0.007695 0.014771 -0.009653 0.000000 0.000000 0.000000
# 3 0.001308 -0.009653 0.034659 0.000000 0.000000 0.000000
# 4 0.000000 0.000000 0.000000 0.031874 0.000000 0.000000
# 5 0.000000 0.000000 0.000000 0.000000 0.062516 0.000000
# 6 0.000000 0.000000 0.000000 0.000000 0.000000 0.042618
#
#
# Mechanical properties :
#
#
# Convention : Reuss Voigt Hill
#
# Bulk Modulus (GPa) = 28.83349 44.38604 36.60976
# Shear Modulus (GPa) = 20.20936 23.44821 21.82879
#
# Velocity S-wave (km/s) = 3.30901 3.56432 3.43903
# Velocity P-wave (km/s) = 5.49741 6.40216 5.96696
#
# Compressibility (1/GPa) = 0.03468190
#
# Stress axis : x y z
#
# Youngs Moduli (GPa) = 57.69910 67.69933 28.85217
#
# Poissons Ratio (x) = 0.52094 -0.03774
# Poissons Ratio (y) = 0.44398 0.27852
# Poissons Ratio (z) = -0.07548 0.65352
#
# Static dielectric constant tensor:
#      x y z
#    x 1.649760 0.000000 0.000000 
#    y 0.000000 1.622890 0.000000 
#    z 0.000000 0.000000 1.613490 
# 
# From -- ./inp_files/20492.got.cif
#   From: 2010.05.17/outbox.cif.g08.bks.cpg/sg59_11_cif.got.tgz:20492.got - 2010.06.03 14:40:33.
