data_PCOD9452823
_publ_section_title
;
Structure prediction by ZEFSAII (Michael W. Deem and Ramdas Pophale) SiO2 
 PCOD9452823
Probable space group: P M M N
;
_chemical_formula_sum "Si O2"
_cell_formula_units_Z 64
_cell_length_a 31.615106
_cell_length_b 8.760950
_cell_length_c 12.195174
_cell_angle_alpha 90.000000
_cell_angle_beta 90.000000
_cell_angle_gamma 90.000000
_cell_volume 3377.799330
_symmetry_space_group_name_H-M "P M M N"
_symmetry_group_IT_number 59
_space_group.IT_coordinate_system_code '2'
_symmetry_cell_setting 'orthorhombic'
loop_
_space_group_symop_operation_xyz
x,y,z
1/2-x,1/2-y,z
1/2+x,-y,-z
-x,1/2+y,-z
-x,-y,-z
1/2+x,1/2+y,-z
1/2-x,y,z
x,1/2-y,z
loop_
_atom_site_type_symbol
_atom_site_label
_atom_site_fract_x
_atom_site_fract_y
_atom_site_fract_z
Si Si1 0.296560 0.435798 0.992321
Si Si2 0.411665 0.569108 0.753749
Si Si3 0.680149 0.930999 0.253596
Si Si4 0.878122 0.934607 0.869099
Si Si5 0.796979 0.067844 0.484144
Si Si6 0.045863 0.931475 0.522305
Si Si7 0.376452 0.067037 0.386122
Si Si8 0.046522 0.931557 0.988399
O O1 0.250000 0.484912 0.031263
O O2 0.297322 0.250000 0.994620
O O3 0.302433 0.479937 0.865090
O O4 0.336362 0.487541 0.064503
O O5 0.400030 0.750000 0.751979
O O6 0.369547 0.469382 0.747206
O O7 0.440209 0.539287 0.647691
O O8 0.435884 0.537569 0.866342
O O9 0.687270 0.750000 0.265405
O O10 0.699316 0.015619 0.357957
O O11 0.879498 0.750000 0.875099
O O12 0.875596 0.977999 0.741670
O O13 0.919949 0.998641 0.926663
O O14 0.750000 0.025643 0.524992
O O15 0.801598 0.250000 0.489512
O O16 0.834865 0.992372 0.551650
O O17 0.044831 0.750000 0.505791
O O18 0.081989 0.001841 0.445095
O O19 0.000000 0.000000 0.500000
O O20 0.377386 0.250000 0.392662
O O21 0.044709 0.750000 0.003475
O O22 0.000000 0.000000 0.000000
#
# Coordination Sequence:
#
# PCOD9452823 Si02
#       8
#     8   8   8   8   8   8   8   8
#     4   9  18  34  58  89 121 154 194 242 295 348
#     4  10  22  40  62  88 123 161 196 248 305 356
#     4  11  20  34  62  93 123 156 199 251 297 355
#     4  10  22  41  62  87 122 160 200 250 303 355
#     4  11  24  41  61  87 124 165 202 247 306 366
#     4  11  24  42  64  90 123 160 201 248 304 362
#     4  11  24  41  63  90 121 159 206 256 304 359
#     4  11  24  41  63  91 123 159 202 248 299 360
#
# _framework density 18.947246
#
# number of rings (size 3 to 8) (size 9 to 14) (size 15 to 20)
#    0.000    1.500    2.500    2.250    1.750    4.000 
#    0.000    1.250    0.000    1.125    0.000    0.000 
#    0.000    0.000    0.000    0.000    0.000    0.000 
#
# Total GULP energy -357694.560536 kJ/mol
# GULP energy per Si atom -5588.977508 kJ/mol
# Density = 1.890412 g / cm^3
# Si number density = 18.947246 Si / 1000 Ang^3
#
#
#
# Elastic Constant Matrix: (Units=GPa)
#
#
# Indices 1 2 3 4 5 6 
#
# 1 179.8920 45.9559 79.3645 0.0000 0.0000 0.0000
# 2 45.9559 34.4880 42.6647 0.0000 0.0000 0.0000
# 3 79.3645 42.6647 141.6670 0.0000 0.0000 0.0000
# 4 0.0000 0.0000 0.0000 25.4756 0.0000 0.0000
# 5 0.0000 0.0000 0.0000 0.0000 41.7955 0.0000
# 6 0.0000 0.0000 0.0000 0.0000 0.0000 25.2293
#
#
#
# Elastic Compliance Matrix: (Units=1/GPa)
#
#
# Indices 1 2 3 4 5 6 
#
# 1 0.008853 -0.009023 -0.002242 0.000000 0.000000 0.000000
# 2 -0.009023 0.055409 -0.011632 0.000000 0.000000 0.000000
# 3 -0.002242 -0.011632 0.011818 0.000000 0.000000 0.000000
# 4 0.000000 0.000000 0.000000 0.039253 0.000000 0.000000
# 5 0.000000 0.000000 0.000000 0.000000 0.023926 0.000000
# 6 0.000000 0.000000 0.000000 0.000000 0.000000 0.039636
#
#
# Mechanical properties :
#
#
# Convention : Reuss Voigt Hill
#
# Bulk Modulus (GPa) = 33.01941 76.89079 54.95510
# Shear Modulus (GPa) = 21.29594 31.03752 26.16673
#
# Velocity S-wave (km/s) = 3.35619 4.05174 3.72025
# Velocity P-wave (km/s) = 5.69943 7.90939 6.89354
#
# Compressibility (1/GPa) = 0.03028521
#
# Stress axis : x y z
#
# Youngs Moduli (GPa) = 112.95287 18.04759 84.61559
#
# Poissons Ratio (x) = 0.16285 0.18974
# Poissons Ratio (y) = 1.01919 0.98426
# Poissons Ratio (z) = 0.25328 0.20993
#
# Static dielectric constant tensor:
#      x y z
#    x 1.637710 0.000000 0.000000 
#    y 0.000000 1.641270 0.000000 
#    z 0.000000 0.000000 1.640760 
# 
# From -- ./inp_files/19207.got.cif
#   From: 2010.05.17/outbox.cif.g08.bks.cpg/sg59_10_cif.got.tgz:19207.got - 2010.06.03 14:40:33.
