data_PCOD9452701
_publ_section_title
;
Structure prediction by ZEFSAII (Michael W. Deem and Ramdas Pophale) SiO2 
 PCOD9452701
Probable space group: P M M N
;
_chemical_formula_sum "Si O2"
_cell_formula_units_Z 48
_cell_length_a 18.374256
_cell_length_b 21.496918
_cell_length_c 6.737739
_cell_angle_alpha 90.000000
_cell_angle_beta 90.000000
_cell_angle_gamma 90.000000
_cell_volume 2661.338682
_symmetry_space_group_name_H-M "P M M N"
_symmetry_group_IT_number 59
_space_group.IT_coordinate_system_code '2'
_symmetry_cell_setting 'orthorhombic'
loop_
_space_group_symop_operation_xyz
x,y,z
1/2-x,1/2-y,z
1/2+x,-y,-z
-x,1/2+y,-z
-x,-y,-z
1/2+x,1/2+y,-z
1/2-x,y,z
x,1/2-y,z
loop_
_atom_site_type_symbol
_atom_site_label
_atom_site_fract_x
_atom_site_fract_y
_atom_site_fract_z
Si Si1 0.420204 0.486680 0.417022
Si Si2 0.578000 0.113269 0.750607
Si Si3 0.335119 0.600390 0.888276
Si Si4 0.047517 0.677209 0.649584
Si Si5 0.948522 0.605220 0.938393
Si Si6 0.163706 0.045852 0.800864
O O1 0.500000 0.500000 0.500000
O O2 0.389652 0.553532 0.360457
O O3 0.434676 0.448495 0.220135
O O4 0.371255 0.453904 0.581527
O O5 0.544156 0.157906 0.582861
O O6 0.641543 0.131736 0.902374
O O7 0.512660 0.094532 0.901226
O O8 0.250000 0.607831 0.848439
O O9 0.386574 0.635425 0.733161
O O10 0.350780 0.525390 0.881108
O O11 0.061786 0.750000 0.666268
O O12 0.978815 0.659658 0.792575
O O13 0.875568 0.599335 0.069644
O O14 0.250000 0.053961 0.797161
#
# Coordination Sequence:
#
# PCOD9452701 Si02
#       6
#     8   8   8   8   8   8
#     4  12  18  32  57  87 115 154 186 230 295 351
#     4  11  20  34  58  83 114 152 194 240 289 340
#     4  10  22  37  55  84 122 159 193 234 286 340
#     4  11  24  39  57  80 110 155 207 245 279 339
#     4  11  21  36  59  86 115 147 190 242 299 348
#     4  11  22  34  56  92 125 150 184 234 299 366
#
# _framework density 18.036034999999998
#
# number of rings (size 3 to 8) (size 9 to 14) (size 15 to 20)
#    0.000    1.000    6.667    1.500    0.000    5.000 
#    0.000    0.000    0.000    0.500    0.000    0.000 
#    0.000    0.000    0.000    0.000    0.000    0.000 
#
# Total GULP energy -267235.327513 kJ/mol
# GULP energy per Si atom -5567.402657 kJ/mol
# Density = 1.799498 g / cm^3
# Si number density = 18.036035 Si / 1000 Ang^3
#
#
#
# Elastic Constant Matrix: (Units=GPa)
#
#
# Indices 1 2 3 4 5 6 
#
# 1 102.4821 19.7859 37.6002 0.0000 0.0000 0.0000
# 2 19.7859 47.7409 21.9242 0.0000 0.0000 0.0000
# 3 37.6002 21.9242 114.3955 0.0000 0.0000 0.0000
# 4 0.0000 0.0000 0.0000 11.3979 0.0000 0.0000
# 5 0.0000 0.0000 0.0000 0.0000 16.8580 0.0000
# 6 0.0000 0.0000 0.0000 0.0000 0.0000 8.5242
#
#
#
# Elastic Compliance Matrix: (Units=1/GPa)
#
#
# Indices 1 2 3 4 5 6 
#
# 1 0.011562 -0.003341 -0.003160 0.000000 0.000000 0.000000
# 2 -0.003341 0.023933 -0.003489 0.000000 0.000000 0.000000
# 3 -0.003160 -0.003489 0.010449 0.000000 0.000000 0.000000
# 4 0.000000 0.000000 0.000000 0.087736 0.000000 0.000000
# 5 0.000000 0.000000 0.000000 0.000000 0.059319 0.000000
# 6 0.000000 0.000000 0.000000 0.000000 0.000000 0.117313
#
#
# Mechanical properties :
#
#
# Convention : Reuss Voigt Hill
#
# Bulk Modulus (GPa) = 38.51326 47.02656 42.76991
# Shear Modulus (GPa) = 14.75162 19.70990 17.23076
#
# Velocity S-wave (km/s) = 2.86299 3.30935 3.09423
# Velocity P-wave (km/s) = 5.68584 6.38221 6.04407
#
# Compressibility (1/GPa) = 0.02596508
#
# Stress axis : x y z
#
# Youngs Moduli (GPa) = 86.48880 41.78320 95.70363
#
# Poissons Ratio (x) = 0.13958 0.30243
# Poissons Ratio (y) = 0.28893 0.33389
# Poissons Ratio (z) = 0.27331 0.14577
#
# Static dielectric constant tensor:
#      x y z
#    x 1.616450 0.000000 0.000000 
#    y 0.000000 1.595510 0.000000 
#    z 0.000000 0.000000 1.709390 
# 
# From -- ./inp_files/3348.got.cif
#   From: 2010.05.17/outbox.cif.g08.bks.cpg/sg59_2_cif.got.tgz:3348.got - 2010.06.03 14:40:33.
