data_PCOD9452755
_publ_section_title
;
Structure prediction by ZEFSAII (Michael W. Deem and Ramdas Pophale) SiO2 
 PCOD9452755
Probable space group: P M M N
;
_chemical_formula_sum "Si O2"
_cell_formula_units_Z 64
_cell_length_a 7.546171
_cell_length_b 28.443441
_cell_length_c 12.704278
_cell_angle_alpha 90.000000
_cell_angle_beta 90.000000
_cell_angle_gamma 90.000000
_cell_volume 2726.834410
_symmetry_space_group_name_H-M "P M M N"
_symmetry_group_IT_number 59
_space_group.IT_coordinate_system_code '2'
_symmetry_cell_setting 'orthorhombic'
loop_
_space_group_symop_operation_xyz
x,y,z
1/2-x,1/2-y,z
1/2+x,-y,-z
-x,1/2+y,-z
-x,-y,-z
1/2+x,1/2+y,-z
1/2-x,y,z
x,1/2-y,z
loop_
_atom_site_type_symbol
_atom_site_label
_atom_site_fract_x
_atom_site_fract_y
_atom_site_fract_z
Si Si1 0.532929 0.097708 0.760481
Si Si2 0.453147 0.195122 0.490703
Si Si3 0.038739 0.443738 0.207426
Si Si4 0.462367 0.592830 0.010538
Si Si5 0.034405 0.340487 0.271582
Si Si6 0.537235 0.482987 0.618363
Si Si7 0.047953 0.801124 0.273331
Si Si8 0.042246 0.801908 0.948075
O O1 0.750000 0.100042 0.755598
O O2 0.474429 0.068173 0.658933
O O3 0.465342 0.150998 0.766341
O O4 0.484634 0.075868 0.873264
O O5 0.250000 0.179398 0.509322
O O6 0.447434 0.250000 0.462379
O O7 0.528314 0.170064 0.388872
O O8 0.551470 0.191909 0.600739
O O9 0.250000 0.444311 0.221099
O O10 0.973387 0.392363 0.241106
O O11 0.969967 0.481807 0.290218
O O12 0.008771 0.443153 0.082455
O O13 0.250000 0.596606 0.010106
O O14 0.529265 0.646900 0.987879
O O15 0.250000 0.338563 0.273540
O O16 0.975187 0.306282 0.178434
O O17 0.500000 0.500000 0.500000
O O18 0.750000 0.481845 0.624776
O O19 0.250000 0.799128 0.234012
O O20 0.965362 0.750000 0.252885
O O21 0.250000 0.801471 0.975893
O O22 0.970432 0.750000 0.980719
#
# Coordination Sequence:
#
# PCOD9452755 Si02
#       8
#     8   8   8   8   8   8   8   8
#     4   9  19  36  56  79 108 139 173 218 265 310
#     4   9  17  28  43  65  94 130 172 215 257 302
#     4   9  19  35  53  76 107 137 171 217 263 307
#     4   9  18  34  55  77 103 139 179 215 261 316
#     4   9  17  29  46  67  95 135 174 209 256 310
#     4  10  22  39  58  82 110 140 174 216 266 316
#     4   9  18  32  50  73 101 136 175 211 254 309
#     4   9  17  28  44  71 103 132 169 216 258 301
#
# _framework density 23.470438000000001
#
# number of rings (size 3 to 8) (size 9 to 14) (size 15 to 20)
#    0.000    2.875    0.000    0.375    1.750    2.750 
#    0.000    5.000    0.000    0.000    0.000    1.750 
#    0.000    0.000    0.000    0.000    0.000    0.000 
#
# Total GULP energy -356874.346574 kJ/mol
# GULP energy per Si atom -5576.161665 kJ/mol
# Density = 2.341702 g / cm^3
# Si number density = 23.470438 Si / 1000 Ang^3
#
#
#
# Elastic Constant Matrix: (Units=GPa)
#
#
# Indices 1 2 3 4 5 6 
#
# 1 58.8505 5.5792 -1.0989 0.0000 0.0000 0.0000
# 2 5.5792 94.8861 66.0371 0.0000 0.0000 0.0000
# 3 -1.0989 66.0371 137.3519 0.0000 0.0000 0.0000
# 4 0.0000 0.0000 0.0000 -6.5482 0.0000 0.0000
# 5 0.0000 0.0000 0.0000 0.0000 13.6228 0.0000
# 6 0.0000 0.0000 0.0000 0.0000 0.0000 4.3450
#
#
#
# Elastic Compliance Matrix: (Units=1/GPa)
#
#
# Indices 1 2 3 4 5 6 
#
# 1 0.017167 -0.001661 0.000936 0.000000 0.000000 0.000000
# 2 -0.001661 0.015999 -0.007706 0.000000 0.000000 0.000000
# 3 0.000936 -0.007706 0.010993 0.000000 0.000000 0.000000
# 4 0.000000 0.000000 0.000000 -0.152713 0.000000 0.000000
# 5 0.000000 0.000000 0.000000 0.000000 0.073406 0.000000
# 6 0.000000 0.000000 0.000000 0.000000 0.000000 0.230150
#
#
# Mechanical properties :
#
#
# Convention : Reuss Voigt Hill
#
# Bulk Modulus (GPa) = 36.63225 48.01370 42.32297
# Shear Modulus (GPa) = 22.62825 16.98866 19.80845
#
# Velocity S-wave (km/s) = 3.10839 2.69333 2.90828
# Velocity P-wave (km/s) = 5.34083 5.49305 5.41747
#
# Compressibility (1/GPa) = 0.02729835
#
# Stress axis : x y z
#
# Youngs Moduli (GPa) = 58.25087 62.50231 90.96847
#
# Poissons Ratio (x) = 0.10380 -0.08513
# Poissons Ratio (y) = 0.09674 0.70097
# Poissons Ratio (z) = -0.05451 0.48162
#
# Static dielectric constant tensor:
#      x y z
#    x 1.913180 0.000000 0.000000 
#    y 0.000000 1.932900 0.000000 
#    z 0.000000 0.000000 1.888010 
# 
# From -- ./inp_files/14986.got.cif
#   From: 2010.05.17/outbox.cif.g08.bks.cpg/sg59_8_cif.got.tgz:14986.got - 2010.06.03 14:40:33.
