data_PCOD9452098
_publ_section_title
;
Structure prediction by ZEFSAII (Michael W. Deem and Ramdas Pophale) SiO2 
 PCOD9452098
Probable space group: P M M N
;
_chemical_formula_sum "Si O2"
_cell_formula_units_Z 56
_cell_length_a 14.735397
_cell_length_b 7.611228
_cell_length_c 23.576817
_cell_angle_alpha 90.000000
_cell_angle_beta 90.000000
_cell_angle_gamma 90.000000
_cell_volume 2644.245326
_symmetry_space_group_name_H-M "P M M N"
_symmetry_group_IT_number 59
_space_group.IT_coordinate_system_code '2'
_symmetry_cell_setting 'orthorhombic'
loop_
_space_group_symop_operation_xyz
x,y,z
1/2-x,1/2-y,z
1/2+x,-y,-z
-x,1/2+y,-z
-x,-y,-z
1/2+x,1/2+y,-z
1/2-x,y,z
x,1/2-y,z
loop_
_atom_site_type_symbol
_atom_site_label
_atom_site_fract_x
_atom_site_fract_y
_atom_site_fract_z
Si Si1 0.049976 0.966065 0.366116
Si Si2 0.644682 0.963496 0.968219
Si Si3 0.147417 0.038284 0.904066
Si Si4 0.653258 0.546339 0.391648
Si Si5 0.604421 0.041579 0.513941
Si Si6 0.852122 0.457481 0.746846
Si Si7 0.960659 0.543485 0.859101
O O1 0.046734 0.750000 0.367904
O O2 0.110836 0.017766 0.420800
O O3 0.094693 0.027528 0.307920
O O4 0.945001 0.027133 0.372906
O O5 0.750000 0.007011 0.956815
O O6 0.638617 0.750000 0.969625
O O7 0.582390 0.030839 0.917414
O O8 0.622990 0.024903 0.032018
O O9 0.250000 0.978340 0.891105
O O10 0.149815 0.250000 0.905745
O O11 0.068121 0.986246 0.861664
O O12 0.750000 0.467940 0.372184
O O13 0.652807 0.750000 0.373856
O O14 0.653668 0.540387 0.460259
O O15 0.622076 0.250000 0.511954
O O16 0.500000 0.000000 0.500000
O O17 0.750000 0.529534 0.753454
O O18 0.843584 0.250000 0.736246
O O19 0.910268 0.475935 0.803746
O O20 0.943424 0.750000 0.859892
#
# Coordination Sequence:
#
# PCOD9452098 Si02
#       7
#     8   8   8   8   8   8   8
#     4   8  16  32  51  70  95 130 172 214 251 291
#     4   8  15  29  50  76 105 136 168 203 247 299
#     4   9  18  34  55  77 102 134 172 210 247 296
#     4   9  17  30  49  74 103 132 163 204 255 308
#     4   9  16  28  48  73 101 131 163 201 246 295
#     4  10  21  37  55  73  96 131 177 222 255 292
#     4  11  21  33  52  77 107 138 166 206 259 309
#
# _framework density 21.178063999999999
#
# number of rings (size 3 to 8) (size 9 to 14) (size 15 to 20)
#    0.000    2.857    0.000    3.429    0.000    2.000 
#    0.000    6.429    0.000    4.286    0.000    0.000 
#    0.000    0.000    0.000    0.000    0.000    0.000 
#
# Total GULP energy -312177.446875 kJ/mol
# GULP energy per Si atom -5574.597266 kJ/mol
# Density = 2.112986 g / cm^3
# Si number density = 21.178064 Si / 1000 Ang^3
#
#
#
# Elastic Constant Matrix: (Units=GPa)
#
#
# Indices 1 2 3 4 5 6 
#
# 1 134.9462 -4.7398 87.8205 0.0000 0.0000 0.0000
# 2 -4.7398 44.4156 -2.6203 0.0000 0.0000 0.0000
# 3 87.8205 -2.6203 103.2007 0.0000 0.0000 0.0000
# 4 0.0000 0.0000 0.0000 9.8529 0.0000 0.0000
# 5 0.0000 0.0000 0.0000 0.0000 17.0983 0.0000
# 6 0.0000 0.0000 0.0000 0.0000 0.0000 5.0015
#
#
#
# Elastic Compliance Matrix: (Units=1/GPa)
#
#
# Indices 1 2 3 4 5 6 
#
# 1 0.016647 0.000942 -0.014142 0.000000 0.000000 0.000000
# 2 0.000942 0.022602 -0.000228 0.000000 0.000000 0.000000
# 3 -0.014142 -0.000228 0.021718 0.000000 0.000000 0.000000
# 4 0.000000 0.000000 0.000000 0.101493 0.000000 0.000000
# 5 0.000000 0.000000 0.000000 0.000000 0.058485 0.000000
# 6 0.000000 0.000000 0.000000 0.000000 0.000000 0.199940
#
#
# Mechanical properties :
#
#
# Convention : Reuss Voigt Hill
#
# Bulk Modulus (GPa) = 29.31559 49.27592 39.29576
# Shear Modulus (GPa) = 10.89060 19.86401 15.37731
#
# Velocity S-wave (km/s) = 2.27015 3.06592 2.69754
# Velocity P-wave (km/s) = 4.55455 5.98758 5.31954
#
# Compressibility (1/GPa) = 0.03411154
#
# Stress axis : x y z
#
# Youngs Moduli (GPa) = 60.07175 44.24447 46.04389
#
# Poissons Ratio (x) = -0.04168 0.65115
# Poissons Ratio (y) = -0.05660 0.01049
# Poissons Ratio (z) = 0.84953 0.01008
#
# Static dielectric constant tensor:
#      x y z
#    x 1.794100 0.000000 0.000000 
#    y 0.000000 1.803130 0.000000 
#    z 0.000000 0.000000 1.754610 
# 
# From -- ./inp_files/30405.got.cif
#   From: 2010.05.17/outbox.cif.g08.bks.cpg/sg59_16_cif.got.tgz:30405.got - 2010.06.03 14:40:33.
