data_PCOD9452388
_publ_section_title
;
Structure prediction by ZEFSAII (Michael W. Deem and Ramdas Pophale) SiO2 
 PCOD9452388
Probable space group: P M M N
;
_chemical_formula_sum "Si O2"
_cell_formula_units_Z 40
_cell_length_a 14.075091
_cell_length_b 14.479964
_cell_length_c 9.757986
_cell_angle_alpha 90.000000
_cell_angle_beta 90.000000
_cell_angle_gamma 90.000000
_cell_volume 1988.744008
_symmetry_space_group_name_H-M "P M M N"
_symmetry_group_IT_number 59
_space_group.IT_coordinate_system_code '2'
_symmetry_cell_setting 'orthorhombic'
loop_
_space_group_symop_operation_xyz
x,y,z
1/2-x,1/2-y,z
1/2+x,-y,-z
-x,1/2+y,-z
-x,-y,-z
1/2+x,1/2+y,-z
1/2-x,y,z
x,1/2-y,z
loop_
_atom_site_type_symbol
_atom_site_label
_atom_site_fract_x
_atom_site_fract_y
_atom_site_fract_z
Si Si1 0.861802 0.446368 0.782766
Si Si2 0.863760 0.014344 0.097563
Si Si3 0.137124 0.464598 0.491534
Si Si4 0.634876 0.146271 0.334732
Si Si5 0.545245 0.646303 0.276193
O O1 0.750000 0.422612 0.773108
O O2 0.880773 0.525929 0.669958
O O3 0.932282 0.364789 0.740899
O O4 0.883960 0.476377 0.937275
O O5 0.750000 0.005770 0.112189
O O6 0.910052 0.926251 0.169395
O O7 0.892420 0.104609 0.186038
O O8 0.250000 0.450650 0.512846
O O9 0.111831 0.564215 0.559003
O O10 0.080952 0.388284 0.575825
O O11 0.750000 0.152116 0.337418
O O12 0.598238 0.250000 0.360336
O O13 0.575881 0.750000 0.250494
#
# Coordination Sequence:
#
# PCOD9452388 Si02
#       5
#     8   8   8   8   8
#     4  10  21  38  58  80 111 148 186 234 285 324
#     4   9  19  36  57  81 111 147 187 232 278 328
#     4   9  19  36  57  81 111 147 187 232 278 328
#     4   8  14  27  49  76 106 142 181 219 265 323
#     4  11  22  36  57  84 115 151 187 224 272 337
#
# _framework density 20.113195999999999
#
# number of rings (size 3 to 8) (size 9 to 14) (size 15 to 20)
#    0.000    2.600    0.000    3.000    0.000    3.600 
#    0.000    5.000    0.000    3.600    0.000    0.000 
#    0.000    0.000    0.000    0.000    0.000    0.000 
#
# Total GULP energy -223252.671544 kJ/mol
# GULP energy per Si atom -5581.316789 kJ/mol
# Density = 2.006742 g / cm^3
# Si number density = 20.113196 Si / 1000 Ang^3
#
#
#
# Elastic Constant Matrix: (Units=GPa)
#
#
# Indices 1 2 3 4 5 6 
#
# 1 47.3248 1.7908 7.8042 0.0000 0.0000 0.0000
# 2 1.7908 74.6782 -19.0536 0.0000 0.0000 0.0000
# 3 7.8042 -19.0536 74.7494 0.0000 0.0000 0.0000
# 4 0.0000 0.0000 0.0000 1.1264 0.0000 0.0000
# 5 0.0000 0.0000 0.0000 0.0000 23.8010 0.0000
# 6 0.0000 0.0000 0.0000 0.0000 0.0000 15.2859
#
#
#
# Elastic Compliance Matrix: (Units=1/GPa)
#
#
# Indices 1 2 3 4 5 6 
#
# 1 0.021596 -0.001169 -0.002553 0.000000 0.000000 0.000000
# 2 -0.001169 0.014386 0.003789 0.000000 0.000000 0.000000
# 3 -0.002553 0.003789 0.014610 0.000000 0.000000 0.000000
# 4 0.000000 0.000000 0.000000 0.887761 0.000000 0.000000
# 5 0.000000 0.000000 0.000000 0.000000 0.042015 0.000000
# 6 0.000000 0.000000 0.000000 0.000000 0.000000 0.065420
#
#
# Mechanical properties :
#
#
# Convention : Reuss Voigt Hill
#
# Bulk Modulus (GPa) = 19.71385 19.75946 19.73666
# Shear Modulus (GPa) = 4.70561 21.79008 13.24784
#
# Velocity S-wave (km/s) = 1.53122 3.29503 2.56923
# Velocity P-wave (km/s) = 3.59846 4.93171 4.31687
#
# Compressibility (1/GPa) = 0.05072575
#
# Stress axis : x y z
#
# Youngs Moduli (GPa) = 46.30537 69.51419 68.44462
#
# Poissons Ratio (x) = 0.08127 0.17472
# Poissons Ratio (y) = 0.05414 -0.25933
# Poissons Ratio (z) = 0.11820 -0.26339
#
# Static dielectric constant tensor:
#      x y z
#    x 1.764680 0.000000 0.000000 
#    y 0.000000 1.662330 0.000000 
#    z 0.000000 0.000000 1.739660 
# 
# From -- ./inp_files/8598.got.cif
#   From: 2010.05.17/outbox.cif.g08.bks.cpg/sg59_5_cif.got.tgz:8598.got - 2010.06.03 14:40:33.
