data_PCOD9452780
_publ_section_title
;
Structure prediction by ZEFSAII (Michael W. Deem and Ramdas Pophale) SiO2 
 PCOD9452780
Probable space group: P M M N
;
_chemical_formula_sum "Si O2"
_cell_formula_units_Z 64
_cell_length_a 13.962770
_cell_length_b 18.549345
_cell_length_c 12.219366
_cell_angle_alpha 90.000000
_cell_angle_beta 90.000000
_cell_angle_gamma 90.000000
_cell_volume 3164.818701
_symmetry_space_group_name_H-M "P M M N"
_symmetry_group_IT_number 59
_space_group.IT_coordinate_system_code '2'
_symmetry_cell_setting 'orthorhombic'
loop_
_space_group_symop_operation_xyz
x,y,z
1/2-x,1/2-y,z
1/2+x,-y,-z
-x,1/2+y,-z
-x,-y,-z
1/2+x,1/2+y,-z
1/2-x,y,z
x,1/2-y,z
loop_
_atom_site_type_symbol
_atom_site_label
_atom_site_fract_x
_atom_site_fract_y
_atom_site_fract_z
Si Si1 0.357845 0.927069 0.065475
Si Si2 0.497053 0.671809 0.785231
Si Si3 0.967926 0.838038 0.168502
Si Si4 0.857712 0.436067 0.188046
Si Si5 0.362680 0.400365 0.040034
Si Si6 0.860450 0.990438 0.531728
Si Si7 0.969782 0.960920 0.321150
Si Si8 0.357456 0.173837 0.412793
O O1 0.250000 0.917170 0.109259
O O2 0.433346 0.876576 0.127068
O O3 0.358938 0.909435 0.936794
O O4 0.375595 0.013496 0.057454
O O5 0.473020 0.750000 0.828650
O O6 0.400689 0.631928 0.750250
O O7 0.564165 0.675341 0.680297
O O8 0.563580 0.634146 0.875159
O O9 0.970261 0.750000 0.171547
O O10 0.890927 0.867291 0.078618
O O11 0.952206 0.877939 0.286353
O O12 0.750000 0.459919 0.213837
O O13 0.936146 0.497278 0.212051
O O14 0.250000 0.385292 0.060623
O O15 0.750000 0.011620 0.541106
O O16 0.905321 0.002110 0.412380
O O17 0.867291 0.903299 0.532683
O O18 0.924749 0.024005 0.629247
O O19 0.250000 0.172993 0.364212
O O20 0.365021 0.250000 0.476485
#
# Coordination Sequence:
#
# PCOD9452780 Si02
#       8
#     8   8   8   8   8   8   8   8
#     4  10  22  39  62  87 119 166 212 249 286 347
#     4  11  21  34  53  83 120 154 195 246 298 356
#     4  12  25  40  60  91 130 164 201 249 309 378
#     4  11  21  37  60  85 118 160 204 249 294 351
#     4  11  22  37  58  85 120 164 208 249 296 359
#     4  10  22  40  65  91 114 150 204 259 308 370
#     4  11  23  41  63  89 119 156 202 256 315 367
#     4   9  18  33  55  85 118 149 185 239 306 364
#
# _framework density 20.222328000000001
#
# number of rings (size 3 to 8) (size 9 to 14) (size 15 to 20)
#    0.000    1.375    3.750    2.250    0.000    3.500 
#    0.000    1.250    0.000    0.000    0.000    0.000 
#    0.000    0.000    0.000    0.000    0.000    0.000 
#
# Total GULP energy -356293.441660 kJ/mol
# GULP energy per Si atom -5567.085026 kJ/mol
# Density = 2.017630 g / cm^3
# Si number density = 20.222328 Si / 1000 Ang^3
#
#
#
# Elastic Constant Matrix: (Units=GPa)
#
#
# Indices 1 2 3 4 5 6 
#
# 1 92.9631 30.4691 30.4428 0.0000 0.0000 0.0000
# 2 30.4691 103.0919 8.2881 0.0000 0.0000 0.0000
# 3 30.4428 8.2881 37.4302 0.0000 0.0000 0.0000
# 4 0.0000 0.0000 0.0000 10.4892 0.0000 0.0000
# 5 0.0000 0.0000 0.0000 0.0000 18.3721 0.0000
# 6 0.0000 0.0000 0.0000 0.0000 0.0000 271.8581
#
#
#
# Elastic Compliance Matrix: (Units=1/GPa)
#
#
# Indices 1 2 3 4 5 6 
#
# 1 0.015964 -0.003741 -0.012155 0.000000 0.000000 0.000000
# 2 -0.003741 0.010753 0.000662 0.000000 0.000000 0.000000
# 3 -0.012155 0.000662 0.036456 0.000000 0.000000 0.000000
# 4 0.000000 0.000000 0.000000 0.095336 0.000000 0.000000
# 5 0.000000 0.000000 0.000000 0.000000 0.054430 0.000000
# 6 0.000000 0.000000 0.000000 0.000000 0.000000 0.003678
#
#
# Mechanical properties :
#
#
# Convention : Reuss Voigt Hill
#
# Bulk Modulus (GPa) = 30.57806 41.32057 35.94932
# Shear Modulus (GPa) = 19.38087 71.09623 45.23855
#
# Velocity S-wave (km/s) = 3.09915 5.93579 4.73489
# Velocity P-wave (km/s) = 5.28773 8.21314 6.90709
#
# Compressibility (1/GPa) = 0.03270319
#
# Stress axis : x y z
#
# Youngs Moduli (GPa) = 62.64289 93.00157 27.43037
#
# Poissons Ratio (x) = 0.34790 0.33342
# Poissons Ratio (y) = 0.23434 -0.01815
# Poissons Ratio (z) = 0.76143 -0.06153
#
# Static dielectric constant tensor:
#      x y z
#    x 1.743060 0.000000 0.000000 
#    y 0.000000 1.810560 0.000000 
#    z 0.000000 0.000000 1.820780 
# 
# From -- ./inp_files/17236.got.cif
#   From: 2010.05.17/outbox.cif.g08.bks.cpg/sg59_9_cif.got.tgz:17236.got - 2010.06.03 14:40:33.
