data_PCOD9452043
_publ_section_title
;
Structure prediction by ZEFSAII (Michael W. Deem and Ramdas Pophale) SiO2 
 PCOD9452043
Probable space group: P M M N
;
_chemical_formula_sum "Si O2"
_cell_formula_units_Z 64
_cell_length_a 18.133529
_cell_length_b 7.541711
_cell_length_c 20.598532
_cell_angle_alpha 90.000000
_cell_angle_beta 90.000000
_cell_angle_gamma 90.000000
_cell_volume 2817.010643
_symmetry_space_group_name_H-M "P M M N"
_symmetry_group_IT_number 59
_space_group.IT_coordinate_system_code '2'
_symmetry_cell_setting 'orthorhombic'
loop_
_space_group_symop_operation_xyz
x,y,z
1/2-x,1/2-y,z
1/2+x,-y,-z
-x,1/2+y,-z
-x,-y,-z
1/2+x,1/2+y,-z
1/2-x,y,z
x,1/2-y,z
loop_
_atom_site_type_symbol
_atom_site_label
_atom_site_fract_x
_atom_site_fract_y
_atom_site_fract_z
Si Si1 0.946723 0.951821 0.287509
Si Si2 0.604405 0.951917 0.666894
Si Si3 0.167517 0.033040 0.201162
Si Si4 0.330928 0.032367 0.816245
Si Si5 0.605577 0.544313 0.053272
Si Si6 0.167118 0.543519 0.605309
Si Si7 0.561563 0.966167 0.914062
Si Si8 0.583604 0.961869 0.522671
O O1 0.968227 0.750000 0.271733
O O2 0.898020 0.027403 0.228897
O O3 0.891894 0.950701 0.348788
O O4 0.020663 0.051053 0.306595
O O5 0.631275 0.750000 0.658719
O O6 0.650810 0.031399 0.725972
O O7 0.600341 0.032563 0.594977
O O8 0.250000 0.983521 0.180806
O O9 0.164253 0.250000 0.202553
O O10 0.105783 0.977091 0.149540
O O11 0.250000 0.979922 0.791967
O O12 0.333187 0.250000 0.815149
O O13 0.343480 0.970527 0.889883
O O14 0.626562 0.750000 0.046375
O O15 0.522075 0.532176 0.080688
O O16 0.601906 0.471869 0.980360
O O17 0.250000 0.473792 0.612412
O O18 0.166672 0.750000 0.623966
O O19 0.139301 0.530056 0.531644
O O20 0.558466 0.750000 0.915210
O O21 0.589877 0.750000 0.524803
O O22 0.500000 0.000000 0.500000
#
# Coordination Sequence:
#
# PCOD9452043 Si02
#       8
#     8   8   8   8   8   8   8   8
#     4  11  21  34  56  80 105 141 181 222 267 324
#     4  10  21  36  57  81 107 139 176 221 270 322
#     4   9  18  33  53  79 109 140 179 226 272 320
#     4   9  18  31  47  72 105 136 171 216 261 308
#     4   9  17  30  50  75 103 137 176 217 265 316
#     4  11  24  40  58  82 113 145 179 225 277 327
#     4   9  17  30  51  77 103 135 175 220 264 311
#     4  11  22  37  59  84 111 144 183 227 273 329
#
# _framework density 22.71912
#
# number of rings (size 3 to 8) (size 9 to 14) (size 15 to 20)
#    0.000    2.125    1.250    2.250    0.000    3.000 
#    0.000    4.375    0.000    3.375    0.000    3.500 
#    0.000    0.000    0.000    0.000    0.000    0.000 
#
# Total GULP energy -357563.130378 kJ/mol
# GULP energy per Si atom -5586.923912 kJ/mol
# Density = 2.266741 g / cm^3
# Si number density = 22.719120 Si / 1000 Ang^3
#
#
#
# Elastic Constant Matrix: (Units=GPa)
#
#
# Indices 1 2 3 4 5 6 
#
# 1 33.6858 -12.5050 0.1313 0.0000 0.0000 0.0000
# 2 -12.5050 65.4799 -8.7335 0.0000 0.0000 0.0000
# 3 0.1313 -8.7335 109.0537 0.0000 0.0000 0.0000
# 4 0.0000 0.0000 0.0000 3.6446 0.0000 0.0000
# 5 0.0000 0.0000 0.0000 0.0000 -40.4737 0.0000
# 6 0.0000 0.0000 0.0000 0.0000 0.0000 -260.2414
#
#
#
# Elastic Compliance Matrix: (Units=1/GPa)
#
#
# Indices 1 2 3 4 5 6 
#
# 1 0.031974 0.006167 0.000455 0.000000 0.000000 0.000000
# 2 0.006167 0.016626 0.001324 0.000000 0.000000 0.000000
# 3 0.000455 0.001324 0.009275 0.000000 0.000000 0.000000
# 4 0.000000 0.000000 0.000000 0.274376 0.000000 0.000000
# 5 0.000000 0.000000 0.000000 0.000000 -0.024707 0.000000
# 6 0.000000 0.000000 0.000000 0.000000 0.000000 -0.003843
#
#
# Mechanical properties :
#
#
# Convention : Reuss Voigt Hill
#
# Bulk Modulus (GPa) = 13.55605 18.44499 16.00052
# Shear Modulus (GPa) = 16.00522 -44.12565 -14.06022
#
# Velocity S-wave (km/s) = 2.65709 -4.41185 -2.49041
# Velocity P-wave (km/s) = 3.92342 4.22093 1.10068
#
# Compressibility (1/GPa) = 0.07376779
#
# Stress axis : x y z
#
# Youngs Moduli (GPa) = 31.27578 60.14609 107.81341
#
# Poissons Ratio (x) = -0.37091 -0.04910
# Poissons Ratio (y) = -0.19287 -0.14275
# Poissons Ratio (z) = -0.01424 -0.07964
#
# Static dielectric constant tensor:
#      x y z
#    x 1.796660 0.000000 0.000000 
#    y 0.000000 1.737550 0.000000 
#    z 0.000000 0.000000 1.829670 
# 
# From -- ./inp_files/30832.got.cif
#   From: 2010.05.17/outbox.cif.g08.bks.cpg/sg59_16_cif.got.tgz:30832.got - 2010.06.03 14:40:33.
