data_PCOD9452833
_publ_section_title
;
Structure prediction by ZEFSAII (Michael W. Deem and Ramdas Pophale) SiO2 
 PCOD9452833
Probable space group: P M M N
;
_chemical_formula_sum "Si O2"
_cell_formula_units_Z 32
_cell_length_a 13.300278
_cell_length_b 10.223248
_cell_length_c 10.029678
_cell_angle_alpha 90.000000
_cell_angle_beta 90.000000
_cell_angle_gamma 90.000000
_cell_volume 1363.755783
_symmetry_space_group_name_H-M "P M M N"
_symmetry_group_IT_number 59
_space_group.IT_coordinate_system_code '2'
_symmetry_cell_setting 'orthorhombic'
loop_
_space_group_symop_operation_xyz
x,y,z
1/2-x,1/2-y,z
1/2+x,-y,-z
-x,1/2+y,-z
-x,-y,-z
1/2+x,1/2+y,-z
1/2-x,y,z
x,1/2-y,z
loop_
_atom_site_type_symbol
_atom_site_label
_atom_site_fract_x
_atom_site_fract_y
_atom_site_fract_z
Si Si1 0.632836 0.497023 0.343116
Si Si2 0.130533 0.101929 0.178761
Si Si3 0.926820 0.112653 0.615043
Si Si4 0.128537 0.897170 0.955547
O O1 0.750000 0.538115 0.344794
O O2 0.612012 0.397860 0.464362
O O3 0.547660 0.604757 0.372692
O O4 0.610297 0.434914 0.198640
O O5 0.250000 0.113081 0.164545
O O6 0.090912 0.250000 0.185389
O O7 0.110424 0.015344 0.308706
O O8 0.095445 0.012492 0.055299
O O9 0.890762 0.250000 0.674686
O O10 0.250000 0.892461 0.968095
O O11 0.091869 0.750000 0.987439
#
# Coordination Sequence:
#
# PCOD9452833 Si02
#       4
#     8   8   8   8
#     4  10  23  42  64  92 126 161 203 259 316 369
#     4  10  22  40  62  92 131 170 208 254 307 364
#     4  11  24  41  65  96 126 163 210 255 307 372
#     4   9  18  36  64  93 121 160 209 258 309 365
#
# _framework density 23.46461
#
# number of rings (size 3 to 8) (size 9 to 14) (size 15 to 20)
#    0.000    2.000    0.000    2.250    0.000   11.500 
#    0.000    2.500    0.000    0.000    0.000    0.000 
#    0.000    0.000    0.000    0.000    0.000    0.000 
#
# Total GULP energy -178812.064024 kJ/mol
# GULP energy per Si atom -5587.877001 kJ/mol
# Density = 2.341120 g / cm^3
# Si number density = 23.464610 Si / 1000 Ang^3
#
#
#
# Elastic Constant Matrix: (Units=GPa)
#
#
# Indices 1 2 3 4 5 6 
#
# 1 72.2187 12.7880 9.2524 0.0000 0.0000 0.0000
# 2 12.7880 204.4001 87.3431 0.0000 0.0000 0.0000
# 3 9.2524 87.3431 167.2560 0.0000 0.0000 0.0000
# 4 0.0000 0.0000 0.0000 105.3350 0.0000 0.0000
# 5 0.0000 0.0000 0.0000 0.0000 35.3355 0.0000
# 6 0.0000 0.0000 0.0000 0.0000 0.0000 -3.3969
#
#
#
# Elastic Compliance Matrix: (Units=1/GPa)
#
#
# Indices 1 2 3 4 5 6 
#
# 1 0.014024 -0.000703 -0.000409 0.000000 0.000000 0.000000
# 2 -0.000703 0.006333 -0.003268 0.000000 0.000000 0.000000
# 3 -0.000409 -0.003268 0.007708 0.000000 0.000000 0.000000
# 4 0.000000 0.000000 0.000000 0.009494 0.000000 0.000000
# 5 0.000000 0.000000 0.000000 0.000000 0.028300 0.000000
# 6 0.000000 0.000000 0.000000 0.000000 0.000000 -0.294388
#
#
# Mechanical properties :
#
#
# Convention : Reuss Voigt Hill
#
# Bulk Modulus (GPa) = 51.79941 73.62686 62.71313
# Shear Modulus (GPa) = -23.43729 49.75414 13.15843
#
# Velocity S-wave (km/s) = -3.16386 4.60977 2.37064
# Velocity P-wave (km/s) = 2.96256 7.73170 5.85474
#
# Compressibility (1/GPa) = 0.01930524
#
# Stress axis : x y z
#
# Youngs Moduli (GPa) = 71.30822 157.90563 129.73207
#
# Poissons Ratio (x) = 0.11096 0.05304
# Poissons Ratio (y) = 0.05011 0.42400
# Poissons Ratio (z) = 0.02915 0.51607
#
# Static dielectric constant tensor:
#      x y z
#    x 1.937970 0.000000 0.000000 
#    y 0.000000 1.873210 0.000000 
#    z 0.000000 0.000000 1.845280 
# 
# From -- ./inp_files/13612.got.cif
#   From: 2010.05.17/outbox.cif.g08.bks.cpg/sg59_7_cif.got.tgz:13612.got - 2010.06.03 14:40:33.
