data_PCOD9452441
_publ_section_title
;
Structure prediction by ZEFSAII (Michael W. Deem and Ramdas Pophale) SiO2 
 PCOD9452441
Probable space group: P M M N
;
_chemical_formula_sum "Si O2"
_cell_formula_units_Z 56
_cell_length_a 8.269851
_cell_length_b 22.355475
_cell_length_c 15.326381
_cell_angle_alpha 90.000000
_cell_angle_beta 90.000000
_cell_angle_gamma 90.000000
_cell_volume 2833.486869
_symmetry_space_group_name_H-M "P M M N"
_symmetry_group_IT_number 59
_space_group.IT_coordinate_system_code '2'
_symmetry_cell_setting 'orthorhombic'
loop_
_space_group_symop_operation_xyz
x,y,z
1/2-x,1/2-y,z
1/2+x,-y,-z
-x,1/2+y,-z
-x,-y,-z
1/2+x,1/2+y,-z
1/2-x,y,z
x,1/2-y,z
loop_
_atom_site_type_symbol
_atom_site_label
_atom_site_fract_x
_atom_site_fract_y
_atom_site_fract_z
Si Si1 0.933516 0.750000 0.675967
Si Si2 0.056417 0.318761 0.866984
Si Si3 0.440367 0.062764 0.537354
Si Si4 0.566383 0.750000 0.882770
Si Si5 0.551985 0.915058 0.267121
Si Si6 0.059430 0.627089 0.956717
Si Si7 0.552619 0.455609 0.200041
Si Si8 0.060397 0.622073 0.631977
O O1 0.750000 0.750000 0.639863
O O2 0.920154 0.750000 0.779816
O O3 0.028003 0.690738 0.651216
O O4 0.250000 0.314225 0.861230
O O5 0.994485 0.250000 0.877141
O O6 0.997462 0.355066 0.782122
O O7 0.018042 0.361515 0.949116
O O8 0.250000 0.057863 0.548849
O O9 0.506342 0.078933 0.633063
O O10 0.479215 0.107811 0.459858
O O11 0.500000 0.000000 0.500000
O O12 0.750000 0.750000 0.921112
O O13 0.474062 0.809516 0.910243
O O14 0.750000 0.914069 0.267402
O O15 0.505107 0.975665 0.215490
O O16 0.250000 0.617751 0.968578
O O17 0.997212 0.575994 0.889880
O O18 0.750000 0.453044 0.198737
O O19 0.499914 0.417391 0.285408
O O20 0.250000 0.608691 0.623726
#
# Coordination Sequence:
#
# PCOD9452441 Si02
#       8
#     4   8   8   4   8   8   8   8
#     4  11  23  37  55  86 123 156 197 247 296 350
#     4  10  21  38  60  83 110 152 199 240 283 339
#     4  11  21  37  62  89 115 153 199 248 300 358
#     4  11  21  33  53  82 115 150 191 235 280 338
#     4   9  19  38  60  82 113 153 196 240 290 349
#     4  11  21  34  57  85 114 150 190 234 287 348
#     4   9  18  33  56  85 115 151 191 230 286 356
#     4  11  21  37  59  85 121 160 196 240 300 364
#
# _framework density 19.763634
#
# number of rings (size 3 to 8) (size 9 to 14) (size 15 to 20)
#    0.000    1.714    3.571    1.714    0.000    1.143 
#    1.286    1.429    0.000    0.000    0.000    0.000 
#    0.000    0.000    0.000    0.000    0.000    0.000 
#
# Total GULP energy -312443.728570 kJ/mol
# GULP energy per Si atom -5579.352296 kJ/mol
# Density = 1.971865 g / cm^3
# Si number density = 19.763634 Si / 1000 Ang^3
#
#
#
# Elastic Constant Matrix: (Units=GPa)
#
#
# Indices 1 2 3 4 5 6 
#
# 1 13.7352 2.4482 9.3849 0.0000 0.0000 0.0000
# 2 2.4482 82.2857 57.2476 0.0000 0.0000 0.0000
# 3 9.3849 57.2476 146.1113 0.0000 0.0000 0.0000
# 4 0.0000 0.0000 0.0000 9.1872 0.0000 0.0000
# 5 0.0000 0.0000 0.0000 0.0000 23.4718 0.0000
# 6 0.0000 0.0000 0.0000 0.0000 0.0000 10.8423
#
#
#
# Elastic Compliance Matrix: (Units=1/GPa)
#
#
# Indices 1 2 3 4 5 6 
#
# 1 0.076294 0.001566 -0.005514 0.000000 0.000000 0.000000
# 2 0.001566 0.016739 -0.006659 0.000000 0.000000 0.000000
# 3 -0.005514 -0.006659 0.009807 0.000000 0.000000 0.000000
# 4 0.000000 0.000000 0.000000 0.108847 0.000000 0.000000
# 5 0.000000 0.000000 0.000000 0.000000 0.042604 0.000000
# 6 0.000000 0.000000 0.000000 0.000000 0.000000 0.092231
#
#
# Mechanical properties :
#
#
# Convention : Reuss Voigt Hill
#
# Bulk Modulus (GPa) = 12.25088 42.25485 27.25287
# Shear Modulus (GPa) = 12.65996 20.23704 16.44850
#
# Velocity S-wave (km/s) = 2.53369 3.20340 2.88802
# Velocity P-wave (km/s) = 3.84339 5.92527 4.99402
#
# Compressibility (1/GPa) = 0.08162676
#
# Stress axis : x y z
#
# Youngs Moduli (GPa) = 13.10716 59.74068 101.96421
#
# Poissons Ratio (x) = -0.09358 0.56225
# Poissons Ratio (y) = -0.02053 0.67899
# Poissons Ratio (z) = 0.07228 0.39782
#
# Static dielectric constant tensor:
#      x y z
#    x 1.710700 0.000000 0.000000 
#    y 0.000000 1.666430 0.000000 
#    z 0.000000 0.000000 1.698430 
# 
# From -- ./inp_files/21106.got.cif
#   From: 2010.05.17/outbox.cif.g08.bks.cpg/sg59_11_cif.got.tgz:21106.got - 2010.06.03 14:40:33.
