data_PCOD9452706
_publ_section_title
;
Structure prediction by ZEFSAII (Michael W. Deem and Ramdas Pophale) SiO2 
 PCOD9452706
Probable space group: P M M N
;
_chemical_formula_sum "Si O2"
_cell_formula_units_Z 64
_cell_length_a 25.373280
_cell_length_b 20.117582
_cell_length_c 5.538449
_cell_angle_alpha 90.000000
_cell_angle_beta 90.000000
_cell_angle_gamma 90.000000
_cell_volume 2827.095981
_symmetry_space_group_name_H-M "P M M N"
_symmetry_group_IT_number 59
_space_group.IT_coordinate_system_code '2'
_symmetry_cell_setting 'orthorhombic'
loop_
_space_group_symop_operation_xyz
x,y,z
1/2-x,1/2-y,z
1/2+x,-y,-z
-x,1/2+y,-z
-x,-y,-z
1/2+x,1/2+y,-z
1/2-x,y,z
x,1/2-y,z
loop_
_atom_site_type_symbol
_atom_site_label
_atom_site_fract_x
_atom_site_fract_y
_atom_site_fract_z
Si Si1 0.615038 0.125813 0.762055
Si Si2 0.629285 0.882940 0.887410
Si Si3 0.516955 0.328626 0.503038
Si Si4 0.847821 0.457384 0.385351
Si Si5 0.809886 0.601585 0.380499
Si Si6 0.811619 0.321594 0.129164
Si Si7 0.937917 0.487719 0.044415
Si Si8 0.975623 0.674421 0.993451
O O1 0.577849 0.158530 0.562311
O O2 0.652105 0.068744 0.656085
O O3 0.649823 0.177870 0.901223
O O4 0.576344 0.082517 0.924801
O O5 0.656767 0.881903 0.624518
O O6 0.585163 0.826952 0.921867
O O7 0.595149 0.951366 0.923233
O O8 0.666939 0.875983 0.121316
O O9 0.506785 0.250000 0.484717
O O10 0.502049 0.357652 0.243940
O O11 0.483741 0.353805 0.735752
O O12 0.812506 0.521490 0.356894
O O13 0.827620 0.391299 0.250754
O O14 0.907294 0.479614 0.302903
O O15 0.750000 0.624287 0.412016
O O16 0.750000 0.325124 0.066245
O O17 0.819157 0.250000 0.259914
O O18 0.000000 0.500000 0.000000
O O19 0.996904 0.750000 0.013249
#
# Coordination Sequence:
#
# PCOD9452706 Si02
#       8
#     8   8   8   8   8   8   8   8
#     4  11  22  38  57  87 119 157 207 262 314 371
#     4  11  22  40  63  96 121 162 209 253 313 378
#     4  10  22  37  59  89 123 170 210 247 306 370
#     4  10  23  40  58  89 118 161 208 255 320 370
#     4  11  23  42  65  92 126 163 210 260 313 374
#     4  10  23  41  60  83 115 161 217 272 321 366
#     4  10  22  37  57  86 122 160 197 256 314 376
#     4  10  22  41  64  92 127 166 204 248 306 379
#
# _framework density 22.638072000000001
#
# number of rings (size 3 to 8) (size 9 to 14) (size 15 to 20)
#    0.000    1.625    1.250    2.625    5.250    3.500 
#    0.000    1.250    0.000    2.250    0.000    0.000 
#    0.000    0.000    0.000    0.000    0.000    0.000 
#
# Total GULP energy -356767.321817 kJ/mol
# GULP energy per Si atom -5574.489403 kJ/mol
# Density = 2.258655 g / cm^3
# Si number density = 22.638072 Si / 1000 Ang^3
#
#
#
# Elastic Constant Matrix: (Units=GPa)
#
#
# Indices 1 2 3 4 5 6 
#
# 1 118.4117 11.1914 37.9162 0.0000 0.0000 0.0000
# 2 11.1914 36.5512 21.8890 0.0000 0.0000 0.0000
# 3 37.9162 21.8890 121.1250 0.0000 0.0000 0.0000
# 4 0.0000 0.0000 0.0000 20.5955 0.0000 0.0000
# 5 0.0000 0.0000 0.0000 0.0000 23.2503 0.0000
# 6 0.0000 0.0000 0.0000 0.0000 0.0000 24.4473
#
#
#
# Elastic Compliance Matrix: (Units=1/GPa)
#
#
# Indices 1 2 3 4 5 6 
#
# 1 0.009437 -0.001256 -0.002727 0.000000 0.000000 0.000000
# 2 -0.001256 0.030846 -0.005181 0.000000 0.000000 0.000000
# 3 -0.002727 -0.005181 0.010046 0.000000 0.000000 0.000000
# 4 0.000000 0.000000 0.000000 0.048554 0.000000 0.000000
# 5 0.000000 0.000000 0.000000 0.000000 0.043010 0.000000
# 6 0.000000 0.000000 0.000000 0.000000 0.000000 0.040904
#
#
# Mechanical properties :
#
#
# Convention : Reuss Voigt Hill
#
# Bulk Modulus (GPa) = 31.24976 46.45346 38.85161
# Shear Modulus (GPa) = 23.60787 27.33138 25.46962
#
# Velocity S-wave (km/s) = 3.23281 3.47842 3.35786
# Velocity P-wave (km/s) = 5.26961 6.05782 5.67741
#
# Compressibility (1/GPa) = 0.03200024
#
# Stress axis : x y z
#
# Youngs Moduli (GPa) = 105.96498 32.41881 99.54303
#
# Poissons Ratio (x) = 0.04073 0.27146
# Poissons Ratio (y) = 0.13313 0.51574
# Poissons Ratio (z) = 0.28898 0.16796
#
# Static dielectric constant tensor:
#      x y z
#    x 1.853910 0.000000 0.000000 
#    y 0.000000 1.873490 0.000000 
#    z 0.000000 0.000000 1.921070 
# 
# From -- ./inp_files/4313.got.cif
#   From: 2010.05.17/outbox.cif.g08.bks.cpg/sg59_3_cif.got.tgz:4313.got - 2010.06.03 14:40:33.
