data_PCOD9452081
_publ_section_title
;
Structure prediction by ZEFSAII (Michael W. Deem and Ramdas Pophale) SiO2 
 PCOD9452081
Probable space group: P M M N
;
_chemical_formula_sum "Si O2"
_cell_formula_units_Z 48
_cell_length_a 14.334458
_cell_length_b 7.852885
_cell_length_c 21.507312
_cell_angle_alpha 90.000000
_cell_angle_beta 90.000000
_cell_angle_gamma 90.000000
_cell_volume 2421.010368
_symmetry_space_group_name_H-M "P M M N"
_symmetry_group_IT_number 59
_space_group.IT_coordinate_system_code '2'
_symmetry_cell_setting 'orthorhombic'
loop_
_space_group_symop_operation_xyz
x,y,z
1/2-x,1/2-y,z
1/2+x,-y,-z
-x,1/2+y,-z
-x,-y,-z
1/2+x,1/2+y,-z
1/2-x,y,z
x,1/2-y,z
loop_
_atom_site_type_symbol
_atom_site_label
_atom_site_fract_x
_atom_site_fract_y
_atom_site_fract_z
Si Si1 0.466759 0.053793 0.836021
Si Si2 0.460922 0.955469 0.594749
Si Si3 0.644527 0.454743 0.529765
Si Si4 0.861488 0.452415 0.042042
Si Si5 0.644732 0.048322 0.283811
Si Si6 0.143280 0.541258 0.097531
O O1 0.477925 0.250000 0.818276
O O2 0.568937 0.981345 0.851944
O O3 0.412390 0.041774 0.901346
O O4 0.407782 0.971603 0.781355
O O5 0.456885 0.750000 0.594552
O O6 0.399698 0.016663 0.535660
O O7 0.416192 0.020184 0.658730
O O8 0.568103 0.002482 0.581900
O O9 0.750000 0.518153 0.539355
O O10 0.649116 0.250000 0.525924
O O11 0.750000 0.474052 0.047934
O O12 0.880769 0.250000 0.046416
O O13 0.886037 0.511919 0.972334
O O14 0.750000 0.977010 0.281534
O O15 0.653379 0.250000 0.294907
O O16 0.250000 0.489289 0.108321
O O17 0.141992 0.750000 0.096771
#
# Coordination Sequence:
#
# PCOD9452081 Si02
#       6
#     8   8   8   8   8   8
#     4  11  21  31  48  74 100 125 158 204 249 285
#     4   9  18  33  53  76 101 132 171 208 239 279
#     4   9  17  31  53  80 107 132 161 201 249 296
#     4   9  17  31  51  71  93 125 161 195 239 298
#     4  10  21  37  54  70  95 134 170 196 232 288
#     4   8  16  32  51  69  91 123 162 200 242 295
#
# _framework density 19.826433999999999
#
# number of rings (size 3 to 8) (size 9 to 14) (size 15 to 20)
#    0.000    2.667    0.000    3.000    0.000    5.667 
#    0.000    1.667    0.000   10.000    0.000    0.000 
#    0.000    0.000    0.000    0.000    0.000    0.000 
#
# Total GULP energy -267778.323867 kJ/mol
# GULP energy per Si atom -5578.715081 kJ/mol
# Density = 1.978131 g / cm^3
# Si number density = 19.826434 Si / 1000 Ang^3
#
#
#
# Elastic Constant Matrix: (Units=GPa)
#
#
# Indices 1 2 3 4 5 6 
#
# 1 166.1488 9.7228 93.0705 0.0000 0.0000 0.0000
# 2 9.7228 17.7348 2.0756 0.0000 0.0000 0.0000
# 3 93.0705 2.0756 101.0902 0.0000 0.0000 0.0000
# 4 0.0000 0.0000 0.0000 9.0514 0.0000 0.0000
# 5 0.0000 0.0000 0.0000 0.0000 24.2071 0.0000
# 6 0.0000 0.0000 0.0000 0.0000 0.0000 19.4111
#
#
#
# Elastic Compliance Matrix: (Units=1/GPa)
#
#
# Indices 1 2 3 4 5 6 
#
# 1 0.012985 -0.005733 -0.011837 0.000000 0.000000 0.000000
# 2 -0.005733 0.059054 0.004066 0.000000 0.000000 0.000000
# 3 -0.011837 0.004066 0.020707 0.000000 0.000000 0.000000
# 4 0.000000 0.000000 0.000000 0.110480 0.000000 0.000000
# 5 0.000000 0.000000 0.000000 0.000000 0.041310 0.000000
# 6 0.000000 0.000000 0.000000 0.000000 0.000000 0.051517
#
#
# Mechanical properties :
#
#
# Convention : Reuss Voigt Hill
#
# Bulk Modulus (GPa) = 15.21229 54.96795 35.09012
# Shear Modulus (GPa) = 14.49388 22.54092 18.51740
#
# Velocity S-wave (km/s) = 2.70671 3.37547 3.05942
# Velocity P-wave (km/s) = 4.17824 6.55565 5.49701
#
# Compressibility (1/GPa) = 0.06573634
#
# Stress axis : x y z
#
# Youngs Moduli (GPa) = 77.01257 16.93378 48.29363
#
# Poissons Ratio (x) = 0.09709 0.57165
# Poissons Ratio (y) = 0.44154 -0.19636
# Poissons Ratio (z) = 0.91160 -0.06885
#
# Static dielectric constant tensor:
#      x y z
#    x 1.718090 0.000000 0.000000 
#    y 0.000000 1.725990 0.000000 
#    z 0.000000 0.000000 1.671830 
# 
# From -- ./inp_files/25489.got.cif
#   From: 2010.05.17/outbox.cif.g08.bks.cpg/sg59_13_cif.got.tgz:25489.got - 2010.06.03 14:40:33.
