data_PCOD9452433
_publ_section_title
;
Structure prediction by ZEFSAII (Michael W. Deem and Ramdas Pophale) SiO2 
 PCOD9452433
Probable space group: P M M N
;
_chemical_formula_sum "Si O2"
_cell_formula_units_Z 64
_cell_length_a 31.967025
_cell_length_b 8.277296
_cell_length_c 12.201344
_cell_angle_alpha 90.000000
_cell_angle_beta 90.000000
_cell_angle_gamma 90.000000
_cell_volume 3228.482067
_symmetry_space_group_name_H-M "P M M N"
_symmetry_group_IT_number 59
_space_group.IT_coordinate_system_code '2'
_symmetry_cell_setting 'orthorhombic'
loop_
_space_group_symop_operation_xyz
x,y,z
1/2-x,1/2-y,z
1/2+x,-y,-z
-x,1/2+y,-z
-x,-y,-z
1/2+x,1/2+y,-z
1/2-x,y,z
x,1/2-y,z
loop_
_atom_site_type_symbol
_atom_site_label
_atom_site_fract_x
_atom_site_fract_y
_atom_site_fract_z
Si Si1 0.296561 0.445468 0.264490
Si Si2 0.176881 0.560032 0.503937
Si Si3 0.624361 0.058546 0.128483
Si Si4 0.546984 0.946667 0.739965
Si Si5 0.203639 0.058912 0.736914
Si Si6 0.953605 0.446040 0.274298
Si Si7 0.625436 0.944227 0.880673
Si Si8 0.918174 0.556379 0.502550
O O1 0.250000 0.497913 0.230383
O O2 0.297352 0.250000 0.263512
O O3 0.305348 0.500758 0.388249
O O4 0.333869 0.503917 0.185897
O O5 0.184207 0.750000 0.516118
O O6 0.196888 0.471969 0.608018
O O7 0.127374 0.523682 0.505129
O O8 0.619790 0.250000 0.117912
O O9 0.583971 0.997167 0.196002
O O10 0.665969 0.021807 0.197444
O O11 0.627005 0.986563 0.007656
O O12 0.546959 0.750000 0.743644
O O13 0.499671 0.999269 0.763433
O O14 0.582920 0.004308 0.822621
O O15 0.560024 0.991914 0.616349
O O16 0.250000 0.000088 0.768386
O O17 0.201606 0.250000 0.757749
O O18 0.952752 0.250000 0.276762
O O19 0.944600 0.506692 0.396795
O O20 0.625428 0.750000 0.870340
O O21 0.912461 0.750000 0.503988
#
# Coordination Sequence:
#
# PCOD9452433 Si02
#       8
#     8   8   8   8   8   8   8   8
#     4  10  21  39  63  89 117 152 197 245 292 349
#     4  12  23  36  59  91 126 158 188 235 298 358
#     4  11  24  40  59  87 122 157 196 248 302 352
#     4   9  19  37  61  87 118 156 199 246 293 349
#     4  11  24  42  65  90 117 154 200 244 288 350
#     4  10  21  38  59  87 122 157 194 243 302 353
#     4  10  21  40  62  84 115 160 209 251 292 344
#     4  11  20  35  61  89 119 156 198 240 289 353
#
# _framework density 19.823556
#
# number of rings (size 3 to 8) (size 9 to 14) (size 15 to 20)
#    0.000    1.500    2.500    3.000    0.000    4.750 
#    0.000    2.500    0.000    0.000    0.000    0.000 
#    0.000    0.000    0.000    0.000    0.000    0.000 
#
# Total GULP energy -357709.468634 kJ/mol
# GULP energy per Si atom -5589.210447 kJ/mol
# Density = 1.977844 g / cm^3
# Si number density = 19.823556 Si / 1000 Ang^3
#
#
#
# Elastic Constant Matrix: (Units=GPa)
#
#
# Indices 1 2 3 4 5 6 
#
# 1 156.8247 1.9995 53.3780 0.0000 0.0000 0.0000
# 2 1.9995 6.0631 -6.7319 0.0000 0.0000 0.0000
# 3 53.3780 -6.7319 118.5351 0.0000 0.0000 0.0000
# 4 0.0000 0.0000 0.0000 9.1279 0.0000 0.0000
# 5 0.0000 0.0000 0.0000 0.0000 1.5964 0.0000
# 6 0.0000 0.0000 0.0000 0.0000 0.0000 16.0592
#
#
#
# Elastic Compliance Matrix: (Units=1/GPa)
#
#
# Indices 1 2 3 4 5 6 
#
# 1 0.007792 -0.006901 -0.003901 0.000000 0.000000 0.000000
# 2 -0.006901 0.182142 0.013452 0.000000 0.000000 0.000000
# 3 -0.003901 0.013452 0.010957 0.000000 0.000000 0.000000
# 4 0.000000 0.000000 0.000000 0.109554 0.000000 0.000000
# 5 0.000000 0.000000 0.000000 0.000000 0.626394 0.000000
# 6 0.000000 0.000000 0.000000 0.000000 0.000000 0.062270
#
#
# Mechanical properties :
#
#
# Convention : Reuss Voigt Hill
#
# Bulk Modulus (GPa) = 4.84986 42.07934 23.46460
# Shear Modulus (GPa) = 4.70571 20.87518 12.79044
#
# Velocity S-wave (km/s) = 1.54238 3.24859 2.54286
# Velocity P-wave (km/s) = 2.37145 5.94510 4.52592
#
# Compressibility (1/GPa) = 0.20619141
#
# Stress axis : x y z
#
# Youngs Moduli (GPa) = 128.33238 5.49022 91.26666
#
# Poissons Ratio (x) = 0.03789 0.35602
# Poissons Ratio (y) = 0.88560 -1.22770
# Poissons Ratio (z) = 0.50061 -0.07385
#
# Static dielectric constant tensor:
#      x y z
#    x 1.713700 0.000000 0.000000 
#    y 0.000000 1.705620 0.000000 
#    z 0.000000 0.000000 1.650810 
# 
# From -- ./inp_files/19265.got.cif
#   From: 2010.05.17/outbox.cif.g08.bks.cpg/sg59_10_cif.got.tgz:19265.got - 2010.06.03 14:40:33.
