data_PCOD9452978
_publ_section_title
;
Structure prediction by ZEFSAII (Michael W. Deem and Ramdas Pophale) SiO2 
 PCOD9452978
Probable space group: P M M N
;
_chemical_formula_sum "Si O2"
_cell_formula_units_Z 64
_cell_length_a 8.849368
_cell_length_b 30.531909
_cell_length_c 14.442819
_cell_angle_alpha 90.000000
_cell_angle_beta 90.000000
_cell_angle_gamma 90.000000
_cell_volume 3902.277802
_symmetry_space_group_name_H-M "P M M N"
_symmetry_group_IT_number 59
_space_group.IT_coordinate_system_code '2'
_symmetry_cell_setting 'orthorhombic'
loop_
_space_group_symop_operation_xyz
x,y,z
1/2-x,1/2-y,z
1/2+x,-y,-z
-x,1/2+y,-z
-x,-y,-z
1/2+x,1/2+y,-z
1/2-x,y,z
x,1/2-y,z
loop_
_atom_site_type_symbol
_atom_site_label
_atom_site_fract_x
_atom_site_fract_y
_atom_site_fract_z
Si Si1 0.070446 0.425921 0.207458
Si Si2 0.568684 0.700772 0.490619
Si Si3 0.571791 0.990872 0.305364
Si Si4 0.923934 0.060966 0.537882
Si Si5 0.568475 0.085097 0.817018
Si Si6 0.570739 0.451746 0.015752
Si Si7 0.077653 0.648415 0.333185
Si Si8 0.567652 0.619579 0.614772
O O1 0.250000 0.426125 0.194015
O O2 0.029236 0.386460 0.277351
O O3 0.020987 0.468773 0.264697
O O4 0.992343 0.429693 0.108412
O O5 0.750000 0.701686 0.495246
O O6 0.511460 0.750000 0.505831
O O7 0.521486 0.682470 0.390132
O O8 0.517639 0.664903 0.566660
O O9 0.750000 0.999572 0.304129
O O10 0.517456 0.975462 0.406684
O O11 0.528973 0.951090 0.236607
O O12 0.750000 0.047647 0.525109
O O13 0.924793 0.103579 0.606047
O O14 0.995583 0.080160 0.444753
O O15 0.750000 0.077368 0.800404
O O16 0.532953 0.131614 0.768871
O O17 0.541428 0.077920 0.925258
O O18 0.750000 0.457630 0.024774
O O19 0.500000 0.500000 0.000000
O O20 0.250000 0.664358 0.330831
O O21 0.750000 0.616338 0.606215
#
# Coordination Sequence:
#
# PCOD9452978 Si02
#       8
#     8   8   8   8   8   8   8   8
#     4  11  22  34  46  63  93 127 165 209 243 277
#     4   9  17  31  52  77 101 122 148 187 236 290
#     4  11  20  29  45  66  89 123 166 203 241 286
#     4   9  17  30  47  65  91 124 158 198 239 280
#     4   9  18  32  48  66  94 126 159 202 245 281
#     4  11  21  33  50  70  93 125 167 210 249 283
#     4   8  15  28  46  70  96 123 152 185 230 283
#     4   9  19  34  49  67  93 126 160 195 237 288
#
# _framework density 16.400677000000002
#
# number of rings (size 3 to 8) (size 9 to 14) (size 15 to 20)
#    0.000    2.375    1.250    3.000    0.000    5.250 
#    0.000    0.000    0.000    0.000    0.000    0.875 
#    0.000    3.000    0.000    0.000    0.000    0.000 
#
# Total GULP energy -356826.854882 kJ/mol
# GULP energy per Si atom -5575.419608 kJ/mol
# Density = 1.636335 g / cm^3
# Si number density = 16.400677 Si / 1000 Ang^3
#
#
#
# Elastic Constant Matrix: (Units=GPa)
#
#
# Indices 1 2 3 4 5 6 
#
# 1 33.2366 16.6765 37.9320 0.0000 0.0000 0.0000
# 2 16.6765 62.6754 44.4039 0.0000 0.0000 0.0000
# 3 37.9320 44.4039 144.5705 0.0000 0.0000 0.0000
# 4 0.0000 0.0000 0.0000 14.2531 0.0000 0.0000
# 5 0.0000 0.0000 0.0000 0.0000 25.3177 0.0000
# 6 0.0000 0.0000 0.0000 0.0000 0.0000 14.1812
#
#
#
# Elastic Compliance Matrix: (Units=1/GPa)
#
#
# Indices 1 2 3 4 5 6 
#
# 1 0.043919 -0.004501 -0.010141 0.000000 0.000000 0.000000
# 2 -0.004501 0.020854 -0.005224 0.000000 0.000000 0.000000
# 3 -0.010141 -0.005224 0.011182 0.000000 0.000000 0.000000
# 4 0.000000 0.000000 0.000000 0.070160 0.000000 0.000000
# 5 0.000000 0.000000 0.000000 0.000000 0.039498 0.000000
# 6 0.000000 0.000000 0.000000 0.000000 0.000000 0.070516
#
#
# Mechanical properties :
#
#
# Convention : Reuss Voigt Hill
#
# Bulk Modulus (GPa) = 27.60673 48.72303 38.16488
# Shear Modulus (GPa) = 16.23708 20.18175 18.20941
#
# Velocity S-wave (km/s) = 3.14988 3.51172 3.33571
# Velocity P-wave (km/s) = 5.48618 6.79818 6.17712
#
# Compressibility (1/GPa) = 0.03622305
#
# Stress axis : x y z
#
# Youngs Moduli (GPa) = 22.76898 47.95218 89.42672
#
# Poissons Ratio (x) = 0.21585 0.90687
# Poissons Ratio (y) = 0.10249 0.46718
# Poissons Ratio (z) = 0.23090 0.25051
#
# Static dielectric constant tensor:
#      x y z
#    x 1.554690 0.000000 0.000000 
#    y 0.000000 1.558690 0.000000 
#    z 0.000000 0.000000 1.585710 
# 
# From -- ./inp_files/21835.got.cif
#   From: 2010.05.17/outbox.cif.g08.bks.cpg/sg59_11_cif.got.tgz:21835.got - 2010.06.03 14:40:33.
