data_PCOD9452594
_publ_section_title
;
Structure prediction by ZEFSAII (Michael W. Deem and Ramdas Pophale) SiO2 
 PCOD9452594
Probable space group: P M M N
;
_chemical_formula_sum "Si O2"
_cell_formula_units_Z 48
_cell_length_a 7.994151
_cell_length_b 16.388393
_cell_length_c 17.077115
_cell_angle_alpha 90.000000
_cell_angle_beta 90.000000
_cell_angle_gamma 90.000000
_cell_volume 2237.294836
_symmetry_space_group_name_H-M "P M M N"
_symmetry_group_IT_number 59
_space_group.IT_coordinate_system_code '2'
_symmetry_cell_setting 'orthorhombic'
loop_
_space_group_symop_operation_xyz
x,y,z
1/2-x,1/2-y,z
1/2+x,-y,-z
-x,1/2+y,-z
-x,-y,-z
1/2+x,1/2+y,-z
1/2-x,y,z
x,1/2-y,z
loop_
_atom_site_type_symbol
_atom_site_label
_atom_site_fract_x
_atom_site_fract_y
_atom_site_fract_z
Si Si1 0.441344 0.119416 0.159153
Si Si2 0.452174 0.003272 0.590410
Si Si3 0.553108 0.341837 0.985659
Si Si4 0.453624 0.158103 0.691222
Si Si5 0.448066 0.662050 0.671061
Si Si6 0.556496 0.939873 0.157238
O O1 0.250000 0.146457 0.157238
O O2 0.527271 0.155122 0.235918
O O3 0.452341 0.021740 0.166150
O O4 0.524807 0.142593 0.077168
O O5 0.250000 0.003570 0.597476
O O6 0.511434 0.086278 0.632903
O O7 0.500000 0.000000 0.500000
O O8 0.516594 0.920664 0.632305
O O9 0.750000 0.348663 0.968968
O O10 0.496415 0.250000 0.967288
O O11 0.460167 0.404798 0.929708
O O12 0.250000 0.160818 0.686574
O O13 0.514749 0.250000 0.675755
O O14 0.494688 0.127663 0.778989
O O15 0.250000 0.662867 0.654611
O O16 0.518090 0.750000 0.644375
O O17 0.750000 0.961716 0.173482
#
# Coordination Sequence:
#
# PCOD9452594 Si02
#       6
#     8   8   8   8   8   8
#     4  12  24  38  59  87 120 157 204 254 303 356
#     4  10  21  39  61  89 122 156 195 241 297 361
#     4  11  24  40  57  83 121 161 203 251 304 358
#     4   9  18  35  61  89 117 153 196 242 294 354
#     4  10  21  40  64  88 119 161 204 246 300 362
#     4  11  21  38  62  86 117 157 205 251 301 360
#
# _framework density 21.45448
#
# number of rings (size 3 to 8) (size 9 to 14) (size 15 to 20)
#    0.000    1.500    1.667    4.000    0.000    5.667 
#    0.000    0.000    0.000    2.000    0.000    0.000 
#    0.000    0.000    0.000    0.000    0.000    0.000 
#
# Total GULP energy -268311.927347 kJ/mol
# GULP energy per Si atom -5589.831820 kJ/mol
# Density = 2.140565 g / cm^3
# Si number density = 21.454480 Si / 1000 Ang^3
#
#
#
# Elastic Constant Matrix: (Units=GPa)
#
#
# Indices 1 2 3 4 5 6 
#
# 1 25.4257 7.7719 -11.7357 0.0000 0.0000 0.0000
# 2 7.7719 165.6461 43.6171 0.0000 0.0000 0.0000
# 3 -11.7357 43.6171 102.2044 0.0000 0.0000 0.0000
# 4 0.0000 0.0000 0.0000 106.2835 0.0000 0.0000
# 5 0.0000 0.0000 0.0000 0.0000 21.4938 0.0000
# 6 0.0000 0.0000 0.0000 0.0000 0.0000 5.0022
#
#
#
# Elastic Compliance Matrix: (Units=1/GPa)
#
#
# Indices 1 2 3 4 5 6 
#
# 1 0.043540 -0.003785 0.006615 0.000000 0.000000 0.000000
# 2 -0.003785 0.007130 -0.003477 0.000000 0.000000 0.000000
# 3 0.006615 -0.003477 0.012028 0.000000 0.000000 0.000000
# 4 0.000000 0.000000 0.000000 0.009409 0.000000 0.000000
# 5 0.000000 0.000000 0.000000 0.000000 0.046525 0.000000
# 6 0.000000 0.000000 0.000000 0.000000 0.000000 0.199911
#
#
# Mechanical properties :
#
#
# Convention : Reuss Voigt Hill
#
# Bulk Modulus (GPa) = 16.28572 41.39810 28.84191
# Shear Modulus (GPa) = 14.69268 43.46409 29.07839
#
# Velocity S-wave (km/s) = 2.61977 4.50585 3.68551
# Velocity P-wave (km/s) = 4.09368 6.81234 5.61988
#
# Compressibility (1/GPa) = 0.06140348
#
# Stress axis : x y z
#
# Youngs Moduli (GPa) = 22.96728 140.24837 83.14001
#
# Poissons Ratio (x) = 0.53078 -0.54994
# Poissons Ratio (y) = 0.08692 0.28912
# Poissons Ratio (z) = -0.15192 0.48771
#
# Static dielectric constant tensor:
#      x y z
#    x 1.745890 0.000000 0.000000 
#    y 0.000000 1.801970 0.000000 
#    z 0.000000 0.000000 1.730470 
# 
# From -- ./inp_files/25450.got.cif
#   From: 2010.05.17/outbox.cif.g08.bks.cpg/sg59_13_cif.got.tgz:25450.got - 2010.06.03 14:40:33.
