data_PCOD9452420
_publ_section_title
;
Structure prediction by ZEFSAII (Michael W. Deem and Ramdas Pophale) SiO2 
 PCOD9452420
Probable space group: P M M N
;
_chemical_formula_sum "Si O2"
_cell_formula_units_Z 56
_cell_length_a 21.011677
_cell_length_b 8.527343
_cell_length_c 15.847132
_cell_angle_alpha 90.000000
_cell_angle_beta 90.000000
_cell_angle_gamma 90.000000
_cell_volume 2839.390492
_symmetry_space_group_name_H-M "P M M N"
_symmetry_group_IT_number 59
_space_group.IT_coordinate_system_code '2'
_symmetry_cell_setting 'orthorhombic'
loop_
_space_group_symop_operation_xyz
x,y,z
1/2-x,1/2-y,z
1/2+x,-y,-z
-x,1/2+y,-z
-x,-y,-z
1/2+x,1/2+y,-z
1/2-x,y,z
x,1/2-y,z
loop_
_atom_site_type_symbol
_atom_site_label
_atom_site_fract_x
_atom_site_fract_y
_atom_site_fract_z
Si Si1 0.819102 0.558161 0.979282
Si Si2 0.463395 0.063576 0.584636
Si Si3 0.674836 0.572539 0.619811
Si Si4 0.175644 0.565608 0.559916
Si Si5 0.641764 0.568267 0.798415
Si Si6 0.004506 0.570041 0.764332
Si Si7 0.447196 0.062662 0.934215
O O1 0.750000 0.512027 0.011684
O O2 0.821402 0.750000 0.976439
O O3 0.878767 0.505603 0.033192
O O4 0.828101 0.502633 0.882855
O O5 0.465915 0.250000 0.579044
O O6 0.500000 0.000000 0.500000
O O7 0.388639 0.013233 0.596127
O O8 0.496025 0.005406 0.671523
O O9 0.750000 0.592557 0.623701
O O10 0.645951 0.750000 0.609585
O O11 0.663424 0.467025 0.539081
O O12 0.655911 0.496140 0.707934
O O13 0.250000 0.510876 0.577796
O O14 0.174298 0.750000 0.578596
O O15 0.664333 0.750000 0.790907
O O16 0.566080 0.570097 0.804308
O O17 0.025029 0.750000 0.754322
O O18 0.044344 0.486353 0.837197
O O19 0.449837 0.250000 0.939286
O O20 0.500000 0.000000 0.000000
#
# Coordination Sequence:
#
# PCOD9452420 Si02
#       7
#     8   8   8   8   8   8   8
#     4   9  17  31  54  84 115 149 196 252 303 353
#     4  12  25  42  64  93 127 164 207 260 315 375
#     4   9  16  27  48  78 110 146 190 241 300 368
#     4  10  21  38  59  83 116 160 207 258 316 370
#     4   9  16  28  49  80 112 144 187 239 298 360
#     4  11  22  38  60  88 119 158 204 253 308 371
#     4  11  21  37  60  87 117 157 202 249 304 364
#
# _framework density 19.722543000000002
#
# number of rings (size 3 to 8) (size 9 to 14) (size 15 to 20)
#    0.000    1.857    1.429    3.857    0.000    3.714 
#    0.000    1.429    0.000    4.286    0.000    0.000 
#    0.000    0.000    0.000    0.000    0.000    0.000 
#
# Total GULP energy -312064.098094 kJ/mol
# GULP energy per Si atom -5572.573180 kJ/mol
# Density = 1.967765 g / cm^3
# Si number density = 19.722543 Si / 1000 Ang^3
#
#
#
# Elastic Constant Matrix: (Units=GPa)
#
#
# Indices 1 2 3 4 5 6 
#
# 1 88.7287 30.1358 36.1840 0.0000 0.0000 0.0000
# 2 30.1358 68.5813 19.3146 0.0000 0.0000 0.0000
# 3 36.1840 19.3146 85.1096 0.0000 0.0000 0.0000
# 4 0.0000 0.0000 0.0000 7.2944 0.0000 0.0000
# 5 0.0000 0.0000 0.0000 0.0000 32.3241 0.0000
# 6 0.0000 0.0000 0.0000 0.0000 0.0000 22.8585
#
#
#
# Elastic Compliance Matrix: (Units=1/GPa)
#
#
# Indices 1 2 3 4 5 6 
#
# 1 0.015184 -0.005186 -0.005279 0.000000 0.000000 0.000000
# 2 -0.005186 0.017348 -0.001732 0.000000 0.000000 0.000000
# 3 -0.005279 -0.001732 0.014387 0.000000 0.000000 0.000000
# 4 0.000000 0.000000 0.000000 0.137092 0.000000 0.000000
# 5 0.000000 0.000000 0.000000 0.000000 0.030937 0.000000
# 6 0.000000 0.000000 0.000000 0.000000 0.000000 0.043747
#
#
# Mechanical properties :
#
#
# Convention : Reuss Voigt Hill
#
# Bulk Modulus (GPa) = 44.39352 45.96537 45.17945
# Shear Modulus (GPa) = 17.20601 22.94773 20.07687
#
# Velocity S-wave (km/s) = 2.95685 3.41475 3.19402
# Velocity P-wave (km/s) = 5.84937 6.23731 6.04645
#
# Compressibility (1/GPa) = 0.02252581
#
# Stress axis : x y z
#
# Youngs Moduli (GPa) = 65.85782 57.64447 69.50774
#
# Poissons Ratio (x) = 0.29892 0.36691
# Poissons Ratio (y) = 0.34151 0.12040
# Poissons Ratio (z) = 0.34764 0.09985
#
# Static dielectric constant tensor:
#      x y z
#    x 1.965150 0.000000 0.000000 
#    y 0.000000 1.703640 0.000000 
#    z 0.000000 0.000000 1.717630 
# 
# From -- ./inp_files/24295.got.cif
#   From: 2010.05.17/outbox.cif.g08.bks.cpg/sg59_13_cif.got.tgz:24295.got - 2010.06.03 14:40:33.
