data_PCOD9452622
_publ_section_title
;
Structure prediction by ZEFSAII (Michael W. Deem and Ramdas Pophale) SiO2 
 PCOD9452622
Probable space group: P M M N
;
_chemical_formula_sum "Si O2"
_cell_formula_units_Z 40
_cell_length_a 16.223885
_cell_length_b 9.035849
_cell_length_c 14.070725
_cell_angle_alpha 90.000000
_cell_angle_beta 90.000000
_cell_angle_gamma 90.000000
_cell_volume 2062.720094
_symmetry_space_group_name_H-M "P M M N"
_symmetry_group_IT_number 59
_space_group.IT_coordinate_system_code '2'
_symmetry_cell_setting 'orthorhombic'
loop_
_space_group_symop_operation_xyz
x,y,z
1/2-x,1/2-y,z
1/2+x,-y,-z
-x,1/2+y,-z
-x,-y,-z
1/2+x,1/2+y,-z
1/2-x,y,z
x,1/2-y,z
loop_
_atom_site_type_symbol
_atom_site_label
_atom_site_fract_x
_atom_site_fract_y
_atom_site_fract_z
Si Si1 0.076463 0.572424 0.443340
Si Si2 0.750000 0.427604 0.454505
Si Si3 0.250000 0.425862 0.751703
Si Si4 0.073134 0.076266 0.238275
Si Si5 0.602030 0.425525 0.135888
Si Si6 0.346124 0.578148 0.067628
O O1 0.067435 0.750000 0.445373
O O2 0.165376 0.535524 0.490085
O O3 0.076165 0.513074 0.335959
O O4 0.000000 0.500000 0.500000
O O5 0.750000 0.250000 0.439667
O O6 0.750000 0.507592 0.353682
O O7 0.250000 0.250000 0.748333
O O8 0.170564 0.485387 0.807365
O O9 0.084680 0.250000 0.257611
O O10 0.984833 0.055616 0.187349
O O11 0.137147 0.017015 0.160627
O O12 0.623067 0.250000 0.137397
O O13 0.603244 0.470795 0.025260
O O14 0.250000 0.570815 0.040827
O O15 0.366462 0.750000 0.088580
#
# Coordination Sequence:
#
# PCOD9452622 Si02
#       6
#     8   4   4   8   8   8
#     4  11  24  44  67  93 125 165 214 263 315 379
#     4  10  24  44  65  86 119 168 211 250 312 388
#     4  12  24  36  61  96 123 152 201 264 314 356
#     4  11  24  39  62  93 126 163 204 257 313 365
#     4  10  21  41  63  86 123 169 207 244 305 377
#     4  10  21  39  63  88 121 167 210 249 299 367
#
# _framework density 19.391870000000001
#
# number of rings (size 3 to 8) (size 9 to 14) (size 15 to 20)
#    0.000    1.400    1.000    3.900    1.400    9.200 
#    0.000    0.000    0.000    0.000    0.000    0.000 
#    0.000    0.000    0.000    0.000    0.000    0.000 
#
# Total GULP energy -223636.141438 kJ/mol
# GULP energy per Si atom -5590.903536 kJ/mol
# Density = 1.934773 g / cm^3
# Si number density = 19.391870 Si / 1000 Ang^3
#
#
#
# Elastic Constant Matrix: (Units=GPa)
#
#
# Indices 1 2 3 4 5 6 
#
# 1 91.1365 44.9690 49.9020 0.0000 0.0000 0.0000
# 2 44.9690 43.3619 50.8944 0.0000 0.0000 0.0000
# 3 49.9020 50.8944 155.5827 0.0000 0.0000 0.0000
# 4 0.0000 0.0000 0.0000 35.9062 0.0000 0.0000
# 5 0.0000 0.0000 0.0000 0.0000 58.9011 0.0000
# 6 0.0000 0.0000 0.0000 0.0000 0.0000 21.1726
#
#
#
# Elastic Compliance Matrix: (Units=1/GPa)
#
#
# Indices 1 2 3 4 5 6 
#
# 1 0.022515 -0.024144 0.000676 0.000000 0.000000 0.000000
# 2 -0.024144 0.063324 -0.012971 0.000000 0.000000 0.000000
# 3 0.000676 -0.012971 0.010454 0.000000 0.000000 0.000000
# 4 0.000000 0.000000 0.000000 0.027850 0.000000 0.000000
# 5 0.000000 0.000000 0.000000 0.000000 0.016978 0.000000
# 6 0.000000 0.000000 0.000000 0.000000 0.000000 0.047231
#
#
# Mechanical properties :
#
#
# Convention : Reuss Voigt Hill
#
# Bulk Modulus (GPa) = 42.70435 64.62355 53.66395
# Shear Modulus (GPa) = 18.58504 32.81702 25.70103
#
# Velocity S-wave (km/s) = 3.09915 4.11823 3.64449
# Velocity P-wave (km/s) = 5.90558 7.48402 6.74116
#
# Compressibility (1/GPa) = 0.02341682
#
# Stress axis : x y z
#
# Youngs Moduli (GPa) = 44.41423 15.79178 95.66103
#
# Poissons Ratio (x) = 0.38127 -0.06469
# Poissons Ratio (y) = 1.07232 1.24080
# Poissons Ratio (z) = -0.03003 0.20483
#
# Static dielectric constant tensor:
#      x y z
#    x 1.681110 0.000000 0.000000 
#    y 0.000000 1.660830 0.000000 
#    z 0.000000 0.000000 1.644970 
# 
# From -- ./inp_files/19955.got.cif
#   From: 2010.05.17/outbox.cif.g08.bks.cpg/sg59_10_cif.got.tgz:19955.got - 2010.06.03 14:40:33.
