data_PCOD9452022
_publ_section_title
;
Structure prediction by ZEFSAII (Michael W. Deem and Ramdas Pophale) SiO2 
 PCOD9452022
Probable space group: P M M N
;
_chemical_formula_sum "Si O2"
_cell_formula_units_Z 48
_cell_length_a 8.630304
_cell_length_b 15.864740
_cell_length_c 18.308154
_cell_angle_alpha 90.000000
_cell_angle_beta 90.000000
_cell_angle_gamma 90.000000
_cell_volume 2506.707208
_symmetry_space_group_name_H-M "P M M N"
_symmetry_group_IT_number 59
_space_group.IT_coordinate_system_code '2'
_symmetry_cell_setting 'orthorhombic'
loop_
_space_group_symop_operation_xyz
x,y,z
1/2-x,1/2-y,z
1/2+x,-y,-z
-x,1/2+y,-z
-x,-y,-z
1/2+x,1/2+y,-z
1/2-x,y,z
x,1/2-y,z
loop_
_atom_site_type_symbol
_atom_site_label
_atom_site_fract_x
_atom_site_fract_y
_atom_site_fract_z
Si Si1 0.063140 0.250000 0.207274
Si Si2 0.065114 0.583192 0.539359
Si Si3 0.937495 0.583355 0.703062
Si Si4 0.437097 0.914172 0.210265
Si Si5 0.937071 0.250000 0.043582
Si Si6 0.562575 0.418401 0.958751
Si Si7 0.935406 0.750000 0.291156
Si Si8 0.063565 0.250000 0.538721
O O1 0.250000 0.250000 0.202228
O O2 0.016866 0.166443 0.251670
O O3 0.996726 0.250000 0.126028
O O4 0.250000 0.582927 0.534925
O O5 0.000000 0.500000 0.500000
O O6 0.011368 0.583220 0.623319
O O7 0.999911 0.666570 0.500297
O O8 0.750000 0.584195 0.695394
O O9 0.981482 0.499558 0.747655
O O10 0.250000 0.908995 0.211017
O O11 0.487211 0.916945 0.125797
O O12 0.502470 0.832893 0.251013
O O13 0.750000 0.250000 0.044513
O O14 0.987829 0.166268 0.000525
O O15 0.750000 0.420920 0.959560
O O16 0.500000 0.500000 0.000000
O O17 0.750000 0.750000 0.288749
O O18 0.983115 0.750000 0.376154
O O19 0.250000 0.250000 0.534302
#
# Coordination Sequence:
#
# PCOD9452022 Si02
#       8
#     4   8   8   8   4   8   4   4
#     4  10  21  38  61  87 117 152 193 238 286 344
#     4  12  25  41  63  91 122 158 198 243 296 356
#     4  10  21  38  61  88 117 154 196 241 291 345
#     4  10  21  38  60  84 116 157 197 235 286 351
#     4  10  21  36  56  83 118 154 189 234 288 342
#     4  10  21  38  59  85 115 151 193 237 285 339
#     4  11  24  39  59  87 115 147 192 245 296 338
#     4  11  24  43  64  89 122 157 198 249 296 350
#
# _framework density 19.148627000000001
#
# number of rings (size 3 to 8) (size 9 to 14) (size 15 to 20)
#    0.000    1.500    0.000    5.000    0.000   10.000 
#    0.000    0.833    0.000    0.000    0.000    0.000 
#    0.000    0.000    0.000    0.000    0.000    0.000 
#
# Total GULP energy -268465.397685 kJ/mol
# GULP energy per Si atom -5593.029118 kJ/mol
# Density = 1.910504 g / cm^3
# Si number density = 19.148627 Si / 1000 Ang^3
#
#
#
# Elastic Constant Matrix: (Units=GPa)
#
#
# Indices 1 2 3 4 5 6 
#
# 1 39.7980 55.6761 58.9185 0.0000 0.0000 0.0000
# 2 55.6761 243.1401 147.7832 0.0000 0.0000 0.0000
# 3 58.9185 147.7832 239.0454 0.0000 0.0000 0.0000
# 4 0.0000 0.0000 0.0000 45.4757 0.0000 0.0000
# 5 0.0000 0.0000 0.0000 0.0000 29.4134 0.0000
# 6 0.0000 0.0000 0.0000 0.0000 0.0000 23.9282
#
#
#
# Elastic Compliance Matrix: (Units=1/GPa)
#
#
# Indices 1 2 3 4 5 6 
#
# 1 0.043794 -0.005555 -0.007360 0.000000 0.000000 0.000000
# 2 -0.005555 0.007293 -0.003140 0.000000 0.000000 0.000000
# 3 -0.007360 -0.003140 0.007938 0.000000 0.000000 0.000000
# 4 0.000000 0.000000 0.000000 0.021990 0.000000 0.000000
# 5 0.000000 0.000000 0.000000 0.000000 0.033998 0.000000
# 6 0.000000 0.000000 0.000000 0.000000 0.000000 0.041792
#
#
# Mechanical properties :
#
#
# Convention : Reuss Voigt Hill
#
# Bulk Modulus (GPa) = 37.15194 116.30435 76.72814
# Shear Modulus (GPa) = 25.26708 37.07051 31.16879
#
# Velocity S-wave (km/s) = 3.63647 4.40470 4.03889
# Velocity P-wave (km/s) = 6.08899 9.31333 7.86810
#
# Compressibility (1/GPa) = 0.02691649
#
# Stress axis : x y z
#
# Youngs Moduli (GPa) = 22.83427 137.11454 125.97048
#
# Poissons Ratio (x) = 0.76164 0.92714
# Poissons Ratio (y) = 0.12684 0.39551
# Poissons Ratio (z) = 0.16806 0.43050
#
# Static dielectric constant tensor:
#      x y z
#    x 1.655000 0.000000 0.000000 
#    y 0.000000 1.630550 0.000000 
#    z 0.000000 0.000000 1.630000 
# 
# From -- ./inp_files/25673.got.cif
#   From: 2010.05.17/outbox.cif.g08.bks.cpg/sg59_13_cif.got.tgz:25673.got - 2010.06.03 14:40:33.
