data_PCOD9452967
_publ_section_title
;
Structure prediction by ZEFSAII (Michael W. Deem and Ramdas Pophale) SiO2 
 PCOD9452967
Probable space group: P M M N
;
_chemical_formula_sum "Si O2"
_cell_formula_units_Z 64
_cell_length_a 15.513627
_cell_length_b 19.480088
_cell_length_c 11.405770
_cell_angle_alpha 90.000000
_cell_angle_beta 90.000000
_cell_angle_gamma 90.000000
_cell_volume 3446.901472
_symmetry_space_group_name_H-M "P M M N"
_symmetry_group_IT_number 59
_space_group.IT_coordinate_system_code '2'
_symmetry_cell_setting 'orthorhombic'
loop_
_space_group_symop_operation_xyz
x,y,z
1/2-x,1/2-y,z
1/2+x,-y,-z
-x,1/2+y,-z
-x,-y,-z
1/2+x,1/2+y,-z
1/2-x,y,z
x,1/2-y,z
loop_
_atom_site_type_symbol
_atom_site_label
_atom_site_fract_x
_atom_site_fract_y
_atom_site_fract_z
Si Si1 0.350104 0.571366 0.457391
Si Si2 0.004257 0.830749 0.562177
Si Si3 0.109636 0.405316 0.814208
Si Si4 0.651179 0.047092 0.051881
Si Si5 0.004853 0.107050 0.188156
Si Si6 0.348356 0.082700 0.544333
Si Si7 0.155048 0.169721 0.032659
Si Si8 0.923417 0.456806 0.791858
O O1 0.250000 0.586931 0.481919
O O2 0.415329 0.627800 0.507389
O O3 0.370007 0.496620 0.513940
O O4 0.366176 0.563927 0.318400
O O5 0.006224 0.750000 0.535243
O O6 0.006038 0.843909 0.701411
O O7 0.917507 0.866910 0.513878
O O8 0.137991 0.473259 0.886124
O O9 0.146350 0.407911 0.684074
O O10 0.006131 0.407459 0.804388
O O11 0.141147 0.343551 0.894896
O O12 0.750000 0.068315 0.064705
O O13 0.583119 0.096212 0.116525
O O14 0.625480 0.041243 0.915557
O O15 0.079353 0.133028 0.102346
O O16 0.035686 0.031928 0.231650
O O17 0.250000 0.094972 0.503796
O O18 0.250000 0.142553 0.065721
O O19 0.152420 0.250000 0.058435
#
# Coordination Sequence:
#
# PCOD9452967 Si02
#       8
#     8   8   8   8   8   8   8   8
#     4  11  23  42  68  94 121 161 212 263 312 367
#     4  12  26  43  64  89 127 171 210 259 312 376
#     4  11  20  37  60  89 123 155 196 246 305 363
#     4  11  21  35  62  98 125 151 193 252 313 364
#     4  11  22  40  63  89 123 163 204 252 308 370
#     4  11  23  40  66  94 124 164 209 262 313 368
#     4  11  23  38  58  85 121 163 201 242 300 372
#     4  11  19  37  67  93 121 156 199 257 313 367
#
# _framework density 18.567399999999999
#
# number of rings (size 3 to 8) (size 9 to 14) (size 15 to 20)
#    0.000    0.875    5.000    4.500    0.000    3.500 
#    0.000    0.000    0.000    1.125    0.000    0.000 
#    0.000    0.000    0.000    0.000    0.000    0.000 
#
# Total GULP energy -357693.491687 kJ/mol
# GULP energy per Si atom -5588.960808 kJ/mol
# Density = 1.852514 g / cm^3
# Si number density = 18.567400 Si / 1000 Ang^3
#
#
#
# Elastic Constant Matrix: (Units=GPa)
#
#
# Indices 1 2 3 4 5 6 
#
# 1 142.8363 61.5107 32.7688 0.0000 0.0000 0.0000
# 2 61.5107 84.8650 24.7010 0.0000 0.0000 0.0000
# 3 32.7688 24.7010 99.5697 0.0000 0.0000 0.0000
# 4 0.0000 0.0000 0.0000 17.5710 0.0000 0.0000
# 5 0.0000 0.0000 0.0000 0.0000 8.8785 0.0000
# 6 0.0000 0.0000 0.0000 0.0000 0.0000 13.8678
#
#
#
# Elastic Compliance Matrix: (Units=1/GPa)
#
#
# Indices 1 2 3 4 5 6 
#
# 1 0.010432 -0.007072 -0.001679 0.000000 0.000000 0.000000
# 2 -0.007072 0.017495 -0.002013 0.000000 0.000000 0.000000
# 3 -0.001679 -0.002013 0.011095 0.000000 0.000000 0.000000
# 4 0.000000 0.000000 0.000000 0.056912 0.000000 0.000000
# 5 0.000000 0.000000 0.000000 0.000000 0.112632 0.000000
# 6 0.000000 0.000000 0.000000 0.000000 0.000000 0.072109
#
#
# Mechanical properties :
#
#
# Convention : Reuss Voigt Hill
#
# Bulk Modulus (GPa) = 57.16021 62.80355 59.98188
# Shear Modulus (GPa) = 16.23194 21.94948 19.09071
#
# Velocity S-wave (km/s) = 2.95992 3.44197 3.21001
# Velocity P-wave (km/s) = 6.52178 7.04942 6.79073
#
# Compressibility (1/GPa) = 0.01749469
#
# Stress axis : x y z
#
# Youngs Moduli (GPa) = 95.86088 57.15796 90.13110
#
# Poissons Ratio (x) = 0.40425 0.15130
# Poissons Ratio (y) = 0.67797 0.18140
# Poissons Ratio (z) = 0.16091 0.11504
#
# Static dielectric constant tensor:
#      x y z
#    x 1.652790 0.000000 0.000000 
#    y 0.000000 1.624410 0.000000 
#    z 0.000000 0.000000 1.632820 
# 
# From -- ./inp_files/17254.got.cif
#   From: 2010.05.17/outbox.cif.g08.bks.cpg/sg59_9_cif.got.tgz:17254.got - 2010.06.03 14:40:33.
