data_PCOD9452934
_publ_section_title
;
Structure prediction by ZEFSAII (Michael W. Deem and Ramdas Pophale) SiO2 
 PCOD9452934
Probable space group: P M M N
;
_chemical_formula_sum "Si O2"
_cell_formula_units_Z 32
_cell_length_a 8.687373
_cell_length_b 24.145791
_cell_length_c 7.876586
_cell_angle_alpha 90.000000
_cell_angle_beta 90.000000
_cell_angle_gamma 90.000000
_cell_volume 1652.220191
_symmetry_space_group_name_H-M "P M M N"
_symmetry_group_IT_number 59
_space_group.IT_coordinate_system_code '2'
_symmetry_cell_setting 'orthorhombic'
loop_
_space_group_symop_operation_xyz
x,y,z
1/2-x,1/2-y,z
1/2+x,-y,-z
-x,1/2+y,-z
-x,-y,-z
1/2+x,1/2+y,-z
1/2-x,y,z
x,1/2-y,z
loop_
_atom_site_type_symbol
_atom_site_label
_atom_site_fract_x
_atom_site_fract_y
_atom_site_fract_z
Si Si1 0.433038 0.116757 0.177967
Si Si2 0.065295 0.814822 0.511311
Si Si3 0.065411 0.886337 0.179452
Si Si4 0.065642 0.501315 0.691253
O O1 0.250000 0.111999 0.169274
O O2 0.482180 0.157164 0.329815
O O3 0.504939 0.056770 0.220125
O O4 0.500148 0.135708 0.997630
O O5 0.250000 0.820667 0.535351
O O6 0.029340 0.750000 0.497196
O O7 0.025361 0.847488 0.339086
O O8 0.250000 0.890731 0.170147
O O9 0.994521 0.946723 0.214476
O O10 0.250000 0.501775 0.686380
O O11 0.000000 0.500000 0.500000
#
# Coordination Sequence:
#
# PCOD9452934 Si02
#       4
#     8   8   8   8
#     4  12  25  41  64  95 131 169 209 260 316 376
#     4  10  23  44  68  92 122 165 216 266 316 373
#     4  11  23  41  66  95 129 168 211 261 314 377
#     4  12  23  39  64  95 130 167 207 257 316 381
#
# _framework density 19.36788
#
# number of rings (size 3 to 8) (size 9 to 14) (size 15 to 20)
#    0.000    0.750    2.500    6.000    0.000    2.500 
#    0.000    2.500    0.000    0.000    0.000    0.000 
#    0.000    0.000    0.000    0.000    0.000    0.000 
#
# Total GULP energy -179136.128617 kJ/mol
# GULP energy per Si atom -5598.004019 kJ/mol
# Density = 1.932380 g / cm^3
# Si number density = 19.367880 Si / 1000 Ang^3
#
#
#
# Elastic Constant Matrix: (Units=GPa)
#
#
# Indices 1 2 3 4 5 6 
#
# 1 106.8361 42.6164 51.2399 0.0000 0.0000 0.0000
# 2 42.6164 91.9374 27.9834 0.0000 0.0000 0.0000
# 3 51.2399 27.9834 137.3582 0.0000 0.0000 0.0000
# 4 0.0000 0.0000 0.0000 -9.9017 0.0000 0.0000
# 5 0.0000 0.0000 0.0000 0.0000 35.6133 0.0000
# 6 0.0000 0.0000 0.0000 0.0000 0.0000 26.8481
#
#
#
# Elastic Compliance Matrix: (Units=1/GPa)
#
#
# Indices 1 2 3 4 5 6 
#
# 1 0.013207 -0.004928 -0.003923 0.000000 0.000000 0.000000
# 2 -0.004928 0.013435 -0.000899 0.000000 0.000000 0.000000
# 3 -0.003923 -0.000899 0.008927 0.000000 0.000000 0.000000
# 4 0.000000 0.000000 0.000000 -0.100993 0.000000 0.000000
# 5 0.000000 0.000000 0.000000 0.000000 0.028079 0.000000
# 6 0.000000 0.000000 0.000000 0.000000 0.000000 0.037247
#
#
# Mechanical properties :
#
#
# Convention : Reuss Voigt Hill
#
# Bulk Modulus (GPa) = 62.22903 64.42346 63.32624
# Shear Modulus (GPa) = 201.95408 24.79806 113.37607
#
# Velocity S-wave (km/s) = 10.22248 3.58211 7.65933
# Velocity P-wave (km/s) = 13.09702 7.10239 10.53508
#
# Compressibility (1/GPa) = 0.01606967
#
# Stress axis : x y z
#
# Youngs Moduli (GPa) = 75.71518 74.43332 112.02342
#
# Poissons Ratio (x) = 0.36681 0.43946
# Poissons Ratio (y) = 0.37313 0.10067
# Poissons Ratio (z) = 0.29702 0.06689
#
# Static dielectric constant tensor:
#      x y z
#    x 1.683200 0.000000 0.000000 
#    y 0.000000 1.648240 0.000000 
#    z 0.000000 0.000000 1.679770 
# 
# From -- ./inp_files/5339.got.cif
#   From: 2010.05.17/outbox.cif.g08.bks.cpg/sg59_3_cif.got.tgz:5339.got - 2010.06.03 14:40:33.
