data_PCOD9452296
_publ_section_title
;
Structure prediction by ZEFSAII (Michael W. Deem and Ramdas Pophale) SiO2 
 PCOD9452296
Probable space group: P M M N
;
_chemical_formula_sum "Si O2"
_cell_formula_units_Z 40
_cell_length_a 9.224082
_cell_length_b 17.829226
_cell_length_c 13.020309
_cell_angle_alpha 90.000000
_cell_angle_beta 90.000000
_cell_angle_gamma 90.000000
_cell_volume 2141.297137
_symmetry_space_group_name_H-M "P M M N"
_symmetry_group_IT_number 59
_space_group.IT_coordinate_system_code '2'
_symmetry_cell_setting 'orthorhombic'
loop_
_space_group_symop_operation_xyz
x,y,z
1/2-x,1/2-y,z
1/2+x,-y,-z
-x,1/2+y,-z
-x,-y,-z
1/2+x,1/2+y,-z
1/2-x,y,z
x,1/2-y,z
loop_
_atom_site_type_symbol
_atom_site_label
_atom_site_fract_x
_atom_site_fract_y
_atom_site_fract_z
Si Si1 0.076984 0.837403 0.498809
Si Si2 0.079239 0.902818 0.718809
Si Si3 0.421154 0.420308 0.684130
Si Si4 0.579318 0.340071 0.872744
Si Si5 0.580353 0.659857 0.916297
O O1 0.250000 0.850391 0.486531
O O2 0.048343 0.750000 0.477152
O O3 0.040261 0.856689 0.616456
O O4 0.990568 0.888920 0.420050
O O5 0.250000 0.889251 0.740483
O O6 0.986893 0.878632 0.816561
O O7 0.060287 0.990424 0.693795
O O8 0.250000 0.403714 0.686708
O O9 0.500406 0.380588 0.779160
O O10 0.750000 0.357543 0.873506
O O11 0.563794 0.250000 0.860863
O O12 0.505877 0.361554 0.980674
O O13 0.750000 0.641917 0.927660
O O14 0.566517 0.750000 0.904562
#
# Coordination Sequence:
#
# PCOD9452296 Si02
#       5
#     8   8   8   8   8
#     4  10  21  38  60  83 109 146 190 231 275 333
#     4  10  22  39  58  82 114 152 189 225 274 336
#     4  11  23  37  56  84 116 148 185 232 282 329
#     4  10  21  38  60  83 110 149 192 230 275 334
#     4  10  21  37  59  87 115 144 184 234 282 327
#
# _framework density 18.680264999999999
#
# number of rings (size 3 to 8) (size 9 to 14) (size 15 to 20)
#    0.000    1.800    0.000    3.600    0.000    9.200 
#    0.000    0.000    0.000    0.000    0.000    0.000 
#    0.000    0.000    0.000    0.000    0.000    0.000 
#
# Total GULP energy -223604.347079 kJ/mol
# GULP energy per Si atom -5590.108677 kJ/mol
# Density = 1.863775 g / cm^3
# Si number density = 18.680265 Si / 1000 Ang^3
#
#
#
# Elastic Constant Matrix: (Units=GPa)
#
#
# Indices 1 2 3 4 5 6 
#
# 1 62.6005 27.0434 23.8944 0.0000 0.0000 0.0000
# 2 27.0434 16.6376 6.0963 0.0000 0.0000 0.0000
# 3 23.8944 6.0963 59.3751 0.0000 0.0000 0.0000
# 4 0.0000 0.0000 0.0000 -169.5582 0.0000 0.0000
# 5 0.0000 0.0000 0.0000 0.0000 33.6979 0.0000
# 6 0.0000 0.0000 0.0000 0.0000 0.0000 27.5768
#
#
#
# Elastic Compliance Matrix: (Units=1/GPa)
#
#
# Indices 1 2 3 4 5 6 
#
# 1 0.065701 -0.100900 -0.016080 0.000000 0.000000 0.000000
# 2 -0.100900 0.217413 0.018283 0.000000 0.000000 0.000000
# 3 -0.016080 0.018283 0.021436 0.000000 0.000000 0.000000
# 4 0.000000 0.000000 0.000000 -0.005898 0.000000 0.000000
# 5 0.000000 0.000000 0.000000 0.000000 0.029675 0.000000
# 6 0.000000 0.000000 0.000000 0.000000 0.000000 0.036262
#
#
# Mechanical properties :
#
#
# Convention : Reuss Voigt Hill
#
# Bulk Modulus (GPa) = 9.33238 28.07571 18.70405
# Shear Modulus (GPa) = 8.36535 -16.21809 -3.92637
#
# Velocity S-wave (km/s) = 2.11847 -2.94971 -1.45136
# Velocity P-wave (km/s) = 3.31520 1.86043 2.68810
#
# Compressibility (1/GPa) = 0.10715378
#
# Stress axis : x y z
#
# Youngs Moduli (GPa) = 15.22049 4.59954 46.65042
#
# Poissons Ratio (x) = 0.46410 0.75014
# Poissons Ratio (y) = 1.53575 -0.85289
# Poissons Ratio (z) = 0.24475 -0.08409
#
# Static dielectric constant tensor:
#      x y z
#    x 1.622900 0.000000 0.000000 
#    y 0.000000 1.631300 0.000000 
#    z 0.000000 0.000000 1.605150 
# 
# From -- ./inp_files/13821.got.cif
#   From: 2010.05.17/outbox.cif.g08.bks.cpg/sg59_7_cif.got.tgz:13821.got - 2010.06.03 14:40:33.
