data_PCOD9452315
_publ_section_title
;
Structure prediction by ZEFSAII (Michael W. Deem and Ramdas Pophale) SiO2 
 PCOD9452315
Probable space group: P M M N
;
_chemical_formula_sum "Si O2"
_cell_formula_units_Z 48
_cell_length_a 7.815218
_cell_length_b 28.508496
_cell_length_c 10.089001
_cell_angle_alpha 90.000000
_cell_angle_beta 90.000000
_cell_angle_gamma 90.000000
_cell_volume 2247.830544
_symmetry_space_group_name_H-M "P M M N"
_symmetry_group_IT_number 59
_space_group.IT_coordinate_system_code '2'
_symmetry_cell_setting 'orthorhombic'
loop_
_space_group_symop_operation_xyz
x,y,z
1/2-x,1/2-y,z
1/2+x,-y,-z
-x,1/2+y,-z
-x,-y,-z
1/2+x,1/2+y,-z
1/2-x,y,z
x,1/2-y,z
loop_
_atom_site_type_symbol
_atom_site_label
_atom_site_fract_x
_atom_site_fract_y
_atom_site_fract_z
Si Si1 0.454327 0.457619 0.902104
Si Si2 0.456436 0.042861 0.596641
Si Si3 0.956170 0.195742 0.690072
Si Si4 0.951722 0.802943 0.779785
Si Si5 0.548404 0.146834 0.956009
Si Si6 0.447141 0.364287 0.451781
O O1 0.250000 0.455014 0.895788
O O2 0.518592 0.462597 0.749141
O O3 0.518680 0.408575 0.962103
O O4 0.500000 0.500000 0.000000
O O5 0.250000 0.046273 0.605350
O O6 0.523160 0.090226 0.525121
O O7 0.500000 0.000000 0.500000
O O8 0.750000 0.190537 0.674327
O O9 0.992077 0.250000 0.715532
O O10 0.015106 0.164731 0.813782
O O11 0.044194 0.177098 0.558703
O O12 0.750000 0.799628 0.747255
O O13 0.023087 0.750000 0.768936
O O14 0.027738 0.841730 0.679589
O O15 0.967479 0.823520 0.926314
O O16 0.750000 0.156490 0.961332
O O17 0.250000 0.377037 0.420889
#
# Coordination Sequence:
#
# PCOD9452315 Si02
#       6
#     8   8   8   8   8   8
#     4  11  24  43  65  93 124 158 202 250 305 367
#     4  10  23  41  63  91 123 157 200 247 302 363
#     4  10  21  37  59  88 120 156 198 245 298 355
#     4  10  22  39  60  89 124 163 206 251 303 360
#     4  11  23  40  62  89 123 162 203 251 302 358
#     4  10  21  40  62  88 120 157 200 250 301 358
#
# _framework density 21.353923000000002
#
# number of rings (size 3 to 8) (size 9 to 14) (size 15 to 20)
#    0.000    1.667    1.667    2.000    2.333    5.333 
#    0.000    0.000    0.000    0.000    0.000    0.000 
#    0.000    0.000    0.000    0.000    0.000    0.000 
#
# Total GULP energy -268114.161589 kJ/mol
# GULP energy per Si atom -5585.711700 kJ/mol
# Density = 2.130532 g / cm^3
# Si number density = 21.353923 Si / 1000 Ang^3
#
#
#
# Elastic Constant Matrix: (Units=GPa)
#
#
# Indices 1 2 3 4 5 6 
#
# 1 29.2570 -5.7387 -2.4832 0.0000 0.0000 0.0000
# 2 -5.7387 90.8794 8.3120 0.0000 0.0000 0.0000
# 3 -2.4832 8.3120 80.2132 0.0000 0.0000 0.0000
# 4 0.0000 0.0000 0.0000 37.4951 0.0000 0.0000
# 5 0.0000 0.0000 0.0000 0.0000 16.6526 0.0000
# 6 0.0000 0.0000 0.0000 0.0000 0.0000 278.1806
#
#
#
# Elastic Compliance Matrix: (Units=1/GPa)
#
#
# Indices 1 2 3 4 5 6 
#
# 1 0.034666 0.002111 0.000854 0.000000 0.000000 0.000000
# 2 0.002111 0.011237 -0.001099 0.000000 0.000000 0.000000
# 3 0.000854 -0.001099 0.012607 0.000000 0.000000 0.000000
# 4 0.000000 0.000000 0.000000 0.026670 0.000000 0.000000
# 5 0.000000 0.000000 0.000000 0.000000 0.060051 0.000000
# 6 0.000000 0.000000 0.000000 0.000000 0.000000 0.003595
#
#
# Mechanical properties :
#
#
# Convention : Reuss Voigt Hill
#
# Bulk Modulus (GPa) = 16.06597 22.28110 19.17354
# Shear Modulus (GPa) = 30.14923 79.81631 54.98277
#
# Velocity S-wave (km/s) = 3.76158 6.12037 5.07979
# Velocity P-wave (km/s) = 5.13867 7.77188 6.58817
#
# Compressibility (1/GPa) = 0.06224336
#
# Stress axis : x y z
#
# Youngs Moduli (GPa) = 28.84637 88.98843 79.32027
#
# Poissons Ratio (x) = -0.18784 -0.06777
# Poissons Ratio (y) = -0.06089 0.08718
# Poissons Ratio (z) = -0.02465 0.09781
#
# Static dielectric constant tensor:
#      x y z
#    x 1.797940 0.000000 0.000000 
#    y 0.000000 1.757980 0.000000 
#    z 0.000000 0.000000 1.755620 
# 
# From -- ./inp_files/6287.got.cif
#   From: 2010.05.17/outbox.cif.g08.bks.cpg/sg59_4_cif.got.tgz:6287.got - 2010.06.03 14:40:33.
