data_PCOD9452397
_publ_section_title
;
Structure prediction by ZEFSAII (Michael W. Deem and Ramdas Pophale) SiO2 
 PCOD9452397
Probable space group: P M M N
;
_chemical_formula_sum "Si O2"
_cell_formula_units_Z 32
_cell_length_a 8.571374
_cell_length_b 29.381375
_cell_length_c 5.198666
_cell_angle_alpha 90.000000
_cell_angle_beta 90.000000
_cell_angle_gamma 90.000000
_cell_volume 1309.225567
_symmetry_space_group_name_H-M "P M M N"
_symmetry_group_IT_number 59
_space_group.IT_coordinate_system_code '2'
_symmetry_cell_setting 'orthorhombic'
loop_
_space_group_symop_operation_xyz
x,y,z
1/2-x,1/2-y,z
1/2+x,-y,-z
-x,1/2+y,-z
-x,-y,-z
1/2+x,1/2+y,-z
1/2-x,y,z
x,1/2-y,z
loop_
_atom_site_type_symbol
_atom_site_label
_atom_site_fract_x
_atom_site_fract_y
_atom_site_fract_z
Si Si1 0.250000 0.112320 0.792354
Si Si2 0.250000 0.171790 0.303135
Si Si3 0.076764 0.899569 0.098959
Si Si4 0.922861 0.200121 0.099904
Si Si5 0.570414 0.022868 0.252147
O O1 0.250000 0.132077 0.083574
O O2 0.416418 0.087880 0.757916
O O3 0.250000 0.152472 0.587688
O O4 0.415912 0.196657 0.258694
O O5 0.250000 0.913724 0.197760
O O6 0.075707 0.844949 0.075967
O O7 0.060056 0.923239 0.817572
O O8 0.750000 0.197597 0.232966
O O9 0.926872 0.250000 0.970695
O O10 0.750000 0.012346 0.260917
O O11 0.500000 0.000000 0.500000
O O12 0.500000 0.000000 0.000000
#
# Coordination Sequence:
#
# PCOD9452397 Si02
#       5
#     4   4   8   8   8
#     4  10  22  38  65  90 122 170 210 262 323 382
#     4  10  21  38  58  92 126 164 212 262 314 378
#     4   9  21  41  65  98 134 171 223 275 333 397
#     4   9  18  37  65  94 130 172 216 268 329 395
#     4  11  25  44  69 100 137 180 228 290 347 413
#
# _framework density 24.441931
#
# number of rings (size 3 to 8) (size 9 to 14) (size 15 to 20)
#    0.000    2.250    0.000    1.125    3.500    5.000 
#    0.000   17.500    0.000   12.000    0.000    0.000 
#    0.000    0.000    0.000    0.000    0.000    0.000 
#
# Total GULP energy -178428.658757 kJ/mol
# GULP energy per Si atom -5575.895586 kJ/mol
# Density = 2.438630 g / cm^3
# Si number density = 24.441931 Si / 1000 Ang^3
#
#
#
# Elastic Constant Matrix: (Units=GPa)
#
#
# Indices 1 2 3 4 5 6 
#
# 1 264.2860 30.3362 32.1596 0.0000 0.0000 0.0000
# 2 30.3362 128.5138 24.9628 0.0000 0.0000 0.0000
# 3 32.1596 24.9628 64.9365 0.0000 0.0000 0.0000
# 4 0.0000 0.0000 0.0000 17.0973 0.0000 0.0000
# 5 0.0000 0.0000 0.0000 0.0000 24.6202 0.0000
# 6 0.0000 0.0000 0.0000 0.0000 0.0000 37.4568
#
#
#
# Elastic Compliance Matrix: (Units=1/GPa)
#
#
# Indices 1 2 3 4 5 6 
#
# 1 0.004071 -0.000615 -0.001780 0.000000 0.000000 0.000000
# 2 -0.000615 0.008502 -0.002964 0.000000 0.000000 0.000000
# 3 -0.001780 -0.002964 0.017420 0.000000 0.000000 0.000000
# 4 0.000000 0.000000 0.000000 0.058489 0.000000 0.000000
# 5 0.000000 0.000000 0.000000 0.000000 0.040617 0.000000
# 6 0.000000 0.000000 0.000000 0.000000 0.000000 0.026697
#
#
# Mechanical properties :
#
#
# Convention : Reuss Voigt Hill
#
# Bulk Modulus (GPa) = 51.87718 70.29483 61.08601
# Shear Modulus (GPa) = 28.91190 40.52004 34.71597
#
# Velocity S-wave (km/s) = 3.44303 4.07604 3.77283
# Velocity P-wave (km/s) = 6.08907 7.13964 6.63518
#
# Compressibility (1/GPa) = 0.01927630
#
# Stress axis : x y z
#
# Youngs Moduli (GPa) = 245.64257 117.61696 57.40435
#
# Poissons Ratio (x) = 0.07237 0.10216
# Poissons Ratio (y) = 0.15114 0.17013
# Poissons Ratio (z) = 0.43714 0.34858
#
# Static dielectric constant tensor:
#      x y z
#    x 1.990520 0.000000 0.000000 
#    y 0.000000 2.015600 0.000000 
#    z 0.000000 0.000000 1.885860 
# 
# From -- ./inp_files/655.got.cif
#   From: 2010.05.17/outbox.cif.g08.bks.cpg/sg59_1_cif.got.tgz:655.got - 2010.06.03 14:40:33.
