data_PCOD9452582
_publ_section_title
;
Structure prediction by ZEFSAII (Michael W. Deem and Ramdas Pophale) SiO2 
 PCOD9452582
Probable space group: P M M N
;
_chemical_formula_sum "Si O2"
_cell_formula_units_Z 64
_cell_length_a 14.852470
_cell_length_b 9.060648
_cell_length_c 24.746337
_cell_angle_alpha 90.000000
_cell_angle_beta 90.000000
_cell_angle_gamma 90.000000
_cell_volume 3330.188873
_symmetry_space_group_name_H-M "P M M N"
_symmetry_group_IT_number 59
_space_group.IT_coordinate_system_code '2'
_symmetry_cell_setting 'orthorhombic'
loop_
_space_group_symop_operation_xyz
x,y,z
1/2-x,1/2-y,z
1/2+x,-y,-z
-x,1/2+y,-z
-x,-y,-z
1/2+x,1/2+y,-z
1/2-x,y,z
x,1/2-y,z
loop_
_atom_site_type_symbol
_atom_site_label
_atom_site_fract_x
_atom_site_fract_y
_atom_site_fract_z
Si Si1 0.520049 0.926669 0.705214
Si Si2 0.595484 0.075047 0.008214
Si Si3 0.857578 0.915520 0.116727
Si Si4 0.513876 0.927059 0.581052
Si Si5 0.644984 0.928036 0.483319
Si Si6 0.353960 0.085925 0.097817
Si Si7 0.644486 0.572190 0.238310
Si Si8 0.140838 0.577337 0.204744
O O1 0.521611 0.750000 0.711000
O O2 0.536869 0.964883 0.642636
O O3 0.422655 0.989753 0.722046
O O4 0.592649 0.997617 0.745535
O O5 0.595840 0.250000 0.003787
O O6 0.647082 0.003042 0.957932
O O7 0.500000 0.000000 0.000000
O O8 0.624887 0.024124 0.067541
O O9 0.750000 0.902007 0.121017
O O10 0.893739 0.750000 0.104540
O O11 0.885905 0.962649 0.176661
O O12 0.501940 0.750000 0.577740
O O13 0.594589 0.966840 0.539749
O O14 0.421294 0.002706 0.561437
O O15 0.750000 0.974575 0.481116
O O16 0.643610 0.750000 0.478316
O O17 0.250000 0.105276 0.112298
O O18 0.395025 0.250000 0.091129
O O19 0.392249 0.995373 0.148295
O O20 0.750000 0.533152 0.245243
O O21 0.637642 0.750000 0.244076
O O22 0.250000 0.566192 0.208808
O O23 0.117605 0.750000 0.204414
#
# Coordination Sequence:
#
# PCOD9452582 Si02
#       8
#     8   8   8   8   8   8   8   8
#     4  11  23  37  58  86 120 159 195 239 289 340
#     4  12  25  37  53  79 110 142 179 227 282 344
#     4   9  19  38  60  79 103 137 178 228 287 347
#     4   9  20  37  55  83 120 156 194 235 285 341
#     4   9  18  35  60  86 114 152 196 241 286 335
#     4  10  21  39  61  82 107 140 180 229 286 348
#     4   9  20  39  61  83 111 151 196 241 292 347
#     4  10  22  40  61  85 114 151 195 241 290 346
#
# _framework density 19.218129000000001
#
# number of rings (size 3 to 8) (size 9 to 14) (size 15 to 20)
#    0.000    2.125    0.000    3.375    1.750    6.250 
#    0.000    5.000    0.000    0.000    0.000    0.000 
#    0.000    0.000    0.000    0.000    0.000    0.000 
#
# Total GULP energy -357082.866679 kJ/mol
# GULP energy per Si atom -5579.419792 kJ/mol
# Density = 1.917439 g / cm^3
# Si number density = 19.218129 Si / 1000 Ang^3
#
#
#
# Elastic Constant Matrix: (Units=GPa)
#
#
# Indices 1 2 3 4 5 6 
#
# 1 46.9444 11.8803 -12.4000 0.0000 0.0000 0.0000
# 2 11.8803 80.3316 39.4995 0.0000 0.0000 0.0000
# 3 -12.4000 39.4995 62.8729 0.0000 0.0000 0.0000
# 4 0.0000 0.0000 0.0000 27.1467 0.0000 0.0000
# 5 0.0000 0.0000 0.0000 0.0000 22.8343 0.0000
# 6 0.0000 0.0000 0.0000 0.0000 0.0000 27.6724
#
#
#
# Elastic Compliance Matrix: (Units=1/GPa)
#
#
# Indices 1 2 3 4 5 6 
#
# 1 0.026646 -0.009441 0.011187 0.000000 0.000000 0.000000
# 2 -0.009441 0.021358 -0.015280 0.000000 0.000000 0.000000
# 3 0.011187 -0.015280 0.027711 0.000000 0.000000 0.000000
# 4 0.000000 0.000000 0.000000 0.036837 0.000000 0.000000
# 5 0.000000 0.000000 0.000000 0.000000 0.043794 0.000000
# 6 0.000000 0.000000 0.000000 0.000000 0.000000 0.036137
#
#
# Mechanical properties :
#
#
# Convention : Reuss Voigt Hill
#
# Bulk Modulus (GPa) = 20.55691 29.78984 25.17337
# Shear Modulus (GPa) = 21.20739 25.60862 23.40800
#
# Velocity S-wave (km/s) = 3.32552 3.65434 3.49380
# Velocity P-wave (km/s) = 5.04631 5.77409 5.42242
#
# Compressibility (1/GPa) = 0.04864545
#
# Stress axis : x y z
#
# Youngs Moduli (GPa) = 37.52926 46.82101 36.08686
#
# Poissons Ratio (x) = 0.44204 -0.40369
# Poissons Ratio (y) = 0.35432 0.55141
# Poissons Ratio (z) = -0.41982 0.71543
#
# Static dielectric constant tensor:
#      x y z
#    x 1.653600 0.000000 0.000000 
#    y 0.000000 1.668590 0.000000 
#    z 0.000000 0.000000 1.770820 
# 
# From -- ./inp_files/32131.got.cif
#   From: 2010.05.17/outbox.cif.g08.bks.cpg/sg59_17_cif.got.tgz:32131.got - 2010.06.03 14:40:33.
