data_PCOD9452400
_publ_section_title
;
Structure prediction by ZEFSAII (Michael W. Deem and Ramdas Pophale) SiO2 
 PCOD9452400
Probable space group: P M M N
;
_chemical_formula_sum "Si O2"
_cell_formula_units_Z 48
_cell_length_a 8.074593
_cell_length_b 15.200739
_cell_length_c 18.688780
_cell_angle_alpha 90.000000
_cell_angle_beta 90.000000
_cell_angle_gamma 90.000000
_cell_volume 2293.856759
_symmetry_space_group_name_H-M "P M M N"
_symmetry_group_IT_number 59
_space_group.IT_coordinate_system_code '2'
_symmetry_cell_setting 'orthorhombic'
loop_
_space_group_symop_operation_xyz
x,y,z
1/2-x,1/2-y,z
1/2+x,-y,-z
-x,1/2+y,-z
-x,-y,-z
1/2+x,1/2+y,-z
1/2-x,y,z
x,1/2-y,z
loop_
_atom_site_type_symbol
_atom_site_label
_atom_site_fract_x
_atom_site_fract_y
_atom_site_fract_z
Si Si1 0.942076 0.349817 0.378971
Si Si2 0.449733 0.648313 0.047428
Si Si3 0.447763 0.348468 0.113063
Si Si4 0.058537 0.150045 0.536307
Si Si5 0.453392 0.973865 0.178177
Si Si6 0.057709 0.533774 0.334769
O O1 0.750000 0.354660 0.357848
O O2 0.003043 0.250000 0.365528
O O3 0.954631 0.365285 0.464587
O O4 0.039300 0.428726 0.342385
O O5 0.250000 0.642581 0.043079
O O6 0.493961 0.750000 0.061613
O O7 0.505908 0.586630 0.112006
O O8 0.519519 0.625557 0.969430
O O9 0.250000 0.343880 0.122684
O O10 0.516534 0.250000 0.124668
O O11 0.510590 0.426604 0.162898
O O12 0.250000 0.145389 0.513667
O O13 0.024234 0.250000 0.561403
O O14 0.029261 0.081800 0.599485
O O15 0.250000 0.973956 0.179051
O O16 0.507288 0.941697 0.256141
O O17 0.250000 0.558030 0.339456
#
# Coordination Sequence:
#
# PCOD9452400 Si02
#       6
#     8   8   8   8   8   8
#     4  10  21  38  59  81 106 138 177 220 264 312
#     4   9  17  31  51  73  97 127 166 210 252 297
#     4   9  17  31  51  73  97 127 166 210 252 297
#     4  10  21  38  59  81 106 138 177 220 264 312
#     4   9  19  33  49  72 101 135 170 203 248 306
#     4  11  22  35  54  80 110 143 178 217 262 314
#
# _framework density 20.925456000000001
#
# number of rings (size 3 to 8) (size 9 to 14) (size 15 to 20)
#    0.000    2.333    0.000    2.500    0.000    3.333 
#    0.000    6.667    0.000    4.000    0.000    0.000 
#    0.000    0.000    0.000    0.000    0.000    0.000 
#
# Total GULP energy -268017.543046 kJ/mol
# GULP energy per Si atom -5583.698813 kJ/mol
# Density = 2.087783 g / cm^3
# Si number density = 20.925456 Si / 1000 Ang^3
#
#
#
# Elastic Constant Matrix: (Units=GPa)
#
#
# Indices 1 2 3 4 5 6 
#
# 1 20.5806 -0.9927 -7.5913 0.0000 0.0000 0.0000
# 2 -0.9927 39.6181 6.5371 0.0000 0.0000 0.0000
# 3 -7.5913 6.5371 13.4828 0.0000 0.0000 0.0000
# 4 0.0000 0.0000 0.0000 1.6927 0.0000 0.0000
# 5 0.0000 0.0000 0.0000 0.0000 16.2583 0.0000
# 6 0.0000 0.0000 0.0000 0.0000 0.0000 12.5471
#
#
#
# Elastic Compliance Matrix: (Units=1/GPa)
#
#
# Indices 1 2 3 4 5 6 
#
# 1 0.062081 -0.004578 0.037174 0.000000 0.000000 0.000000
# 2 -0.004578 0.027774 -0.016044 0.000000 0.000000 0.000000
# 3 0.037174 -0.016044 0.102878 0.000000 0.000000 0.000000
# 4 0.000000 0.000000 0.000000 0.590786 0.000000 0.000000
# 5 0.000000 0.000000 0.000000 0.000000 0.061507 0.000000
# 6 0.000000 0.000000 0.000000 0.000000 0.000000 0.079699
#
#
# Mechanical properties :
#
#
# Convention : Reuss Voigt Hill
#
# Bulk Modulus (GPa) = 4.42801 7.73195 6.07998
# Shear Modulus (GPa) = 5.17117 11.14818 8.15967
#
# Velocity S-wave (km/s) = 1.57372 2.31066 1.97683
# Velocity P-wave (km/s) = 2.32869 3.28966 2.84997
#
# Compressibility (1/GPa) = 0.22583513
#
# Stress axis : x y z
#
# Youngs Moduli (GPa) = 16.10810 36.00554 9.72029
#
# Poissons Ratio (x) = 0.16484 -0.36134
# Poissons Ratio (y) = 0.07375 0.15595
# Poissons Ratio (z) = -0.59880 0.57766
#
# Static dielectric constant tensor:
#      x y z
#    x 1.728280 0.000000 0.000000 
#    y 0.000000 1.760250 0.000000 
#    z 0.000000 0.000000 1.726970 
# 
# From -- ./inp_files/25416.got.cif
#   From: 2010.05.17/outbox.cif.g08.bks.cpg/sg59_13_cif.got.tgz:25416.got - 2010.06.03 14:40:33.
