data_PCOD9452536
_publ_section_title
;
Structure prediction by ZEFSAII (Michael W. Deem and Ramdas Pophale) SiO2 
 PCOD9452536
Probable space group: P M M N
;
_chemical_formula_sum "Si O2"
_cell_formula_units_Z 40
_cell_length_a 16.290345
_cell_length_b 8.892473
_cell_length_c 13.931314
_cell_angle_alpha 90.000000
_cell_angle_beta 90.000000
_cell_angle_gamma 90.000000
_cell_volume 2018.110389
_symmetry_space_group_name_H-M "P M M N"
_symmetry_group_IT_number 59
_space_group.IT_coordinate_system_code '2'
_symmetry_cell_setting 'orthorhombic'
loop_
_space_group_symop_operation_xyz
x,y,z
1/2-x,1/2-y,z
1/2+x,-y,-z
-x,1/2+y,-z
-x,-y,-z
1/2+x,1/2+y,-z
1/2-x,y,z
x,1/2-y,z
loop_
_atom_site_type_symbol
_atom_site_label
_atom_site_fract_x
_atom_site_fract_y
_atom_site_fract_z
Si Si1 0.750000 0.573393 0.965594
Si Si2 0.924587 0.570764 0.256363
Si Si3 0.917685 0.429943 0.047920
Si Si4 0.250000 0.424595 0.264372
Si Si5 0.156819 0.069823 0.549979
Si Si6 0.095117 0.572470 0.365914
O O1 0.750000 0.750000 0.993861
O O2 0.750000 0.565038 0.850333
O O3 0.833531 0.495839 0.003005
O O4 0.916367 0.750000 0.235097
O O5 0.917494 0.477991 0.159402
O O6 0.860758 0.528553 0.340006
O O7 0.012106 0.545912 0.307306
O O8 0.919707 0.250000 0.036687
O O9 0.000000 0.500000 0.000000
O O10 0.250000 0.250000 0.293098
O O11 0.169684 0.501179 0.307224
O O12 0.250000 0.029540 0.523793
O O13 0.147512 0.250000 0.544376
O O14 0.097565 0.996674 0.472140
O O15 0.106692 0.750000 0.374349
#
# Coordination Sequence:
#
# PCOD9452536 Si02
#       6
#     4   8   8   4   8   8
#     4  11  25  45  70  97 130 173 219 276 338 395
#     4  10  23  41  63  92 127 168 211 259 320 381
#     4  12  26  45  69 100 134 173 222 276 332 395
#     4  11  23  39  62  89 118 159 211 258 314 379
#     4  10  21  38  61  90 126 167 207 252 311 380
#     4  11  22  37  60  91 126 163 206 260 314 371
#
# _framework density 19.820520999999999
#
# number of rings (size 3 to 8) (size 9 to 14) (size 15 to 20)
#    0.000    1.200    1.000    4.800    1.400    7.200 
#    0.000    0.000    0.000    0.000    0.000    0.000 
#    0.000    0.000    0.000    0.000    0.000    0.000 
#
# Total GULP energy -223704.893908 kJ/mol
# GULP energy per Si atom -5592.622348 kJ/mol
# Density = 1.977541 g / cm^3
# Si number density = 19.820521 Si / 1000 Ang^3
#
#
#
# Elastic Constant Matrix: (Units=GPa)
#
#
# Indices 1 2 3 4 5 6 
#
# 1 108.7015 70.4002 43.4993 0.0000 0.0000 0.0000
# 2 70.4002 71.6124 47.5170 0.0000 0.0000 0.0000
# 3 43.4993 47.5170 108.8273 0.0000 0.0000 0.0000
# 4 0.0000 0.0000 0.0000 37.3554 0.0000 0.0000
# 5 0.0000 0.0000 0.0000 0.0000 15.8910 0.0000
# 6 0.0000 0.0000 0.0000 0.0000 0.0000 28.2888
#
#
#
# Elastic Compliance Matrix: (Units=1/GPa)
#
#
# Indices 1 2 3 4 5 6 
#
# 1 0.025407 -0.025678 0.001056 0.000000 0.000000 0.000000
# 2 -0.025678 0.045611 -0.009651 0.000000 0.000000 0.000000
# 3 0.001056 -0.009651 0.012981 0.000000 0.000000 0.000000
# 4 0.000000 0.000000 0.000000 0.026770 0.000000 0.000000
# 5 0.000000 0.000000 0.000000 0.000000 0.062929 0.000000
# 6 0.000000 0.000000 0.000000 0.000000 0.000000 0.035350
#
#
# Mechanical properties :
#
#
# Convention : Reuss Voigt Hill
#
# Bulk Modulus (GPa) = 64.71255 67.99715 66.35485
# Shear Modulus (GPa) = 17.68386 24.82203 21.25295
#
# Velocity S-wave (km/s) = 2.99021 3.54268 3.27811
# Velocity P-wave (km/s) = 6.68146 7.14948 6.91943
#
# Compressibility (1/GPa) = 0.01545295
#
# Stress axis : x y z
#
# Youngs Moduli (GPa) = 39.35937 21.92448 77.03689
#
# Poissons Ratio (x) = 0.56297 -0.08137
# Poissons Ratio (y) = 1.01066 0.74352
# Poissons Ratio (z) = -0.04157 0.21160
#
# Static dielectric constant tensor:
#      x y z
#    x 1.696310 0.000000 0.000000 
#    y 0.000000 1.682720 0.000000 
#    z 0.000000 0.000000 1.678280 
# 
# From -- ./inp_files/23014.got.cif
#   From: 2010.05.17/outbox.cif.g08.bks.cpg/sg59_12_cif.got.tgz:23014.got - 2010.06.03 14:40:33.
