data_PCOD9452516
_publ_section_title
;
Structure prediction by ZEFSAII (Michael W. Deem and Ramdas Pophale) SiO2 
 PCOD9452516
Probable space group: P M M N
;
_chemical_formula_sum "Si O2"
_cell_formula_units_Z 64
_cell_length_a 18.091317
_cell_length_b 13.706751
_cell_length_c 13.329403
_cell_angle_alpha 90.000000
_cell_angle_beta 90.000000
_cell_angle_gamma 90.000000
_cell_volume 3305.334415
_symmetry_space_group_name_H-M "P M M N"
_symmetry_group_IT_number 59
_space_group.IT_coordinate_system_code '2'
_symmetry_cell_setting 'orthorhombic'
loop_
_space_group_symop_operation_xyz
x,y,z
1/2-x,1/2-y,z
1/2+x,-y,-z
-x,1/2+y,-z
-x,-y,-z
1/2+x,1/2+y,-z
1/2-x,y,z
x,1/2-y,z
loop_
_atom_site_type_symbol
_atom_site_label
_atom_site_fract_x
_atom_site_fract_y
_atom_site_fract_z
Si Si1 0.108045 0.134142 0.342967
Si Si2 0.338761 0.363889 0.118613
Si Si3 0.832012 0.141348 0.198174
Si Si4 0.061737 0.636540 0.613085
Si Si5 0.168093 0.866794 0.237511
Si Si6 0.166634 0.962450 0.455010
Si Si7 0.903034 0.996674 0.058745
Si Si8 0.971112 0.366401 0.904319
O O1 0.117710 0.250000 0.352867
O O2 0.130574 0.108845 0.228727
O O3 0.022752 0.108915 0.365362
O O4 0.156351 0.074023 0.421551
O O5 0.250000 0.369733 0.120968
O O6 0.359177 0.250000 0.100639
O O7 0.370699 0.431072 0.030780
O O8 0.750000 0.137945 0.243191
O O9 0.839775 0.250000 0.150609
O O10 0.893314 0.132363 0.283281
O O11 0.841960 0.053420 0.121478
O O12 0.062800 0.750000 0.579170
O O13 0.105065 0.571986 0.532735
O O14 0.250000 0.901417 0.201717
O O15 0.171068 0.750000 0.241079
O O16 0.157265 0.905524 0.349665
O O17 0.098921 0.889039 0.166445
O O18 0.250000 0.943752 0.492133
O O19 0.955459 0.926285 0.124612
O O20 0.951105 0.085353 0.011464
O O21 0.981829 0.250000 0.908388
#
# Coordination Sequence:
#
# PCOD9452516 Si02
#       8
#     8   8   8   8   8   8   8   8
#     4  10  22  38  58  87 121 154 189 239 293 346
#     4  10  21  38  61  88 119 155 197 244 294 353
#     4  10  22  39  59  85 117 153 197 246 292 345
#     4  10  22  39  60  85 117 154 193 240 294 351
#     4   9  19  35  55  82 116 148 182 232 293 349
#     4  11  21  35  61  89 115 150 193 238 286 347
#     4  11  22  35  58  82 112 155 197 240 295 343
#     4  10  22  36  52  80 114 149 189 236 293 353
#
# _framework density 19.362639999999999
#
# number of rings (size 3 to 8) (size 9 to 14) (size 15 to 20)
#    0.000    1.875    0.000    3.375    5.250    4.000 
#    0.000    1.250    0.000    0.750    0.000    0.000 
#    0.000    0.000    0.000    0.000    0.000    0.000 
#
# Total GULP energy -357343.119482 kJ/mol
# GULP energy per Si atom -5583.486242 kJ/mol
# Density = 1.931857 g / cm^3
# Si number density = 19.362640 Si / 1000 Ang^3
#
#
#
# Elastic Constant Matrix: (Units=GPa)
#
#
# Indices 1 2 3 4 5 6 
#
# 1 96.4163 35.4658 36.1981 0.0000 0.0000 0.0000
# 2 35.4658 95.8633 41.3802 0.0000 0.0000 0.0000
# 3 36.1981 41.3802 57.3042 0.0000 0.0000 0.0000
# 4 0.0000 0.0000 0.0000 33.0673 0.0000 0.0000
# 5 0.0000 0.0000 0.0000 0.0000 32.6885 0.0000
# 6 0.0000 0.0000 0.0000 0.0000 0.0000 18.8918
#
#
#
# Elastic Compliance Matrix: (Units=1/GPa)
#
#
# Indices 1 2 3 4 5 6 
#
# 1 0.013844 -0.001957 -0.007332 0.000000 0.000000 0.000000
# 2 -0.001957 0.015432 -0.009908 0.000000 0.000000 0.000000
# 3 -0.007332 -0.009908 0.029237 0.000000 0.000000 0.000000
# 4 0.000000 0.000000 0.000000 0.030241 0.000000 0.000000
# 5 0.000000 0.000000 0.000000 0.000000 0.030592 0.000000
# 6 0.000000 0.000000 0.000000 0.000000 0.000000 0.052933
#
#
# Mechanical properties :
#
#
# Convention : Reuss Voigt Hill
#
# Bulk Modulus (GPa) = 49.70203 52.85245 51.27724
# Shear Modulus (GPa) = 23.00127 26.03217 24.51672
#
# Velocity S-wave (km/s) = 3.45036 3.67066 3.56221
# Velocity P-wave (km/s) = 6.44966 6.73204 6.59236
#
# Compressibility (1/GPa) = 0.02011990
#
# Stress axis : x y z
#
# Youngs Moduli (GPa) = 72.23222 64.79949 34.20353
#
# Poissons Ratio (x) = 0.12681 0.25078
# Poissons Ratio (y) = 0.14135 0.33888
# Poissons Ratio (z) = 0.52961 0.64201
#
# Static dielectric constant tensor:
#      x y z
#    x 1.709590 0.000000 0.000000 
#    y 0.000000 1.701640 0.000000 
#    z 0.000000 0.000000 1.640660 
# 
# From -- ./inp_files/17862.got.cif
#   From: 2010.05.17/outbox.cif.g08.bks.cpg/sg59_9_cif.got.tgz:17862.got - 2010.06.03 14:40:33.
