data_PCOD9452149
_publ_section_title
;
Structure prediction by ZEFSAII (Michael W. Deem and Ramdas Pophale) SiO2 
 PCOD9452149
Probable space group: P M M N
;
_chemical_formula_sum "Si O2"
_cell_formula_units_Z 40
_cell_length_a 18.827196
_cell_length_b 7.822977
_cell_length_c 13.314599
_cell_angle_alpha 90.000000
_cell_angle_beta 90.000000
_cell_angle_gamma 90.000000
_cell_volume 1961.037003
_symmetry_space_group_name_H-M "P M M N"
_symmetry_group_IT_number 59
_space_group.IT_coordinate_system_code '2'
_symmetry_cell_setting 'orthorhombic'
loop_
_space_group_symop_operation_xyz
x,y,z
1/2-x,1/2-y,z
1/2+x,-y,-z
-x,1/2+y,-z
-x,-y,-z
1/2+x,1/2+y,-z
1/2-x,y,z
x,1/2-y,z
loop_
_atom_site_type_symbol
_atom_site_label
_atom_site_fract_x
_atom_site_fract_y
_atom_site_fract_z
Si Si1 0.831748 0.540492 0.196087
Si Si2 0.917829 0.955959 0.390240
Si Si3 0.082674 0.046440 0.999233
Si Si4 0.330254 0.954828 0.197237
Si Si5 0.580469 0.455396 0.614026
O O1 0.750000 0.486790 0.188526
O O2 0.832357 0.750000 0.196060
O O3 0.868321 0.483972 0.299717
O O4 0.877409 0.481397 0.100521
O O5 0.919858 0.750000 0.385414
O O6 0.999084 0.019372 0.377504
O O7 0.893459 0.003777 0.501996
O O8 0.087460 0.250000 0.996532
O O9 0.122915 0.987569 0.099040
O O10 0.000000 0.000000 0.000000
O O11 0.250000 0.022186 0.186541
O O12 0.325391 0.750000 0.208325
O O13 0.370223 0.021636 0.296504
O O14 0.577384 0.250000 0.623149
#
# Coordination Sequence:
#
# PCOD9452149 Si02
#       5
#     8   8   8   8   8
#     4   9  18  33  53  77 105 136 170 213 266 317
#     4   9  17  31  52  75 100 134 178 221 257 305
#     4  11  22  37  58  81 107 140 180 223 268 322
#     4  10  21  37  56  79 110 145 179 219 269 322
#     4   9  18  33  51  73 105 142 177 215 263 314
#
# _framework density 20.397372000000001
#
# number of rings (size 3 to 8) (size 9 to 14) (size 15 to 20)
#    0.000    2.400    0.000    2.400    0.000    6.000 
#    0.000    6.000    0.000    2.400    0.000    0.000 
#    0.000    0.000    0.000    0.000    0.000    0.000 
#
# Total GULP energy -223368.779226 kJ/mol
# GULP energy per Si atom -5584.219481 kJ/mol
# Density = 2.035095 g / cm^3
# Si number density = 20.397372 Si / 1000 Ang^3
#
#
#
# Elastic Constant Matrix: (Units=GPa)
#
#
# Indices 1 2 3 4 5 6 
#
# 1 174.0431 2.1208 138.2258 0.0000 0.0000 0.0000
# 2 2.1208 21.2941 -1.3852 0.0000 0.0000 0.0000
# 3 138.2258 -1.3852 219.8516 0.0000 0.0000 0.0000
# 4 0.0000 0.0000 0.0000 16.5914 0.0000 0.0000
# 5 0.0000 0.0000 0.0000 0.0000 -32.8294 0.0000
# 6 0.0000 0.0000 0.0000 0.0000 0.0000 5.2742
#
#
#
# Elastic Compliance Matrix: (Units=1/GPa)
#
#
# Indices 1 2 3 4 5 6 
#
# 1 0.011532 -0.001621 -0.007261 0.000000 0.000000 0.000000
# 2 -0.001621 0.047208 0.001317 0.000000 0.000000 0.000000
# 3 -0.007261 0.001317 0.009122 0.000000 0.000000 0.000000
# 4 0.000000 0.000000 0.000000 0.060272 0.000000 0.000000
# 5 0.000000 0.000000 0.000000 0.000000 -0.030460 0.000000
# 6 0.000000 0.000000 0.000000 0.000000 0.000000 0.189601
#
#
# Mechanical properties :
#
#
# Convention : Reuss Voigt Hill
#
# Bulk Modulus (GPa) = 18.96378 77.01241 47.98809
# Shear Modulus (GPa) = 15.62589 16.22240 15.92414
#
# Velocity S-wave (km/s) = 2.77081 2.82320 2.79712
# Velocity P-wave (km/s) = 4.42197 6.96170 5.83177
#
# Compressibility (1/GPa) = 0.05273211
#
# Stress axis : x y z
#
# Youngs Moduli (GPa) = 86.71675 21.18269 109.62892
#
# Poissons Ratio (x) = 0.03433 0.79596
# Poissons Ratio (y) = 0.14056 -0.14433
# Poissons Ratio (z) = 0.62961 -0.02789
#
# Static dielectric constant tensor:
#      x y z
#    x 1.701710 0.000000 0.000000 
#    y 0.000000 1.753120 0.000000 
#    z 0.000000 0.000000 1.697340 
# 
# From -- ./inp_files/7141.got.cif
#   From: 2010.05.17/outbox.cif.g08.bks.cpg/sg59_4_cif.got.tgz:7141.got - 2010.06.03 14:40:33.
