data_PCOD9452367
_publ_section_title
;
Structure prediction by ZEFSAII (Michael W. Deem and Ramdas Pophale) SiO2 
 PCOD9452367
Probable space group: P M M N
;
_chemical_formula_sum "Si O2"
_cell_formula_units_Z 32
_cell_length_a 12.937493
_cell_length_b 8.797874
_cell_length_c 11.831536
_cell_angle_alpha 90.000000
_cell_angle_beta 90.000000
_cell_angle_gamma 90.000000
_cell_volume 1346.694217
_symmetry_space_group_name_H-M "P M M N"
_symmetry_group_IT_number 59
_space_group.IT_coordinate_system_code '2'
_symmetry_cell_setting 'orthorhombic'
loop_
_space_group_symop_operation_xyz
x,y,z
1/2-x,1/2-y,z
1/2+x,-y,-z
-x,1/2+y,-z
-x,-y,-z
1/2+x,1/2+y,-z
1/2-x,y,z
x,1/2-y,z
loop_
_atom_site_type_symbol
_atom_site_label
_atom_site_fract_x
_atom_site_fract_y
_atom_site_fract_z
Si Si1 0.875197 0.250000 0.919252
Si Si2 0.130855 0.422379 0.174911
Si Si3 0.867436 0.996573 0.364978
Si Si4 0.126241 0.750000 0.816736
Si Si5 0.404242 0.908083 0.386813
O O1 0.750000 0.250000 0.905040
O O2 0.914013 0.417024 0.874136
O O3 0.899811 0.250000 0.052280
O O4 0.250000 0.419046 0.135272
O O5 0.089868 0.250000 0.153993
O O6 0.129831 0.452634 0.309568
O O7 0.750000 0.936430 0.346314
O O8 0.971401 0.901869 0.383564
O O9 0.897879 0.103109 0.259316
O O10 0.865410 0.081024 0.485699
O O11 0.250000 0.750000 0.816384
O O12 0.365000 0.750000 0.335852
#
# Coordination Sequence:
#
# PCOD9452367 Si02
#       5
#     4   8   8   4   8
#     4   9  18  37  65  93 123 167 218 266 316 372
#     4  10  21  37  62  95 130 168 214 267 317 367
#     4  10  22  38  60  89 124 166 209 259 319 385
#     4   9  18  37  63  89 119 167 216 256 320 384
#     4  11  22  37  62  92 128 165 208 260 318 382
#
# _framework density 23.761890000000001
#
# number of rings (size 3 to 8) (size 9 to 14) (size 15 to 20)
#    0.000    2.000    2.500    0.750    1.750    2.500 
#    0.000    2.500    0.000    4.500    0.000    0.000 
#    0.000    0.000    0.000    0.000    0.000    0.000 
#
# Total GULP energy -178203.428929 kJ/mol
# GULP energy per Si atom -5568.857154 kJ/mol
# Density = 2.370781 g / cm^3
# Si number density = 23.761890 Si / 1000 Ang^3
#
#
#
# Elastic Constant Matrix: (Units=GPa)
#
#
# Indices 1 2 3 4 5 6 
#
# 1 114.1822 25.8361 -2.4610 0.0000 0.0000 0.0000
# 2 25.8361 184.9347 69.3768 0.0000 0.0000 0.0000
# 3 -2.4610 69.3768 131.1967 0.0000 0.0000 0.0000
# 4 0.0000 0.0000 0.0000 9.7492 0.0000 0.0000
# 5 0.0000 0.0000 0.0000 0.0000 20.8672 0.0000
# 6 0.0000 0.0000 0.0000 0.0000 0.0000 -21.4148
#
#
#
# Elastic Compliance Matrix: (Units=1/GPa)
#
#
# Indices 1 2 3 4 5 6 
#
# 1 0.009160 -0.001677 0.001059 0.000000 0.000000 0.000000
# 2 -0.001677 0.007052 -0.003761 0.000000 0.000000 0.000000
# 3 0.001059 -0.003761 0.009631 0.000000 0.000000 0.000000
# 4 0.000000 0.000000 0.000000 0.102572 0.000000 0.000000
# 5 0.000000 0.000000 0.000000 0.000000 0.047922 0.000000
# 6 0.000000 0.000000 0.000000 0.000000 0.000000 -0.046697
#
#
# Mechanical properties :
#
#
# Convention : Reuss Voigt Hill
#
# Bulk Modulus (GPa) = 58.53035 68.42417 63.47726
# Shear Modulus (GPa) = 34.69958 24.34443 29.52201
#
# Velocity S-wave (km/s) = 3.82554 3.20428 3.52861
# Velocity P-wave (km/s) = 6.64819 6.52289 6.58584
#
# Compressibility (1/GPa) = 0.01708515
#
# Stress axis : x y z
#
# Youngs Moduli (GPa) = 109.16836 141.79588 103.83473
#
# Poissons Ratio (x) = 0.23776 -0.10991
# Poissons Ratio (y) = 0.18305 0.39050
# Poissons Ratio (z) = -0.11556 0.53326
#
# Static dielectric constant tensor:
#      x y z
#    x 1.945450 0.000000 0.000000 
#    y 0.000000 2.025450 0.000000 
#    z 0.000000 0.000000 1.868860 
# 
# From -- ./inp_files/13662.got.cif
#   From: 2010.05.17/outbox.cif.g08.bks.cpg/sg59_7_cif.got.tgz:13662.got - 2010.06.03 14:40:33.
