data_PCOD9452216
_publ_section_title
;
Structure prediction by ZEFSAII (Michael W. Deem and Ramdas Pophale) SiO2 
 PCOD9452216
Probable space group: P M M N
;
_chemical_formula_sum "Si O2"
_cell_formula_units_Z 64
_cell_length_a 9.025898
_cell_length_b 14.752361
_cell_length_c 26.741916
_cell_angle_alpha 90.000000
_cell_angle_beta 90.000000
_cell_angle_gamma 90.000000
_cell_volume 3560.774515
_symmetry_space_group_name_H-M "P M M N"
_symmetry_group_IT_number 59
_space_group.IT_coordinate_system_code '2'
_symmetry_cell_setting 'orthorhombic'
loop_
_space_group_symop_operation_xyz
x,y,z
1/2-x,1/2-y,z
1/2+x,-y,-z
-x,1/2+y,-z
-x,-y,-z
1/2+x,1/2+y,-z
1/2-x,y,z
x,1/2-y,z
loop_
_atom_site_type_symbol
_atom_site_label
_atom_site_fract_x
_atom_site_fract_y
_atom_site_fract_z
Si Si1 0.075641 0.858099 0.126097
Si Si2 0.423677 0.141672 0.240757
Si Si3 0.926341 0.498988 0.312458
Si Si4 0.427644 0.643915 0.504595
Si Si5 0.426454 0.497271 0.945948
Si Si6 0.073084 0.003769 0.420841
Si Si7 0.426437 0.642467 0.240790
Si Si8 0.073870 0.643535 0.863923
O O1 0.250000 0.879768 0.119689
O O2 0.059779 0.750000 0.120842
O O3 0.034379 0.881411 0.183374
O O4 0.981094 0.911522 0.085904
O O5 0.250000 0.118990 0.244099
O O6 0.440604 0.250000 0.246283
O O7 0.485507 0.117124 0.185924
O O8 0.513101 0.088368 0.282733
O O9 0.750000 0.497357 0.315361
O O10 0.996671 0.502470 0.367318
O O11 0.982846 0.583863 0.279817
O O12 0.250000 0.638939 0.513121
O O13 0.468285 0.750000 0.500974
O O14 0.458632 0.585688 0.454458
O O15 0.510586 0.589901 0.548532
O O16 0.250000 0.496433 0.951462
O O17 0.467903 0.583553 0.911503
O O18 0.500000 0.500000 0.000000
O O19 0.250000 0.011345 0.415394
O O20 0.250000 0.625820 0.246883
O O21 0.450186 0.750000 0.247083
O O22 0.250000 0.631140 0.854600
O O23 0.047919 0.750000 0.873285
#
# Coordination Sequence:
#
# PCOD9452216 Si02
#       8
#     8   8   8   8   8   8   8   8
#     4   9  19  37  59  80 105 140 179 221 272 327
#     4  10  21  37  58  83 109 141 183 227 273 329
#     4  12  24  36  54  82 118 154 185 226 275 320
#     4   9  19  38  62  84 108 142 183 227 277 329
#     4  11  23  36  53  79 108 141 180 222 270 323
#     4  10  21  37  57  83 113 146 186 228 272 324
#     4   9  19  37  60  84 111 146 185 223 269 326
#     4   9  19  37  58  79 106 140 177 219 271 329
#
# _framework density 17.973617999999998
#
# number of rings (size 3 to 8) (size 9 to 14) (size 15 to 20)
#    0.000    2.125    0.000    3.750    0.000    7.000 
#    0.000    3.750    0.000    0.000    0.000    0.000 
#    0.000    0.000    0.000    0.000    0.000    0.000 
#
# Total GULP energy -357449.665294 kJ/mol
# GULP energy per Si atom -5585.151020 kJ/mol
# Density = 1.793271 g / cm^3
# Si number density = 17.973618 Si / 1000 Ang^3
#
#
#
# Elastic Constant Matrix: (Units=GPa)
#
#
# Indices 1 2 3 4 5 6 
#
# 1 86.1445 59.1784 93.3768 0.0000 0.0000 0.0000
# 2 59.1784 101.8809 76.4886 0.0000 0.0000 0.0000
# 3 93.3768 76.4886 176.6782 0.0000 0.0000 0.0000
# 4 0.0000 0.0000 0.0000 43.8138 0.0000 0.0000
# 5 0.0000 0.0000 0.0000 0.0000 37.2940 0.0000
# 6 0.0000 0.0000 0.0000 0.0000 0.0000 30.1168
#
#
#
# Elastic Compliance Matrix: (Units=1/GPa)
#
#
# Indices 1 2 3 4 5 6 
#
# 1 0.031566 -0.008608 -0.012956 0.000000 0.000000 0.000000
# 2 -0.008608 0.016889 -0.002762 0.000000 0.000000 0.000000
# 3 -0.012956 -0.002762 0.013703 0.000000 0.000000 0.000000
# 4 0.000000 0.000000 0.000000 0.022824 0.000000 0.000000
# 5 0.000000 0.000000 0.000000 0.000000 0.026814 0.000000
# 6 0.000000 0.000000 0.000000 0.000000 0.000000 0.033204
#
#
# Mechanical properties :
#
#
# Convention : Reuss Voigt Hill
#
# Bulk Modulus (GPa) = 74.04569 91.42122 82.73345
# Shear Modulus (GPa) = 25.23260 31.28892 28.26076
#
# Velocity S-wave (km/s) = 3.75089 4.17685 3.96958
# Velocity P-wave (km/s) = 7.74888 8.61603 8.19393
#
# Compressibility (1/GPa) = 0.01350518
#
# Stress axis : x y z
#
# Youngs Moduli (GPa) = 31.67955 59.20882 72.97411
#
# Poissons Ratio (x) = 0.50968 0.94548
# Poissons Ratio (y) = 0.27271 0.20158
# Poissons Ratio (z) = 0.41045 0.16355
#
# Static dielectric constant tensor:
#      x y z
#    x 1.598030 0.000000 0.000000 
#    y 0.000000 1.615830 0.000000 
#    z 0.000000 0.000000 1.579310 
# 
# From -- ./inp_files/31416.got.cif
#   From: 2010.05.17/outbox.cif.g08.bks.cpg/sg59_16_cif.got.tgz:31416.got - 2010.06.03 14:40:33.
