data_PCOD9452656
_publ_section_title
;
Structure prediction by ZEFSAII (Michael W. Deem and Ramdas Pophale) SiO2 
 PCOD9452656
Probable space group: P M M N
;
_chemical_formula_sum "Si O2"
_cell_formula_units_Z 56
_cell_length_a 20.500809
_cell_length_b 7.777289
_cell_length_c 14.973750
_cell_angle_alpha 90.000000
_cell_angle_beta 90.000000
_cell_angle_gamma 90.000000
_cell_volume 2387.425426
_symmetry_space_group_name_H-M "P M M N"
_symmetry_group_IT_number 59
_space_group.IT_coordinate_system_code '2'
_symmetry_cell_setting 'orthorhombic'
loop_
_space_group_symop_operation_xyz
x,y,z
1/2-x,1/2-y,z
1/2+x,-y,-z
-x,1/2+y,-z
-x,-y,-z
1/2+x,1/2+y,-z
1/2-x,y,z
x,1/2-y,z
loop_
_atom_site_type_symbol
_atom_site_label
_atom_site_fract_x
_atom_site_fract_y
_atom_site_fract_z
Si Si1 0.406810 0.539144 0.875189
Si Si2 0.930846 0.545636 0.461905
Si Si3 0.250000 0.555803 0.352079
Si Si4 0.889629 0.949846 0.648212
Si Si5 0.750000 0.941250 0.451253
Si Si6 0.673923 0.042756 0.950232
Si Si7 0.855868 0.443655 0.312189
Si Si8 0.051807 0.457439 0.175349
O O1 0.407683 0.750000 0.874820
O O2 0.370641 0.482834 0.784271
O O3 0.483269 0.483773 0.869685
O O4 0.362532 0.483920 0.958384
O O5 0.923418 0.750000 0.446674
O O6 0.888582 0.481830 0.546925
O O7 0.921458 0.447029 0.369708
O O8 0.000000 0.500000 0.500000
O O9 0.250000 0.750000 0.318983
O O10 0.184393 0.466761 0.319552
O O11 0.250000 0.555450 0.460740
O O12 0.906811 0.750000 0.637856
O O13 0.936869 0.025372 0.723590
O O14 0.750000 0.750000 0.489648
O O15 0.690448 0.963547 0.382905
O O16 0.750000 0.982138 0.940302
O O17 0.677836 0.250000 0.953542
O O18 0.618634 0.998880 0.876969
O O19 0.830978 0.250000 0.301302
O O20 0.047454 0.250000 0.179794
#
# Coordination Sequence:
#
# PCOD9452656 Si02
#       8
#     8   8   4   8   4   8   8   8
#     4   9  20  40  66  92 121 160 205 254 312 376
#     4  11  22  37  58  84 121 163 203 252 307 366
#     4  12  24  38  60  87 116 159 212 257 300 360
#     4  10  22  39  59  83 120 162 199 249 313 366
#     4  12  24  40  58  85 126 167 204 251 316 372
#     4  10  22  40  63  92 126 161 199 252 312 370
#     4  11  22  38  63  91 118 156 211 259 305 372
#     4  10  21  40  65  91 120 161 207 252 308 373
#
# _framework density 23.456229
#
# number of rings (size 3 to 8) (size 9 to 14) (size 15 to 20)
#    0.000    1.571    1.429    3.429    2.000    3.714 
#    0.000    4.286    0.000    0.000    0.000    0.000 
#    0.000    0.000    0.000    0.000    0.000    0.000 
#
# Total GULP energy -312451.964142 kJ/mol
# GULP energy per Si atom -5579.499360 kJ/mol
# Density = 2.340284 g / cm^3
# Si number density = 23.456229 Si / 1000 Ang^3
#
#
#
# Elastic Constant Matrix: (Units=GPa)
#
#
# Indices 1 2 3 4 5 6 
#
# 1 114.7637 2.9318 11.5785 0.0000 0.0000 0.0000
# 2 2.9318 48.9295 3.5769 0.0000 0.0000 0.0000
# 3 11.5785 3.5769 102.5671 0.0000 0.0000 0.0000
# 4 0.0000 0.0000 0.0000 15.6257 0.0000 0.0000
# 5 0.0000 0.0000 0.0000 0.0000 28.4008 0.0000
# 6 0.0000 0.0000 0.0000 0.0000 0.0000 17.4809
#
#
#
# Elastic Compliance Matrix: (Units=1/GPa)
#
#
# Indices 1 2 3 4 5 6 
#
# 1 0.008824 -0.000457 -0.000980 0.000000 0.000000 0.000000
# 2 -0.000457 0.020513 -0.000664 0.000000 0.000000 0.000000
# 3 -0.000980 -0.000664 0.009884 0.000000 0.000000 0.000000
# 4 0.000000 0.000000 0.000000 0.063997 0.000000 0.000000
# 5 0.000000 0.000000 0.000000 0.000000 0.035210 0.000000
# 6 0.000000 0.000000 0.000000 0.000000 0.000000 0.057205
#
#
# Mechanical properties :
#
#
# Convention : Reuss Voigt Hill
#
# Bulk Modulus (GPa) = 28.55594 33.60389 31.07992
# Shear Modulus (GPa) = 23.63965 28.84634 26.24300
#
# Velocity S-wave (km/s) = 3.17806 3.51065 3.34849
# Velocity P-wave (km/s) = 5.06629 5.54889 5.31307
#
# Compressibility (1/GPa) = 0.03501898
#
# Stress axis : x y z
#
# Youngs Moduli (GPa) = 113.32573 48.74845 101.17861
#
# Poissons Ratio (x) = 0.02228 0.09917
# Poissons Ratio (y) = 0.05180 0.06716
# Poissons Ratio (z) = 0.11108 0.03236
#
# Static dielectric constant tensor:
#      x y z
#    x 2.044180 0.000000 0.000000 
#    y 0.000000 1.851200 0.000000 
#    z 0.000000 0.000000 1.913940 
# 
# From -- ./inp_files/24360.got.cif
#   From: 2010.05.17/outbox.cif.g08.bks.cpg/sg59_13_cif.got.tgz:24360.got - 2010.06.03 14:40:33.
