data_PCOD9452027
_publ_section_title
;
Structure prediction by ZEFSAII (Michael W. Deem and Ramdas Pophale) SiO2 
 PCOD9452027
Probable space group: P M M N
;
_chemical_formula_sum "Si O2"
_cell_formula_units_Z 48
_cell_length_a 8.651241
_cell_length_b 15.885867
_cell_length_c 18.330437
_cell_angle_alpha 90.000000
_cell_angle_beta 90.000000
_cell_angle_gamma 90.000000
_cell_volume 2519.197121
_symmetry_space_group_name_H-M "P M M N"
_symmetry_group_IT_number 59
_space_group.IT_coordinate_system_code '2'
_symmetry_cell_setting 'orthorhombic'
loop_
_space_group_symop_operation_xyz
x,y,z
1/2-x,1/2-y,z
1/2+x,-y,-z
-x,1/2+y,-z
-x,-y,-z
1/2+x,1/2+y,-z
1/2-x,y,z
x,1/2-y,z
loop_
_atom_site_type_symbol
_atom_site_label
_atom_site_fract_x
_atom_site_fract_y
_atom_site_fract_z
Si Si1 0.063265 0.250000 0.206716
Si Si2 0.064593 0.581444 0.541288
Si Si3 0.936831 0.583516 0.704665
Si Si4 0.436980 0.913707 0.210315
Si Si5 0.936749 0.250000 0.043309
Si Si6 0.563195 0.418596 0.958873
Si Si7 0.933945 0.750000 0.291426
Si Si8 0.936824 0.250000 0.545156
O O1 0.250000 0.250000 0.202656
O O2 0.015269 0.166423 0.250555
O O3 0.998440 0.250000 0.125296
O O4 0.250000 0.577969 0.541149
O O5 0.016634 0.666302 0.498803
O O6 0.000000 0.500000 0.500000
O O7 0.004880 0.583678 0.623859
O O8 0.750000 0.584213 0.699476
O O9 0.982146 0.499147 0.747980
O O10 0.250000 0.907900 0.212282
O O11 0.485037 0.917082 0.125734
O O12 0.504388 0.832639 0.250347
O O13 0.750000 0.250000 0.045017
O O14 0.986739 0.166289 0.000219
O O15 0.750000 0.421444 0.960074
O O16 0.500000 0.500000 0.000000
O O17 0.750000 0.750000 0.291308
O O18 0.994795 0.750000 0.374140
O O19 0.750000 0.250000 0.550845
#
# Coordination Sequence:
#
# PCOD9452027 Si02
#       8
#     4   8   8   8   4   8   4   4
#     4  10  21  38  60  86 116 150 189 232 278 334
#     4  11  23  39  60  85 114 149 188 231 280 335
#     4  10  21  37  59  86 114 148 189 231 278 334
#     4  10  21  39  60  81 114 158 192 223 280 351
#     4  10  21  36  56  84 116 150 189 234 284 336
#     4  10  21  38  60  85 114 151 193 235 281 335
#     4  12  25  38  58  88 114 142 189 246 288 320
#     4  10  23  42  60  80 112 154 189 220 278 352
#
# _framework density 19.053688999999999
#
# number of rings (size 3 to 8) (size 9 to 14) (size 15 to 20)
#    0.000    1.667    0.000    4.250    0.000   10.667 
#    0.000    0.833    0.000    0.000    0.000    0.000 
#    0.000    0.000    0.000    0.000    0.000    0.000 
#
# Total GULP energy -268388.953693 kJ/mol
# GULP energy per Si atom -5591.436535 kJ/mol
# Density = 1.901032 g / cm^3
# Si number density = 19.053689 Si / 1000 Ang^3
#
#
#
# Elastic Constant Matrix: (Units=GPa)
#
#
# Indices 1 2 3 4 5 6 
#
# 1 16.5123 48.4771 46.3891 0.0000 0.0000 0.0000
# 2 48.4771 244.1575 151.2498 0.0000 0.0000 0.0000
# 3 46.3891 151.2498 243.5991 0.0000 0.0000 0.0000
# 4 0.0000 0.0000 0.0000 45.6933 0.0000 0.0000
# 5 0.0000 0.0000 0.0000 0.0000 35.4147 0.0000
# 6 0.0000 0.0000 0.0000 0.0000 0.0000 19.9471
#
#
#
# Elastic Compliance Matrix: (Units=1/GPa)
#
#
# Indices 1 2 3 4 5 6 
#
# 1 0.195999 -0.025665 -0.021389 0.000000 0.000000 0.000000
# 2 -0.025665 0.010016 -0.001332 0.000000 0.000000 0.000000
# 3 -0.021389 -0.001332 0.009005 0.000000 0.000000 0.000000
# 4 0.000000 0.000000 0.000000 0.021885 0.000000 0.000000
# 5 0.000000 0.000000 0.000000 0.000000 0.028237 0.000000
# 6 0.000000 0.000000 0.000000 0.000000 0.000000 0.050132
#
#
# Mechanical properties :
#
#
# Convention : Reuss Voigt Hill
#
# Bulk Modulus (GPa) = 8.45674 110.72231 59.58952
# Shear Modulus (GPa) = 11.07508 37.42122 24.24815
#
# Velocity S-wave (km/s) = 2.41354 4.43650 3.57125
# Velocity P-wave (km/s) = 3.49499 9.19131 6.95324
#
# Compressibility (1/GPa) = 0.11824887
#
# Stress axis : x y z
#
# Youngs Moduli (GPa) = 5.10205 99.83538 111.04814
#
# Poissons Ratio (x) = 2.56231 2.37521
# Poissons Ratio (y) = 0.13095 0.14788
# Poissons Ratio (z) = 0.10913 0.13295
#
# Static dielectric constant tensor:
#      x y z
#    x 1.650300 0.000000 0.000000 
#    y 0.000000 1.637440 0.000000 
#    z 0.000000 0.000000 1.616280 
# 
# From -- ./inp_files/25672.got.cif
#   From: 2010.05.17/outbox.cif.g08.bks.cpg/sg59_13_cif.got.tgz:25672.got - 2010.06.03 14:40:33.
