data_PCOD9452184
_publ_section_title
;
Structure prediction by ZEFSAII (Michael W. Deem and Ramdas Pophale) SiO2 
 PCOD9452184
Probable space group: P M M N
;
_chemical_formula_sum "Si O2"
_cell_formula_units_Z 64
_cell_length_a 8.897964
_cell_length_b 18.832948
_cell_length_c 21.688007
_cell_angle_alpha 90.000000
_cell_angle_beta 90.000000
_cell_angle_gamma 90.000000
_cell_volume 3634.365459
_symmetry_space_group_name_H-M "P M M N"
_symmetry_group_IT_number 59
_space_group.IT_coordinate_system_code '2'
_symmetry_cell_setting 'orthorhombic'
loop_
_space_group_symop_operation_xyz
x,y,z
1/2-x,1/2-y,z
1/2+x,-y,-z
-x,1/2+y,-z
-x,-y,-z
1/2+x,1/2+y,-z
1/2-x,y,z
x,1/2-y,z
loop_
_atom_site_type_symbol
_atom_site_label
_atom_site_fract_x
_atom_site_fract_y
_atom_site_fract_z
Si Si1 0.069684 0.168398 0.263093
Si Si2 0.573672 0.334434 0.395458
Si Si3 0.570894 0.108937 0.749294
Si Si4 0.571007 0.530577 0.062140
Si Si5 0.068760 0.168087 0.624559
Si Si6 0.930073 0.922178 0.494862
Si Si7 0.569363 0.330971 0.882928
Si Si8 0.069724 0.464969 0.183044
O O1 0.250000 0.164073 0.272599
O O2 0.033297 0.250000 0.246549
O O3 0.029906 0.110926 0.211494
O O4 0.988640 0.150845 0.327190
O O5 0.750000 0.351933 0.399059
O O6 0.555843 0.250000 0.405898
O O7 0.483095 0.377003 0.446549
O O8 0.750000 0.115029 0.739773
O O9 0.489350 0.136805 0.688896
O O10 0.532472 0.153195 0.811110
O O11 0.536659 0.027392 0.767475
O O12 0.750000 0.529776 0.058497
O O13 0.512018 0.610027 0.076322
O O14 0.514298 0.484517 0.120425
O O15 0.500000 0.500000 0.000000
O O16 0.250000 0.168175 0.625216
O O17 0.018549 0.250000 0.617073
O O18 0.020293 0.119271 0.567118
O O19 0.750000 0.927314 0.493897
O O20 0.000000 0.000000 0.500000
O O21 0.750000 0.340362 0.888683
O O22 0.531405 0.250000 0.898403
O O23 0.250000 0.467801 0.171753
#
# Coordination Sequence:
#
# PCOD9452184 Si02
#       8
#     8   8   8   8   8   8   8   8
#     4   9  18  34  58  85 111 144 185 229 279 333
#     4  10  21  37  57  81 108 140 181 230 281 335
#     4   9  18  32  53  81 111 143 178 216 266 327
#     4  11  22  37  58  83 113 152 193 232 275 324
#     4  10  22  38  54  75 105 139 175 221 274 326
#     4  11  24  40  56  76 104 141 185 232 283 336
#     4   9  18  35  58  84 115 148 183 226 275 327
#     4   9  19  36  56  81 113 147 183 226 275 329
#
# _framework density 17.609677000000001
#
# number of rings (size 3 to 8) (size 9 to 14) (size 15 to 20)
#    0.000    2.250    0.000    3.375    1.750    5.750 
#    0.000    0.625    0.000    2.250    0.000    0.000 
#    0.000    0.000    0.000    0.000    0.000    0.000 
#
# Total GULP energy -357284.923863 kJ/mol
# GULP energy per Si atom -5582.576935 kJ/mol
# Density = 1.756960 g / cm^3
# Si number density = 17.609677 Si / 1000 Ang^3
#
#
#
# Elastic Constant Matrix: (Units=GPa)
#
#
# Indices 1 2 3 4 5 6 
#
# 1 58.5239 62.6792 59.8163 0.0000 0.0000 0.0000
# 2 62.6792 128.8236 105.9780 0.0000 0.0000 0.0000
# 3 59.8163 105.9780 126.7947 0.0000 0.0000 0.0000
# 4 0.0000 0.0000 0.0000 23.2713 0.0000 0.0000
# 5 0.0000 0.0000 0.0000 0.0000 33.3821 0.0000
# 6 0.0000 0.0000 0.0000 0.0000 0.0000 27.4092
#
#
#
# Elastic Compliance Matrix: (Units=1/GPa)
#
#
# Indices 1 2 3 4 5 6 
#
# 1 0.038011 -0.011980 -0.007919 0.000000 0.000000 0.000000
# 2 -0.011980 0.028623 -0.018273 0.000000 0.000000 0.000000
# 3 -0.007919 -0.018273 0.026896 0.000000 0.000000 0.000000
# 4 0.000000 0.000000 0.000000 0.042971 0.000000 0.000000
# 5 0.000000 0.000000 0.000000 0.000000 0.029956 0.000000
# 6 0.000000 0.000000 0.000000 0.000000 0.000000 0.036484
#
#
# Mechanical properties :
#
#
# Convention : Reuss Voigt Hill
#
# Bulk Modulus (GPa) = 58.18302 85.67659 71.92981
# Shear Modulus (GPa) = 17.54298 22.52378 20.03338
#
# Velocity S-wave (km/s) = 3.15971 3.58027 3.37654
# Velocity P-wave (km/s) = 6.81350 8.11479 7.49245
#
# Compressibility (1/GPa) = 0.01718715
#
# Stress axis : x y z
#
# Youngs Moduli (GPa) = 26.30792 34.93634 37.18082
#
# Poissons Ratio (x) = 0.41852 0.29445
# Poissons Ratio (y) = 0.31516 0.67940
# Poissons Ratio (z) = 0.20834 0.63838
#
# Static dielectric constant tensor:
#      x y z
#    x 1.590590 0.000000 0.000000 
#    y 0.000000 1.591710 0.000000 
#    z 0.000000 0.000000 1.560710 
# 
# From -- ./inp_files/29454.got.cif
#   From: 2010.05.17/outbox.cif.g08.bks.cpg/sg59_15_cif.got.tgz:29454.got - 2010.06.03 14:40:33.
