data_PCOD9452985
_publ_section_title
;
Structure prediction by ZEFSAII (Michael W. Deem and Ramdas Pophale) SiO2 
 PCOD9452985
Probable space group: P M M N
;
_chemical_formula_sum "Si O2"
_cell_formula_units_Z 48
_cell_length_a 7.667475
_cell_length_b 18.831353
_cell_length_c 17.115859
_cell_angle_alpha 90.000000
_cell_angle_beta 90.000000
_cell_angle_gamma 90.000000
_cell_volume 2471.340539
_symmetry_space_group_name_H-M "P M M N"
_symmetry_group_IT_number 59
_space_group.IT_coordinate_system_code '2'
_symmetry_cell_setting 'orthorhombic'
loop_
_space_group_symop_operation_xyz
x,y,z
1/2-x,1/2-y,z
1/2+x,-y,-z
-x,1/2+y,-z
-x,-y,-z
1/2+x,1/2+y,-z
1/2-x,y,z
x,1/2-y,z
loop_
_atom_site_type_symbol
_atom_site_label
_atom_site_fract_x
_atom_site_fract_y
_atom_site_fract_z
Si Si1 0.536620 0.829024 0.164007
Si Si2 0.540938 0.973534 0.086134
Si Si3 0.462837 0.547013 0.758275
Si Si4 0.540967 0.901815 0.321672
Si Si5 0.535759 0.168792 0.353438
Si Si6 0.545247 0.416714 0.503513
O O1 0.750000 0.828555 0.162911
O O2 0.477949 0.750000 0.142726
O O3 0.478987 0.894141 0.108877
O O4 0.482312 0.849446 0.252594
O O5 0.750000 0.971189 0.092834
O O6 0.478687 0.026716 0.154593
O O7 0.500000 0.000000 0.000000
O O8 0.250000 0.547402 0.758453
O O9 0.517367 0.481056 0.703119
O O10 0.519070 0.620387 0.719826
O O11 0.750000 0.902477 0.318004
O O12 0.494230 0.886849 0.410597
O O13 0.750000 0.169430 0.353934
O O14 0.478543 0.250000 0.349879
O O15 0.471806 0.129170 0.431965
O O16 0.500000 0.500000 0.500000
O O17 0.750000 0.413846 0.492753
#
# Coordination Sequence:
#
# PCOD9452985 Si02
#       6
#     8   8   8   8   8   8
#     4   8  15  29  50  73  97 129 164 196 237 292
#     4   9  17  30  51  74  97 123 158 197 234 286
#     4   8  14  28  47  65  87 119 155 189 226 278
#     4   9  16  29  49  70  91 119 159 199 234 278
#     4   9  17  29  46  67  91 122 161 200 231 267
#     4  11  20  30  47  70  96 127 163 199 238 282
#
# _framework density 19.422656
#
# number of rings (size 3 to 8) (size 9 to 14) (size 15 to 20)
#    0.000    3.000    1.667    2.500    0.000    0.667 
#    0.000    4.167    0.000    4.000    0.000    0.000 
#    0.000    0.000    0.000    0.000    0.000    0.000 
#
# Total GULP energy -267553.895545 kJ/mol
# GULP energy per Si atom -5574.039491 kJ/mol
# Density = 1.937845 g / cm^3
# Si number density = 19.422656 Si / 1000 Ang^3
#
#
#
# Elastic Constant Matrix: (Units=GPa)
#
#
# Indices 1 2 3 4 5 6 
#
# 1 29.4173 7.8587 3.3282 0.0000 0.0000 0.0000
# 2 7.8587 177.4076 109.1392 0.0000 0.0000 0.0000
# 3 3.3282 109.1392 169.1925 0.0000 0.0000 0.0000
# 4 0.0000 0.0000 0.0000 20.7007 0.0000 0.0000
# 5 0.0000 0.0000 0.0000 0.0000 24.4728 0.0000
# 6 0.0000 0.0000 0.0000 0.0000 0.0000 5.5869
#
#
#
# Elastic Compliance Matrix: (Units=1/GPa)
#
#
# Indices 1 2 3 4 5 6 
#
# 1 0.034427 -0.001838 0.000508 0.000000 0.000000 0.000000
# 2 -0.001838 0.009443 -0.006055 0.000000 0.000000 0.000000
# 3 0.000508 -0.006055 0.009806 0.000000 0.000000 0.000000
# 4 0.000000 0.000000 0.000000 0.048308 0.000000 0.000000
# 5 0.000000 0.000000 0.000000 0.000000 0.040862 0.000000
# 6 0.000000 0.000000 0.000000 0.000000 0.000000 0.178992
#
#
# Mechanical properties :
#
#
# Convention : Reuss Voigt Hill
#
# Bulk Modulus (GPa) = 25.70224 68.51885 47.11054
# Shear Modulus (GPa) = 14.30302 27.19815 20.75058
#
# Velocity S-wave (km/s) = 2.71663 3.74616 3.27214
# Velocity P-wave (km/s) = 4.80645 7.35296 6.21160
#
# Compressibility (1/GPa) = 0.03890712
#
# Stress axis : x y z
#
# Youngs Moduli (GPa) = 29.04699 105.89483 101.97323
#
# Poissons Ratio (x) = 0.19460 -0.05182
# Poissons Ratio (y) = 0.05338 0.61748
# Poissons Ratio (z) = -0.01476 0.64123
#
# Static dielectric constant tensor:
#      x y z
#    x 1.733430 0.000000 0.000000 
#    y 0.000000 1.667730 0.000000 
#    z 0.000000 0.000000 1.679450 
# 
# From -- ./inp_files/25757.got.cif
#   From: 2010.05.17/outbox.cif.g08.bks.cpg/sg59_13_cif.got.tgz:25757.got - 2010.06.03 14:40:33.
