data_PCOD9452447
_publ_section_title
;
Structure prediction by ZEFSAII (Michael W. Deem and Ramdas Pophale) SiO2 
 PCOD9452447
Probable space group: P M M N
;
_chemical_formula_sum "Si O2"
_cell_formula_units_Z 48
_cell_length_a 8.456868
_cell_length_b 27.596485
_cell_length_c 10.598727
_cell_angle_alpha 90.000000
_cell_angle_beta 90.000000
_cell_angle_gamma 90.000000
_cell_volume 2473.529115
_symmetry_space_group_name_H-M "P M M N"
_symmetry_group_IT_number 59
_space_group.IT_coordinate_system_code '2'
_symmetry_cell_setting 'orthorhombic'
loop_
_space_group_symop_operation_xyz
x,y,z
1/2-x,1/2-y,z
1/2+x,-y,-z
-x,1/2+y,-z
-x,-y,-z
1/2+x,1/2+y,-z
1/2-x,y,z
x,1/2-y,z
loop_
_atom_site_type_symbol
_atom_site_label
_atom_site_fract_x
_atom_site_fract_y
_atom_site_fract_z
Si Si1 0.056969 0.694106 0.623146
Si Si2 0.439872 0.972471 0.876102
Si Si3 0.939442 0.694152 0.125654
Si Si4 0.941310 0.138081 0.628705
Si Si5 0.560152 0.474023 0.626091
Si Si6 0.941351 0.139696 0.122433
O O1 0.250000 0.694084 0.623062
O O2 0.005487 0.750000 0.621839
O O3 0.005870 0.665636 0.498004
O O4 0.006204 0.666673 0.749957
O O5 0.250000 0.973157 0.875854
O O6 0.492233 0.916351 0.878172
O O7 0.499948 0.998611 0.750178
O O8 0.500000 0.000000 0.000000
O O9 0.750000 0.693986 0.126129
O O10 0.994808 0.750000 0.127943
O O11 0.999769 0.665827 0.248131
O O12 0.998782 0.667614 0.000147
O O13 0.750000 0.138533 0.630018
O O14 0.992605 0.082095 0.628295
O O15 0.500000 0.500000 0.500000
O O16 0.750000 0.474577 0.625852
O O17 0.750000 0.140293 0.120558
#
# Coordination Sequence:
#
# PCOD9452447 Si02
#       6
#     8   8   8   8   8   8
#     4   9  17  32  57  85 108 135 179 233 281 325
#     4  11  23  39  59  85 117 152 195 246 296 349
#     4  11  24  39  56  84 120 153 188 234 288 344
#     4  10  21  38  60  85 113 149 194 237 279 337
#     4  11  23  39  60  87 119 156 197 241 292 349
#     4  10  21  38  60  84 111 147 191 237 284 340
#
# _framework density 19.405473000000001
#
# number of rings (size 3 to 8) (size 9 to 14) (size 15 to 20)
#    0.000    1.667    0.000    4.500    0.000   12.000 
#    0.000    0.833    0.000    3.000    0.000    0.000 
#    0.000    0.000    0.000    0.000    0.000    0.000 
#
# Total GULP energy -268383.718870 kJ/mol
# GULP energy per Si atom -5591.327476 kJ/mol
# Density = 1.936131 g / cm^3
# Si number density = 19.405473 Si / 1000 Ang^3
#
#
#
# Elastic Constant Matrix: (Units=GPa)
#
#
# Indices 1 2 3 4 5 6 
#
# 1 21.9803 37.6285 30.5176 0.0000 0.0000 0.0000
# 2 37.6285 245.0985 147.8956 0.0000 0.0000 0.0000
# 3 30.5176 147.8956 241.2086 0.0000 0.0000 0.0000
# 4 0.0000 0.0000 0.0000 46.9730 0.0000 0.0000
# 5 0.0000 0.0000 0.0000 0.0000 17.4469 0.0000
# 6 0.0000 0.0000 0.0000 0.0000 0.0000 23.8139
#
#
#
# Elastic Compliance Matrix: (Units=1/GPa)
#
#
# Indices 1 2 3 4 5 6 
#
# 1 0.063284 -0.007753 -0.003253 0.000000 0.000000 0.000000
# 2 -0.007753 0.007426 -0.003572 0.000000 0.000000 0.000000
# 3 -0.003253 -0.003572 0.006748 0.000000 0.000000 0.000000
# 4 0.000000 0.000000 0.000000 0.021289 0.000000 0.000000
# 5 0.000000 0.000000 0.000000 0.000000 0.057317 0.000000
# 6 0.000000 0.000000 0.000000 0.000000 0.000000 0.041992
#
#
# Mechanical properties :
#
#
# Convention : Reuss Voigt Hill
#
# Bulk Modulus (GPa) = 20.70338 104.48563 62.59451
# Shear Modulus (GPa) = 20.54979 37.12979 28.83979
#
# Velocity S-wave (km/s) = 3.25771 4.37895 3.85927
# Velocity P-wave (km/s) = 4.98420 8.91780 7.22390
#
# Compressibility (1/GPa) = 0.04830128
#
# Stress axis : x y z
#
# Youngs Moduli (GPa) = 15.80183 134.66772 148.20009
#
# Poissons Ratio (x) = 1.04402 0.48213
# Poissons Ratio (y) = 0.12250 0.52939
# Poissons Ratio (z) = 0.05141 0.48105
#
# Static dielectric constant tensor:
#      x y z
#    x 1.671970 0.000000 0.000000 
#    y 0.000000 1.663490 0.000000 
#    z 0.000000 0.000000 1.618930 
# 
# From -- ./inp_files/6318.got.cif
#   From: 2010.05.17/outbox.cif.g08.bks.cpg/sg59_4_cif.got.tgz:6318.got - 2010.06.03 14:40:33.
