data_PCOD9452906
_publ_section_title
;
Structure prediction by ZEFSAII (Michael W. Deem and Ramdas Pophale) SiO2 
 PCOD9452906
Probable space group: P M M N
;
_chemical_formula_sum "Si O2"
_cell_formula_units_Z 40
_cell_length_a 8.783205
_cell_length_b 26.116542
_cell_length_c 9.383197
_cell_angle_alpha 90.000000
_cell_angle_beta 90.000000
_cell_angle_gamma 90.000000
_cell_volume 2152.382869
_symmetry_space_group_name_H-M "P M M N"
_symmetry_group_IT_number 59
_space_group.IT_coordinate_system_code '2'
_symmetry_cell_setting 'orthorhombic'
loop_
_space_group_symop_operation_xyz
x,y,z
1/2-x,1/2-y,z
1/2+x,-y,-z
-x,1/2+y,-z
-x,-y,-z
1/2+x,1/2+y,-z
1/2-x,y,z
x,1/2-y,z
loop_
_atom_site_type_symbol
_atom_site_label
_atom_site_fract_x
_atom_site_fract_y
_atom_site_fract_z
Si Si1 0.067089 0.309362 0.332470
Si Si2 0.933378 0.691653 0.335718
Si Si3 0.066669 0.901901 0.162255
Si Si4 0.432326 0.903481 0.832883
Si Si5 0.567067 0.998061 0.658209
O O1 0.250000 0.315682 0.319739
O O2 0.031814 0.250000 0.299984
O O3 0.026480 0.318612 0.498612
O O4 0.983542 0.349432 0.232554
O O5 0.750000 0.689885 0.326920
O O6 0.980948 0.750000 0.301547
O O7 0.002671 0.649225 0.233876
O O8 0.250000 0.899540 0.164945
O O9 0.019671 0.951323 0.254063
O O10 0.019162 0.907200 0.997893
O O11 0.250000 0.908349 0.825575
O O12 0.507594 0.948344 0.740783
O O13 0.750000 0.996709 0.651040
O O14 0.500000 0.000000 0.500000
#
# Coordination Sequence:
#
# PCOD9452906 Si02
#       5
#     8   8   8   8   8
#     4   9  19  37  59  83 112 147 188 232 277 326
#     4   9  19  36  58  83 110 143 185 229 272 323
#     4  10  23  39  55  80 114 148 182 225 276 329
#     4  11  23  38  56  82 115 148 184 226 275 330
#     4  11  23  40  61  84 110 143 185 230 278 331
#
# _framework density 18.584054999999999
#
# number of rings (size 3 to 8) (size 9 to 14) (size 15 to 20)
#    0.000    2.000    0.000    4.200    0.000    8.800 
#    0.000    6.000    0.000    0.000    0.000    0.000 
#    0.000    0.000    0.000    0.000    0.000    0.000 
#
# Total GULP energy -223496.826006 kJ/mol
# GULP energy per Si atom -5587.420650 kJ/mol
# Density = 1.854176 g / cm^3
# Si number density = 18.584055 Si / 1000 Ang^3
#
#
#
# Elastic Constant Matrix: (Units=GPa)
#
#
# Indices 1 2 3 4 5 6 
#
# 1 33.3974 43.9110 52.3945 0.0000 0.0000 0.0000
# 2 43.9110 134.0776 115.4969 0.0000 0.0000 0.0000
# 3 52.3945 115.4969 178.7621 0.0000 0.0000 0.0000
# 4 0.0000 0.0000 0.0000 -106.2602 0.0000 0.0000
# 5 0.0000 0.0000 0.0000 0.0000 32.3520 0.0000
# 6 0.0000 0.0000 0.0000 0.0000 0.0000 35.5402
#
#
#
# Elastic Compliance Matrix: (Units=1/GPa)
#
#
# Indices 1 2 3 4 5 6 
#
# 1 0.061204 -0.010355 -0.011248 0.000000 0.000000 0.000000
# 2 -0.010355 0.018571 -0.008964 0.000000 0.000000 0.000000
# 3 -0.011248 -0.008964 0.014682 0.000000 0.000000 0.000000
# 4 0.000000 0.000000 0.000000 -0.009411 0.000000 0.000000
# 5 0.000000 0.000000 0.000000 0.000000 0.030910 0.000000
# 6 0.000000 0.000000 0.000000 0.000000 0.000000 0.028137
#
#
# Mechanical properties :
#
#
# Convention : Reuss Voigt Hill
#
# Bulk Modulus (GPa) = 30.00911 85.53797 57.77354
# Shear Modulus (GPa) = 23.11229 1.28872 12.20050
#
# Velocity S-wave (km/s) = 3.53039 0.83364 2.56501
# Velocity P-wave (km/s) = 5.72721 6.85960 6.31883
#
# Compressibility (1/GPa) = 0.03332321
#
# Stress axis : x y z
#
# Youngs Moduli (GPa) = 16.33886 53.84694 68.10955
#
# Poissons Ratio (x) = 0.55759 0.76612
# Poissons Ratio (y) = 0.16919 0.61051
# Poissons Ratio (z) = 0.18378 0.48267
#
# Static dielectric constant tensor:
#      x y z
#    x 1.626980 0.000000 0.000000 
#    y 0.000000 1.617080 0.000000 
#    z 0.000000 0.000000 1.618190 
# 
# From -- ./inp_files/5635.got.cif
#   From: 2010.05.17/outbox.cif.g08.bks.cpg/sg59_3_cif.got.tgz:5635.got - 2010.06.03 14:40:33.
