data_PCOD9452579
_publ_section_title
;
Structure prediction by ZEFSAII (Michael W. Deem and Ramdas Pophale) SiO2 
 PCOD9452579
Probable space group: P M M N
;
_chemical_formula_sum "Si O2"
_cell_formula_units_Z 64
_cell_length_a 15.203948
_cell_length_b 23.902768
_cell_length_c 9.744333
_cell_angle_alpha 90.000000
_cell_angle_beta 90.000000
_cell_angle_gamma 90.000000
_cell_volume 3541.250826
_symmetry_space_group_name_H-M "P M M N"
_symmetry_group_IT_number 59
_space_group.IT_coordinate_system_code '2'
_symmetry_cell_setting 'orthorhombic'
loop_
_space_group_symop_operation_xyz
x,y,z
1/2-x,1/2-y,z
1/2+x,-y,-z
-x,1/2+y,-z
-x,-y,-z
1/2+x,1/2+y,-z
1/2-x,y,z
x,1/2-y,z
loop_
_atom_site_type_symbol
_atom_site_label
_atom_site_fract_x
_atom_site_fract_y
_atom_site_fract_z
Si Si1 0.399478 0.005411 0.548494
Si Si2 0.851194 0.426336 0.947447
Si Si3 0.847347 0.096450 0.630974
Si Si4 0.525895 0.637285 0.053653
Si Si5 0.851251 0.815870 0.819260
Si Si6 0.998547 0.314546 0.652259
Si Si7 0.149532 0.130585 0.474340
Si Si8 0.353945 0.467621 0.858112
O O1 0.353388 0.952128 0.480953
O O2 0.500000 0.000000 0.500000
O O3 0.363711 0.064412 0.492817
O O4 0.386119 0.008189 0.711973
O O5 0.750000 0.407356 0.973701
O O6 0.861409 0.430585 0.782312
O O7 0.929964 0.385327 0.991657
O O8 0.862106 0.484988 0.025234
O O9 0.750000 0.121437 0.630784
O O10 0.919996 0.143758 0.610677
O O11 0.512354 0.676581 0.185371
O O12 0.584837 0.584598 0.103656
O O13 0.579759 0.667088 0.934436
O O14 0.750000 0.826880 0.864361
O O15 0.857836 0.750000 0.787772
O O16 0.867287 0.850884 0.681469
O O17 0.981252 0.250000 0.620782
O O18 0.084090 0.336806 0.573753
O O19 0.250000 0.145013 0.507657
O O20 0.250000 0.452540 0.846501
#
# Coordination Sequence:
#
# PCOD9452579 Si02
#       8
#     8   8   8   8   8   8   8   8
#     4  12  22  37  59  89 121 153 190 239 293 353
#     4   9  21  37  56  84 118 152 189 235 290 349
#     4  10  21  39  60  87 118 152 193 240 290 344
#     4  11  21  37  60  84 115 153 194 240 289 342
#     4  10  23  40  58  83 113 150 195 237 280 335
#     4  11  23  40  60  85 114 153 199 241 286 341
#     4  11  23  40  60  85 119 156 192 236 292 351
#     4  11  22  36  55  87 123 155 190 234 292 356
#
# _framework density 18.072710000000001
#
# number of rings (size 3 to 8) (size 9 to 14) (size 15 to 20)
#    0.000    1.375    2.500    3.375    3.500    1.500 
#    0.000    0.000    0.000    1.125    0.000    0.000 
#    0.000    0.000    0.000    0.000    0.000    0.000 
#
# Total GULP energy -357475.211832 kJ/mol
# GULP energy per Si atom -5585.550185 kJ/mol
# Density = 1.803158 g / cm^3
# Si number density = 18.072710 Si / 1000 Ang^3
#
#
#
# Elastic Constant Matrix: (Units=GPa)
#
#
# Indices 1 2 3 4 5 6 
#
# 1 87.6083 31.3806 34.3628 0.0000 0.0000 0.0000
# 2 31.3806 104.5893 47.1720 0.0000 0.0000 0.0000
# 3 34.3628 47.1720 49.3839 0.0000 0.0000 0.0000
# 4 0.0000 0.0000 0.0000 10.7397 0.0000 0.0000
# 5 0.0000 0.0000 0.0000 0.0000 26.9636 0.0000
# 6 0.0000 0.0000 0.0000 0.0000 0.0000 14.4702
#
#
#
# Elastic Compliance Matrix: (Units=1/GPa)
#
#
# Indices 1 2 3 4 5 6 
#
# 1 0.015708 0.000381 -0.011294 0.000000 0.000000 0.000000
# 2 0.000381 0.016807 -0.016320 0.000000 0.000000 0.000000
# 3 -0.011294 -0.016320 0.043697 0.000000 0.000000 0.000000
# 4 0.000000 0.000000 0.000000 0.093113 0.000000 0.000000
# 5 0.000000 0.000000 0.000000 0.000000 0.037087 0.000000
# 6 0.000000 0.000000 0.000000 0.000000 0.000000 0.069108
#
#
# Mechanical properties :
#
#
# Convention : Reuss Voigt Hill
#
# Bulk Modulus (GPa) = 45.98361 51.93470 48.95915
# Shear Modulus (GPa) = 14.82653 19.01243 16.91948
#
# Velocity S-wave (km/s) = 2.86734 3.24697 3.06304
# Velocity P-wave (km/s) = 6.03830 6.54645 6.29750
#
# Compressibility (1/GPa) = 0.02174688
#
# Stress axis : x y z
#
# Youngs Moduli (GPa) = 63.66269 59.49742 22.88507
#
# Poissons Ratio (x) = -0.02265 0.25846
# Poissons Ratio (y) = -0.02424 0.37348
# Poissons Ratio (z) = 0.71898 0.97097
#
# Static dielectric constant tensor:
#      x y z
#    x 1.645540 0.000000 0.000000 
#    y 0.000000 1.589330 0.000000 
#    z 0.000000 0.000000 1.609870 
# 
# From -- ./inp_files/9579.got.cif
#   From: 2010.05.17/outbox.cif.g08.bks.cpg/sg59_5_cif.got.tgz:9579.got - 2010.06.03 14:40:33.
