data_PCOD9452783
_publ_section_title
;
Structure prediction by ZEFSAII (Michael W. Deem and Ramdas Pophale) SiO2 
 PCOD9452783
Probable space group: P M M N
;
_chemical_formula_sum "Si O2"
_cell_formula_units_Z 48
_cell_length_a 27.719340
_cell_length_b 8.044085
_cell_length_c 10.641237
_cell_angle_alpha 90.000000
_cell_angle_beta 90.000000
_cell_angle_gamma 90.000000
_cell_volume 2372.748199
_symmetry_space_group_name_H-M "P M M N"
_symmetry_group_IT_number 59
_space_group.IT_coordinate_system_code '2'
_symmetry_cell_setting 'orthorhombic'
loop_
_space_group_symop_operation_xyz
x,y,z
1/2-x,1/2-y,z
1/2+x,-y,-z
-x,1/2+y,-z
-x,-y,-z
1/2+x,1/2+y,-z
1/2-x,y,z
x,1/2-y,z
loop_
_atom_site_type_symbol
_atom_site_label
_atom_site_fract_x
_atom_site_fract_y
_atom_site_fract_z
Si Si1 0.191650 0.250000 0.370791
Si Si2 0.126725 0.556657 0.740331
Si Si3 0.808083 0.750000 0.336457
Si Si4 0.967918 0.941451 0.382544
Si Si5 0.481679 0.439271 0.135909
Si Si6 0.889778 0.056384 0.973389
Si Si7 0.692629 0.438780 0.793908
O O1 0.250000 0.250000 0.364561
O O2 0.179348 0.250000 0.515924
O O3 0.176029 0.418013 0.300924
O O4 0.143103 0.750000 0.740827
O O5 0.167466 0.418463 0.715933
O O6 0.082228 0.536672 0.643771
O O7 0.106338 0.516822 0.880019
O O8 0.750000 0.750000 0.319967
O O9 0.955086 0.750000 0.401605
O O10 0.000000 0.000000 0.500000
O O11 0.998980 0.960530 0.254598
O O12 0.497087 0.250000 0.155742
O O13 0.424468 0.453462 0.116810
O O14 0.500000 0.500000 0.000000
O O15 0.903569 0.250000 0.958368
O O16 0.835496 0.037771 0.924173
O O17 0.750000 0.451976 0.811087
O O18 0.682203 0.250000 0.749101
#
# Coordination Sequence:
#
# PCOD9452783 Si02
#       7
#     4   8   4   8   8   8   8
#     4   9  20  39  61  87 123 164 215 271 317 383
#     4  11  24  44  68  96 135 177 222 282 343 400
#     4  11  26  45  67  97 135 184 237 281 338 407
#     4  12  25  45  69  98 136 179 227 284 347 417
#     4  12  24  39  64  94 127 171 221 271 334 403
#     4  10  22  39  63  94 127 167 216 271 334 403
#     4   9  19  37  62  92 127 164 206 266 330 385
#
# _framework density 20.229707000000001
#
# number of rings (size 3 to 8) (size 9 to 14) (size 15 to 20)
#    0.000    1.333    2.500    3.000    2.333    3.000 
#    0.000    5.833    0.000    0.000    0.000    0.000 
#    0.000    0.000    0.000    0.000    0.000    0.000 
#
# Total GULP energy -268024.475452 kJ/mol
# GULP energy per Si atom -5583.843239 kJ/mol
# Density = 2.018366 g / cm^3
# Si number density = 20.229707 Si / 1000 Ang^3
#
#
#
# Elastic Constant Matrix: (Units=GPa)
#
#
# Indices 1 2 3 4 5 6 
#
# 1 84.3860 39.0363 30.4466 0.0000 0.0000 0.0000
# 2 39.0363 97.2300 28.2018 0.0000 0.0000 0.0000
# 3 30.4466 28.2018 79.9071 0.0000 0.0000 0.0000
# 4 0.0000 0.0000 0.0000 32.0985 0.0000 0.0000
# 5 0.0000 0.0000 0.0000 0.0000 32.3996 0.0000
# 6 0.0000 0.0000 0.0000 0.0000 0.0000 26.2180
#
#
#
# Elastic Compliance Matrix: (Units=1/GPa)
#
#
# Indices 1 2 3 4 5 6 
#
# 1 0.015720 -0.005096 -0.004191 0.000000 0.000000 0.000000
# 2 -0.005096 0.013110 -0.002685 0.000000 0.000000 0.000000
# 3 -0.004191 -0.002685 0.015059 0.000000 0.000000 0.000000
# 4 0.000000 0.000000 0.000000 0.031154 0.000000 0.000000
# 5 0.000000 0.000000 0.000000 0.000000 0.030865 0.000000
# 6 0.000000 0.000000 0.000000 0.000000 0.000000 0.038142
#
#
# Mechanical properties :
#
#
# Convention : Reuss Voigt Hill
#
# Bulk Modulus (GPa) = 50.13936 50.76584 50.45260
# Shear Modulus (GPa) = 28.63018 29.06578 28.84798
#
# Velocity S-wave (km/s) = 3.76607 3.79461 3.78037
# Velocity P-wave (km/s) = 6.61437 6.65942 6.63693
#
# Compressibility (1/GPa) = 0.01994441
#
# Stress axis : x y z
#
# Youngs Moduli (GPa) = 63.61465 76.28038 66.40455
#
# Poissons Ratio (x) = 0.38869 0.27832
# Poissons Ratio (y) = 0.32415 0.17831
# Poissons Ratio (z) = 0.26662 0.20483
#
# Static dielectric constant tensor:
#      x y z
#    x 1.754270 0.000000 0.000000 
#    y 0.000000 1.727080 0.000000 
#    z 0.000000 0.000000 1.698300 
# 
# From -- ./inp_files/13071.got.cif
#   From: 2010.05.17/outbox.cif.g08.bks.cpg/sg59_7_cif.got.tgz:13071.got - 2010.06.03 14:40:33.
