data_PCOD9452909
_publ_section_title
;
Structure prediction by ZEFSAII (Michael W. Deem and Ramdas Pophale) SiO2 
 PCOD9452909
Probable space group: P M M N
;
_chemical_formula_sum "Si O2"
_cell_formula_units_Z 64
_cell_length_a 18.717685
_cell_length_b 21.679910
_cell_length_c 7.482863
_cell_angle_alpha 90.000000
_cell_angle_beta 90.000000
_cell_angle_gamma 90.000000
_cell_volume 3036.528791
_symmetry_space_group_name_H-M "P M M N"
_symmetry_group_IT_number 59
_space_group.IT_coordinate_system_code '2'
_symmetry_cell_setting 'orthorhombic'
loop_
_space_group_symop_operation_xyz
x,y,z
1/2-x,1/2-y,z
1/2+x,-y,-z
-x,1/2+y,-z
-x,-y,-z
1/2+x,1/2+y,-z
1/2-x,y,z
x,1/2-y,z
loop_
_atom_site_type_symbol
_atom_site_label
_atom_site_fract_x
_atom_site_fract_y
_atom_site_fract_z
Si Si1 0.063687 0.990437 0.746928
Si Si2 0.450492 0.640429 0.935879
Si Si3 0.829231 0.638685 0.670890
Si Si4 0.332600 0.458482 0.041828
Si Si5 0.169121 0.001386 0.431200
Si Si6 0.038329 0.899688 0.310177
Si Si7 0.834681 0.323453 0.812761
Si Si8 0.022637 0.313890 0.403537
O O1 0.048069 0.927277 0.849044
O O2 0.843128 0.003327 0.784202
O O3 0.109635 0.977654 0.567317
O O4 0.993250 0.031224 0.711786
O O5 0.488109 0.634548 0.128070
O O6 0.371071 0.662294 0.993978
O O7 0.487072 0.682281 0.790155
O O8 0.750000 0.664774 0.662045
O O9 0.841568 0.608539 0.867358
O O10 0.831360 0.576307 0.550191
O O11 0.893052 0.681721 0.619492
O O12 0.250000 0.465409 0.986927
O O13 0.385103 0.472692 0.882828
O O14 0.250000 0.979914 0.469945
O O15 0.001267 0.871819 0.482262
O O16 0.119824 0.871560 0.310421
O O17 0.750000 0.335100 0.807981
O O18 0.846049 0.250000 0.772535
O O19 0.000951 0.250000 0.493971
#
# Coordination Sequence:
#
# PCOD9452909 Si02
#       8
#     8   8   8   8   8   8   8   8
#     4  12  19  35  61  91 129 164 200 247 313 377
#     4  10  26  38  61  92 124 157 205 258 313 376
#     4   8  17  37  57  86 126 158 195 244 291 348
#     4   8  17  32  54  85 125 169 199 230 292 361
#     4   8  17  32  53  85 126 164 201 240 287 355
#     4  10  23  39  62  93 119 157 203 251 318 372
#     4   9  20  43  65  82 117 157 200 264 315 355
#     4  12  23  41  66  89 118 163 213 256 305 366
#
# _framework density 21.076698
#
# number of rings (size 3 to 8) (size 9 to 14) (size 15 to 20)
#    1.500    0.875    1.250    2.250    0.000    2.750 
#    0.000    0.625    0.000    2.250    0.000    1.750 
#    0.000    0.000    0.000    0.000    0.000    0.000 
#
# Total GULP energy -356486.545470 kJ/mol
# GULP energy per Si atom -5570.102273 kJ/mol
# Density = 2.102873 g / cm^3
# Si number density = 21.076698 Si / 1000 Ang^3
#
#
#
# Elastic Constant Matrix: (Units=GPa)
#
#
# Indices 1 2 3 4 5 6 
#
# 1 134.2705 45.6609 34.4603 0.0000 0.0000 0.0000
# 2 45.6609 75.4596 -2.2225 0.0000 0.0000 0.0000
# 3 34.4603 -2.2225 70.4039 0.0000 0.0000 0.0000
# 4 0.0000 0.0000 0.0000 -0.1106 0.0000 0.0000
# 5 0.0000 0.0000 0.0000 0.0000 29.7727 0.0000
# 6 0.0000 0.0000 0.0000 0.0000 0.0000 546.9439
#
#
#
# Elastic Compliance Matrix: (Units=1/GPa)
#
#
# Indices 1 2 3 4 5 6 
#
# 1 0.011310 -0.007014 -0.005757 0.000000 0.000000 0.000000
# 2 -0.007014 0.017614 0.003989 0.000000 0.000000 0.000000
# 3 -0.005757 0.003989 0.017148 0.000000 0.000000 0.000000
# 4 0.000000 0.000000 0.000000 -9.039288 0.000000 0.000000
# 5 0.000000 0.000000 0.000000 0.000000 0.033588 0.000000
# 6 0.000000 0.000000 0.000000 0.000000 0.000000 0.001828
#
#
# Mechanical properties :
#
#
# Convention : Reuss Voigt Hill
#
# Bulk Modulus (GPa) = 35.07847 48.43682 41.75764
# Shear Modulus (GPa) = -0.55986 128.80355 64.12184
#
# Velocity S-wave (km/s) = -0.51595 7.82589 5.52170
# Velocity P-wave (km/s) = 4.04035 10.23183 7.77865
#
# Compressibility (1/GPa) = 0.02850752
#
# Stress axis : x y z
#
# Youngs Moduli (GPa) = 88.41460 56.77460 58.31673
#
# Poissons Ratio (x) = 0.39819 0.33575
# Poissons Ratio (y) = 0.62010 -0.23262
# Poissons Ratio (z) = 0.50904 -0.22647
#
# Static dielectric constant tensor:
#      x y z
#    x 1.775860 0.000000 0.000000 
#    y 0.000000 1.696190 0.000000 
#    z 0.000000 0.000000 1.744470 
# 
# From -- ./inp_files/9595.got.cif
#   From: 2010.05.17/outbox.cif.g08.bks.cpg/sg59_5_cif.got.tgz:9595.got - 2010.06.03 14:40:33.
