data_PCOD9452266
_publ_section_title
;
Structure prediction by ZEFSAII (Michael W. Deem and Ramdas Pophale) SiO2 
 PCOD9452266
Probable space group: P M M N
;
_chemical_formula_sum "Si O2"
_cell_formula_units_Z 64
_cell_length_a 16.254362
_cell_length_b 7.852977
_cell_length_c 23.895335
_cell_angle_alpha 90.000000
_cell_angle_beta 90.000000
_cell_angle_gamma 90.000000
_cell_volume 3050.123165
_symmetry_space_group_name_H-M "P M M N"
_symmetry_group_IT_number 59
_space_group.IT_coordinate_system_code '2'
_symmetry_cell_setting 'orthorhombic'
loop_
_space_group_symop_operation_xyz
x,y,z
1/2-x,1/2-y,z
1/2+x,-y,-z
-x,1/2+y,-z
-x,-y,-z
1/2+x,1/2+y,-z
1/2-x,y,z
x,1/2-y,z
loop_
_atom_site_type_symbol
_atom_site_label
_atom_site_fract_x
_atom_site_fract_y
_atom_site_fract_z
Si Si1 0.157885 0.053410 0.915830
Si Si2 0.659666 0.542352 0.526386
Si Si3 0.841802 0.050905 0.958243
Si Si4 0.160034 0.046025 0.694631
Si Si5 0.571944 0.955779 0.417535
Si Si6 0.594529 0.944909 0.638181
Si Si7 0.981698 0.550189 0.871811
Si Si8 0.013336 0.454137 0.252712
O O1 0.250000 0.982556 0.903377
O O2 0.157862 0.250000 0.898017
O O3 0.076842 0.971382 0.889585
O O4 0.147566 0.045031 0.983062
O O5 0.750000 0.501637 0.505063
O O6 0.653079 0.750000 0.529204
O O7 0.595926 0.485880 0.479378
O O8 0.649946 0.476034 0.589546
O O9 0.750000 0.006967 0.935591
O O10 0.840983 0.250000 0.972972
O O11 0.916580 0.022876 0.915918
O O12 0.250000 0.979386 0.711103
O O13 0.160707 0.250000 0.701466
O O14 0.142289 0.013396 0.628919
O O15 0.081060 0.982776 0.728763
O O16 0.557083 0.750000 0.417869
O O17 0.493114 0.050696 0.393538
O O18 0.622312 0.750000 0.647347
O O19 0.573417 0.023395 0.698446
O O20 0.964124 0.750000 0.869917
O O21 0.971293 0.477854 0.809266
O O22 0.024881 0.250000 0.251982
#
# Coordination Sequence:
#
# PCOD9452266 Si02
#       8
#     8   8   8   8   8   8   8   8
#     4  10  21  37  58  85 116 146 175 210 255 309
#     4   9  16  26  44  69  92 115 148 193 242 291
#     4  10  21  38  60  85 112 141 175 216 261 309
#     4   9  17  29  46  68  94 125 161 202 248 300
#     4   9  16  27  45  68  92 118 150 190 240 298
#     4   9  17  31  48  65  89 121 158 197 237 285
#     4  11  22  36  55  78 108 145 182 221 263 307
#     4   9  20  35  48  67  96 131 170 208 247 292
#
# _framework density 20.982758
#
# number of rings (size 3 to 8) (size 9 to 14) (size 15 to 20)
#    0.000    2.500    0.000    2.250    0.000    4.750 
#    0.000    3.125    0.000    4.500    0.000    0.000 
#    0.000    0.000    0.000    0.000    0.000    0.000 
#
# Total GULP energy -356799.713653 kJ/mol
# GULP energy per Si atom -5574.995526 kJ/mol
# Density = 2.093500 g / cm^3
# Si number density = 20.982758 Si / 1000 Ang^3
#
#
#
# Elastic Constant Matrix: (Units=GPa)
#
#
# Indices 1 2 3 4 5 6 
#
# 1 39.6788 -4.8642 10.4503 0.0000 0.0000 0.0000
# 2 -4.8642 31.0240 -4.2049 0.0000 0.0000 0.0000
# 3 10.4503 -4.2049 74.9201 0.0000 0.0000 0.0000
# 4 0.0000 0.0000 0.0000 -0.3168 0.0000 0.0000
# 5 0.0000 0.0000 0.0000 0.0000 12.8800 0.0000
# 6 0.0000 0.0000 0.0000 0.0000 0.0000 -6.0236
#
#
#
# Elastic Compliance Matrix: (Units=1/GPa)
#
#
# Indices 1 2 3 4 5 6 
#
# 1 0.026577 0.003693 -0.003500 0.000000 0.000000 0.000000
# 2 0.003693 0.032993 0.001337 0.000000 0.000000 0.000000
# 3 -0.003500 0.001337 0.013911 0.000000 0.000000 0.000000
# 4 0.000000 0.000000 0.000000 -3.156502 0.000000 0.000000
# 5 0.000000 0.000000 0.000000 0.000000 0.077639 0.000000
# 6 0.000000 0.000000 0.000000 0.000000 0.000000 -0.166013
#
#
# Mechanical properties :
#
#
# Convention : Reuss Voigt Hill
#
# Bulk Modulus (GPa) = 13.06512 16.48725 14.77618
# Shear Modulus (GPa) = -1.58784 10.92404 4.66810
#
# Velocity S-wave (km/s) = -0.87085 2.28418 1.49317
# Velocity P-wave (km/s) = 2.28669 3.85114 3.16703
#
# Compressibility (1/GPa) = 0.07653969
#
# Stress axis : x y z
#
# Youngs Moduli (GPa) = 37.62674 30.30922 71.88683
#
# Poissons Ratio (x) = -0.11192 0.25159
# Poissons Ratio (y) = -0.13894 -0.09609
# Poissons Ratio (z) = 0.13169 -0.04051
#
# Static dielectric constant tensor:
#      x y z
#    x 1.768510 0.000000 0.000000 
#    y 0.000000 1.812710 0.000000 
#    z 0.000000 0.000000 1.787100 
# 
# From -- ./inp_files/32234.got.cif
#   From: 2010.05.17/outbox.cif.g08.bks.cpg/sg59_17_cif.got.tgz:32234.got - 2010.06.03 14:40:33.
