data_PCOD9452051
_publ_section_title
;
Structure prediction by ZEFSAII (Michael W. Deem and Ramdas Pophale) SiO2 
 PCOD9452051
Probable space group: P M M N
;
_chemical_formula_sum "Si O2"
_cell_formula_units_Z 48
_cell_length_a 9.418108
_cell_length_b 16.204044
_cell_length_c 15.512988
_cell_angle_alpha 90.000000
_cell_angle_beta 90.000000
_cell_angle_gamma 90.000000
_cell_volume 2367.459382
_symmetry_space_group_name_H-M "P M M N"
_symmetry_group_IT_number 59
_space_group.IT_coordinate_system_code '2'
_symmetry_cell_setting 'orthorhombic'
loop_
_space_group_symop_operation_xyz
x,y,z
1/2-x,1/2-y,z
1/2+x,-y,-z
-x,1/2+y,-z
-x,-y,-z
1/2+x,1/2+y,-z
1/2-x,y,z
x,1/2-y,z
loop_
_atom_site_type_symbol
_atom_site_label
_atom_site_fract_x
_atom_site_fract_y
_atom_site_fract_z
Si Si1 0.909793 0.347415 0.254316
Si Si2 0.415210 0.896412 0.932499
Si Si3 0.919883 0.077246 0.544894
Si Si4 0.915031 0.906196 0.100243
Si Si5 0.419271 0.652155 0.269904
Si Si6 0.092678 0.154174 0.406877
O O1 0.750000 0.383443 0.259782
O O2 0.896834 0.250000 0.272057
O O3 0.962344 0.356471 0.157091
O O4 0.015056 0.385313 0.324442
O O5 0.250000 0.874856 0.947740
O O6 0.422330 0.994628 0.913528
O O7 0.506886 0.872397 0.015036
O O8 0.750000 0.072679 0.534692
O O9 0.951765 0.098683 0.644324
O O10 0.987780 0.148928 0.487096
O O11 0.000000 0.000000 0.500000
O O12 0.750000 0.882396 0.103713
O O13 0.994553 0.879147 0.187001
O O14 0.250000 0.644223 0.253719
O O15 0.448043 0.750000 0.284963
O O16 0.250000 0.118690 0.422781
O O17 0.111534 0.250000 0.386983
#
# Coordination Sequence:
#
# PCOD9452051 Si02
#       6
#     8   8   8   8   8   8
#     4   9  18  33  55  82 111 149 194 238 285 341
#     4   9  19  36  56  82 118 158 199 241 290 349
#     4  11  24  41  62  89 118 153 198 245 298 358
#     4  10  21  36  57  86 117 153 196 243 295 346
#     4  10  23  43  64  86 116 157 202 246 296 358
#     4  10  21  37  57  84 118 154 192 238 292 346
#
# _framework density 20.274899999999999
#
# number of rings (size 3 to 8) (size 9 to 14) (size 15 to 20)
#    0.000    2.167    0.000    2.000    2.333    5.333 
#    0.000    1.667    0.000    0.000    0.000    0.000 
#    0.000    0.000    0.000    0.000    0.000    0.000 
#
# Total GULP energy -267719.541220 kJ/mol
# GULP energy per Si atom -5577.490442 kJ/mol
# Density = 2.022875 g / cm^3
# Si number density = 20.274900 Si / 1000 Ang^3
#
#
#
# Elastic Constant Matrix: (Units=GPa)
#
#
# Indices 1 2 3 4 5 6 
#
# 1 111.0731 32.0228 108.8141 0.0000 0.0000 0.0000
# 2 32.0228 33.2863 31.2088 0.0000 0.0000 0.0000
# 3 108.8141 31.2088 187.0236 0.0000 0.0000 0.0000
# 4 0.0000 0.0000 0.0000 29.0140 0.0000 0.0000
# 5 0.0000 0.0000 0.0000 0.0000 20.1437 0.0000
# 6 0.0000 0.0000 0.0000 0.0000 0.0000 12.2810
#
#
#
# Elastic Compliance Matrix: (Units=1/GPa)
#
#
# Indices 1 2 3 4 5 6 
#
# 1 0.024440 -0.012068 -0.012206 0.000000 0.000000 0.000000
# 2 -0.012068 0.041574 0.000084 0.000000 0.000000 0.000000
# 3 -0.012206 0.000084 0.012434 0.000000 0.000000 0.000000
# 4 0.000000 0.000000 0.000000 0.034466 0.000000 0.000000
# 5 0.000000 0.000000 0.000000 0.000000 0.049643 0.000000
# 6 0.000000 0.000000 0.000000 0.000000 0.000000 0.081426
#
#
# Mechanical properties :
#
#
# Convention : Reuss Voigt Hill
#
# Bulk Modulus (GPa) = 33.25775 75.05273 54.15524
# Shear Modulus (GPa) = 16.53511 22.91023 19.72267
#
# Velocity S-wave (km/s) = 2.85887 3.36516 3.12230
# Velocity P-wave (km/s) = 5.22844 7.22475 6.30609
#
# Compressibility (1/GPa) = 0.03006818
#
# Stress axis : x y z
#
# Youngs Moduli (GPa) = 40.91648 24.05368 80.42148
#
# Poissons Ratio (x) = 0.29029 0.98161
# Poissons Ratio (y) = 0.49379 -0.00677
# Poissons Ratio (z) = 0.49942 -0.00202
#
# Static dielectric constant tensor:
#      x y z
#    x 1.760520 0.000000 0.000000 
#    y 0.000000 1.811020 0.000000 
#    z 0.000000 0.000000 1.700020 
# 
# From -- ./inp_files/20420.got.cif
#   From: 2010.05.17/outbox.cif.g08.bks.cpg/sg59_11_cif.got.tgz:20420.got - 2010.06.03 14:40:33.
