data_PCOD9452566
_publ_section_title
;
Structure prediction by ZEFSAII (Michael W. Deem and Ramdas Pophale) SiO2 
 PCOD9452566
Probable space group: P M M N
;
_chemical_formula_sum "Si O2"
_cell_formula_units_Z 40
_cell_length_a 18.736360
_cell_length_b 17.061576
_cell_length_c 5.618729
_cell_angle_alpha 90.000000
_cell_angle_beta 90.000000
_cell_angle_gamma 90.000000
_cell_volume 1796.149382
_symmetry_space_group_name_H-M "P M M N"
_symmetry_group_IT_number 59
_space_group.IT_coordinate_system_code '2'
_symmetry_cell_setting 'orthorhombic'
loop_
_space_group_symop_operation_xyz
x,y,z
1/2-x,1/2-y,z
1/2+x,-y,-z
-x,1/2+y,-z
-x,-y,-z
1/2+x,1/2+y,-z
1/2-x,y,z
x,1/2-y,z
loop_
_atom_site_type_symbol
_atom_site_label
_atom_site_fract_x
_atom_site_fract_y
_atom_site_fract_z
Si Si1 0.941273 0.538152 0.329159
Si Si2 0.666563 0.372509 0.728469
Si Si3 0.551726 0.661523 0.972992
Si Si4 0.406550 0.632471 0.779879
Si Si5 0.832546 0.937470 0.707793
O O1 0.911488 0.462041 0.197233
O O2 0.874699 0.576391 0.462869
O O3 0.000000 0.500000 0.500000
O O4 0.978434 0.605189 0.177927
O O5 0.750000 0.351224 0.721176
O O6 0.630792 0.349931 0.473928
O O7 0.663006 0.468221 0.737933
O O8 0.632389 0.341487 0.975783
O O9 0.567381 0.750000 0.043930
O O10 0.488148 0.661801 0.780852
O O11 0.621230 0.613921 0.889660
O O12 0.750000 0.915604 0.706484
#
# Coordination Sequence:
#
# PCOD9452566 Si02
#       5
#     8   8   8   8   8
#     4  11  21  41  67  95 126 179 234 292 342 398
#     4  10  21  38  68 101 129 162 219 283 342 400
#     4  12  25  40  62  94 134 178 228 282 346 420
#     4  11  21  39  67  96 130 171 224 281 336 400
#     4  10  22  39  61  92 132 174 219 276 339 412
#
# _framework density 22.269863000000001
#
# number of rings (size 3 to 8) (size 9 to 14) (size 15 to 20)
#    0.000    1.200    4.000    3.600    0.000    2.800 
#    0.000    0.000    0.000    3.600    0.000    0.000 
#    0.000    0.000    0.000    0.000    0.000    0.000 
#
# Total GULP energy -223371.896009 kJ/mol
# GULP energy per Si atom -5584.297400 kJ/mol
# Density = 2.221918 g / cm^3
# Si number density = 22.269863 Si / 1000 Ang^3
#
#
#
# Elastic Constant Matrix: (Units=GPa)
#
#
# Indices 1 2 3 4 5 6 
#
# 1 169.8378 14.8602 76.5859 0.0000 0.0000 0.0000
# 2 14.8602 112.2195 40.7811 0.0000 0.0000 0.0000
# 3 76.5859 40.7811 136.8867 0.0000 0.0000 0.0000
# 4 0.0000 0.0000 0.0000 -6.6706 0.0000 0.0000
# 5 0.0000 0.0000 0.0000 0.0000 38.3225 0.0000
# 6 0.0000 0.0000 0.0000 0.0000 0.0000 -7.5927
#
#
#
# Elastic Compliance Matrix: (Units=1/GPa)
#
#
# Indices 1 2 3 4 5 6 
#
# 1 0.007914 0.000629 -0.004615 0.000000 0.000000 0.000000
# 2 0.000629 0.010043 -0.003344 0.000000 0.000000 0.000000
# 3 -0.004615 -0.003344 0.010884 0.000000 0.000000 0.000000
# 4 0.000000 0.000000 0.000000 -0.149911 0.000000 0.000000
# 5 0.000000 0.000000 0.000000 0.000000 0.026094 0.000000
# 6 0.000000 0.000000 0.000000 0.000000 0.000000 -0.131706
#
#
# Mechanical properties :
#
#
# Convention : Reuss Voigt Hill
#
# Bulk Modulus (GPa) = 70.51851 75.93316 73.22584
# Shear Modulus (GPa) = -24.12034 23.92628 -0.09703
#
# Velocity S-wave (km/s) = -3.29461 3.28133 -0.20896
# Velocity P-wave (km/s) = 4.15471 6.96613 5.73536
#
# Compressibility (1/GPa) = 0.01418067
#
# Stress axis : x y z
#
# Youngs Moduli (GPa) = 126.35672 99.57157 91.88024
#
# Poissons Ratio (x) = -0.06265 0.42405
# Poissons Ratio (y) = -0.07951 0.30725
# Poissons Ratio (z) = 0.58317 0.33297
#
# Static dielectric constant tensor:
#      x y z
#    x 1.808740 0.000000 0.000000 
#    y 0.000000 1.814560 0.000000 
#    z 0.000000 0.000000 1.950250 
# 
# From -- ./inp_files/2633.got.cif
#   From: 2010.05.17/outbox.cif.g08.bks.cpg/sg59_2_cif.got.tgz:2633.got - 2010.06.03 14:40:33.
