data_PCOD9452550
_publ_section_title
;
Structure prediction by ZEFSAII (Michael W. Deem and Ramdas Pophale) SiO2 
 PCOD9452550
Probable space group: P M M N
;
_chemical_formula_sum "Si O2"
_cell_formula_units_Z 64
_cell_length_a 14.021925
_cell_length_b 24.632200
_cell_length_c 9.604674
_cell_angle_alpha 90.000000
_cell_angle_beta 90.000000
_cell_angle_gamma 90.000000
_cell_volume 3317.366622
_symmetry_space_group_name_H-M "P M M N"
_symmetry_group_IT_number 59
_space_group.IT_coordinate_system_code '2'
_symmetry_cell_setting 'orthorhombic'
loop_
_space_group_symop_operation_xyz
x,y,z
1/2-x,1/2-y,z
1/2+x,-y,-z
-x,1/2+y,-z
-x,-y,-z
1/2+x,1/2+y,-z
1/2-x,y,z
x,1/2-y,z
loop_
_atom_site_type_symbol
_atom_site_label
_atom_site_fract_x
_atom_site_fract_y
_atom_site_fract_z
Si Si1 0.643056 0.467523 0.513489
Si Si2 0.462390 0.395381 0.204931
Si Si3 0.557458 0.686663 0.277639
Si Si4 0.856015 0.141001 0.325912
Si Si5 0.481700 0.482294 0.709107
Si Si6 0.635995 0.688669 0.590520
Si Si7 0.643401 0.186385 0.619763
Si Si8 0.362864 0.406274 0.909144
O O1 0.750000 0.482386 0.553638
O O2 0.646197 0.416043 0.410519
O O3 0.575940 0.455089 0.644275
O O4 0.591772 0.513416 0.420883
O O5 0.565321 0.365278 0.207464
O O6 0.405291 0.360247 0.318382
O O7 0.484148 0.457402 0.248593
O O8 0.404738 0.397123 0.062474
O O9 0.559983 0.750000 0.235803
O O10 0.599976 0.683104 0.432764
O O11 0.447250 0.667392 0.291819
O O12 0.617177 0.648363 0.177624
O O13 0.750000 0.152985 0.273611
O O14 0.879330 0.180704 0.454639
O O15 0.426081 0.452256 0.831710
O O16 0.750000 0.686242 0.592854
O O17 0.607798 0.750000 0.639081
O O18 0.750000 0.161903 0.641066
O O19 0.650150 0.250000 0.649710
O O20 0.250000 0.419251 0.910531
#
# Coordination Sequence:
#
# PCOD9452550 Si02
#       8
#     8   8   8   8   8   8   8   8
#     4   9  18  33  57  86 110 141 189 245 300 355
#     4  11  23  40  59  86 121 161 207 254 301 367
#     4  10  21  39  62  91 124 161 207 257 308 363
#     4   9  17  32  54  81 114 148 187 240 302 361
#     4  10  22  38  58  86 119 156 199 251 312 368
#     4  10  21  38  62  91 122 159 207 260 306 353
#     4   9  16  29  56  90 119 150 190 243 306 362
#     4  12  26  42  60  84 123 170 208 251 312 375
#
# _framework density 19.292411999999999
#
# number of rings (size 3 to 8) (size 9 to 14) (size 15 to 20)
#    0.000    2.000    1.250    2.250    3.500    2.750 
#    0.000    1.250    0.000    0.000    0.000    0.000 
#    0.000    0.000    0.000    0.000    0.000    0.000 
#
# Total GULP energy -356873.190225 kJ/mol
# GULP energy per Si atom -5576.143597 kJ/mol
# Density = 1.924850 g / cm^3
# Si number density = 19.292412 Si / 1000 Ang^3
#
#
#
# Elastic Constant Matrix: (Units=GPa)
#
#
# Indices 1 2 3 4 5 6 
#
# 1 134.3732 27.4525 41.6784 0.0000 0.0000 0.0000
# 2 27.4525 67.4692 27.3550 0.0000 0.0000 0.0000
# 3 41.6784 27.3550 64.1407 0.0000 0.0000 0.0000
# 4 0.0000 0.0000 0.0000 2.3312 0.0000 0.0000
# 5 0.0000 0.0000 0.0000 0.0000 22.9269 0.0000
# 6 0.0000 0.0000 0.0000 0.0000 0.0000 23.5101
#
#
#
# Elastic Compliance Matrix: (Units=1/GPa)
#
#
# Indices 1 2 3 4 5 6 
#
# 1 0.009469 -0.001642 -0.005452 0.000000 0.000000 0.000000
# 2 -0.001642 0.018205 -0.006697 0.000000 0.000000 0.000000
# 3 -0.005452 -0.006697 0.021990 0.000000 0.000000 0.000000
# 4 0.000000 0.000000 0.000000 0.428968 0.000000 0.000000
# 5 0.000000 0.000000 0.000000 0.000000 0.043617 0.000000
# 6 0.000000 0.000000 0.000000 0.000000 0.000000 0.042535
#
#
# Mechanical properties :
#
#
# Convention : Reuss Voigt Hill
#
# Bulk Modulus (GPa) = 45.28908 50.99499 48.14204
# Shear Modulus (GPa) = 8.33714 21.05344 14.69529
#
# Velocity S-wave (km/s) = 2.08107 3.30704 2.76291
# Velocity P-wave (km/s) = 5.41299 6.40875 5.93180
#
# Compressibility (1/GPa) = 0.02208038
#
# Stress axis : x y z
#
# Youngs Moduli (GPa) = 105.61247 54.92985 45.47551
#
# Poissons Ratio (x) = 0.09020 0.24795
# Poissons Ratio (y) = 0.17342 0.30456
# Poissons Ratio (z) = 0.57583 0.36787
#
# Static dielectric constant tensor:
#      x y z
#    x 1.728080 0.000000 0.000000 
#    y 0.000000 1.720230 0.000000 
#    z 0.000000 0.000000 1.636350 
# 
# From -- ./inp_files/9569.got.cif
#   From: 2010.05.17/outbox.cif.g08.bks.cpg/sg59_5_cif.got.tgz:9569.got - 2010.06.03 14:40:33.
