data_PCOD9452415
_publ_section_title
;
Structure prediction by ZEFSAII (Michael W. Deem and Ramdas Pophale) SiO2 
 PCOD9452415
Probable space group: P M M N
;
_chemical_formula_sum "Si O2"
_cell_formula_units_Z 48
_cell_length_a 7.973003
_cell_length_b 10.131103
_cell_length_c 29.471449
_cell_angle_alpha 90.000000
_cell_angle_beta 90.000000
_cell_angle_gamma 90.000000
_cell_volume 2380.565565
_symmetry_space_group_name_H-M "P M M N"
_symmetry_group_IT_number 59
_space_group.IT_coordinate_system_code '2'
_symmetry_cell_setting 'orthorhombic'
loop_
_space_group_symop_operation_xyz
x,y,z
1/2-x,1/2-y,z
1/2+x,-y,-z
-x,1/2+y,-z
-x,-y,-z
1/2+x,1/2+y,-z
1/2-x,y,z
x,1/2-y,z
loop_
_atom_site_type_symbol
_atom_site_label
_atom_site_fract_x
_atom_site_fract_y
_atom_site_fract_z
Si Si1 0.045354 0.750000 0.034538
Si Si2 0.451372 0.750000 0.930637
Si Si3 0.452844 0.901033 0.358384
Si Si4 0.448967 0.531739 0.105292
Si Si5 0.951681 0.397992 0.538529
Si Si6 0.449627 0.395606 0.793994
Si Si7 0.548825 0.400197 0.279573
O O1 0.250000 0.750000 0.032876
O O2 0.990848 0.622978 0.063589
O O3 0.986432 0.750000 0.982807
O O4 0.250000 0.750000 0.931067
O O5 0.511246 0.881179 0.905712
O O6 0.250000 0.901386 0.357483
O O7 0.506614 0.750000 0.346930
O O8 0.508279 0.929846 0.410143
O O9 0.513975 0.011027 0.323656
O O10 0.250000 0.550658 0.108776
O O11 0.523901 0.576331 0.153052
O O12 0.750000 0.394192 0.540334
O O13 0.012044 0.250000 0.527594
O O14 0.000000 0.500000 0.500000
O O15 0.250000 0.390589 0.785871
O O16 0.519469 0.250000 0.782660
O O17 0.517842 0.513727 0.762884
O O18 0.750000 0.390073 0.274690
O O19 0.483059 0.250000 0.281973
#
# Coordination Sequence:
#
# PCOD9452415 Si02
#       7
#     4   4   8   8   8   8   8
#     4   9  20  39  61  85 117 149 187 233 278 329
#     4  11  23  39  59  85 117 155 189 227 278 331
#     4   9  19  37  58  80 110 149 192 235 281 333
#     4  11  22  39  60  87 117 148 186 233 282 332
#     4   9  19  35  54  79 112 149 190 236 283 334
#     4  10  21  38  59  83 111 148 191 230 275 337
#     4  10  22  38  57  84 116 147 182 229 281 334
#
# _framework density 20.163274999999999
#
# number of rings (size 3 to 8) (size 9 to 14) (size 15 to 20)
#    0.000    2.167    0.833    2.750    1.167    3.667 
#    0.000    7.500    0.000    0.000    0.000    0.000 
#    0.000    0.000    0.000    0.000    0.000    0.000 
#
# Total GULP energy -268021.146977 kJ/mol
# GULP energy per Si atom -5583.773895 kJ/mol
# Density = 2.011738 g / cm^3
# Si number density = 20.163275 Si / 1000 Ang^3
#
#
#
# Elastic Constant Matrix: (Units=GPa)
#
#
# Indices 1 2 3 4 5 6 
#
# 1 13.2044 5.7108 -0.3830 0.0000 0.0000 0.0000
# 2 5.7108 173.5748 80.4181 0.0000 0.0000 0.0000
# 3 -0.3830 80.4181 110.1503 0.0000 0.0000 0.0000
# 4 0.0000 0.0000 0.0000 37.2231 0.0000 0.0000
# 5 0.0000 0.0000 0.0000 0.0000 28.2951 0.0000
# 6 0.0000 0.0000 0.0000 0.0000 0.0000 12.2493
#
#
#
# Elastic Compliance Matrix: (Units=1/GPa)
#
#
# Indices 1 2 3 4 5 6 
#
# 1 0.077576 -0.004046 0.003224 0.000000 0.000000 0.000000
# 2 -0.004046 0.008917 -0.006524 0.000000 0.000000 0.000000
# 3 0.003224 -0.006524 0.013853 0.000000 0.000000 0.000000
# 4 0.000000 0.000000 0.000000 0.026865 0.000000 0.000000
# 5 0.000000 0.000000 0.000000 0.000000 0.035342 0.000000
# 6 0.000000 0.000000 0.000000 0.000000 0.000000 0.081637
#
#
# Mechanical properties :
#
#
# Convention : Reuss Voigt Hill
#
# Bulk Modulus (GPa) = 11.67504 52.04683 31.86093
# Shear Modulus (GPa) = 17.39532 29.63241 23.51387
#
# Velocity S-wave (km/s) = 2.94040 3.83773 3.41863
# Velocity P-wave (km/s) = 4.16302 6.74583 5.60522
#
# Compressibility (1/GPa) = 0.08565280
#
# Stress axis : x y z
#
# Youngs Moduli (GPa) = 12.89060 112.14545 72.18735
#
# Poissons Ratio (x) = 0.45372 -0.23270
# Poissons Ratio (y) = 0.05215 0.47096
# Poissons Ratio (z) = -0.04155 0.73165
#
# Static dielectric constant tensor:
#      x y z
#    x 1.726080 0.000000 0.000000 
#    y 0.000000 1.712960 0.000000 
#    z 0.000000 0.000000 1.690080 
# 
# From -- ./inp_files/32999.got.cif
#   From: 2010.05.17/outbox.cif.g08.bks.cpg/sg59_17_cif.got.tgz:32999.got - 2010.06.03 14:40:33.
