data_PCOD9452101
_publ_section_title
;
Structure prediction by ZEFSAII (Michael W. Deem and Ramdas Pophale) SiO2 
 PCOD9452101
Probable space group: P M M N
;
_chemical_formula_sum "Si O2"
_cell_formula_units_Z 64
_cell_length_a 15.132536
_cell_length_b 8.950791
_cell_length_c 25.256108
_cell_angle_alpha 90.000000
_cell_angle_beta 90.000000
_cell_angle_gamma 90.000000
_cell_volume 3420.893535
_symmetry_space_group_name_H-M "P M M N"
_symmetry_group_IT_number 59
_space_group.IT_coordinate_system_code '2'
_symmetry_cell_setting 'orthorhombic'
loop_
_space_group_symop_operation_xyz
x,y,z
1/2-x,1/2-y,z
1/2+x,-y,-z
-x,1/2+y,-z
-x,-y,-z
1/2+x,1/2+y,-z
1/2-x,y,z
x,1/2-y,z
loop_
_atom_site_type_symbol
_atom_site_label
_atom_site_fract_x
_atom_site_fract_y
_atom_site_fract_z
Si Si1 0.646707 0.584421 0.100427
Si Si2 0.354907 0.571201 0.793045
Si Si3 0.644471 0.418861 0.877155
Si Si4 0.146083 0.930357 0.488380
Si Si5 0.404739 0.570792 0.005480
Si Si6 0.985966 0.431960 0.299409
Si Si7 0.507981 0.430481 0.420175
Si Si8 0.648663 0.570495 0.769708
O O1 0.750000 0.600177 0.111840
O O2 0.607672 0.750000 0.092385
O O3 0.610523 0.504066 0.152749
O O4 0.642474 0.491247 0.046540
O O5 0.250000 0.542278 0.785910
O O6 0.364991 0.750000 0.798930
O O7 0.410200 0.521174 0.741901
O O8 0.750000 0.410814 0.872792
O O9 0.608702 0.250000 0.873112
O O10 0.615714 0.515360 0.827101
O O11 0.627287 0.477070 0.936255
O O12 0.250000 0.976533 0.488033
O O13 0.145019 0.750000 0.483463
O O14 0.091512 0.968907 0.542144
O O15 0.082693 0.000654 0.443409
O O16 0.402529 0.750000 0.004264
O O17 0.500000 0.500000 0.000000
O O18 0.984319 0.250000 0.299894
O O19 0.975800 0.480092 0.359922
O O20 0.080021 0.479134 0.274905
O O21 0.499365 0.250000 0.421248
O O22 0.750000 0.519854 0.760861
O O23 0.649516 0.750000 0.770350
#
# Coordination Sequence:
#
# PCOD9452101 Si02
#       8
#     8   8   8   8   8   8   8   8
#     4  10  21  37  55  75 101 133 171 215 264 321
#     4   9  18  33  53  76 102 135 174 216 264 318
#     4   9  19  36  54  71  94 125 163 207 255 311
#     4   9  18  33  53  78 111 147 180 219 268 315
#     4  11  23  36  52  76 103 130 166 213 267 325
#     4   9  18  32  52  78 105 135 174 219 261 306
#     4   9  18  33  53  79 109 142 184 225 264 313
#     4   9  18  32  50  72  99 131 167 208 256 308
#
# _framework density 18.708563000000002
#
# number of rings (size 3 to 8) (size 9 to 14) (size 15 to 20)
#    0.000    2.625    0.000    1.125    1.750    3.500 
#    0.000    6.250    0.000    1.500    0.000    1.750 
#    0.000    0.000    0.000    0.000    0.000    0.000 
#
# Total GULP energy -356561.578117 kJ/mol
# GULP energy per Si atom -5571.274658 kJ/mol
# Density = 1.866598 g / cm^3
# Si number density = 18.708563 Si / 1000 Ang^3
#
#
#
# Elastic Constant Matrix: (Units=GPa)
#
#
# Indices 1 2 3 4 5 6 
#
# 1 58.2837 10.1754 3.4279 0.0000 0.0000 0.0000
# 2 10.1754 16.5301 13.3951 0.0000 0.0000 0.0000
# 3 3.4279 13.3951 97.9204 0.0000 0.0000 0.0000
# 4 0.0000 0.0000 0.0000 25.5054 0.0000 0.0000
# 5 0.0000 0.0000 0.0000 0.0000 24.3942 0.0000
# 6 0.0000 0.0000 0.0000 0.0000 0.0000 17.3628
#
#
#
# Elastic Compliance Matrix: (Units=1/GPa)
#
#
# Indices 1 2 3 4 5 6 
#
# 1 0.019322 -0.012761 0.001069 0.000000 0.000000 0.000000
# 2 -0.012761 0.076465 -0.010013 0.000000 0.000000 0.000000
# 3 0.001069 -0.010013 0.011545 0.000000 0.000000 0.000000
# 4 0.000000 0.000000 0.000000 0.039207 0.000000 0.000000
# 5 0.000000 0.000000 0.000000 0.000000 0.040993 0.000000
# 6 0.000000 0.000000 0.000000 0.000000 0.000000 0.057595
#
#
# Mechanical properties :
#
#
# Convention : Reuss Voigt Hill
#
# Bulk Modulus (GPa) = 15.64395 25.19235 20.41815
# Shear Modulus (GPa) = 16.13710 23.16819 19.65264
#
# Velocity S-wave (km/s) = 2.94011 3.52287 3.24460
# Velocity P-wave (km/s) = 4.46158 5.48109 4.99741
#
# Compressibility (1/GPa) = 0.06392249
#
# Stress axis : x y z
#
# Youngs Moduli (GPa) = 51.75343 13.07784 86.61953
#
# Poissons Ratio (x) = 0.16688 -0.09261
# Poissons Ratio (y) = 0.66041 0.86736
# Poissons Ratio (z) = -0.05533 0.13095
#
# Static dielectric constant tensor:
#      x y z
#    x 1.646460 0.000000 0.000000 
#    y 0.000000 1.652320 0.000000 
#    z 0.000000 0.000000 1.697650 
# 
# From -- ./inp_files/32175.got.cif
#   From: 2010.05.17/outbox.cif.g08.bks.cpg/sg59_17_cif.got.tgz:32175.got - 2010.06.03 14:40:33.
