data_PCOD9452370
_publ_section_title
;
Structure prediction by ZEFSAII (Michael W. Deem and Ramdas Pophale) SiO2 
 PCOD9452370
Probable space group: P M M N
;
_chemical_formula_sum "Si O2"
_cell_formula_units_Z 64
_cell_length_a 15.313680
_cell_length_b 15.448933
_cell_length_c 12.733595
_cell_angle_alpha 90.000000
_cell_angle_beta 90.000000
_cell_angle_gamma 90.000000
_cell_volume 3012.514113
_symmetry_space_group_name_H-M "P M M N"
_symmetry_group_IT_number 59
_space_group.IT_coordinate_system_code '2'
_symmetry_cell_setting 'orthorhombic'
loop_
_space_group_symop_operation_xyz
x,y,z
1/2-x,1/2-y,z
1/2+x,-y,-z
-x,1/2+y,-z
-x,-y,-z
1/2+x,1/2+y,-z
1/2-x,y,z
x,1/2-y,z
loop_
_atom_site_type_symbol
_atom_site_label
_atom_site_fract_x
_atom_site_fract_y
_atom_site_fract_z
Si Si1 0.954420 0.155818 0.769325
Si Si2 0.476320 0.660418 0.987705
Si Si3 0.410993 0.491488 0.714488
Si Si4 0.851688 0.155819 0.575446
Si Si5 0.342743 0.530900 0.929747
Si Si6 0.650411 0.885127 0.900777
Si Si7 0.853049 0.965016 0.515652
Si Si8 0.043091 0.144518 0.314643
O O1 0.996676 0.250000 0.745226
O O2 0.867014 0.154113 0.700721
O O3 0.945198 0.153708 0.893408
O O4 0.010502 0.074611 0.735564
O O5 0.443758 0.750000 0.940344
O O6 0.432324 0.582628 0.929264
O O7 0.579958 0.659776 0.976987
O O8 0.350100 0.484177 0.817418
O O9 0.364503 0.459171 0.609017
O O10 0.454071 0.587447 0.697687
O O11 0.750000 0.156080 0.548390
O O12 0.888273 0.250000 0.538452
O O13 0.886962 0.063331 0.538499
O O14 0.250000 0.579826 0.930128
O O15 0.344004 0.476059 0.037198
O O16 0.750000 0.852602 0.895074
O O17 0.604552 0.878772 0.786968
O O18 0.750000 0.959655 0.544201
O O19 0.907347 0.895665 0.583676
O O20 0.032851 0.250000 0.318220
#
# Coordination Sequence:
#
# PCOD9452370 Si02
#       8
#     8   8   8   8   8   8   8   8
#     4  10  21  37  64  93 125 168 214 266 322 384
#     4  11  22  39  61  94 134 170 214 268 326 391
#     4  12  23  44  65  94 130 173 217 269 322 396
#     4   9  19  37  61  92 124 159 212 274 331 384
#     4  11  24  41  67  96 131 177 221 268 324 389
#     4  11  23  41  67  95 126 171 220 268 323 384
#     4  11  25  43  65  92 126 170 218 270 328 391
#     4  12  26  43  67  98 132 173 220 271 328 392
#
# _framework density 21.244713000000001
#
# number of rings (size 3 to 8) (size 9 to 14) (size 15 to 20)
#    0.000    1.125    3.750    2.625    0.000    3.500 
#    0.000    1.250    0.000    3.375    0.000    0.000 
#    0.000    0.000    0.000    0.000    0.000    0.000 
#
# Total GULP energy -356380.328151 kJ/mol
# GULP energy per Si atom -5568.442627 kJ/mol
# Density = 2.119636 g / cm^3
# Si number density = 21.244713 Si / 1000 Ang^3
#
#
#
# Elastic Constant Matrix: (Units=GPa)
#
#
# Indices 1 2 3 4 5 6 
#
# 1 52.0192 19.9931 -2.3164 0.0000 0.0000 0.0000
# 2 19.9931 109.1898 20.0616 0.0000 0.0000 0.0000
# 3 -2.3164 20.0616 87.6229 0.0000 0.0000 0.0000
# 4 0.0000 0.0000 0.0000 51.8542 0.0000 0.0000
# 5 0.0000 0.0000 0.0000 0.0000 18.6795 0.0000
# 6 0.0000 0.0000 0.0000 0.0000 0.0000 -350.0991
#
#
#
# Elastic Compliance Matrix: (Units=1/GPa)
#
#
# Indices 1 2 3 4 5 6 
#
# 1 0.020863 -0.004094 0.001489 0.000000 0.000000 0.000000
# 2 -0.004094 0.010364 -0.002481 0.000000 0.000000 0.000000
# 3 0.001489 -0.002481 0.012020 0.000000 0.000000 0.000000
# 4 0.000000 0.000000 0.000000 0.019285 0.000000 0.000000
# 5 0.000000 0.000000 0.000000 0.000000 0.053535 0.000000
# 6 0.000000 0.000000 0.000000 0.000000 0.000000 -0.002856
#
#
# Mechanical properties :
#
#
# Convention : Reuss Voigt Hill
#
# Bulk Modulus (GPa) = 30.23416 36.03427 33.13422
# Shear Modulus (GPa) = 37.20044 -41.84016 -2.31986
#
# Velocity S-wave (km/s) = 4.18909 -4.44265 -1.04611
# Velocity P-wave (km/s) = 6.13679 3.05251 3.76446
#
# Compressibility (1/GPa) = 0.03307517
#
# Stress axis : x y z
#
# Youngs Moduli (GPa) = 47.93101 96.48984 83.19509
#
# Poissons Ratio (x) = 0.39500 -0.12386
# Poissons Ratio (y) = 0.19621 0.20641
# Poissons Ratio (z) = -0.07136 0.23940
#
# Static dielectric constant tensor:
#      x y z
#    x 1.786380 0.000000 0.000000 
#    y 0.000000 1.445080 0.000000 
#    z 0.000000 0.000000 1.800370 
# 
# From -- ./inp_files/17830.got.cif
#   From: 2010.05.17/outbox.cif.g08.bks.cpg/sg59_9_cif.got.tgz:17830.got - 2010.06.03 14:40:33.
