data_PCOD9452901
_publ_section_title
;
Structure prediction by ZEFSAII (Michael W. Deem and Ramdas Pophale) SiO2 
 PCOD9452901
Probable space group: P M M N
;
_chemical_formula_sum "Si O2"
_cell_formula_units_Z 46
_cell_length_a 9.998123
_cell_length_b 22.267162
_cell_length_c 11.553137
_cell_angle_alpha 90.000000
_cell_angle_beta 90.000000
_cell_angle_gamma 90.000000
_cell_volume 2572.072863
_symmetry_space_group_name_H-M "P M M N"
_symmetry_group_IT_number 59
_space_group.IT_coordinate_system_code '2'
_symmetry_cell_setting 'orthorhombic'
loop_
_space_group_symop_operation_xyz
x,y,z
1/2-x,1/2-y,z
1/2+x,-y,-z
-x,1/2+y,-z
-x,-y,-z
1/2+x,1/2+y,-z
1/2-x,y,z
x,1/2-y,z
loop_
_atom_site_type_symbol
_atom_site_label
_atom_site_fract_x
_atom_site_fract_y
_atom_site_fract_z
Si Si1 0.476371 0.922830 0.281830
Si Si2 0.908915 0.180125 0.888005
Si Si3 0.250000 0.010606 0.661299
Si Si4 0.750000 0.082728 0.530746
Si Si5 0.101583 0.479584 0.098178
Si Si6 0.513520 0.654272 0.853394
Si Si7 0.750000 0.375092 0.282326
Si Si8 0.750000 0.750000 0.808705
O O1 0.481410 0.863780 0.201870
O O2 0.619308 0.949866 0.316296
O O3 0.380812 0.910697 0.390707
O O4 0.408239 0.973777 0.202774
O O5 0.750000 0.165380 0.888249
O O6 0.923597 0.250000 0.856507
O O7 0.966746 0.170883 0.016422
O O8 0.250000 0.982470 0.532086
O O9 0.250000 0.948440 0.737475
O O10 0.750000 0.127781 0.421663
O O11 0.250000 0.479955 0.047961
O O12 0.066292 0.413674 0.141836
O O13 0.000000 0.500000 0.000000
O O14 0.381921 0.653519 0.773085
O O15 0.631268 0.697975 0.814241
#
# Coordination Sequence:
#
# PCOD9452901 Si02
#       8
#     8   8   4   4   8   8   4   2
#     4  12  22  41  67 101 133 175 223 283 349 395
#     4  11  23  39  65  93 133 180 227 271 327 420
#     4  10  24  37  65 104 133 169 215 286 345 394
#     4  10  22  44  67  99 126 175 231 273 349 397
#     4  12  24  34  60  99 139 169 212 276 337 404
#     4  12  23  43  63  99 133 175 225 269 337 401
#     4  10  24  40  70  96 127 173 230 276 320 410
#     4  12  28  42  68  96 134 184 214 274 340 402
#
# _framework density 17.884405999999998
#
# number of rings (size 3 to 8) (size 9 to 14) (size 15 to 20)
#    0.522    0.174    7.826    0.522    2.435    1.043 
#    0.000    0.870    3.826    0.000    0.000    0.000 
#    0.000    0.000    0.000    0.000    0.000    0.000 
#
# Total GULP energy -256333.878413 kJ/mol
# GULP energy per Si atom -5572.475618 kJ/mol
# Density = 1.784370 g / cm^3
# Si number density = 17.884406 Si / 1000 Ang^3
#
#
#
# Elastic Constant Matrix: (Units=GPa)
#
#
# Indices 1 2 3 4 5 6 
#
# 1 163.0956 39.9088 60.4657 0.0000 0.0000 0.0000
# 2 39.9088 103.9996 38.0280 0.0000 0.0000 0.0000
# 3 60.4657 38.0280 96.2783 0.0000 0.0000 0.0000
# 4 0.0000 0.0000 0.0000 -0.6168 0.0000 0.0000
# 5 0.0000 0.0000 0.0000 0.0000 8.8061 0.0000
# 6 0.0000 0.0000 0.0000 0.0000 0.0000 31.3044
#
#
#
# Elastic Compliance Matrix: (Units=1/GPa)
#
#
# Indices 1 2 3 4 5 6 
#
# 1 0.008181 -0.001473 -0.004556 0.000000 0.000000 0.000000
# 2 -0.001473 0.011504 -0.003618 0.000000 0.000000 0.000000
# 3 -0.004556 -0.003618 0.014677 0.000000 0.000000 0.000000
# 4 0.000000 0.000000 0.000000 -1.621238 0.000000 0.000000
# 5 0.000000 0.000000 0.000000 0.000000 0.113558 0.000000
# 6 0.000000 0.000000 0.000000 0.000000 0.000000 0.031944
#
#
# Mechanical properties :
#
#
# Convention : Reuss Voigt Hill
#
# Bulk Modulus (GPa) = 66.37331 71.13093 68.75212
# Shear Modulus (GPa) = -3.52844 22.89680 9.68418
#
# Velocity S-wave (km/s) = -1.40613 3.58196 2.32951
# Velocity P-wave (km/s) = 5.87849 7.54760 6.76472
#
# Compressibility (1/GPa) = 0.01506630
#
# Stress axis : x y z
#
# Youngs Moduli (GPa) = 122.23481 86.92667 68.13373
#
# Poissons Ratio (x) = 0.12808 0.31041
# Poissons Ratio (y) = 0.18011 0.24654
# Poissons Ratio (z) = 0.55689 0.31454
#
# Static dielectric constant tensor:
#      x y z
#    x 1.545190 0.000000 0.000000 
#    y 0.000000 1.603010 0.000000 
#    z 0.000000 0.000000 1.603320 
# 
# From -- ./inp_files/14423.got.cif
#   From: 2010.05.17/outbox.cif.g08.bks.cpg/sg59_8_cif.got.tgz:14423.got - 2010.06.03 14:40:33.
