data_PCOD9452692
_publ_section_title
;
Structure prediction by ZEFSAII (Michael W. Deem and Ramdas Pophale) SiO2 
 PCOD9452692
Probable space group: P M M N
;
_chemical_formula_sum "Si O2"
_cell_formula_units_Z 40
_cell_length_a 8.818376
_cell_length_b 15.072634
_cell_length_c 15.253430
_cell_angle_alpha 90.000000
_cell_angle_beta 90.000000
_cell_angle_gamma 90.000000
_cell_volume 2027.427250
_symmetry_space_group_name_H-M "P M M N"
_symmetry_group_IT_number 59
_space_group.IT_coordinate_system_code '2'
_symmetry_cell_setting 'orthorhombic'
loop_
_space_group_symop_operation_xyz
x,y,z
1/2-x,1/2-y,z
1/2+x,-y,-z
-x,1/2+y,-z
-x,-y,-z
1/2+x,1/2+y,-z
1/2-x,y,z
x,1/2-y,z
loop_
_atom_site_type_symbol
_atom_site_label
_atom_site_fract_x
_atom_site_fract_y
_atom_site_fract_z
Si Si1 0.430297 0.933846 0.735689
Si Si2 0.568517 0.102858 0.664113
Si Si3 0.569652 0.250000 0.518771
Si Si4 0.929595 0.750000 0.670818
Si Si5 0.067495 0.750000 0.195460
Si Si6 0.068882 0.250000 0.997903
Si Si7 0.067951 0.060463 0.076344
O O1 0.250000 0.928552 0.737891
O O2 0.499752 0.838752 0.711742
O O3 0.495867 0.961378 0.830287
O O4 0.484148 0.009748 0.668355
O O5 0.750000 0.088326 0.669482
O O6 0.540070 0.163870 0.579239
O O7 0.522544 0.163954 0.747453
O O8 0.750000 0.250000 0.497060
O O9 0.472120 0.250000 0.431653
O O10 0.750000 0.750000 0.685089
O O11 0.250000 0.750000 0.192081
O O12 0.004122 0.750000 0.098072
O O13 0.250000 0.250000 0.986058
O O14 0.029138 0.161772 0.051179
O O15 0.250000 0.050788 0.080441
O O16 0.000000 0.000000 0.000000
#
# Coordination Sequence:
#
# PCOD9452692 Si02
#       7
#     8   8   4   4   4   4   8
#     4  12  25  41  62  89 120 158 203 250 301 359
#     4   9  19  38  63  90 121 156 194 241 299 358
#     4   9  20  41  67  95 124 154 195 245 295 356
#     4  12  26  44  65  88 120 161 202 248 302 359
#     4   9  18  33  57  87 118 154 195 240 291 350
#     4  10  22  36  53  78 112 153 194 241 296 351
#     4  11  23  40  60  86 120 159 204 251 300 355
#
# _framework density 19.729437000000001
#
# number of rings (size 3 to 8) (size 9 to 14) (size 15 to 20)
#    0.000    1.600    0.000    6.300    0.000    8.000 
#    0.000    2.000    0.000    0.000    0.000    0.000 
#    0.000    0.000    0.000    0.000    0.000    0.000 
#
# Total GULP energy -223706.924437 kJ/mol
# GULP energy per Si atom -5592.673111 kJ/mol
# Density = 1.968453 g / cm^3
# Si number density = 19.729437 Si / 1000 Ang^3
#
#
#
# Elastic Constant Matrix: (Units=GPa)
#
#
# Indices 1 2 3 4 5 6 
#
# 1 93.2615 61.6683 40.9798 0.0000 0.0000 0.0000
# 2 61.6683 138.3002 23.8227 0.0000 0.0000 0.0000
# 3 40.9798 23.8227 69.0405 0.0000 0.0000 0.0000
# 4 0.0000 0.0000 0.0000 -0.0553 0.0000 0.0000
# 5 0.0000 0.0000 0.0000 0.0000 37.2677 0.0000
# 6 0.0000 0.0000 0.0000 0.0000 0.0000 25.8478
#
#
#
# Elastic Compliance Matrix: (Units=1/GPa)
#
#
# Indices 1 2 3 4 5 6 
#
# 1 0.019390 -0.007085 -0.009065 0.000000 0.000000 0.000000
# 2 -0.007085 0.010276 0.000659 0.000000 0.000000 0.000000
# 3 -0.009065 0.000659 0.019637 0.000000 0.000000 0.000000
# 4 0.000000 0.000000 0.000000-18.082200 0.000000 0.000000
# 5 0.000000 0.000000 0.000000 0.000000 0.026833 0.000000
# 6 0.000000 0.000000 0.000000 0.000000 0.000000 0.038688
#
#
# Mechanical properties :
#
#
# Convention : Reuss Voigt Hill
#
# Bulk Modulus (GPa) = 54.57459 61.50485 58.03972
# Shear Modulus (GPa) = -0.27886 24.22081 11.97097
#
# Velocity S-wave (km/s) = -0.37636 3.50758 2.46592
# Velocity P-wave (km/s) = 5.24716 6.90261 6.13102
#
# Compressibility (1/GPa) = 0.01832354
#
# Stress axis : x y z
#
# Youngs Moduli (GPa) = 51.57184 97.31243 50.92365
#
# Poissons Ratio (x) = 0.68944 0.46161
# Poissons Ratio (y) = 0.36538 -0.03358
# Poissons Ratio (z) = 0.46749 -0.06417
#
# Static dielectric constant tensor:
#      x y z
#    x 1.654580 0.000000 0.000000 
#    y 0.000000 1.699310 0.000000 
#    z 0.000000 0.000000 1.672020 
# 
# From -- ./inp_files/20054.got.cif
#   From: 2010.05.17/outbox.cif.g08.bks.cpg/sg59_11_cif.got.tgz:20054.got - 2010.06.03 14:40:33.
