data_PCOD9452198
_publ_section_title
;
Structure prediction by ZEFSAII (Michael W. Deem and Ramdas Pophale) SiO2 
 PCOD9452198
Probable space group: P M M N
;
_chemical_formula_sum "Si O2"
_cell_formula_units_Z 64
_cell_length_a 28.516994
_cell_length_b 9.597889
_cell_length_c 12.324522
_cell_angle_alpha 90.000000
_cell_angle_beta 90.000000
_cell_angle_gamma 90.000000
_cell_volume 3373.257943
_symmetry_space_group_name_H-M "P M M N"
_symmetry_group_IT_number 59
_space_group.IT_coordinate_system_code '2'
_symmetry_cell_setting 'orthorhombic'
loop_
_space_group_symop_operation_xyz
x,y,z
1/2-x,1/2-y,z
1/2+x,-y,-z
-x,1/2+y,-z
-x,-y,-z
1/2+x,1/2+y,-z
1/2-x,y,z
x,1/2-y,z
loop_
_atom_site_type_symbol
_atom_site_label
_atom_site_fract_x
_atom_site_fract_y
_atom_site_fract_z
Si Si1 0.193295 0.910734 0.697536
Si Si2 0.435455 0.911173 0.027799
Si Si3 0.533568 0.915370 0.418837
Si Si4 0.696428 0.592383 0.696221
Si Si5 0.528430 0.583503 0.164631
Si Si6 0.857719 0.909326 0.476079
Si Si7 0.830261 0.411771 0.897889
Si Si8 0.694485 0.594149 0.102878
O O1 0.250000 0.915986 0.692716
O O2 0.179767 0.750000 0.711059
O O3 0.171408 0.979839 0.592037
O O4 0.175524 0.003422 0.797848
O O5 0.442119 0.750000 0.994447
O O6 0.477381 0.946059 0.111231
O O7 0.386341 0.921668 0.089368
O O8 0.437516 0.005401 0.920000
O O9 0.521960 0.750000 0.423290
O O10 0.530563 0.958374 0.291301
O O11 0.587191 0.931712 0.458304
O O12 0.500000 0.000000 0.500000
O O13 0.750000 0.579393 0.654601
O O14 0.692388 0.750000 0.742851
O O15 0.659464 0.580534 0.599449
O O16 0.687007 0.477796 0.786446
O O17 0.536661 0.750000 0.160733
O O18 0.846862 0.750000 0.439310
O O19 0.816585 0.250000 0.909254
O O20 0.810918 0.506441 0.994255
O O21 0.750000 0.607569 0.122624
O O22 0.674330 0.750000 0.096112
#
# Coordination Sequence:
#
# PCOD9452198 Si02
#       8
#     8   8   8   8   8   8   8   8
#     4  10  21  37  59  89 122 154 192 240 295 354
#     4   9  20  37  57  84 115 150 188 231 291 352
#     4  10  23  40  61  89 120 155 198 245 296 353
#     4  10  22  40  60  82 114 157 202 247 295 352
#     4   9  19  38  60  83 115 151 191 238 288 346
#     4  10  22  40  61  88 118 155 204 249 295 355
#     4  11  23  36  56  86 118 149 191 243 295 352
#     4  10  21  37  57  81 113 153 191 229 282 345
#
# _framework density 18.972757000000001
#
# number of rings (size 3 to 8) (size 9 to 14) (size 15 to 20)
#    0.000    2.125    0.000    1.875    3.500    6.250 
#    0.000    0.000    0.000    0.000    0.000    0.000 
#    0.000    0.000    0.000    0.000    0.000    0.000 
#
# Total GULP energy -357223.124368 kJ/mol
# GULP energy per Si atom -5581.611318 kJ/mol
# Density = 1.892957 g / cm^3
# Si number density = 18.972757 Si / 1000 Ang^3
#
#
#
# Elastic Constant Matrix: (Units=GPa)
#
#
# Indices 1 2 3 4 5 6 
#
# 1 39.5658 29.5336 21.3499 0.0000 0.0000 0.0000
# 2 29.5336 120.1101 56.2709 0.0000 0.0000 0.0000
# 3 21.3499 56.2709 92.5930 0.0000 0.0000 0.0000
# 4 0.0000 0.0000 0.0000 -138.4443 0.0000 0.0000
# 5 0.0000 0.0000 0.0000 0.0000 31.7324 0.0000
# 6 0.0000 0.0000 0.0000 0.0000 0.0000 115.5744
#
#
#
# Elastic Compliance Matrix: (Units=1/GPa)
#
#
# Indices 1 2 3 4 5 6 
#
# 1 0.031795 -0.006128 -0.003607 0.000000 0.000000 0.000000
# 2 -0.006128 0.012821 -0.006378 0.000000 0.000000 0.000000
# 3 -0.003607 -0.006378 0.015508 0.000000 0.000000 0.000000
# 4 0.000000 0.000000 0.000000 -0.007223 0.000000 0.000000
# 5 0.000000 0.000000 0.000000 0.000000 0.031514 0.000000
# 6 0.000000 0.000000 0.000000 0.000000 0.000000 0.008652
#
#
# Mechanical properties :
#
#
# Convention : Reuss Voigt Hill
#
# Bulk Modulus (GPa) = 35.84669 51.84195 43.84432
# Shear Modulus (GPa) = 37.14905 11.44679 24.29792
#
# Velocity S-wave (km/s) = 4.42975 2.45894 3.58253
# Velocity P-wave (km/s) = 6.71553 5.95362 6.34602
#
# Compressibility (1/GPa) = 0.02789658
#
# Stress axis : x y z
#
# Youngs Moduli (GPa) = 31.45143 77.99818 64.48284
#
# Poissons Ratio (x) = 0.47798 0.23259
# Poissons Ratio (y) = 0.19274 0.41130
# Poissons Ratio (z) = 0.11345 0.49751
#
# Static dielectric constant tensor:
#      x y z
#    x 1.670180 0.000000 0.000000 
#    y 0.000000 1.655010 0.000000 
#    z 0.000000 0.000000 1.633210 
# 
# From -- ./inp_files/19311.got.cif
#   From: 2010.05.17/outbox.cif.g08.bks.cpg/sg59_10_cif.got.tgz:19311.got - 2010.06.03 14:40:33.
