data_PCOD9452614
_publ_section_title
;
Structure prediction by ZEFSAII (Michael W. Deem and Ramdas Pophale) SiO2 
 PCOD9452614
Probable space group: P M M N
;
_chemical_formula_sum "Si O2"
_cell_formula_units_Z 40
_cell_length_a 8.443372
_cell_length_b 20.926147
_cell_length_c 11.853718
_cell_angle_alpha 90.000000
_cell_angle_beta 90.000000
_cell_angle_gamma 90.000000
_cell_volume 2094.400760
_symmetry_space_group_name_H-M "P M M N"
_symmetry_group_IT_number 59
_space_group.IT_coordinate_system_code '2'
_symmetry_cell_setting 'orthorhombic'
loop_
_space_group_symop_operation_xyz
x,y,z
1/2-x,1/2-y,z
1/2+x,-y,-z
-x,1/2+y,-z
-x,-y,-z
1/2+x,1/2+y,-z
1/2-x,y,z
x,1/2-y,z
loop_
_atom_site_type_symbol
_atom_site_label
_atom_site_fract_x
_atom_site_fract_y
_atom_site_fract_z
Si Si1 0.439443 0.499583 0.871383
Si Si2 0.440708 0.125797 0.738792
Si Si3 0.556659 0.824819 0.502468
Si Si4 0.438105 0.750000 0.133921
Si Si5 0.060732 0.124490 0.256125
Si Si6 0.561284 0.250000 0.132417
O O1 0.250000 0.496185 0.876489
O O2 0.499360 0.437917 0.801246
O O3 0.488043 0.563035 0.804179
O O4 0.500000 0.500000 0.000000
O O5 0.250000 0.121826 0.734151
O O6 0.496532 0.139473 0.611117
O O7 0.488053 0.187341 0.810751
O O8 0.750000 0.823644 0.502368
O O9 0.506531 0.750000 0.503220
O O10 0.506580 0.861478 0.615621
O O11 0.250000 0.750000 0.153577
O O12 0.466817 0.750000 0.000827
O O13 0.250000 0.117399 0.256840
O O14 0.014107 0.187385 0.186842
O O15 0.750000 0.250000 0.152456
#
# Coordination Sequence:
#
# PCOD9452614 Si02
#       6
#     8   8   8   4   8   4
#     4  11  24  41  61  88 121 160 202 248 298 354
#     4  10  21  39  63  85 113 157 202 240 290 355
#     4   9  17  35  62  89 117 150 194 246 294 350
#     4  11  23  36  55  86 118 149 192 247 302 343
#     4  11  22  38  62  89 118 157 197 240 300 361
#     4  11  23  38  57  84 120 157 200 253 296 347
#
# _framework density 19.098541000000001
#
# number of rings (size 3 to 8) (size 9 to 14) (size 15 to 20)
#    0.000    1.600    2.000    3.000    0.000    7.200 
#    0.000    3.000    0.000    0.000    0.000    0.000 
#    0.000    0.000    0.000    0.000    0.000    0.000 
#
# Total GULP energy -223481.801807 kJ/mol
# GULP energy per Si atom -5587.045045 kJ/mol
# Density = 1.905507 g / cm^3
# Si number density = 19.098541 Si / 1000 Ang^3
#
#
#
# Elastic Constant Matrix: (Units=GPa)
#
#
# Indices 1 2 3 4 5 6 
#
# 1 18.8476 17.5509 37.9095 0.0000 0.0000 0.0000
# 2 17.5509 183.6843 91.8956 0.0000 0.0000 0.0000
# 3 37.9095 91.8956 146.1591 0.0000 0.0000 0.0000
# 4 0.0000 0.0000 0.0000 19.9681 0.0000 0.0000
# 5 0.0000 0.0000 0.0000 0.0000 19.1514 0.0000
# 6 0.0000 0.0000 0.0000 0.0000 0.0000 49.5684
#
#
#
# Elastic Compliance Matrix: (Units=1/GPa)
#
#
# Indices 1 2 3 4 5 6 
#
# 1 0.114926 0.005736 -0.033415 0.000000 0.000000 0.000000
# 2 0.005736 0.008229 -0.006662 0.000000 0.000000 0.000000
# 3 -0.033415 -0.006662 0.019697 0.000000 0.000000 0.000000
# 4 0.000000 0.000000 0.000000 0.050080 0.000000 0.000000
# 5 0.000000 0.000000 0.000000 0.000000 0.052215 0.000000
# 6 0.000000 0.000000 0.000000 0.000000 0.000000 0.020174
#
#
# Mechanical properties :
#
#
# Convention : Reuss Voigt Hill
#
# Bulk Modulus (GPa) = 13.48239 71.48923 42.48581
# Shear Modulus (GPa) = 13.93824 31.15991 22.54908
#
# Velocity S-wave (km/s) = 2.70442 4.04361 3.43982
# Velocity P-wave (km/s) = 4.10202 7.70156 6.17011
#
# Compressibility (1/GPa) = 0.07417081
#
# Stress axis : x y z
#
# Youngs Moduli (GPa) = 8.70128 121.52547 50.76887
#
# Poissons Ratio (x) = -0.69709 1.69644
# Poissons Ratio (y) = -0.04991 0.33820
# Poissons Ratio (z) = 0.29075 0.80954
#
# Static dielectric constant tensor:
#      x y z
#    x 1.667870 0.000000 0.000000 
#    y 0.000000 1.629360 0.000000 
#    z 0.000000 0.000000 1.660000 
# 
# From -- ./inp_files/13891.got.cif
#   From: 2010.05.17/outbox.cif.g08.bks.cpg/sg59_7_cif.got.tgz:13891.got - 2010.06.03 14:40:33.
