data_PCOD9452924
_publ_section_title
;
Structure prediction by ZEFSAII (Michael W. Deem and Ramdas Pophale) SiO2 
 PCOD9452924
Probable space group: P M M N
;
_chemical_formula_sum "Si O2"
_cell_formula_units_Z 64
_cell_length_a 7.920430
_cell_length_b 24.146520
_cell_length_c 15.698353
_cell_angle_alpha 90.000000
_cell_angle_beta 90.000000
_cell_angle_gamma 90.000000
_cell_volume 3002.322906
_symmetry_space_group_name_H-M "P M M N"
_symmetry_group_IT_number 59
_space_group.IT_coordinate_system_code '2'
_symmetry_cell_setting 'orthorhombic'
loop_
_space_group_symop_operation_xyz
x,y,z
1/2-x,1/2-y,z
1/2+x,-y,-z
-x,1/2+y,-z
-x,-y,-z
1/2+x,1/2+y,-z
1/2-x,y,z
x,1/2-y,z
loop_
_atom_site_type_symbol
_atom_site_label
_atom_site_fract_x
_atom_site_fract_y
_atom_site_fract_z
Si Si1 0.554062 0.012835 0.341894
Si Si2 0.950289 0.489571 0.851549
Si Si3 0.449224 0.688337 0.261759
Si Si4 0.054067 0.369238 0.907351
Si Si5 0.946452 0.397957 0.600370
Si Si6 0.445696 0.127189 0.417993
Si Si7 0.543495 0.686885 0.750893
Si Si8 0.456818 0.109772 0.093043
O O1 0.750000 0.027997 0.334403
O O2 0.459498 0.064629 0.382660
O O3 0.482562 0.998887 0.248617
O O4 0.536472 0.957177 0.396958
O O5 0.750000 0.482661 0.865304
O O6 0.009119 0.545766 0.897679
O O7 0.038760 0.433883 0.882298
O O8 0.250000 0.691536 0.281215
O O9 0.521438 0.750000 0.270891
O O10 0.467611 0.666190 0.166050
O O11 0.519009 0.642758 0.327284
O O12 0.250000 0.353111 0.907577
O O13 0.986793 0.364765 0.003424
O O14 0.750000 0.409262 0.619609
O O15 0.961886 0.370745 0.507951
O O16 0.250000 0.140978 0.433047
O O17 0.512120 0.165610 0.341698
O O18 0.750000 0.684955 0.750304
O O19 0.492793 0.750000 0.766923
O O20 0.488370 0.645294 0.825479
O O21 0.250000 0.109370 0.092759
#
# Coordination Sequence:
#
# PCOD9452924 Si02
#       8
#     8   8   8   8   8   8   8   8
#     4  12  23  37  60  90 121 153 193 241 292 352
#     4  11  20  36  60  86 120 160 193 236 296 358
#     4  10  23  43  63  82 113 161 206 244 294 352
#     4  11  22  36  59  92 122 153 195 246 294 346
#     4  11  23  40  62  87 118 155 194 240 296 354
#     4  11  22  38  61  89 121 155 194 240 293 353
#     4   9  18  35  59  85 115 154 198 243 289 339
#     4   9  19  35  57  88 122 156 195 237 290 349
#
# _framework density 21.316828000000001
#
# number of rings (size 3 to 8) (size 9 to 14) (size 15 to 20)
#    0.000    1.500    2.500    3.375    0.000    1.750 
#    0.000    3.125    0.000    1.125    0.000    0.000 
#    0.000    0.000    0.000    0.000    0.000    0.000 
#
# Total GULP energy -357802.252701 kJ/mol
# GULP energy per Si atom -5590.660198 kJ/mol
# Density = 2.126831 g / cm^3
# Si number density = 21.316828 Si / 1000 Ang^3
#
#
#
# Elastic Constant Matrix: (Units=GPa)
#
#
# Indices 1 2 3 4 5 6 
#
# 1 30.5565 -10.4042 -15.3994 0.0000 0.0000 0.0000
# 2 -10.4042 67.0236 -5.8888 0.0000 0.0000 0.0000
# 3 -15.3994 -5.8888 79.4771 0.0000 0.0000 0.0000
# 4 0.0000 0.0000 0.0000 8.4506 0.0000 0.0000
# 5 0.0000 0.0000 0.0000 0.0000 11.9481 0.0000
# 6 0.0000 0.0000 0.0000 0.0000 0.0000 -11.7263
#
#
#
# Elastic Compliance Matrix: (Units=1/GPa)
#
#
# Indices 1 2 3 4 5 6 
#
# 1 0.039107 0.006781 0.008080 0.000000 0.000000 0.000000
# 2 0.006781 0.016194 0.002514 0.000000 0.000000 0.000000
# 3 0.008080 0.002514 0.014334 0.000000 0.000000 0.000000
# 4 0.000000 0.000000 0.000000 0.118335 0.000000 0.000000
# 5 0.000000 0.000000 0.000000 0.000000 0.083695 0.000000
# 6 0.000000 0.000000 0.000000 0.000000 0.000000 -0.085279
#
#
# Mechanical properties :
#
#
# Convention : Reuss Voigt Hill
#
# Bulk Modulus (GPa) = 9.58021 12.63028 11.10525
# Shear Modulus (GPa) = 26.81934 15.65112 21.23523
#
# Velocity S-wave (km/s) = 3.55086 2.71258 3.15964
# Velocity P-wave (km/s) = 4.61686 3.96846 4.30489
#
# Compressibility (1/GPa) = 0.10438186
#
# Stress axis : x y z
#
# Youngs Moduli (GPa) = 25.57102 61.75309 69.76427
#
# Poissons Ratio (x) = -0.41872 -0.56367
# Poissons Ratio (y) = -0.17338 -0.17536
# Poissons Ratio (z) = -0.20661 -0.15522
#
# Static dielectric constant tensor:
#      x y z
#    x 1.726410 0.000000 0.000000 
#    y 0.000000 1.750000 0.000000 
#    z 0.000000 0.000000 1.760930 
# 
# From -- ./inp_files/21437.got.cif
#   From: 2010.05.17/outbox.cif.g08.bks.cpg/sg59_11_cif.got.tgz:21437.got - 2010.06.03 14:40:33.
