data_PCOD9452634
_publ_section_title
;
Structure prediction by ZEFSAII (Michael W. Deem and Ramdas Pophale) SiO2 
 PCOD9452634
Probable space group: P M M N
;
_chemical_formula_sum "Si O2"
_cell_formula_units_Z 56
_cell_length_a 22.974621
_cell_length_b 9.178069
_cell_length_c 13.568008
_cell_angle_alpha 90.000000
_cell_angle_beta 90.000000
_cell_angle_gamma 90.000000
_cell_volume 2860.986214
_symmetry_space_group_name_H-M "P M M N"
_symmetry_group_IT_number 59
_space_group.IT_coordinate_system_code '2'
_symmetry_cell_setting 'orthorhombic'
loop_
_space_group_symop_operation_xyz
x,y,z
1/2-x,1/2-y,z
1/2+x,-y,-z
-x,1/2+y,-z
-x,-y,-z
1/2+x,1/2+y,-z
1/2-x,y,z
x,1/2-y,z
loop_
_atom_site_type_symbol
_atom_site_label
_atom_site_fract_x
_atom_site_fract_y
_atom_site_fract_z
Si Si1 0.438555 0.577152 0.002427
Si Si2 0.750000 0.581384 0.197921
Si Si3 0.872406 0.073983 0.197095
Si Si4 0.750000 0.581927 0.961626
Si Si5 0.976530 0.416447 0.346427
Si Si6 0.152284 0.923021 0.159501
Si Si7 0.420744 0.584532 0.436002
Si Si8 0.182898 0.076574 0.364015
O O1 0.446259 0.750000 0.989699
O O2 0.396010 0.531771 0.912038
O O3 0.500000 0.500000 0.000000
O O4 0.409799 0.552235 0.108993
O O5 0.750000 0.750000 0.231884
O O6 0.689012 0.501560 0.224279
O O7 0.750000 0.581218 0.078835
O O8 0.864107 0.250000 0.199309
O O9 0.925566 0.037968 0.271518
O O10 0.750000 0.750000 0.926885
O O11 0.804028 0.495307 0.917948
O O12 0.993963 0.250000 0.320833
O O13 0.949333 0.413677 0.456169
O O14 0.033058 0.517240 0.358718
O O15 0.162398 0.750000 0.167532
O O16 0.164451 0.001040 0.261943
O O17 0.406377 0.750000 0.407463
O O18 0.363206 0.487270 0.440264
O O19 0.250000 0.040612 0.385820
O O20 0.177840 0.250000 0.355980
#
# Coordination Sequence:
#
# PCOD9452634 Si02
#       8
#     8   4   8   4   8   8   8   8
#     4  10  23  38  55  84 118 154 193 235 289 340
#     4  11  23  37  57  86 117 156 199 243 292 342
#     4  10  21  40  62  85 116 157 198 239 291 353
#     4  11  21  35  55  80 111 152 193 231 278 336
#     4   9  20  40  65  91 117 152 197 243 298 358
#     4  11  22  37  58  84 113 150 194 238 284 337
#     4  10  21  39  64  91 118 151 194 247 302 356
#     4  11  24  40  59  86 120 160 201 243 297 356
#
# _framework density 19.573668999999999
#
# number of rings (size 3 to 8) (size 9 to 14) (size 15 to 20)
#    0.000    1.714    2.143    1.714    2.000    4.286 
#    1.286    0.000    0.000    0.000    0.000    0.000 
#    0.000    0.000    0.000    0.000    0.000    0.000 
#
# Total GULP energy -312630.453328 kJ/mol
# GULP energy per Si atom -5582.686667 kJ/mol
# Density = 1.952912 g / cm^3
# Si number density = 19.573669 Si / 1000 Ang^3
#
#
#
# Elastic Constant Matrix: (Units=GPa)
#
#
# Indices 1 2 3 4 5 6 
#
# 1 115.3237 52.8352 1.7192 0.0000 0.0000 0.0000
# 2 52.8352 61.1191 1.7791 0.0000 0.0000 0.0000
# 3 1.7192 1.7791 18.3311 0.0000 0.0000 0.0000
# 4 0.0000 0.0000 0.0000 22.5224 0.0000 0.0000
# 5 0.0000 0.0000 0.0000 0.0000 30.0306 0.0000
# 6 0.0000 0.0000 0.0000 0.0000 0.0000 36.3233
#
#
#
# Elastic Compliance Matrix: (Units=1/GPa)
#
#
# Indices 1 2 3 4 5 6 
#
# 1 0.014358 -0.012408 -0.000142 0.000000 0.000000 0.000000
# 2 -0.012408 0.027130 -0.001469 0.000000 0.000000 0.000000
# 3 -0.000142 -0.001469 0.054708 0.000000 0.000000 0.000000
# 4 0.000000 0.000000 0.000000 0.044400 0.000000 0.000000
# 5 0.000000 0.000000 0.000000 0.000000 0.033299 0.000000
# 6 0.000000 0.000000 0.000000 0.000000 0.000000 0.027531
#
#
# Mechanical properties :
#
#
# Convention : Reuss Voigt Hill
#
# Bulk Modulus (GPa) = 14.67196 34.16008 24.41602
# Shear Modulus (GPa) = 19.82675 27.00463 23.41569
#
# Velocity S-wave (km/s) = 3.18611 3.71838 3.46249
# Velocity P-wave (km/s) = 4.58771 5.99375 5.33724
#
# Compressibility (1/GPa) = 0.06815721
#
# Stress axis : x y z
#
# Youngs Moduli (GPa) = 69.64782 36.85909 18.27887
#
# Poissons Ratio (x) = 0.45734 0.00260
# Poissons Ratio (y) = 0.86417 0.02686
# Poissons Ratio (z) = 0.00991 0.05416
#
# Static dielectric constant tensor:
#      x y z
#    x 1.691640 0.000000 0.000000 
#    y 0.000000 1.666450 0.000000 
#    z 0.000000 0.000000 1.707230 
# 
# From -- ./inp_files/24394.got.cif
#   From: 2010.05.17/outbox.cif.g08.bks.cpg/sg59_13_cif.got.tgz:24394.got - 2010.06.03 14:40:33.
