data_PCOD9452680
_publ_section_title
;
Structure prediction by ZEFSAII (Michael W. Deem and Ramdas Pophale) SiO2 
 PCOD9452680
Probable space group: P M M N
;
_chemical_formula_sum "Si O2"
_cell_formula_units_Z 42
_cell_length_a 13.431747
_cell_length_b 27.682776
_cell_length_c 4.826619
_cell_angle_alpha 90.000000
_cell_angle_beta 90.000000
_cell_angle_gamma 90.000000
_cell_volume 1794.672299
_symmetry_space_group_name_H-M "P M M N"
_symmetry_group_IT_number 59
_space_group.IT_coordinate_system_code '2'
_symmetry_cell_setting 'orthorhombic'
loop_
_space_group_symop_operation_xyz
x,y,z
1/2-x,1/2-y,z
1/2+x,-y,-z
-x,1/2+y,-z
-x,-y,-z
1/2+x,1/2+y,-z
1/2-x,y,z
x,1/2-y,z
loop_
_atom_site_type_symbol
_atom_site_label
_atom_site_fract_x
_atom_site_fract_y
_atom_site_fract_z
Si Si1 0.635511 0.911291 0.639073
Si Si2 0.521882 0.549672 0.152025
Si Si3 0.135978 0.303471 0.316231
Si Si4 0.573675 0.174253 0.077657
Si Si5 0.632351 0.383344 0.575526
Si Si6 0.750000 0.250000 0.188557
O O1 0.750000 0.920787 0.694095
O O2 0.627178 0.855493 0.529609
O O3 0.577224 0.917053 0.926025
O O4 0.594457 0.949012 0.416313
O O5 0.422127 0.571939 0.282627
O O6 0.500000 0.500000 0.000000
O O7 0.404181 0.662031 0.240052
O O8 0.250000 0.305309 0.195080
O O9 0.130579 0.250000 0.455727
O O10 0.037756 0.306148 0.123148
O O11 0.594588 0.127136 0.267710
O O12 0.750000 0.387410 0.585393
O O13 0.661722 0.290949 0.176844
#
# Coordination Sequence:
#
# PCOD9452680 Si02
#       6
#     8   8   8   8   8   2
#     4  11  24  45  71 101 141 177 226 287 345 404
#     4  12  25  45  71 102 135 179 234 285 347 414
#     4  10  21  41  69 102 138 185 229 279 338 408
#     4  12  24  42  65  97 133 176 227 277 333 407
#     4  12  24  43  64  93 133 176 220 279 345 395
#     4  12  24  42  70 102 136 182 236 272 344 414
#
# _framework density 23.4026
#
# number of rings (size 3 to 8) (size 9 to 14) (size 15 to 20)
#    0.000    0.571    6.667    1.143    0.000    3.048 
#    0.000    3.810    0.000   11.429    0.000    0.000 
#    0.000    0.000    0.000    0.000    0.000    0.000 
#
# Total GULP energy -234032.665480 kJ/mol
# GULP energy per Si atom -5572.206321 kJ/mol
# Density = 2.334933 g / cm^3
# Si number density = 23.402600 Si / 1000 Ang^3
#
#
#
# Elastic Constant Matrix: (Units=GPa)
#
#
# Indices 1 2 3 4 5 6 
#
# 1 225.3043 27.0906 21.9860 0.0000 0.0000 0.0000
# 2 27.0906 63.0204 -0.5743 0.0000 0.0000 0.0000
# 3 21.9860 -0.5743 70.3281 0.0000 0.0000 0.0000
# 4 0.0000 0.0000 0.0000 -99.0862 0.0000 0.0000
# 5 0.0000 0.0000 0.0000 0.0000 9.2295 0.0000
# 6 0.0000 0.0000 0.0000 0.0000 0.0000 137.2112
#
#
#
# Elastic Compliance Matrix: (Units=1/GPa)
#
#
# Indices 1 2 3 4 5 6 
#
# 1 0.004840 -0.002094 -0.001530 0.000000 0.000000 0.000000
# 2 -0.002094 0.016775 0.000792 0.000000 0.000000 0.000000
# 3 -0.001530 0.000792 0.014704 0.000000 0.000000 0.000000
# 4 0.000000 0.000000 0.000000 -0.010092 0.000000 0.000000
# 5 0.000000 0.000000 0.000000 0.000000 0.108348 0.000000
# 6 0.000000 0.000000 0.000000 0.000000 0.000000 0.007288
#
#
# Mechanical properties :
#
#
# Convention : Reuss Voigt Hill
#
# Bulk Modulus (GPa) = 32.62269 50.62859 41.62564
# Shear Modulus (GPa) = 31.69660 30.14761 30.92211
#
# Velocity S-wave (km/s) = 3.68422 3.59307 3.63893
# Velocity P-wave (km/s) = 5.66286 6.23652 5.95660
#
# Compressibility (1/GPa) = 0.03065351
#
# Stress axis : x y z
#
# Youngs Moduli (GPa) = 206.62984 59.61116 68.00932
#
# Poissons Ratio (x) = 0.12485 0.10406
# Poissons Ratio (y) = 0.43275 -0.05384
# Poissons Ratio (z) = 0.31616 -0.04720
#
# Static dielectric constant tensor:
#      x y z
#    x 1.841690 0.000000 0.000000 
#    y 0.000000 1.973590 0.000000 
#    z 0.000000 0.000000 1.844960 
# 
# From -- ./inp_files/2832.got.cif
#   From: 2010.05.17/outbox.cif.g08.bks.cpg/sg59_2_cif.got.tgz:2832.got - 2010.06.03 14:40:33.
