data_PCOD9452055
_publ_section_title
;
Structure prediction by ZEFSAII (Michael W. Deem and Ramdas Pophale) SiO2 
 PCOD9452055
Probable space group: P M M N
;
_chemical_formula_sum "Si O2"
_cell_formula_units_Z 48
_cell_length_a 17.925451
_cell_length_b 22.150148
_cell_length_c 5.652744
_cell_angle_alpha 90.000000
_cell_angle_beta 90.000000
_cell_angle_gamma 90.000000
_cell_volume 2244.429877
_symmetry_space_group_name_H-M "P M M N"
_symmetry_group_IT_number 59
_space_group.IT_coordinate_system_code '2'
_symmetry_cell_setting 'orthorhombic'
loop_
_space_group_symop_operation_xyz
x,y,z
1/2-x,1/2-y,z
1/2+x,-y,-z
-x,1/2+y,-z
-x,-y,-z
1/2+x,1/2+y,-z
1/2-x,y,z
x,1/2-y,z
loop_
_atom_site_type_symbol
_atom_site_label
_atom_site_fract_x
_atom_site_fract_y
_atom_site_fract_z
Si Si1 0.930966 0.679157 0.292239
Si Si2 0.909779 0.322560 0.538540
Si Si3 0.663899 0.323421 0.032521
Si Si4 0.563823 0.005791 0.303635
Si Si5 0.034765 0.404634 0.089638
Si Si6 0.163535 0.419788 0.472938
O O1 0.914766 0.750000 0.308873
O O2 0.861841 0.636122 0.358291
O O3 0.001582 0.662946 0.460870
O O4 0.961095 0.660662 0.032085
O O5 0.907307 0.250000 0.555316
O O6 0.866617 0.337135 0.296769
O O7 0.875936 0.346057 0.788825
O O8 0.750000 0.342278 0.020349
O O9 0.660630 0.250000 0.018820
O O10 0.542979 0.069665 0.191168
O O11 0.500000 0.000000 0.500000
O O12 0.642044 0.985011 0.413646
O O13 0.548290 0.952962 0.118475
O O14 0.106181 0.412323 0.257220
O O15 0.250000 0.416207 0.413859
#
# Coordination Sequence:
#
# PCOD9452055 Si02
#       6
#     8   8   8   8   8   8
#     4  10  22  36  53  82 125 174 224 266 305 372
#     4   9  18  30  48  74 107 152 204 255 306 367
#     4   9  16  28  48  73  99 133 187 255 318 367
#     4   8  16  35  61  89 114 142 194 263 331 392
#     4   9  18  34  60  88 113 154 209 265 321 385
#     4  10  21  36  57  87 123 163 208 264 328 390
#
# _framework density 21.386277
#
# number of rings (size 3 to 8) (size 9 to 14) (size 15 to 20)
#    0.000    2.833    0.000    0.500    2.333    5.667 
#    0.000    0.000    0.000    2.000    0.000    3.500 
#    0.000    0.000    0.000    0.000    0.000    0.000 
#
# Total GULP energy -267332.614940 kJ/mol
# GULP energy per Si atom -5569.429478 kJ/mol
# Density = 2.133760 g / cm^3
# Si number density = 21.386277 Si / 1000 Ang^3
#
#
#
# Elastic Constant Matrix: (Units=GPa)
#
#
# Indices 1 2 3 4 5 6 
#
# 1 135.0960 40.4161 44.4265 0.0000 0.0000 0.0000
# 2 40.4161 65.8326 31.7732 0.0000 0.0000 0.0000
# 3 44.4265 31.7732 83.9195 0.0000 0.0000 0.0000
# 4 0.0000 0.0000 0.0000 30.2051 0.0000 0.0000
# 5 0.0000 0.0000 0.0000 0.0000 21.4386 0.0000
# 6 0.0000 0.0000 0.0000 0.0000 0.0000 26.4212
#
#
#
# Elastic Compliance Matrix: (Units=1/GPa)
#
#
# Indices 1 2 3 4 5 6 
#
# 1 0.009879 -0.004332 -0.003589 0.000000 0.000000 0.000000
# 2 -0.004332 0.020486 -0.005463 0.000000 0.000000 0.000000
# 3 -0.003589 -0.005463 0.015885 0.000000 0.000000 0.000000
# 4 0.000000 0.000000 0.000000 0.033107 0.000000 0.000000
# 5 0.000000 0.000000 0.000000 0.000000 0.046645 0.000000
# 6 0.000000 0.000000 0.000000 0.000000 0.000000 0.037848
#
#
# Mechanical properties :
#
#
# Convention : Reuss Voigt Hill
#
# Bulk Modulus (GPa) = 51.33366 57.56441 54.44903
# Shear Modulus (GPa) = 25.36621 26.82848 26.09735
#
# Velocity S-wave (km/s) = 3.44771 3.54569 3.49705
# Velocity P-wave (km/s) = 6.31697 6.61344 6.46690
#
# Compressibility (1/GPa) = 0.01948040
#
# Stress axis : x y z
#
# Youngs Moduli (GPa) = 101.22887 48.81294 62.95349
#
# Poissons Ratio (x) = 0.21147 0.22597
# Poissons Ratio (y) = 0.43856 0.34391
# Poissons Ratio (z) = 0.36335 0.26666
#
# Static dielectric constant tensor:
#      x y z
#    x 1.751200 0.000000 0.000000 
#    y 0.000000 1.788850 0.000000 
#    z 0.000000 0.000000 1.878820 
# 
# From -- ./inp_files/2863.got.cif
#   From: 2010.05.17/outbox.cif.g08.bks.cpg/sg59_2_cif.got.tgz:2863.got - 2010.06.03 14:40:33.
