data_PCOD9452012
_publ_section_title
;
Structure prediction by ZEFSAII (Michael W. Deem and Ramdas Pophale) SiO2 
 PCOD9452012
Probable space group: P M M N
;
_chemical_formula_sum "Si O2"
_cell_formula_units_Z 40
_cell_length_a 8.554876
_cell_length_b 15.291502
_cell_length_c 15.585827
_cell_angle_alpha 90.000000
_cell_angle_beta 90.000000
_cell_angle_gamma 90.000000
_cell_volume 2038.889626
_symmetry_space_group_name_H-M "P M M N"
_symmetry_group_IT_number 59
_space_group.IT_coordinate_system_code '2'
_symmetry_cell_setting 'orthorhombic'
loop_
_space_group_symop_operation_xyz
x,y,z
1/2-x,1/2-y,z
1/2+x,-y,-z
-x,1/2+y,-z
-x,-y,-z
1/2+x,1/2+y,-z
1/2-x,y,z
x,1/2-y,z
loop_
_atom_site_type_symbol
_atom_site_label
_atom_site_fract_x
_atom_site_fract_y
_atom_site_fract_z
Si Si1 0.061753 0.393211 0.164329
Si Si2 0.436985 0.066551 0.765832
Si Si3 0.559606 0.750000 0.698545
Si Si4 0.935145 0.250000 0.833190
Si Si5 0.940529 0.750000 0.501751
Si Si6 0.438996 0.250000 0.025008
Si Si7 0.061256 0.064866 0.572252
O O1 0.250000 0.398274 0.165682
O O2 0.011571 0.335049 0.246842
O O3 0.018243 0.335298 0.081540
O O4 0.994055 0.489730 0.171704
O O5 0.250000 0.068930 0.766570
O O6 0.497584 0.161884 0.791268
O O7 0.491062 0.044119 0.668863
O O8 0.750000 0.750000 0.697927
O O9 0.505736 0.750000 0.600657
O O10 0.750000 0.250000 0.824494
O O11 0.983550 0.250000 0.932893
O O12 0.750000 0.750000 0.503354
O O13 0.989619 0.662585 0.453268
O O14 0.250000 0.250000 0.015820
O O15 0.250000 0.062353 0.571051
O O16 0.000000 0.000000 0.500000
#
# Coordination Sequence:
#
# PCOD9452012 Si02
#       7
#     8   8   4   4   4   4   8
#     4   9  18  35  60  87 113 145 188 234 286 347
#     4  11  23  39  58  83 118 156 191 236 292 340
#     4   8  14  27  52  83 111 142 183 234 282 328
#     4  12  26  42  62  85 112 151 196 237 282 345
#     4   9  16  29  50  74 105 146 186 225 273 327
#     4   9  20  40  64  90 118 145 181 236 291 342
#     4  10  21  36  56  82 113 151 193 235 280 332
#
# _framework density 19.618521999999999
#
# number of rings (size 3 to 8) (size 9 to 14) (size 15 to 20)
#    0.000    2.200    0.000    4.500    0.000    6.400 
#    0.000    2.000    0.000    6.000    0.000    0.000 
#    0.000    0.000    0.000    0.000    0.000    0.000 
#
# Total GULP energy -223402.670525 kJ/mol
# GULP energy per Si atom -5585.066763 kJ/mol
# Density = 1.957387 g / cm^3
# Si number density = 19.618522 Si / 1000 Ang^3
#
#
#
# Elastic Constant Matrix: (Units=GPa)
#
#
# Indices 1 2 3 4 5 6 
#
# 1 27.2250 29.4730 25.2560 0.0000 0.0000 0.0000
# 2 29.4730 155.7039 43.0703 0.0000 0.0000 0.0000
# 3 25.2560 43.0703 97.6761 0.0000 0.0000 0.0000
# 4 0.0000 0.0000 0.0000 5.9572 0.0000 0.0000
# 5 0.0000 0.0000 0.0000 0.0000 24.6711 0.0000
# 6 0.0000 0.0000 0.0000 0.0000 0.0000 21.0620
#
#
#
# Elastic Compliance Matrix: (Units=1/GPa)
#
#
# Indices 1 2 3 4 5 6 
#
# 1 0.054839 -0.007355 -0.010936 0.000000 0.000000 0.000000
# 2 -0.007355 0.008301 -0.001759 0.000000 0.000000 0.000000
# 3 -0.010936 -0.001759 0.013841 0.000000 0.000000 0.000000
# 4 0.000000 0.000000 0.000000 0.167865 0.000000 0.000000
# 5 0.000000 0.000000 0.000000 0.000000 0.040533 0.000000
# 6 0.000000 0.000000 0.000000 0.000000 0.000000 0.047479
#
#
# Mechanical properties :
#
#
# Convention : Reuss Voigt Hill
#
# Bulk Modulus (GPa) = 27.11424 52.91150 40.01287
# Shear Modulus (GPa) = 12.97850 22.52511 17.75180
#
# Velocity S-wave (km/s) = 2.57484 3.39212 3.01133
# Velocity P-wave (km/s) = 4.76345 6.50928 5.70356
#
# Compressibility (1/GPa) = 0.03688099
#
# Stress axis : x y z
#
# Youngs Moduli (GPa) = 18.23522 120.46520 72.24825
#
# Poissons Ratio (x) = 0.88605 0.79013
# Poissons Ratio (y) = 0.13412 0.12705
# Poissons Ratio (z) = 0.19943 0.21185
#
# Static dielectric constant tensor:
#      x y z
#    x 1.669350 0.000000 0.000000 
#    y 0.000000 1.631730 0.000000 
#    z 0.000000 0.000000 1.678580 
# 
# From -- ./inp_files/20067.got.cif
#   From: 2010.05.17/outbox.cif.g08.bks.cpg/sg59_11_cif.got.tgz:20067.got - 2010.06.03 14:40:33.
