data_PCOD9452746
_publ_section_title
;
Structure prediction by ZEFSAII (Michael W. Deem and Ramdas Pophale) SiO2 
 PCOD9452746
Probable space group: P M M N
;
_chemical_formula_sum "Si O2"
_cell_formula_units_Z 64
_cell_length_a 25.460613
_cell_length_b 8.323534
_cell_length_c 15.372326
_cell_angle_alpha 90.000000
_cell_angle_beta 90.000000
_cell_angle_gamma 90.000000
_cell_volume 3257.738344
_symmetry_space_group_name_H-M "P M M N"
_symmetry_group_IT_number 59
_space_group.IT_coordinate_system_code '2'
_symmetry_cell_setting 'orthorhombic'
loop_
_space_group_symop_operation_xyz
x,y,z
1/2-x,1/2-y,z
1/2+x,-y,-z
-x,1/2+y,-z
-x,-y,-z
1/2+x,1/2+y,-z
1/2-x,y,z
x,1/2-y,z
loop_
_atom_site_type_symbol
_atom_site_label
_atom_site_fract_x
_atom_site_fract_y
_atom_site_fract_z
Si Si1 0.509389 0.059057 0.274350
Si Si2 0.449679 0.436165 0.548996
Si Si3 0.110440 0.441354 0.789401
Si Si4 0.847686 0.432170 0.530224
Si Si5 0.810183 0.444159 0.065593
Si Si6 0.807038 0.558036 0.355565
Si Si7 0.886995 0.559230 0.715564
Si Si8 0.690390 0.443827 0.863952
O O1 0.509766 0.250000 0.293630
O O2 0.535466 0.957641 0.351616
O O3 0.448132 0.008688 0.269442
O O4 0.553289 0.024584 0.201143
O O5 0.500000 0.500000 0.500000
O O6 0.563086 0.750000 0.470986
O O7 0.403582 0.549696 0.517260
O O8 0.102913 0.250000 0.781800
O O9 0.147832 0.478609 0.870752
O O10 0.145071 0.501064 0.705331
O O11 0.829295 0.250000 0.535593
O O12 0.812840 0.523366 0.458497
O O13 0.859734 0.493477 0.627443
O O14 0.750000 0.490661 0.087571
O O15 0.813332 0.250000 0.071922
O O16 0.819329 0.488093 0.964505
O O17 0.750000 0.495380 0.326189
O O18 0.807575 0.750000 0.345057
O O19 0.888228 0.750000 0.706259
O O20 0.851828 0.511342 0.797467
O O21 0.750000 0.495043 0.841221
O O22 0.689074 0.250000 0.859237
#
# Coordination Sequence:
#
# PCOD9452746 Si02
#       8
#     8   8   8   8   8   8   8   8
#     4  11  23  38  57  84 119 158 199 243 292 351
#     4  12  22  35  56  82 112 151 198 244 290 340
#     4  11  22  36  59  89 121 156 195 243 297 356
#     4  12  24  37  57  82 113 155 199 244 291 347
#     4   9  19  38  64  91 119 153 194 243 297 355
#     4  10  22  39  56  79 117 158 197 247 300 351
#     4  11  24  40  61  88 120 155 197 248 297 352
#     4   9  20  41  67  92 118 150 193 245 299 356
#
# _framework density 19.645531999999999
#
# number of rings (size 3 to 8) (size 9 to 14) (size 15 to 20)
#    0.000    1.375    2.500    4.500    0.000    4.250 
#    0.000    1.875    0.000    0.000    0.000    0.000 
#    0.000    0.000    0.000    0.000    0.000    0.000 
#
# Total GULP energy -357029.844639 kJ/mol
# GULP energy per Si atom -5578.591322 kJ/mol
# Density = 1.960082 g / cm^3
# Si number density = 19.645532 Si / 1000 Ang^3
#
#
#
# Elastic Constant Matrix: (Units=GPa)
#
#
# Indices 1 2 3 4 5 6 
#
# 1 88.5611 3.6378 44.3392 0.0000 0.0000 0.0000
# 2 3.6378 35.4775 9.6765 0.0000 0.0000 0.0000
# 3 44.3392 9.6765 86.5860 0.0000 0.0000 0.0000
# 4 0.0000 0.0000 0.0000 31.3258 0.0000 0.0000
# 5 0.0000 0.0000 0.0000 0.0000 35.3390 0.0000
# 6 0.0000 0.0000 0.0000 0.0000 0.0000 25.6553
#
#
#
# Elastic Compliance Matrix: (Units=1/GPa)
#
#
# Indices 1 2 3 4 5 6 
#
# 1 0.015196 0.000582 -0.007847 0.000000 0.000000 0.000000
# 2 0.000582 0.029095 -0.003550 0.000000 0.000000 0.000000
# 3 -0.007847 -0.003550 0.015964 0.000000 0.000000 0.000000
# 4 0.000000 0.000000 0.000000 0.031923 0.000000 0.000000
# 5 0.000000 0.000000 0.000000 0.000000 0.028297 0.000000
# 6 0.000000 0.000000 0.000000 0.000000 0.000000 0.038978
#
#
# Mechanical properties :
#
#
# Convention : Reuss Voigt Hill
#
# Bulk Modulus (GPa) = 25.88866 36.21463 31.05165
# Shear Modulus (GPa) = 25.77870 28.66209 27.22039
#
# Velocity S-wave (km/s) = 3.62635 3.82378 3.72637
# Velocity P-wave (km/s) = 5.54440 6.16191 5.86129
#
# Compressibility (1/GPa) = 0.03862695
#
# Stress axis : x y z
#
# Youngs Moduli (GPa) = 65.80533 34.36977 62.64044
#
# Poissons Ratio (x) = -0.02000 0.49153
# Poissons Ratio (y) = -0.03830 0.22235
# Poissons Ratio (z) = 0.51636 0.12200
#
# Static dielectric constant tensor:
#      x y z
#    x 1.756600 0.000000 0.000000 
#    y 0.000000 1.673270 0.000000 
#    z 0.000000 0.000000 1.702350 
# 
# From -- ./inp_files/24733.got.cif
#   From: 2010.05.17/outbox.cif.g08.bks.cpg/sg59_13_cif.got.tgz:24733.got - 2010.06.03 14:40:33.
