data_PCOD9452276
_publ_section_title
;
Structure prediction by ZEFSAII (Michael W. Deem and Ramdas Pophale) SiO2 
 PCOD9452276
Probable space group: P M M N
;
_chemical_formula_sum "Si O2"
_cell_formula_units_Z 48
_cell_length_a 11.690144
_cell_length_b 18.249101
_cell_length_c 11.986704
_cell_angle_alpha 90.000000
_cell_angle_beta 90.000000
_cell_angle_gamma 90.000000
_cell_volume 2557.178926
_symmetry_space_group_name_H-M "P M M N"
_symmetry_group_IT_number 59
_space_group.IT_coordinate_system_code '2'
_symmetry_cell_setting 'orthorhombic'
loop_
_space_group_symop_operation_xyz
x,y,z
1/2-x,1/2-y,z
1/2+x,-y,-z
-x,1/2+y,-z
-x,-y,-z
1/2+x,1/2+y,-z
1/2-x,y,z
x,1/2-y,z
loop_
_atom_site_type_symbol
_atom_site_label
_atom_site_fract_x
_atom_site_fract_y
_atom_site_fract_z
Si Si1 0.387453 0.591515 0.687170
Si Si2 0.387503 0.834582 0.450376
Si Si3 0.884823 0.669022 0.102132
Si Si4 0.988507 0.441691 0.735188
Si Si5 0.624741 0.471939 0.953215
Si Si6 0.058789 0.834249 0.919047
O O1 0.250000 0.585599 0.698249
O O2 0.413503 0.635231 0.574087
O O3 0.443162 0.511142 0.688220
O O4 0.433472 0.634680 0.795071
O O5 0.250000 0.836073 0.437765
O O6 0.424924 0.750000 0.437678
O O7 0.441424 0.889033 0.360336
O O8 0.750000 0.667668 0.102057
O O9 0.924774 0.750000 0.141006
O O10 0.932344 0.607269 0.183577
O O11 0.934278 0.661630 0.977117
O O12 0.891188 0.470522 0.820314
O O13 0.750000 0.505648 0.983572
O O14 0.500000 0.500000 0.000000
O O15 0.628026 0.389618 0.002118
O O16 0.097138 0.750000 0.921824
#
# Coordination Sequence:
#
# PCOD9452276 Si02
#       6
#     8   8   8   8   8   8
#     4  11  22  37  58  87 118 155 199 248 307 364
#     4  10  22  40  61  84 114 152 198 254 310 361
#     4   9  19  35  56  84 118 160 203 245 302 367
#     4  11  21  37  58  87 116 156 198 249 300 364
#     4  11  23  38  59  90 125 162 200 249 305 363
#     4  10  21  37  58  87 121 157 200 250 301 358
#
# _framework density 18.770685
#
# number of rings (size 3 to 8) (size 9 to 14) (size 15 to 20)
#    0.000    1.667    1.667    3.000    0.000    5.333 
#    0.000    0.000    0.000    2.000    0.000    2.333 
#    0.000    0.000    0.000    0.000    0.000    0.000 
#
# Total GULP energy -267704.136738 kJ/mol
# GULP energy per Si atom -5577.169515 kJ/mol
# Density = 1.872796 g / cm^3
# Si number density = 18.770685 Si / 1000 Ang^3
#
#
#
# Elastic Constant Matrix: (Units=GPa)
#
#
# Indices 1 2 3 4 5 6 
#
# 1 88.0766 34.9401 29.8152 0.0000 0.0000 0.0000
# 2 34.9401 133.7990 39.3051 0.0000 0.0000 0.0000
# 3 29.8152 39.3051 103.5651 0.0000 0.0000 0.0000
# 4 0.0000 0.0000 0.0000 34.8165 0.0000 0.0000
# 5 0.0000 0.0000 0.0000 0.0000 -0.9568 0.0000
# 6 0.0000 0.0000 0.0000 0.0000 0.0000 22.0282
#
#
#
# Elastic Compliance Matrix: (Units=1/GPa)
#
#
# Indices 1 2 3 4 5 6 
#
# 1 0.013369 -0.002657 -0.002841 0.000000 0.000000 0.000000
# 2 -0.002657 0.008940 -0.002628 0.000000 0.000000 0.000000
# 3 -0.002841 -0.002628 0.011471 0.000000 0.000000 0.000000
# 4 0.000000 0.000000 0.000000 0.028722 0.000000 0.000000
# 5 0.000000 0.000000 0.000000 0.000000 -1.045189 0.000000
# 6 0.000000 0.000000 0.000000 0.000000 0.000000 0.045396
#
#
# Mechanical properties :
#
#
# Convention : Reuss Voigt Hill
#
# Bulk Modulus (GPa) = 57.04742 59.28462 58.16602
# Shear Modulus (GPa) = -5.46331 25.93627 10.23648
#
# Velocity S-wave (km/s) = -1.70788 3.72121 2.33779
# Velocity P-wave (km/s) = 5.15447 7.07922 6.19209
#
# Compressibility (1/GPa) = 0.01752928
#
# Stress axis : x y z
#
# Youngs Moduli (GPa) = 74.79842 111.86086 87.17728
#
# Poissons Ratio (x) = 0.29719 0.24763
# Poissons Ratio (y) = 0.19872 0.22910
# Poissons Ratio (z) = 0.21247 0.29396
#
# Static dielectric constant tensor:
#      x y z
#    x 1.674920 0.000000 0.000000 
#    y 0.000000 1.702610 0.000000 
#    z 0.000000 0.000000 1.632750 
# 
# From -- ./inp_files/15791.got.cif
#   From: 2010.05.17/outbox.cif.g08.bks.cpg/sg59_8_cif.got.tgz:15791.got - 2010.06.03 14:40:33.
