data_PCOD9452525
_publ_section_title
;
Structure prediction by ZEFSAII (Michael W. Deem and Ramdas Pophale) SiO2 
 PCOD9452525
Probable space group: P M M N
;
_chemical_formula_sum "Si O2"
_cell_formula_units_Z 48
_cell_length_a 15.069773
_cell_length_b 8.949567
_cell_length_c 19.181137
_cell_angle_alpha 90.000000
_cell_angle_beta 90.000000
_cell_angle_gamma 90.000000
_cell_volume 2586.920494
_symmetry_space_group_name_H-M "P M M N"
_symmetry_group_IT_number 59
_space_group.IT_coordinate_system_code '2'
_symmetry_cell_setting 'orthorhombic'
loop_
_space_group_symop_operation_xyz
x,y,z
1/2-x,1/2-y,z
1/2+x,-y,-z
-x,1/2+y,-z
-x,-y,-z
1/2+x,1/2+y,-z
1/2-x,y,z
x,1/2-y,z
loop_
_atom_site_type_symbol
_atom_site_label
_atom_site_fract_x
_atom_site_fract_y
_atom_site_fract_z
Si Si1 0.003109 0.071175 0.107398
Si Si2 0.509095 0.426972 0.741251
Si Si3 0.148164 0.574480 0.660168
Si Si4 0.350497 0.077070 0.360811
Si Si5 0.597245 0.428456 0.498499
Si Si6 0.645584 0.570044 0.011431
O O1 0.995718 0.250000 0.111272
O O2 0.015134 0.002499 0.183393
O O3 0.914016 0.005583 0.071582
O O4 0.088639 0.035567 0.058560
O O5 0.515749 0.250000 0.747453
O O6 0.417294 0.474409 0.704803
O O7 0.584752 0.489894 0.690275
O O8 0.250000 0.553404 0.680351
O O9 0.124886 0.750000 0.669951
O O10 0.137598 0.542859 0.577725
O O11 0.250000 0.073208 0.334266
O O12 0.379382 0.250000 0.366434
O O13 0.353129 0.003429 0.437028
O O14 0.500000 0.500000 0.500000
O O15 0.593609 0.250000 0.508413
O O16 0.750000 0.525749 0.009273
O O17 0.643277 0.750000 0.020562
#
# Coordination Sequence:
#
# PCOD9452525 Si02
#       6
#     8   8   8   8   8   8
#     4  10  21  38  61  89 122 157 193 236 287 344
#     4  12  25  40  60  86 120 159 198 246 297 351
#     4  10  22  40  61  84 114 154 199 247 299 355
#     4  11  24  41  61  85 116 156 201 249 302 358
#     4  11  21  36  61  88 116 152 196 247 303 357
#     4   9  19  38  64  92 120 152 192 235 282 339
#
# _framework density 18.554879
#
# number of rings (size 3 to 8) (size 9 to 14) (size 15 to 20)
#    0.000    1.500    1.667    3.500    0.000    5.333 
#    0.000    1.667    0.000    0.000    0.000    0.000 
#    0.000    0.000    0.000    0.000    0.000    0.000 
#
# Total GULP energy -268184.126429 kJ/mol
# GULP energy per Si atom -5587.169301 kJ/mol
# Density = 1.851265 g / cm^3
# Si number density = 18.554879 Si / 1000 Ang^3
#
#
#
# Elastic Constant Matrix: (Units=GPa)
#
#
# Indices 1 2 3 4 5 6 
#
# 1 91.4430 25.7731 5.1769 0.0000 0.0000 0.0000
# 2 25.7731 58.2290 29.0015 0.0000 0.0000 0.0000
# 3 5.1769 29.0015 69.8283 0.0000 0.0000 0.0000
# 4 0.0000 0.0000 0.0000 25.0968 0.0000 0.0000
# 5 0.0000 0.0000 0.0000 0.0000 1679.7705 0.0000
# 6 0.0000 0.0000 0.0000 0.0000 0.0000 13.9870
#
#
#
# Elastic Compliance Matrix: (Units=1/GPa)
#
#
# Indices 1 2 3 4 5 6 
#
# 1 0.012662 -0.006477 0.001751 0.000000 0.000000 0.000000
# 2 -0.006477 0.024965 -0.009889 0.000000 0.000000 0.000000
# 3 0.001751 -0.009889 0.018298 0.000000 0.000000 0.000000
# 4 0.000000 0.000000 0.000000 0.039846 0.000000 0.000000
# 5 0.000000 0.000000 0.000000 0.000000 0.000595 0.000000
# 6 0.000000 0.000000 0.000000 0.000000 0.000000 0.071495
#
#
# Mechanical properties :
#
#
# Convention : Reuss Voigt Hill
#
# Bulk Modulus (GPa) = 37.45694 37.71148 37.58421
# Shear Modulus (GPa) = 24.27317 354.40743 189.34030
#
# Velocity S-wave (km/s) = 3.62080 13.83545 10.11261
# Velocity P-wave (km/s) = 6.14095 16.60104 12.51611
#
# Compressibility (1/GPa) = 0.02669732
#
# Stress axis : x y z
#
# Youngs Moduli (GPa) = 78.97614 40.05556 54.65078
#
# Poissons Ratio (x) = 0.25942 -0.09570
# Poissons Ratio (y) = 0.51150 0.54042
# Poissons Ratio (z) = -0.13830 0.39609
#
# Static dielectric constant tensor:
#      x y z
#    x 1.642520 0.000000 0.000000 
#    y 0.000000 1.621720 0.000000 
#    z 0.000000 0.000000 1.616520 
# 
# From -- ./inp_files/25457.got.cif
#   From: 2010.05.17/outbox.cif.g08.bks.cpg/sg59_13_cif.got.tgz:25457.got - 2010.06.03 14:40:33.
