data_PCOD9452520
_publ_section_title
;
Structure prediction by ZEFSAII (Michael W. Deem and Ramdas Pophale) SiO2 
 PCOD9452520
Probable space group: P M M N
;
_chemical_formula_sum "Si O2"
_cell_formula_units_Z 48
_cell_length_a 19.243899
_cell_length_b 8.828406
_cell_length_c 15.380008
_cell_angle_alpha 90.000000
_cell_angle_beta 90.000000
_cell_angle_gamma 90.000000
_cell_volume 2612.954982
_symmetry_space_group_name_H-M "P M M N"
_symmetry_group_IT_number 59
_space_group.IT_coordinate_system_code '2'
_symmetry_cell_setting 'orthorhombic'
loop_
_space_group_symop_operation_xyz
x,y,z
1/2-x,1/2-y,z
1/2+x,-y,-z
-x,1/2+y,-z
-x,-y,-z
1/2+x,1/2+y,-z
1/2-x,y,z
x,1/2-y,z
loop_
_atom_site_type_symbol
_atom_site_label
_atom_site_fract_x
_atom_site_fract_y
_atom_site_fract_z
Si Si1 0.832400 0.430046 0.103702
Si Si2 0.667979 0.430873 0.436433
Si Si3 0.668057 0.930705 0.624629
Si Si4 0.431353 0.569239 0.230229
Si Si5 0.592340 0.930743 0.271300
Si Si6 0.070746 0.069056 0.039615
O O1 0.750000 0.455555 0.106783
O O2 0.845124 0.250000 0.097542
O O3 0.867875 0.493340 0.190722
O O4 0.867389 0.512167 0.022002
O O5 0.750000 0.461861 0.419822
O O6 0.658731 0.250000 0.438196
O O7 0.650552 0.500457 0.530295
O O8 0.622690 0.503286 0.360337
O O9 0.750000 0.960805 0.640016
O O10 0.657899 0.750000 0.623335
O O11 0.621701 0.005349 0.698901
O O12 0.423216 0.750000 0.221110
O O13 0.510405 0.538891 0.260572
O O14 0.420529 0.491178 0.137172
O O15 0.602753 0.750000 0.268398
O O16 0.066352 0.250000 0.038430
O O17 0.000000 0.000000 0.000000
#
# Coordination Sequence:
#
# PCOD9452520 Si02
#       6
#     8   8   8   8   8   8
#     4  11  24  41  63  92 125 162 205 253 305 364
#     4  10  21  38  61  88 121 162 204 250 306 365
#     4  10  22  41  64  90 120 157 204 256 308 364
#     4  11  24  41  63  91 122 161 204 249 305 366
#     4  11  23  38  60  90 124 162 203 250 304 365
#     4  12  24  41  65  90 121 162 204 251 306 364
#
# _framework density 18.370006
#
# number of rings (size 3 to 8) (size 9 to 14) (size 15 to 20)
#    0.000    1.167    1.667    4.500    0.000    8.667 
#    0.000    0.000    0.000    0.000    0.000    0.000 
#    0.000    0.000    0.000    0.000    0.000    0.000 
#
# Total GULP energy -268508.898021 kJ/mol
# GULP energy per Si atom -5593.935375 kJ/mol
# Density = 1.832820 g / cm^3
# Si number density = 18.370006 Si / 1000 Ang^3
#
#
#
# Elastic Constant Matrix: (Units=GPa)
#
#
# Indices 1 2 3 4 5 6 
#
# 1 105.4533 95.6851 106.7603 0.0000 0.0000 0.0000
# 2 95.6851 132.0636 106.0548 0.0000 0.0000 0.0000
# 3 106.7603 106.0548 203.5688 0.0000 0.0000 0.0000
# 4 0.0000 0.0000 0.0000 42.8284 0.0000 0.0000
# 5 0.0000 0.0000 0.0000 0.0000 23.8740 0.0000
# 6 0.0000 0.0000 0.0000 0.0000 0.0000 32.3458
#
#
#
# Elastic Compliance Matrix: (Units=1/GPa)
#
#
# Indices 1 2 3 4 5 6 
#
# 1 0.035008 -0.018260 -0.008846 0.000000 0.000000 0.000000
# 2 -0.018260 0.022544 -0.002168 0.000000 0.000000 0.000000
# 3 -0.008846 -0.002168 0.010681 0.000000 0.000000 0.000000
# 4 0.000000 0.000000 0.000000 0.023349 0.000000 0.000000
# 5 0.000000 0.000000 0.000000 0.000000 0.041887 0.000000
# 6 0.000000 0.000000 0.000000 0.000000 0.000000 0.030916
#
#
# Mechanical properties :
#
#
# Convention : Reuss Voigt Hill
#
# Bulk Modulus (GPa) = 103.27456 117.56511 110.41984
# Shear Modulus (GPa) = 22.10812 28.64867 25.37840
#
# Velocity S-wave (km/s) = 3.47290 3.95338 3.72090
# Velocity P-wave (km/s) = 8.51014 9.21826 8.87127
#
# Compressibility (1/GPa) = 0.00968293
#
# Stress axis : x y z
#
# Youngs Moduli (GPa) = 28.56520 44.35863 93.62098
#
# Poissons Ratio (x) = 0.81000 0.82821
# Poissons Ratio (y) = 0.52161 0.20299
# Poissons Ratio (z) = 0.25270 0.09618
#
# Static dielectric constant tensor:
#      x y z
#    x 1.612880 0.000000 0.000000 
#    y 0.000000 1.611760 0.000000 
#    z 0.000000 0.000000 1.590000 
# 
# From -- ./inp_files/20347.got.cif
#   From: 2010.05.17/outbox.cif.g08.bks.cpg/sg59_11_cif.got.tgz:20347.got - 2010.06.03 14:40:33.
