data_PCOD9452383
_publ_section_title
;
Structure prediction by ZEFSAII (Michael W. Deem and Ramdas Pophale) SiO2 
 PCOD9452383
Probable space group: P M M N
;
_chemical_formula_sum "Si O2"
_cell_formula_units_Z 56
_cell_length_a 8.982917
_cell_length_b 13.988040
_cell_length_c 24.220393
_cell_angle_alpha 90.000000
_cell_angle_beta 90.000000
_cell_angle_gamma 90.000000
_cell_volume 3043.374786
_symmetry_space_group_name_H-M "P M M N"
_symmetry_group_IT_number 59
_space_group.IT_coordinate_system_code '2'
_symmetry_cell_setting 'orthorhombic'
loop_
_space_group_symop_operation_xyz
x,y,z
1/2-x,1/2-y,z
1/2+x,-y,-z
-x,1/2+y,-z
-x,-y,-z
1/2+x,1/2+y,-z
1/2-x,y,z
x,1/2-y,z
loop_
_atom_site_type_symbol
_atom_site_label
_atom_site_fract_x
_atom_site_fract_y
_atom_site_fract_z
Si Si1 0.429389 0.446747 0.418899
Si Si2 0.070744 0.857176 0.473270
Si Si3 0.074229 0.637386 0.145137
Si Si4 0.926581 0.635184 0.908354
Si Si5 0.070695 0.362446 0.300563
Si Si6 0.426543 0.534757 0.803979
Si Si7 0.078502 0.366450 0.968827
O O1 0.250000 0.438396 0.422802
O O2 0.470547 0.557049 0.431641
O O3 0.501082 0.384535 0.467718
O O4 0.473752 0.409867 0.358738
O O5 0.250000 0.858769 0.478212
O O6 0.025591 0.750000 0.456755
O O7 0.250000 0.621967 0.150334
O O8 0.043192 0.750000 0.151746
O O9 0.987202 0.572519 0.188342
O O10 0.021432 0.608528 0.083477
O O11 0.750000 0.613897 0.902892
O O12 0.942093 0.750000 0.905220
O O13 0.015825 0.589047 0.858676
O O14 0.973765 0.603809 0.970120
O O15 0.250000 0.370653 0.295278
O O16 0.033752 0.250000 0.300850
O O17 0.995442 0.414588 0.249277
O O18 0.250000 0.536377 0.801622
O O19 0.250000 0.397777 0.960378
O O20 0.081701 0.250000 0.970602
#
# Coordination Sequence:
#
# PCOD9452383 Si02
#       7
#     8   8   8   8   8   8   8
#     4   9  18  33  54  80 110 147 189 225 262 312
#     4   9  17  30  51  82 118 149 177 218 269 315
#     4  10  21  38  59  79 100 131 172 217 265 321
#     4   9  18  34  55  78 107 141 174 213 263 318
#     4  10  21  38  58  78 105 142 182 224 266 312
#     4  12  25  37  53  77 105 138 176 221 270 319
#     4   8  15  30  53  79 105 133 166 209 264 320
#
# _framework density 18.400625999999999
#
# number of rings (size 3 to 8) (size 9 to 14) (size 15 to 20)
#    0.000    2.429    0.000    3.429    0.000    5.714 
#    0.000    2.143    0.000    2.571    0.000    0.000 
#    0.000    0.000    0.000    0.000    0.000    0.000 
#
# Total GULP energy -312657.294315 kJ/mol
# GULP energy per Si atom -5583.165970 kJ/mol
# Density = 1.835875 g / cm^3
# Si number density = 18.400626 Si / 1000 Ang^3
#
#
#
# Elastic Constant Matrix: (Units=GPa)
#
#
# Indices 1 2 3 4 5 6 
#
# 1 48.1861 46.3662 57.6457 0.0000 0.0000 0.0000
# 2 46.3662 119.1067 77.8058 0.0000 0.0000 0.0000
# 3 57.6457 77.8058 140.9092 0.0000 0.0000 0.0000
# 4 0.0000 0.0000 0.0000 25.7220 0.0000 0.0000
# 5 0.0000 0.0000 0.0000 0.0000 29.7777 0.0000
# 6 0.0000 0.0000 0.0000 0.0000 0.0000 22.1756
#
#
#
# Elastic Compliance Matrix: (Units=1/GPa)
#
#
# Indices 1 2 3 4 5 6 
#
# 1 0.045812 -0.008745 -0.013913 0.000000 0.000000 0.000000
# 2 -0.008745 0.014802 -0.004596 0.000000 0.000000 0.000000
# 3 -0.013913 -0.004596 0.015326 0.000000 0.000000 0.000000
# 4 0.000000 0.000000 0.000000 0.038877 0.000000 0.000000
# 5 0.000000 0.000000 0.000000 0.000000 0.033582 0.000000
# 6 0.000000 0.000000 0.000000 0.000000 0.000000 0.045095
#
#
# Mechanical properties :
#
#
# Convention : Reuss Voigt Hill
#
# Bulk Modulus (GPa) = 46.65744 74.64859 60.65301
# Shear Modulus (GPa) = 19.59664 23.96070 21.77867
#
# Velocity S-wave (km/s) = 3.26697 3.61247 3.44406
# Velocity P-wave (km/s) = 6.29621 7.61948 6.98923
#
# Compressibility (1/GPa) = 0.02143281
#
# Stress axis : x y z
#
# Youngs Moduli (GPa) = 21.82841 67.55658 65.24868
#
# Poissons Ratio (x) = 0.59081 0.90778
# Poissons Ratio (y) = 0.19090 0.29986
# Poissons Ratio (z) = 0.30369 0.31047
#
# Static dielectric constant tensor:
#      x y z
#    x 1.614370 0.000000 0.000000 
#    y 0.000000 1.676760 0.000000 
#    z 0.000000 0.000000 1.599920 
# 
# From -- ./inp_files/29014.got.cif
#   From: 2010.05.17/outbox.cif.g08.bks.cpg/sg59_15_cif.got.tgz:29014.got - 2010.06.03 14:40:33.
