data_PCOD9452962
_publ_section_title
;
Structure prediction by ZEFSAII (Michael W. Deem and Ramdas Pophale) SiO2 
 PCOD9452962
Probable space group: P M M N
;
_chemical_formula_sum "Si O2"
_cell_formula_units_Z 48
_cell_length_a 19.821417
_cell_length_b 16.927435
_cell_length_c 8.947381
_cell_angle_alpha 90.000000
_cell_angle_beta 90.000000
_cell_angle_gamma 90.000000
_cell_volume 3002.076702
_symmetry_space_group_name_H-M "P M M N"
_symmetry_group_IT_number 59
_space_group.IT_coordinate_system_code '2'
_symmetry_cell_setting 'orthorhombic'
loop_
_space_group_symop_operation_xyz
x,y,z
1/2-x,1/2-y,z
1/2+x,-y,-z
-x,1/2+y,-z
-x,-y,-z
1/2+x,1/2+y,-z
1/2-x,y,z
x,1/2-y,z
loop_
_atom_site_type_symbol
_atom_site_label
_atom_site_fract_x
_atom_site_fract_y
_atom_site_fract_z
Si Si1 0.924604 0.009732 0.935444
Si Si2 0.938409 0.579241 0.644448
Si Si3 0.086963 0.920733 0.551296
Si Si4 0.399010 0.339853 0.636053
Si Si5 0.556002 0.339695 0.733230
Si Si6 0.170580 0.009724 0.781341
O O1 0.922368 0.093962 0.850844
O O2 0.914161 0.942162 0.809322
O O3 0.871093 0.003070 0.067175
O O4 0.000000 0.000000 0.000000
O O5 0.927454 0.499657 0.546606
O O6 0.902921 0.644964 0.542657
O O7 0.018640 0.594946 0.644596
O O8 0.093960 0.854564 0.424545
O O9 0.146455 0.943139 0.662716
O O10 0.379226 0.250000 0.668539
O O11 0.476243 0.352068 0.694497
O O12 0.353155 0.406220 0.711983
O O13 0.564986 0.250000 0.784544
O O14 0.250000 0.008020 0.804143
#
# Coordination Sequence:
#
# PCOD9452962 Si02
#       6
#     8   8   8   8   8   8
#     4  11  17  31  52  74 108 142 170 211 257 304
#     4   8  14  27  50  72  92 128 166 209 247 285
#     4   8  14  29  49  70  94 121 168 213 246 288
#     4   9  17  32  52  78 104 129 168 217 259 302
#     4   9  17  31  55  81 100 124 170 223 266 299
#     4  11  21  32  50  76 105 142 176 205 256 320
#
# _framework density 15.988932999999999
#
# number of rings (size 3 to 8) (size 9 to 14) (size 15 to 20)
#    0.000    2.667    3.333    2.000    0.000    0.333 
#    0.000   10.000    0.000    3.000    0.000    0.000 
#    0.000    0.000    0.000    0.000    0.000    0.000 
#
# Total GULP energy -267218.312221 kJ/mol
# GULP energy per Si atom -5567.048171 kJ/mol
# Density = 1.595254 g / cm^3
# Si number density = 15.988933 Si / 1000 Ang^3
#
#
#
# Elastic Constant Matrix: (Units=GPa)
#
#
# Indices 1 2 3 4 5 6 
#
# 1 98.0794 31.6398 61.5998 0.0000 0.0000 0.0000
# 2 31.6398 70.9436 36.0855 0.0000 0.0000 0.0000
# 3 61.5998 36.0855 106.9068 0.0000 0.0000 0.0000
# 4 0.0000 0.0000 0.0000 19.2745 0.0000 0.0000
# 5 0.0000 0.0000 0.0000 0.0000 17.0484 0.0000
# 6 0.0000 0.0000 0.0000 0.0000 0.0000 11.4889
#
#
#
# Elastic Compliance Matrix: (Units=1/GPa)
#
#
# Indices 1 2 3 4 5 6 
#
# 1 0.016506 -0.003047 -0.008482 0.000000 0.000000 0.000000
# 2 -0.003047 0.017580 -0.004178 0.000000 0.000000 0.000000
# 3 -0.008482 -0.004178 0.015652 0.000000 0.000000 0.000000
# 4 0.000000 0.000000 0.000000 0.051882 0.000000 0.000000
# 5 0.000000 0.000000 0.000000 0.000000 0.058657 0.000000
# 6 0.000000 0.000000 0.000000 0.000000 0.000000 0.087041
#
#
# Mechanical properties :
#
#
# Convention : Reuss Voigt Hill
#
# Bulk Modulus (GPa) = 54.57726 59.39779 56.98753
# Shear Modulus (GPa) = 17.55370 19.33599 18.44484
#
# Velocity S-wave (km/s) = 3.31700 3.48132 3.40015
# Velocity P-wave (km/s) = 6.99132 7.30681 7.15080
#
# Compressibility (1/GPa) = 0.01832265
#
# Stress axis : x y z
#
# Youngs Moduli (GPa) = 60.58320 56.88316 63.89007
#
# Poissons Ratio (x) = 0.17332 0.54194
# Poissons Ratio (y) = 0.18459 0.26695
# Poissons Ratio (z) = 0.51389 0.23767
#
# Static dielectric constant tensor:
#      x y z
#    x 1.514290 0.000000 0.000000 
#    y 0.000000 1.561940 0.000000 
#    z 0.000000 0.000000 1.553490 
# 
# From -- ./inp_files/10419.got.cif
#   From: 2010.05.17/outbox.cif.g08.bks.cpg/sg59_6_cif.got.tgz:10419.got - 2010.06.03 14:40:33.
