data_PCOD9452810
_publ_section_title
;
Structure prediction by ZEFSAII (Michael W. Deem and Ramdas Pophale) SiO2 
 PCOD9452810
Probable space group: P M M N
;
_chemical_formula_sum "Si O2"
_cell_formula_units_Z 64
_cell_length_a 15.931306
_cell_length_b 8.556483
_cell_length_c 24.424546
_cell_angle_alpha 90.000000
_cell_angle_beta 90.000000
_cell_angle_gamma 90.000000
_cell_volume 3329.455166
_symmetry_space_group_name_H-M "P M M N"
_symmetry_group_IT_number 59
_space_group.IT_coordinate_system_code '2'
_symmetry_cell_setting 'orthorhombic'
loop_
_space_group_symop_operation_xyz
x,y,z
1/2-x,1/2-y,z
1/2+x,-y,-z
-x,1/2+y,-z
-x,-y,-z
1/2+x,1/2+y,-z
1/2-x,y,z
x,1/2-y,z
loop_
_atom_site_type_symbol
_atom_site_label
_atom_site_fract_x
_atom_site_fract_y
_atom_site_fract_z
Si Si1 0.500003 0.936820 0.938666
Si Si2 0.899415 0.436700 0.245216
Si Si3 0.156292 0.436586 0.870290
Si Si4 0.912147 0.063025 0.751917
Si Si5 0.498756 0.062684 0.438572
Si Si6 0.844810 0.438486 0.632031
Si Si7 0.343844 0.438704 0.135561
Si Si8 0.343286 0.940416 0.633768
O O1 0.502457 0.750000 0.940202
O O2 0.582284 0.991268 0.905054
O O3 0.417323 0.989457 0.906151
O O4 0.500000 0.000000 0.000000
O O5 0.890037 0.250000 0.240003
O O6 0.858023 0.516123 0.192759
O O7 0.860739 0.486356 0.303384
O O8 0.997450 0.480755 0.245947
O O9 0.250000 0.486558 0.887239
O O10 0.150820 0.250000 0.875174
O O11 0.923938 0.250000 0.753357
O O12 0.867024 0.022053 0.694946
O O13 0.860622 0.009779 0.804783
O O14 0.501043 0.250000 0.439518
O O15 0.580764 0.006271 0.404781
O O16 0.500000 0.000000 0.500000
O O17 0.415562 0.008589 0.406915
O O18 0.750000 0.489489 0.618952
O O19 0.847879 0.250000 0.627426
O O20 0.250000 0.479354 0.116536
O O21 0.348804 0.250000 0.139992
O O22 0.250000 0.991102 0.616735
O O23 0.344383 0.750000 0.632939
#
# Coordination Sequence:
#
# PCOD9452810 Si02
#       8
#     8   8   8   8   8   8   8   8
#     4  11  24  42  64  89 121 162 206 253 304 355
#     4  11  20  35  61  91 122 157 198 244 299 364
#     4  11  24  41  62  91 126 162 200 248 305 359
#     4  11  21  35  60  91 125 159 196 243 299 361
#     4  11  23  40  61  86 117 155 204 252 299 354
#     4  10  22  40  61  87 121 160 199 244 300 357
#     4  10  22  40  62  89 121 158 199 244 299 361
#     4   9  19  36  59  86 116 152 193 239 294 356
#
# _framework density 19.222363999999999
#
# number of rings (size 3 to 8) (size 9 to 14) (size 15 to 20)
#    0.000    1.500    2.500    2.625    0.000    4.500 
#    0.000    2.500    0.000    3.375    0.000    0.000 
#    0.000    0.000    0.000    0.000    0.000    0.000 
#
# Total GULP energy -357707.753820 kJ/mol
# GULP energy per Si atom -5589.183653 kJ/mol
# Density = 1.917861 g / cm^3
# Si number density = 19.222364 Si / 1000 Ang^3
#
#
#
# Elastic Constant Matrix: (Units=GPa)
#
#
# Indices 1 2 3 4 5 6 
#
# 1 180.3698 29.7278 87.8382 0.0000 0.0000 0.0000
# 2 29.7278 25.7665 29.6128 0.0000 0.0000 0.0000
# 3 87.8382 29.6128 158.9475 0.0000 0.0000 0.0000
# 4 0.0000 0.0000 0.0000 33.0834 0.0000 0.0000
# 5 0.0000 0.0000 0.0000 0.0000 -1.0638 0.0000
# 6 0.0000 0.0000 0.0000 0.0000 0.0000 25.7530
#
#
#
# Elastic Compliance Matrix: (Units=1/GPa)
#
#
# Indices 1 2 3 4 5 6 
#
# 1 0.008129 -0.005365 -0.003493 0.000000 0.000000 0.000000
# 2 -0.005365 0.052924 -0.006895 0.000000 0.000000 0.000000
# 3 -0.003493 -0.006895 0.009506 0.000000 0.000000 0.000000
# 4 0.000000 0.000000 0.000000 0.030227 0.000000 0.000000
# 5 0.000000 0.000000 0.000000 0.000000 -0.940040 0.000000
# 6 0.000000 0.000000 0.000000 0.000000 0.000000 0.038830
#
#
# Mechanical properties :
#
#
# Convention : Reuss Voigt Hill
#
# Bulk Modulus (GPa) = 25.60573 73.27127 49.43850
# Shear Modulus (GPa) = -6.61465 26.08152 9.73344
#
# Velocity S-wave (km/s) = -1.85704 3.68752 2.25269
# Velocity P-wave (km/s) = 2.95831 7.50539 5.70449
#
# Compressibility (1/GPa) = 0.03905376
#
# Stress axis : x y z
#
# Youngs Moduli (GPa) = 123.00971 18.89487 105.19262
#
# Poissons Ratio (x) = 0.10137 0.36744
# Poissons Ratio (y) = 0.65992 0.72535
# Poissons Ratio (z) = 0.42968 0.13029
#
# Static dielectric constant tensor:
#      x y z
#    x 1.676520 0.000000 0.000000 
#    y 0.000000 1.657710 0.000000 
#    z 0.000000 0.000000 1.634460 
# 
# From -- ./inp_files/31481.got.cif
#   From: 2010.05.17/outbox.cif.g08.bks.cpg/sg59_16_cif.got.tgz:31481.got - 2010.06.03 14:40:33.
