data_PCOD9452806
_publ_section_title
;
Structure prediction by ZEFSAII (Michael W. Deem and Ramdas Pophale) SiO2 
 PCOD9452806
Probable space group: P M M N
;
_chemical_formula_sum "Si O2"
_cell_formula_units_Z 48
_cell_length_a 14.272036
_cell_length_b 16.491734
_cell_length_c 9.963241
_cell_angle_alpha 90.000000
_cell_angle_beta 90.000000
_cell_angle_gamma 90.000000
_cell_volume 2345.054225
_symmetry_space_group_name_H-M "P M M N"
_symmetry_group_IT_number 59
_space_group.IT_coordinate_system_code '2'
_symmetry_cell_setting 'orthorhombic'
loop_
_space_group_symop_operation_xyz
x,y,z
1/2-x,1/2-y,z
1/2+x,-y,-z
-x,1/2+y,-z
-x,-y,-z
1/2+x,1/2+y,-z
1/2-x,y,z
x,1/2-y,z
loop_
_atom_site_type_symbol
_atom_site_label
_atom_site_fract_x
_atom_site_fract_y
_atom_site_fract_z
Si Si1 0.639559 0.574736 0.756893
Si Si2 0.860110 0.843383 0.474393
Si Si3 0.355015 0.846734 0.509834
Si Si4 0.983213 0.595988 0.996469
Si Si5 0.508893 0.082239 0.703430
Si Si6 0.644015 0.152963 0.194939
O O1 0.750000 0.550247 0.763233
O O2 0.629643 0.636035 0.632119
O O3 0.605318 0.611291 0.899405
O O4 0.566366 0.501335 0.726988
O O5 0.750000 0.847731 0.442616
O O6 0.892175 0.750000 0.449603
O O7 0.916369 0.910352 0.388679
O O8 0.250000 0.879340 0.491320
O O9 0.349651 0.750000 0.518186
O O10 0.418443 0.867843 0.385887
O O11 0.388621 0.875503 0.657000
O O12 0.073164 0.630423 0.920446
O O13 0.981828 0.619661 0.152199
O O14 0.000000 0.500000 0.000000
O O15 0.750000 0.122309 0.172936
O O16 0.648697 0.250000 0.199088
#
# Coordination Sequence:
#
# PCOD9452806 Si02
#       6
#     8   8   8   8   8   8
#     4  10  22  41  61  82 112 154 201 239 278 335
#     4  10  22  40  61  85 114 150 192 237 286 343
#     4   9  18  33  56  87 118 148 185 233 288 342
#     4  10  23  37  53  82 118 155 190 232 287 343
#     4  11  21  36  58  87 116 148 188 240 294 338
#     4   9  19  37  60  84 113 153 198 239 283 342
#
# _framework density 20.468610000000002
#
# number of rings (size 3 to 8) (size 9 to 14) (size 15 to 20)
#    0.000    2.167    0.000    3.500    0.000    8.667 
#    0.000    7.500    0.000    2.000    0.000    0.000 
#    0.000    0.000    0.000    0.000    0.000    0.000 
#
# Total GULP energy -267615.732811 kJ/mol
# GULP energy per Si atom -5575.327767 kJ/mol
# Density = 2.042202 g / cm^3
# Si number density = 20.468610 Si / 1000 Ang^3
#
#
#
# Elastic Constant Matrix: (Units=GPa)
#
#
# Indices 1 2 3 4 5 6 
#
# 1 103.0493 24.5351 45.5455 0.0000 0.0000 0.0000
# 2 24.5351 30.4893 8.0465 0.0000 0.0000 0.0000
# 3 45.5455 8.0465 132.5104 0.0000 0.0000 0.0000
# 4 0.0000 0.0000 0.0000 28.3043 0.0000 0.0000
# 5 0.0000 0.0000 0.0000 0.0000 233.7235 0.0000
# 6 0.0000 0.0000 0.0000 0.0000 0.0000 27.3329
#
#
#
# Elastic Compliance Matrix: (Units=1/GPa)
#
#
# Indices 1 2 3 4 5 6 
#
# 1 0.013967 -0.010135 -0.004185 0.000000 0.000000 0.000000
# 2 -0.010135 0.040687 0.001013 0.000000 0.000000 0.000000
# 3 -0.004185 0.001013 0.008924 0.000000 0.000000 0.000000
# 4 0.000000 0.000000 0.000000 0.035330 0.000000 0.000000
# 5 0.000000 0.000000 0.000000 0.000000 0.004279 0.000000
# 6 0.000000 0.000000 0.000000 0.000000 0.000000 0.036586
#
#
# Mechanical properties :
#
#
# Convention : Reuss Voigt Hill
#
# Bulk Modulus (GPa) = 27.05418 46.92259 36.98839
# Shear Modulus (GPa) = 27.97872 70.40025 49.18948
#
# Velocity S-wave (km/s) = 3.70118 5.87102 4.90753
# Velocity P-wave (km/s) = 5.61348 8.30256 7.08673
#
# Compressibility (1/GPa) = 0.03696287
#
# Stress axis : x y z
#
# Youngs Moduli (GPa) = 71.59812 24.57802 112.06278
#
# Poissons Ratio (x) = 0.24909 0.46900
# Poissons Ratio (y) = 0.72563 -0.11350
# Poissons Ratio (z) = 0.29965 -0.02489
#
# Static dielectric constant tensor:
#      x y z
#    x 1.749410 0.000000 0.000000 
#    y 0.000000 1.741840 0.000000 
#    z 0.000000 0.000000 1.660740 
# 
# From -- ./inp_files/9037.got.cif
#   From: 2010.05.17/outbox.cif.g08.bks.cpg/sg59_5_cif.got.tgz:9037.got - 2010.06.03 14:40:33.
