data_PCOD9452209
_publ_section_title
;
Structure prediction by ZEFSAII (Michael W. Deem and Ramdas Pophale) SiO2 
 PCOD9452209
Probable space group: P M M N
;
_chemical_formula_sum "Si O2"
_cell_formula_units_Z 64
_cell_length_a 8.991403
_cell_length_b 15.430591
_cell_length_c 24.722395
_cell_angle_alpha 90.000000
_cell_angle_beta 90.000000
_cell_angle_gamma 90.000000
_cell_volume 3430.050898
_symmetry_space_group_name_H-M "P M M N"
_symmetry_group_IT_number 59
_space_group.IT_coordinate_system_code '2'
_symmetry_cell_setting 'orthorhombic'
loop_
_space_group_symop_operation_xyz
x,y,z
1/2-x,1/2-y,z
1/2+x,-y,-z
-x,1/2+y,-z
-x,-y,-z
1/2+x,1/2+y,-z
1/2-x,y,z
x,1/2-y,z
loop_
_atom_site_type_symbol
_atom_site_label
_atom_site_fract_x
_atom_site_fract_y
_atom_site_fract_z
Si Si1 0.424018 0.651221 0.110281
Si Si2 0.072291 0.351965 0.384650
Si Si3 0.074418 0.847080 0.891069
Si Si4 0.071293 0.008207 0.815078
Si Si5 0.919866 0.355401 0.496911
Si Si6 0.071356 0.149173 0.609119
Si Si7 0.070719 0.995649 0.689676
Si Si8 0.072639 0.095061 0.999593
O O1 0.250000 0.631773 0.100909
O O2 0.437236 0.750000 0.129276
O O3 0.491851 0.585342 0.153276
O O4 0.510235 0.641049 0.053772
O O5 0.250000 0.358820 0.385137
O O6 0.033612 0.250000 0.376536
O O7 0.007908 0.380220 0.442990
O O8 0.003032 0.413747 0.339488
O O9 0.250000 0.857537 0.904780
O O10 0.053438 0.750000 0.869752
O O11 0.981160 0.859727 0.945516
O O12 0.036431 0.919938 0.847359
O O13 0.250000 0.020863 0.817718
O O14 0.028131 0.002677 0.752429
O O15 0.750000 0.386198 0.494455
O O16 0.918557 0.250000 0.497274
O O17 0.997620 0.380458 0.552894
O O18 0.250000 0.147422 0.602773
O O19 0.029219 0.250000 0.619740
O O20 0.030798 0.082866 0.656664
O O21 0.250000 0.986203 0.687036
O O22 0.250000 0.089446 0.997379
O O23 0.000000 0.000000 0.000000
#
# Coordination Sequence:
#
# PCOD9452209 Si02
#       8
#     8   8   8   8   8   8   8   8
#     4  11  24  41  62  89 121 157 194 237 290 344
#     4  10  21  37  57  82 113 150 189 232 286 343
#     4  10  21  38  60  87 119 154 192 237 290 346
#     4  10  22  40  61  85 115 154 198 243 288 337
#     4   9  17  31  54  83 112 143 183 232 284 342
#     4   9  18  34  55  80 113 149 184 230 286 342
#     4  10  22  38  58  85 113 148 196 240 283 336
#     4  12  23  37  61  91 122 155 191 236 290 346
#
# _framework density 18.658615999999999
#
# number of rings (size 3 to 8) (size 9 to 14) (size 15 to 20)
#    0.000    1.875    1.250    2.625    0.000    7.500 
#    0.000    2.500    0.000    1.500    0.000    0.000 
#    0.000    0.000    0.000    0.000    0.000    0.000 
#
# Total GULP energy -357540.009636 kJ/mol
# GULP energy per Si atom -5586.562651 kJ/mol
# Density = 1.861615 g / cm^3
# Si number density = 18.658616 Si / 1000 Ang^3
#
#
#
# Elastic Constant Matrix: (Units=GPa)
#
#
# Indices 1 2 3 4 5 6 
#
# 1 69.4274 60.8583 72.0284 0.0000 0.0000 0.0000
# 2 60.8583 115.2719 82.3831 0.0000 0.0000 0.0000
# 3 72.0284 82.3831 176.0785 0.0000 0.0000 0.0000
# 4 0.0000 0.0000 0.0000 -148.0520 0.0000 0.0000
# 5 0.0000 0.0000 0.0000 0.0000 20.0653 0.0000
# 6 0.0000 0.0000 0.0000 0.0000 0.0000 25.9020
#
#
#
# Elastic Compliance Matrix: (Units=1/GPa)
#
#
# Indices 1 2 3 4 5 6 
#
# 1 0.032949 -0.011662 -0.008022 0.000000 0.000000 0.000000
# 2 -0.011662 0.017161 -0.003259 0.000000 0.000000 0.000000
# 3 -0.008022 -0.003259 0.010485 0.000000 0.000000 0.000000
# 4 0.000000 0.000000 0.000000 -0.006754 0.000000 0.000000
# 5 0.000000 0.000000 0.000000 0.000000 0.049837 0.000000
# 6 0.000000 0.000000 0.000000 0.000000 0.000000 0.038607
#
#
# Mechanical properties :
#
#
# Convention : Reuss Voigt Hill
#
# Bulk Modulus (GPa) = 67.98179 87.92416 77.95298
# Shear Modulus (GPa) = 25.89674 -10.71641 7.59016
#
# Velocity S-wave (km/s) = 3.72953 -2.39914 2.01910
# Velocity P-wave (km/s) = 7.42021 6.28891 6.87786
#
# Compressibility (1/GPa) = 0.01470982
#
# Stress axis : x y z
#
# Youngs Moduli (GPa) = 30.35003 58.27080 95.37084
#
# Poissons Ratio (x) = 0.67958 0.76505
# Poissons Ratio (y) = 0.35396 0.31078
# Poissons Ratio (z) = 0.24346 0.18988
#
# Static dielectric constant tensor:
#      x y z
#    x 1.629400 0.000000 0.000000 
#    y 0.000000 1.657100 0.000000 
#    z 0.000000 0.000000 1.611010 
# 
# From -- ./inp_files/31465.got.cif
#   From: 2010.05.17/outbox.cif.g08.bks.cpg/sg59_16_cif.got.tgz:31465.got - 2010.06.03 14:40:33.
