data_PCOD9452254
_publ_section_title
;
Structure prediction by ZEFSAII (Michael W. Deem and Ramdas Pophale) SiO2 
 PCOD9452254
Probable space group: P M M N
;
_chemical_formula_sum "Si O2"
_cell_formula_units_Z 40
_cell_length_a 8.818270
_cell_length_b 9.103960
_cell_length_c 26.354037
_cell_angle_alpha 90.000000
_cell_angle_beta 90.000000
_cell_angle_gamma 90.000000
_cell_volume 2115.733118
_symmetry_space_group_name_H-M "P M M N"
_symmetry_group_IT_number 59
_space_group.IT_coordinate_system_code '2'
_symmetry_cell_setting 'orthorhombic'
loop_
_space_group_symop_operation_xyz
x,y,z
1/2-x,1/2-y,z
1/2+x,-y,-z
-x,1/2+y,-z
-x,-y,-z
1/2+x,1/2+y,-z
1/2-x,y,z
x,1/2-y,z
loop_
_atom_site_type_symbol
_atom_site_label
_atom_site_fract_x
_atom_site_fract_y
_atom_site_fract_z
Si Si1 0.432851 0.077427 0.846172
Si Si2 0.067058 0.579361 0.950983
Si Si3 0.931708 0.923008 0.351360
Si Si4 0.068248 0.076935 0.450438
Si Si5 0.068481 0.422698 0.252448
O O1 0.250000 0.064200 0.841476
O O2 0.470470 0.250000 0.846511
O O3 0.478514 0.002383 0.899173
O O4 0.508795 0.997161 0.798832
O O5 0.250000 0.573446 0.953801
O O6 0.021115 0.750000 0.949479
O O7 0.000000 0.500000 0.000000
O O8 0.750000 0.937123 0.352830
O O9 0.969429 0.750000 0.351605
O O10 0.002370 0.001096 0.400314
O O11 0.994802 0.997831 0.300654
O O12 0.250000 0.062604 0.450901
O O13 0.030782 0.250000 0.450533
O O14 0.000000 0.000000 0.500000
O O15 0.250000 0.436107 0.255440
O O16 0.029358 0.250000 0.252737
#
# Coordination Sequence:
#
# PCOD9452254 Si02
#       5
#     8   8   8   8   8
#     4  10  21  38  60  85 113 148 191 237 286 342
#     4  10  21  37  58  84 114 150 191 235 286 342
#     4  11  24  41  62  89 119 153 195 240 288 344
#     4  11  24  41  62  90 122 156 197 242 288 342
#     4  11  24  40  59  86 118 152 192 237 286 342
#
# _framework density 18.905974000000001
#
# number of rings (size 3 to 8) (size 9 to 14) (size 15 to 20)
#    0.000    1.400    0.000    4.800    0.000   15.200 
#    0.000    0.000    0.000    0.000    0.000    0.000 
#    0.000    0.000    0.000    0.000    0.000    0.000 
#
# Total GULP energy -223766.982119 kJ/mol
# GULP energy per Si atom -5594.174553 kJ/mol
# Density = 1.886294 g / cm^3
# Si number density = 18.905974 Si / 1000 Ang^3
#
#
#
# Elastic Constant Matrix: (Units=GPa)
#
#
# Indices 1 2 3 4 5 6 
#
# 1 47.9666 87.1649 69.3146 0.0000 0.0000 0.0000
# 2 87.1649 220.9631 141.5706 0.0000 0.0000 0.0000
# 3 69.3146 141.5706 231.7408 0.0000 0.0000 0.0000
# 4 0.0000 0.0000 0.0000 46.8031 0.0000 0.0000
# 5 0.0000 0.0000 0.0000 0.0000 43.5230 0.0000
# 6 0.0000 0.0000 0.0000 0.0000 0.0000 33.5896
#
#
#
# Elastic Compliance Matrix: (Units=1/GPa)
#
#
# Indices 1 2 3 4 5 6 
#
# 1 0.081328 -0.027106 -0.007766 0.000000 0.000000 0.000000
# 2 -0.027106 0.016470 -0.001954 0.000000 0.000000 0.000000
# 3 -0.007766 -0.001954 0.007832 0.000000 0.000000 0.000000
# 4 0.000000 0.000000 0.000000 0.021366 0.000000 0.000000
# 5 0.000000 0.000000 0.000000 0.000000 0.022976 0.000000
# 6 0.000000 0.000000 0.000000 0.000000 0.000000 0.029771
#
#
# Mechanical properties :
#
#
# Convention : Reuss Voigt Hill
#
# Bulk Modulus (GPa) = 31.27266 121.86340 76.56803
# Shear Modulus (GPa) = 18.93536 38.29116 28.61326
#
# Velocity S-wave (km/s) = 3.16817 4.50527 3.89453
# Velocity P-wave (km/s) = 5.47358 9.57396 7.79811
#
# Compressibility (1/GPa) = 0.03197682
#
# Stress axis : x y z
#
# Youngs Moduli (GPa) = 12.29592 60.71472 127.68141
#
# Poissons Ratio (x) = 1.64574 0.99162
# Poissons Ratio (y) = 0.33329 0.24953
# Poissons Ratio (z) = 0.09549 0.11865
#
# Static dielectric constant tensor:
#      x y z
#    x 1.637830 0.000000 0.000000 
#    y 0.000000 1.634010 0.000000 
#    z 0.000000 0.000000 1.602350 
# 
# From -- ./inp_files/31121.got.cif
#   From: 2010.05.17/outbox.cif.g08.bks.cpg/sg59_16_cif.got.tgz:31121.got - 2010.06.03 14:40:33.
