data_PCOD9452389
_publ_section_title
;
Structure prediction by ZEFSAII (Michael W. Deem and Ramdas Pophale) SiO2 
 PCOD9452389
Probable space group: P M M N
;
_chemical_formula_sum "Si O2"
_cell_formula_units_Z 56
_cell_length_a 14.823855
_cell_length_b 15.639945
_cell_length_c 13.924784
_cell_angle_alpha 90.000000
_cell_angle_beta 90.000000
_cell_angle_gamma 90.000000
_cell_volume 3228.381477
_symmetry_space_group_name_H-M "P M M N"
_symmetry_group_IT_number 59
_space_group.IT_coordinate_system_code '2'
_symmetry_cell_setting 'orthorhombic'
loop_
_space_group_symop_operation_xyz
x,y,z
1/2-x,1/2-y,z
1/2+x,-y,-z
-x,1/2+y,-z
-x,-y,-z
1/2+x,1/2+y,-z
1/2-x,y,z
x,1/2-y,z
loop_
_atom_site_type_symbol
_atom_site_label
_atom_site_fract_x
_atom_site_fract_y
_atom_site_fract_z
Si Si1 0.448339 0.512522 0.598929
Si Si2 0.143677 0.150816 0.087893
Si Si3 0.853787 0.920340 0.125412
Si Si4 0.357586 0.844549 0.488125
Si Si5 0.644324 0.658013 0.330097
Si Si6 0.141427 0.850769 0.265669
Si Si7 0.028651 0.491805 0.196638
O O1 0.500000 0.500000 0.500000
O O2 0.383075 0.589769 0.570615
O O3 0.399224 0.423827 0.621978
O O4 0.505628 0.533076 0.693551
O O5 0.250000 0.141661 0.112552
O O6 0.118280 0.250000 0.103639
O O7 0.084833 0.082620 0.146129
O O8 0.134954 0.127124 0.975355
O O9 0.750000 0.954507 0.129168
O O10 0.862687 0.856426 0.215703
O O11 0.933865 0.988218 0.143055
O O12 0.250000 0.840049 0.483485
O O13 0.394220 0.750000 0.508669
O O14 0.384050 0.866932 0.377945
O O15 0.750000 0.658632 0.353959
O O16 0.604228 0.750000 0.356612
O O17 0.250000 0.862838 0.255337
O O18 0.122685 0.750000 0.245580
O O19 0.086098 0.919560 0.203684
#
# Coordination Sequence:
#
# PCOD9452389 Si02
#       7
#     8   8   8   8   8   8   8
#     4  11  21  32  47  75 106 139 172 218 269 316
#     4  10  21  38  58  81 112 149 185 222 272 337
#     4   9  19  36  58  83 109 140 181 229 281 332
#     4   9  18  34  53  69  93 136 184 222 261 313
#     4   9  18  33  53  76 101 132 173 223 272 319
#     4   9  18  33  53  77 104 136 177 225 271 317
#     4  11  21  34  57  82 112 141 185 226 275 323
#
# _framework density 17.346153000000001
#
# number of rings (size 3 to 8) (size 9 to 14) (size 15 to 20)
#    0.000    2.286    1.429    2.571    0.000    6.286 
#    0.000    0.000    0.000    2.143    0.000    0.000 
#    0.000    0.000    0.000    0.000    0.000    0.000 
#
# Total GULP energy -312110.434781 kJ/mol
# GULP energy per Si atom -5573.400621 kJ/mol
# Density = 1.730667 g / cm^3
# Si number density = 17.346153 Si / 1000 Ang^3
#
#
#
# Elastic Constant Matrix: (Units=GPa)
#
#
# Indices 1 2 3 4 5 6 
#
# 1 85.3710 71.1132 45.3664 0.0000 0.0000 0.0000
# 2 71.1132 142.7987 72.7462 0.0000 0.0000 0.0000
# 3 45.3664 72.7462 75.7300 0.0000 0.0000 0.0000
# 4 0.0000 0.0000 0.0000 16.9107 0.0000 0.0000
# 5 0.0000 0.0000 0.0000 0.0000 22.1770 0.0000
# 6 0.0000 0.0000 0.0000 0.0000 0.0000 -784.0510
#
#
#
# Elastic Compliance Matrix: (Units=1/GPa)
#
#
# Indices 1 2 3 4 5 6 
#
# 1 0.020922 -0.007900 -0.004944 0.000000 0.000000 0.000000
# 2 -0.007900 0.016697 -0.011307 0.000000 0.000000 0.000000
# 3 -0.004944 -0.011307 0.027028 0.000000 0.000000 0.000000
# 4 0.000000 0.000000 0.000000 0.059134 0.000000 0.000000
# 5 0.000000 0.000000 0.000000 0.000000 0.045092 0.000000
# 6 0.000000 0.000000 0.000000 0.000000 0.000000 -0.001275
#
#
# Mechanical properties :
#
#
# Convention : Reuss Voigt Hill
#
# Bulk Modulus (GPa) = 61.18285 75.81680 68.49982
# Shear Modulus (GPa) = 22.58892 -141.34772 -59.37940
#
# Velocity S-wave (km/s) = 3.61258 -9.03678 -5.85716
# Velocity P-wave (km/s) = 7.26287 8.06731 2.48317
#
# Compressibility (1/GPa) = 0.01634445
#
# Stress axis : x y z
#
# Youngs Moduli (GPa) = 47.79711 59.89105 36.99890
#
# Poissons Ratio (x) = 0.47315 0.18294
# Poissons Ratio (y) = 0.37760 0.41833
# Poissons Ratio (z) = 0.23633 0.67716
#
# Static dielectric constant tensor:
#      x y z
#    x 1.637300 0.000000 0.000000 
#    y 0.000000 1.366120 0.000000 
#    z 0.000000 0.000000 1.576010 
# 
# From -- ./inp_files/16969.got.cif
#   From: 2010.05.17/outbox.cif.g08.bks.cpg/sg59_9_cif.got.tgz:16969.got - 2010.06.03 14:40:33.
