data_PCOD9452679
_publ_section_title
;
Structure prediction by ZEFSAII (Michael W. Deem and Ramdas Pophale) SiO2 
 PCOD9452679
Probable space group: P M M N
;
_chemical_formula_sum "Si O2"
_cell_formula_units_Z 48
_cell_length_a 18.012859
_cell_length_b 22.292207
_cell_length_c 5.352729
_cell_angle_alpha 90.000000
_cell_angle_beta 90.000000
_cell_angle_gamma 90.000000
_cell_volume 2149.368961
_symmetry_space_group_name_H-M "P M M N"
_symmetry_group_IT_number 59
_space_group.IT_coordinate_system_code '2'
_symmetry_cell_setting 'orthorhombic'
loop_
_space_group_symop_operation_xyz
x,y,z
1/2-x,1/2-y,z
1/2+x,-y,-z
-x,1/2+y,-z
-x,-y,-z
1/2+x,1/2+y,-z
1/2-x,y,z
x,1/2-y,z
loop_
_atom_site_type_symbol
_atom_site_label
_atom_site_fract_x
_atom_site_fract_y
_atom_site_fract_z
Si Si1 0.539470 0.407860 0.614626
Si Si2 0.662385 0.415926 0.985771
Si Si3 0.899367 0.820164 0.021702
Si Si4 0.443968 0.681022 0.778172
Si Si5 0.838451 0.882982 0.523474
Si Si6 0.918788 0.512756 0.274372
O O1 0.524068 0.345081 0.481936
O O2 0.481830 0.439347 0.806365
O O3 0.539413 0.455845 0.390314
O O4 0.621714 0.407764 0.722510
O O5 0.750000 0.410890 0.982108
O O6 0.623377 0.362476 0.144297
O O7 0.636816 0.481604 0.082143
O O8 0.879069 0.750000 0.001484
O O9 0.864285 0.856104 0.787876
O O10 0.988585 0.822885 0.976185
O O11 0.869047 0.845332 0.284374
O O12 0.421701 0.750000 0.754963
O O13 0.750000 0.884315 0.514123
O O14 0.872169 0.949142 0.475742
#
# Coordination Sequence:
#
# PCOD9452679 Si02
#       6
#     8   8   8   8   8   8
#     4  10  21  41  68  93 128 172 225 282 338 415
#     4  11  24  40  63  95 134 175 221 287 356 412
#     4  11  25  45  68  96 135 182 233 283 341 415
#     4  10  23  43  68  94 127 175 231 285 342 415
#     4  12  25  41  67 101 139 179 226 284 348 414
#     4  10  22  40  64  95 129 174 223 276 336 414
#
# _framework density 22.332135000000001
#
# number of rings (size 3 to 8) (size 9 to 14) (size 15 to 20)
#    0.000    1.333    1.667    3.000    2.333    6.333 
#    0.000    0.000    0.000    0.000    0.000    0.000 
#    0.000    0.000    0.000    0.000    0.000    0.000 
#
# Total GULP energy -268131.492999 kJ/mol
# GULP energy per Si atom -5586.072771 kJ/mol
# Density = 2.228131 g / cm^3
# Si number density = 22.332135 Si / 1000 Ang^3
#
#
#
# Elastic Constant Matrix: (Units=GPa)
#
#
# Indices 1 2 3 4 5 6 
#
# 1 159.4876 19.9325 19.7077 0.0000 0.0000 0.0000
# 2 19.9325 119.1972 21.2086 0.0000 0.0000 0.0000
# 3 19.7077 21.2086 90.1102 0.0000 0.0000 0.0000
# 4 0.0000 0.0000 0.0000 23.4394 0.0000 0.0000
# 5 0.0000 0.0000 0.0000 0.0000 28.2706 0.0000
# 6 0.0000 0.0000 0.0000 0.0000 0.0000 23.4393
#
#
#
# Elastic Compliance Matrix: (Units=1/GPa)
#
#
# Indices 1 2 3 4 5 6 
#
# 1 0.006530 -0.000875 -0.001222 0.000000 0.000000 0.000000
# 2 -0.000875 0.008873 -0.001897 0.000000 0.000000 0.000000
# 3 -0.001222 -0.001897 0.011811 0.000000 0.000000 0.000000
# 4 0.000000 0.000000 0.000000 0.042663 0.000000 0.000000
# 5 0.000000 0.000000 0.000000 0.000000 0.035372 0.000000
# 6 0.000000 0.000000 0.000000 0.000000 0.000000 0.042663
#
#
# Mechanical properties :
#
#
# Convention : Reuss Voigt Hill
#
# Bulk Modulus (GPa) = 52.01060 54.49917 53.25489
# Shear Modulus (GPa) = 30.80500 35.55960 33.18230
#
# Velocity S-wave (km/s) = 3.71806 3.99470 3.85886
# Velocity P-wave (km/s) = 6.46313 6.76267 6.61460
#
# Compressibility (1/GPa) = 0.01922685
#
# Stress axis : x y z
#
# Youngs Moduli (GPa) = 153.12927 112.69807 84.66400
#
# Poissons Ratio (x) = 0.09856 0.10349
# Poissons Ratio (y) = 0.13392 0.16062
# Poissons Ratio (z) = 0.18719 0.21381
#
# Static dielectric constant tensor:
#      x y z
#    x 1.837650 0.000000 0.000000 
#    y 0.000000 1.836100 0.000000 
#    z 0.000000 0.000000 1.936410 
# 
# From -- ./inp_files/2847.got.cif
#   From: 2010.05.17/outbox.cif.g08.bks.cpg/sg59_2_cif.got.tgz:2847.got - 2010.06.03 14:40:33.
