data_PCOD9452169
_publ_section_title
;
Structure prediction by ZEFSAII (Michael W. Deem and Ramdas Pophale) SiO2 
 PCOD9452169
Probable space group: P M M N
;
_chemical_formula_sum "Si O2"
_cell_formula_units_Z 56
_cell_length_a 13.556374
_cell_length_b 10.437026
_cell_length_c 18.473489
_cell_angle_alpha 90.000000
_cell_angle_beta 90.000000
_cell_angle_gamma 90.000000
_cell_volume 2613.781222
_symmetry_space_group_name_H-M "P M M N"
_symmetry_group_IT_number 59
_space_group.IT_coordinate_system_code '2'
_symmetry_cell_setting 'orthorhombic'
loop_
_space_group_symop_operation_xyz
x,y,z
1/2-x,1/2-y,z
1/2+x,-y,-z
-x,1/2+y,-z
-x,-y,-z
1/2+x,1/2+y,-z
1/2-x,y,z
x,1/2-y,z
loop_
_atom_site_type_symbol
_atom_site_label
_atom_site_fract_x
_atom_site_fract_y
_atom_site_fract_z
Si Si1 0.631592 0.899816 0.749005
Si Si2 0.138877 0.531594 0.552809
Si Si3 0.867060 0.888137 0.302819
Si Si4 0.130010 0.602472 0.808864
Si Si5 0.870841 0.398314 0.872811
Si Si6 0.925113 0.892735 0.588158
Si Si7 0.863282 0.094376 0.032282
O O1 0.750000 0.905493 0.744202
O O2 0.606930 0.750000 0.763859
O O3 0.591458 0.937024 0.669993
O O4 0.602497 0.998556 0.811961
O O5 0.250000 0.584699 0.563491
O O6 0.126578 0.418553 0.612091
O O7 0.125859 0.480886 0.471675
O O8 0.041602 0.612659 0.569996
O O9 0.750000 0.880541 0.287470
O O10 0.912414 0.750000 0.285817
O O11 0.901302 0.006523 0.254108
O O12 0.250000 0.603348 0.810944
O O13 0.101826 0.750000 0.795048
O O14 0.096522 0.558760 0.888817
O O15 0.750000 0.395723 0.875864
O O16 0.901349 0.250000 0.858677
O O17 0.905743 0.438422 0.953672
O O18 0.882884 0.750000 0.583058
O O19 0.750000 0.047486 0.031521
O O20 0.860928 0.250000 0.033470
#
# Coordination Sequence:
#
# PCOD9452169 Si02
#       7
#     8   8   8   8   8   8   8
#     4   9  17  30  49  74 105 140 178 219 264 318
#     4  10  21  37  57  80 106 138 177 220 264 316
#     4   9  17  29  46  69  98 133 171 211 260 316
#     4   8  13  22  38  62  93 129 170 214 257 305
#     4   8  13  23  41  65  96 136 178 218 262 311
#     4  10  21  37  57  80 106 140 180 219 265 321
#     4   7  10  18  34  58  90 129 171 212 255 307
#
# _framework density 21.424899
#
# number of rings (size 3 to 8) (size 9 to 14) (size 15 to 20)
#    0.000    3.286    0.000    2.571    0.000    2.286 
#    0.000    5.714    0.000    7.714    0.000    1.000 
#    0.000    0.000    0.000    0.000    0.000    0.571 
#
# Total GULP energy -312177.227734 kJ/mol
# GULP energy per Si atom -5574.593352 kJ/mol
# Density = 2.137613 g / cm^3
# Si number density = 21.424899 Si / 1000 Ang^3
#
#
#
# Elastic Constant Matrix: (Units=GPa)
#
#
# Indices 1 2 3 4 5 6 
#
# 1 91.9931 5.1513 28.0101 0.0000 0.0000 0.0000
# 2 5.1513 96.0577 96.0581 0.0000 0.0000 0.0000
# 3 28.0101 96.0581 183.9618 0.0000 0.0000 0.0000
# 4 0.0000 0.0000 0.0000 19.1775 0.0000 0.0000
# 5 0.0000 0.0000 0.0000 0.0000 23.2616 0.0000
# 6 0.0000 0.0000 0.0000 0.0000 0.0000 -9.4867
#
#
#
# Elastic Compliance Matrix: (Units=1/GPa)
#
#
# Indices 1 2 3 4 5 6 
#
# 1 0.011659 0.002407 -0.003032 0.000000 0.000000 0.000000
# 2 0.002407 0.022283 -0.012002 0.000000 0.000000 0.000000
# 3 -0.003032 -0.012002 0.012165 0.000000 0.000000 0.000000
# 4 0.000000 0.000000 0.000000 0.052144 0.000000 0.000000
# 5 0.000000 0.000000 0.000000 0.000000 0.042989 0.000000
# 6 0.000000 0.000000 0.000000 0.000000 0.000000 -0.105411
#
#
# Mechanical properties :
#
#
# Convention : Reuss Voigt Hill
#
# Bulk Modulus (GPa) = 47.95648 70.05018 59.00333
# Shear Modulus (GPa) = 73.49220 22.77670 48.13445
#
# Velocity S-wave (km/s) = 5.86317 3.26405 4.74504
# Velocity P-wave (km/s) = 8.26243 6.85361 7.59078
#
# Compressibility (1/GPa) = 0.02085224
#
# Stress axis : x y z
#
# Youngs Moduli (GPa) = 85.77261 44.87644 82.20616
#
# Poissons Ratio (x) = -0.10800 0.24923
# Poissons Ratio (y) = -0.20642 0.98664
# Poissons Ratio (z) = 0.26004 0.53861
#
# Static dielectric constant tensor:
#      x y z
#    x 1.800850 0.000000 0.000000 
#    y 0.000000 1.745850 0.000000 
#    z 0.000000 0.000000 1.770570 
# 
# From -- ./inp_files/23234.got.cif
#   From: 2010.05.17/outbox.cif.g08.bks.cpg/sg59_12_cif.got.tgz:23234.got - 2010.06.03 14:40:33.
