data_PCOD9452675
_publ_section_title
;
Structure prediction by ZEFSAII (Michael W. Deem and Ramdas Pophale) SiO2 
 PCOD9452675
Probable space group: P M M N
;
_chemical_formula_sum "Si O2"
_cell_formula_units_Z 32
_cell_length_a 14.200174
_cell_length_b 16.056005
_cell_length_c 6.625693
_cell_angle_alpha 90.000000
_cell_angle_beta 90.000000
_cell_angle_gamma 90.000000
_cell_volume 1510.645182
_symmetry_space_group_name_H-M "P M M N"
_symmetry_group_IT_number 59
_space_group.IT_coordinate_system_code '2'
_symmetry_cell_setting 'orthorhombic'
loop_
_space_group_symop_operation_xyz
x,y,z
1/2-x,1/2-y,z
1/2+x,-y,-z
-x,1/2+y,-z
-x,-y,-z
1/2+x,1/2+y,-z
1/2-x,y,z
x,1/2-y,z
loop_
_atom_site_type_symbol
_atom_site_label
_atom_site_fract_x
_atom_site_fract_y
_atom_site_fract_z
Si Si1 0.750000 0.250000 0.974454
Si Si2 0.750000 0.750000 0.986598
Si Si3 0.618869 0.250000 0.354967
Si Si4 0.250000 0.866523 0.402526
Si Si5 0.451622 0.250000 0.100588
Si Si6 0.581242 0.568239 0.024925
Si Si7 0.250000 0.093373 0.717708
Si Si8 0.250000 0.444734 0.293145
O O1 0.750000 0.171865 0.822845
O O2 0.663199 0.250000 0.129265
O O3 0.750000 0.672715 0.136335
O O4 0.841569 0.750000 0.854545
O O5 0.660999 0.172084 0.477401
O O6 0.510296 0.250000 0.305642
O O7 0.250000 0.964099 0.392749
O O8 0.463397 0.162072 0.980106
O O9 0.650718 0.551245 0.215861
O O10 0.500000 0.500000 0.000000
O O11 0.656198 0.562396 0.840814
O O12 0.250000 0.114728 0.484793
#
# Coordination Sequence:
#
# PCOD9452675 Si02
#       8
#     2   2   4   4   4   8   4   4
#     4   8  18  36  58  80 128 168 192 248 326 378
#     4   8  18  42  62  86 118 174 222 258 310 368
#     4   9  20  37  63  89 125 168 198 263 313 390
#     4   9  21  38  55  99 127 156 214 247 327 393
#     4  10  21  41  66  88 128 167 220 261 314 384
#     4  10  24  42  64  96 126 173 216 265 323 381
#     4   9  21  41  62  89 125 164 215 262 315 378
#     4  11  24  40  67  89 134 167 205 277 318 388
#
# _framework density 21.183
#
# number of rings (size 3 to 8) (size 9 to 14) (size 15 to 20)
#    0.000    2.750    0.000    0.750    7.000    4.000 
#    0.000    2.500    0.000    0.000    0.000    0.000 
#    0.000    0.000    0.000    0.000    0.000    0.000 
#
# Total GULP energy -178371.228581 kJ/mol
# GULP energy per Si atom -5574.100893 kJ/mol
# Density = 2.113479 g / cm^3
# Si number density = 21.183000 Si / 1000 Ang^3
#
#
#
# Elastic Constant Matrix: (Units=GPa)
#
#
# Indices 1 2 3 4 5 6 
#
# 1 111.2042 39.6309 45.9531 0.0000 0.0000 0.0000
# 2 39.6309 115.3676 12.4809 0.0000 0.0000 0.0000
# 3 45.9531 12.4809 119.3510 0.0000 0.0000 0.0000
# 4 0.0000 0.0000 0.0000 12.8750 0.0000 0.0000
# 5 0.0000 0.0000 0.0000 0.0000 8.6429 0.0000
# 6 0.0000 0.0000 0.0000 0.0000 0.0000 25.6695
#
#
#
# Elastic Compliance Matrix: (Units=1/GPa)
#
#
# Indices 1 2 3 4 5 6 
#
# 1 0.012066 -0.003684 -0.004260 0.000000 0.000000 0.000000
# 2 -0.003684 0.009892 0.000384 0.000000 0.000000 0.000000
# 3 -0.004260 0.000384 0.009979 0.000000 0.000000 0.000000
# 4 0.000000 0.000000 0.000000 0.077670 0.000000 0.000000
# 5 0.000000 0.000000 0.000000 0.000000 0.115702 0.000000
# 6 0.000000 0.000000 0.000000 0.000000 0.000000 0.038957
#
#
# Mechanical properties :
#
#
# Convention : Reuss Voigt Hill
#
# Bulk Modulus (GPa) = 59.46757 60.22805 59.84781
# Shear Modulus (GPa) = 17.54438 25.96133 21.75285
#
# Velocity S-wave (km/s) = 2.88102 3.50462 3.20801
# Velocity P-wave (km/s) = 6.26109 6.69854 6.48350
#
# Compressibility (1/GPa) = 0.01681589
#
# Stress axis : x y z
#
# Youngs Moduli (GPa) = 82.87824 101.09274 100.21184
#
# Poissons Ratio (x) = 0.37242 0.42695
# Poissons Ratio (y) = 0.30532 -0.03848
# Poissons Ratio (z) = 0.35310 -0.03882
#
# Static dielectric constant tensor:
#      x y z
#    x 1.854910 0.000000 0.000000 
#    y 0.000000 1.838230 0.000000 
#    z 0.000000 0.000000 1.735480 
# 
# From -- ./inp_files/1810.got.cif
#   From: 2010.05.17/outbox.cif.g08.bks.cpg/sg59_1_cif.got.tgz:1810.got - 2010.06.03 14:40:33.
