data_PCOD9452429
_publ_section_title
;
Structure prediction by ZEFSAII (Michael W. Deem and Ramdas Pophale) SiO2 
 PCOD9452429
Probable space group: P M M N
;
_chemical_formula_sum "Si O2"
_cell_formula_units_Z 58
_cell_length_a 9.773277
_cell_length_b 15.317918
_cell_length_c 17.883640
_cell_angle_alpha 90.000000
_cell_angle_beta 90.000000
_cell_angle_gamma 90.000000
_cell_volume 2677.292782
_symmetry_space_group_name_H-M "P M M N"
_symmetry_group_IT_number 59
_space_group.IT_coordinate_system_code '2'
_symmetry_cell_setting 'orthorhombic'
loop_
_space_group_symop_operation_xyz
x,y,z
1/2-x,1/2-y,z
1/2+x,-y,-z
-x,1/2+y,-z
-x,-y,-z
1/2+x,1/2+y,-z
1/2-x,y,z
x,1/2-y,z
loop_
_atom_site_type_symbol
_atom_site_label
_atom_site_fract_x
_atom_site_fract_y
_atom_site_fract_z
Si Si1 0.104721 0.098957 0.790434
Si Si2 0.410523 0.351966 0.496179
Si Si3 0.092918 0.891028 0.811155
Si Si4 0.094040 0.354487 0.045250
Si Si5 0.903684 0.146836 0.913237
Si Si6 0.592688 0.893494 0.671922
Si Si7 0.033002 0.906689 0.355731
Si Si8 0.250000 0.750000 0.341550
O O1 0.250000 0.135776 0.817801
O O2 0.974569 0.137017 0.833054
O O3 0.090620 0.109738 0.701858
O O4 0.102522 0.995984 0.807158
O O5 0.250000 0.374858 0.498431
O O6 0.425620 0.250000 0.516447
O O7 0.453663 0.363063 0.410214
O O8 0.489457 0.407274 0.557859
O O9 0.250000 0.858130 0.816088
O O10 0.998781 0.868788 0.881852
O O11 0.010572 0.863690 0.736597
O O12 0.250000 0.388536 0.051291
O O13 0.105471 0.250000 0.035286
O O14 0.008730 0.390509 0.974464
O O15 0.750000 0.109868 0.915762
O O16 0.891850 0.250000 0.928331
O O17 0.750000 0.864601 0.685288
O O18 0.590903 0.999051 0.667885
O O19 0.133803 0.827048 0.343942
#
# Coordination Sequence:
#
# PCOD9452429 Si02
#       8
#     8   8   8   8   8   8   8   2
#     4  10  23  39  59  84 117 157 197 238 288 351
#     4  10  21  38  59  85 114 149 196 245 293 352
#     4  10  22  40  60  86 117 151 195 240 291 350
#     4  10  21  39  63  88 116 151 194 239 290 348
#     4  10  22  37  58  86 119 153 192 241 294 347
#     4  10  21  39  61  84 116 157 195 243 301 355
#     4  11  22  39  58  84 119 155 199 243 298 353
#     4  12  24  36  58  88 118 156 196 252 288 364
#
# _framework density 21.663675000000001
#
# number of rings (size 3 to 8) (size 9 to 14) (size 15 to 20)
#    0.000    1.793    1.379    2.069    1.931    4.414 
#    1.241    1.379    0.000    0.000    0.000    0.000 
#    0.000    0.000    0.000    0.000    0.000    0.000 
#
# Total GULP energy -323390.952971 kJ/mol
# GULP energy per Si atom -5575.706086 kJ/mol
# Density = 2.161437 g / cm^3
# Si number density = 21.663675 Si / 1000 Ang^3
#
#
#
# Elastic Constant Matrix: (Units=GPa)
#
#
# Indices 1 2 3 4 5 6 
#
# 1 167.4205 5.4460 68.8755 0.0000 0.0000 0.0000
# 2 5.4460 42.4642 -14.6764 0.0000 0.0000 0.0000
# 3 68.8755 -14.6764 118.4426 0.0000 0.0000 0.0000
# 4 0.0000 0.0000 0.0000 28.4974 0.0000 0.0000
# 5 0.0000 0.0000 0.0000 0.0000 27.2102 0.0000
# 6 0.0000 0.0000 0.0000 0.0000 0.0000 24.3929
#
#
#
# Elastic Compliance Matrix: (Units=1/GPa)
#
#
# Indices 1 2 3 4 5 6 
#
# 1 0.008159 -0.002806 -0.005092 0.000000 0.000000 0.000000
# 2 -0.002806 0.025568 0.004800 0.000000 0.000000 0.000000
# 3 -0.005092 0.004800 0.011999 0.000000 0.000000 0.000000
# 4 0.000000 0.000000 0.000000 0.035091 0.000000 0.000000
# 5 0.000000 0.000000 0.000000 0.000000 0.036751 0.000000
# 6 0.000000 0.000000 0.000000 0.000000 0.000000 0.040995
#
#
# Mechanical properties :
#
#
# Convention : Reuss Voigt Hill
#
# Bulk Modulus (GPa) = 25.29786 49.73527 37.51657
# Shear Modulus (GPa) = 28.09974 33.93226 31.01600
#
# Velocity S-wave (km/s) = 3.60542 3.96197 3.78789
# Velocity P-wave (km/s) = 5.38841 6.62853 6.04038
#
# Compressibility (1/GPa) = 0.03952903
#
# Stress axis : x y z
#
# Youngs Moduli (GPa) = 122.56002 39.11107 83.34022
#
# Poissons Ratio (x) = 0.10976 0.42441
# Poissons Ratio (y) = 0.34396 -0.40005
# Poissons Ratio (z) = 0.62413 -0.18774
#
# Static dielectric constant tensor:
#      x y z
#    x 1.789220 0.000000 0.000000 
#    y 0.000000 1.795850 0.000000 
#    z 0.000000 0.000000 1.787120 
# 
# From -- ./inp_files/25891.got.cif
#   From: 2010.05.17/outbox.cif.g08.bks.cpg/sg59_13_cif.got.tgz:25891.got - 2010.06.03 14:40:33.
