data_PCOD9452848
_publ_section_title
;
Structure prediction by ZEFSAII (Michael W. Deem and Ramdas Pophale) SiO2 
 PCOD9452848
Probable space group: P M M N
;
_chemical_formula_sum "Si O2"
_cell_formula_units_Z 40
_cell_length_a 11.484645
_cell_length_b 18.751651
_cell_length_c 9.304426
_cell_angle_alpha 90.000000
_cell_angle_beta 90.000000
_cell_angle_gamma 90.000000
_cell_volume 2003.764476
_symmetry_space_group_name_H-M "P M M N"
_symmetry_group_IT_number 59
_space_group.IT_coordinate_system_code '2'
_symmetry_cell_setting 'orthorhombic'
loop_
_space_group_symop_operation_xyz
x,y,z
1/2-x,1/2-y,z
1/2+x,-y,-z
-x,1/2+y,-z
-x,-y,-z
1/2+x,1/2+y,-z
1/2-x,y,z
x,1/2-y,z
loop_
_atom_site_type_symbol
_atom_site_label
_atom_site_fract_x
_atom_site_fract_y
_atom_site_fract_z
Si Si1 0.013408 0.167977 0.875277
Si Si2 0.118862 0.544028 0.646558
Si Si3 0.535813 0.889434 0.433188
Si Si4 0.750000 0.836510 0.959711
Si Si5 0.250000 0.163609 0.375695
Si Si6 0.883645 0.451818 0.021344
O O1 0.993973 0.250000 0.914938
O O2 0.029623 0.160555 0.704613
O O3 0.133141 0.142757 0.954156
O O4 0.909597 0.117099 0.925187
O O5 0.250000 0.525026 0.610521
O O6 0.051009 0.469445 0.630271
O O7 0.112441 0.568205 0.810613
O O8 0.074006 0.603168 0.537139
O O9 0.639817 0.866537 0.538024
O O10 0.750000 0.750000 0.959387
O O11 0.750000 0.859040 0.792506
O O12 0.250000 0.250000 0.380103
O O13 0.750000 0.479646 0.993949
O O14 0.000000 0.500000 0.000000
#
# Coordination Sequence:
#
# PCOD9452848 Si02
#       6
#     8   8   8   4   4   8
#     4  11  23  41  65  96 131 172 222 281 335 395
#     4  10  22  41  60  88 130 165 211 261 327 391
#     4  11  21  37  60  94 126 168 211 268 328 392
#     4   9  21  37  61  93 131 171 216 265 328 400
#     4  11  21  37  61  93 129 171 214 267 334 398
#     4  11  24  43  66  96 132 175 220 274 330 398
#
# _framework density 19.962427000000002
#
# number of rings (size 3 to 8) (size 9 to 14) (size 15 to 20)
#    0.000    1.400    3.000    2.400    1.400    2.000 
#    1.800    1.000    0.000    4.200    0.000    0.000 
#    0.000    0.000    0.000    0.000    0.000    0.000 
#
# Total GULP energy -223168.492935 kJ/mol
# GULP energy per Si atom -5579.212323 kJ/mol
# Density = 1.991699 g / cm^3
# Si number density = 19.962427 Si / 1000 Ang^3
#
#
#
# Elastic Constant Matrix: (Units=GPa)
#
#
# Indices 1 2 3 4 5 6 
#
# 1 80.8817 16.5350 37.6376 0.0000 0.0000 0.0000
# 2 16.5350 51.8006 15.8158 0.0000 0.0000 0.0000
# 3 37.6376 15.8158 114.9825 0.0000 0.0000 0.0000
# 4 0.0000 0.0000 0.0000 36.0590 0.0000 0.0000
# 5 0.0000 0.0000 0.0000 0.0000 31.4399 0.0000
# 6 0.0000 0.0000 0.0000 0.0000 0.0000 16.5839
#
#
#
# Elastic Compliance Matrix: (Units=1/GPa)
#
#
# Indices 1 2 3 4 5 6 
#
# 1 0.015160 -0.003470 -0.004485 0.000000 0.000000 0.000000
# 2 -0.003470 0.020945 -0.001745 0.000000 0.000000 0.000000
# 3 -0.004485 -0.001745 0.010405 0.000000 0.000000 0.000000
# 4 0.000000 0.000000 0.000000 0.027732 0.000000 0.000000
# 5 0.000000 0.000000 0.000000 0.000000 0.031807 0.000000
# 6 0.000000 0.000000 0.000000 0.000000 0.000000 0.060299
#
#
# Mechanical properties :
#
#
# Convention : Reuss Voigt Hill
#
# Bulk Modulus (GPa) = 36.88644 43.07129 39.97886
# Shear Modulus (GPa) = 25.66918 28.66167 27.16543
#
# Velocity S-wave (km/s) = 3.58980 3.79328 3.69294
# Velocity P-wave (km/s) = 5.97497 6.38814 6.18501
#
# Compressibility (1/GPa) = 0.02711024
#
# Stress axis : x y z
#
# Youngs Moduli (GPa) = 65.96207 47.74354 96.10601
#
# Poissons Ratio (x) = 0.16566 0.43105
# Poissons Ratio (y) = 0.22888 0.16773
# Poissons Ratio (z) = 0.29585 0.08332
#
# Static dielectric constant tensor:
#      x y z
#    x 1.683030 0.000000 0.000000 
#    y 0.000000 1.722500 0.000000 
#    z 0.000000 0.000000 1.692620 
# 
# From -- ./inp_files/7409.got.cif
#   From: 2010.05.17/outbox.cif.g08.bks.cpg/sg59_4_cif.got.tgz:7409.got - 2010.06.03 14:40:33.
