data_PCOD9452969
_publ_section_title
;
Structure prediction by ZEFSAII (Michael W. Deem and Ramdas Pophale) SiO2 
 PCOD9452969
Probable space group: P M M N
;
_chemical_formula_sum "Si O2"
_cell_formula_units_Z 64
_cell_length_a 18.670469
_cell_length_b 14.797040
_cell_length_c 11.588054
_cell_angle_alpha 90.000000
_cell_angle_beta 90.000000
_cell_angle_gamma 90.000000
_cell_volume 3201.404755
_symmetry_space_group_name_H-M "P M M N"
_symmetry_group_IT_number 59
_space_group.IT_coordinate_system_code '2'
_symmetry_cell_setting 'orthorhombic'
loop_
_space_group_symop_operation_xyz
x,y,z
1/2-x,1/2-y,z
1/2+x,-y,-z
-x,1/2+y,-z
-x,-y,-z
1/2+x,1/2+y,-z
1/2-x,y,z
x,1/2-y,z
loop_
_atom_site_type_symbol
_atom_site_label
_atom_site_fract_x
_atom_site_fract_y
_atom_site_fract_z
Si Si1 0.909822 0.650000 0.598474
Si Si2 0.456284 0.405618 0.157536
Si Si3 0.529409 0.389641 0.772128
Si Si4 0.903704 0.150319 0.017005
Si Si5 0.935262 0.145545 0.512507
Si Si6 0.136489 0.353025 0.755352
Si Si7 0.667836 0.512859 0.456146
Si Si8 0.330496 0.039118 0.984608
O O1 0.884433 0.750000 0.563917
O O2 0.930546 0.649156 0.732083
O O3 0.854428 0.571934 0.567595
O O4 0.982964 0.630209 0.528207
O O5 0.478705 0.503456 0.206724
O O6 0.523380 0.364371 0.089942
O O7 0.390630 0.422589 0.070798
O O8 0.566611 0.369655 0.650294
O O9 0.449638 0.350843 0.767026
O O10 0.573005 0.354675 0.882509
O O11 0.874072 0.250000 0.042046
O O12 0.853059 0.064669 0.040994
O O13 0.917776 0.250000 0.486068
O O14 0.884098 0.073368 0.451712
O O15 0.161751 0.250000 0.741139
O O16 0.155624 0.417884 0.649047
O O17 0.165716 0.400608 0.870013
O O18 0.750000 0.484623 0.460141
O O19 0.250000 0.041729 0.032298
#
# Coordination Sequence:
#
# PCOD9452969 Si02
#       8
#     8   8   8   8   8   8   8   8
#     4  11  23  39  64  93 123 161 205 256 312 371
#     4  11  21  40  64  93 127 163 206 257 313 365
#     4  11  19  39  68  97 121 154 211 270 308 349
#     4  11  22  39  66  95 126 165 210 260 309 367
#     4  11  23  42  69  94 120 162 214 262 307 364
#     4  12  23  41  68  94 121 159 209 261 312 369
#     4  12  26  42  61  90 131 166 200 253 312 374
#     4  11  25  42  61  91 129 167 207 255 311 371
#
# _framework density 19.991223999999999
#
# number of rings (size 3 to 8) (size 9 to 14) (size 15 to 20)
#    0.000    0.750    5.000    4.125    0.000    3.250 
#    0.000    0.000    0.000    3.000    0.000    0.000 
#    0.000    0.000    0.000    0.000    0.000    0.000 
#
# Total GULP energy -357900.201725 kJ/mol
# GULP energy per Si atom -5592.190652 kJ/mol
# Density = 1.994572 g / cm^3
# Si number density = 19.991224 Si / 1000 Ang^3
#
#
#
# Elastic Constant Matrix: (Units=GPa)
#
#
# Indices 1 2 3 4 5 6 
#
# 1 50.4926 15.8516 -1.1793 0.0000 0.0000 0.0000
# 2 15.8516 115.7378 20.1974 0.0000 0.0000 0.0000
# 3 -1.1793 20.1974 82.4361 0.0000 0.0000 0.0000
# 4 0.0000 0.0000 0.0000 18.9065 0.0000 0.0000
# 5 0.0000 0.0000 0.0000 0.0000 -6.4439 0.0000
# 6 0.0000 0.0000 0.0000 0.0000 0.0000 -4.9657
#
#
#
# Elastic Compliance Matrix: (Units=1/GPa)
#
#
# Indices 1 2 3 4 5 6 
#
# 1 0.020780 -0.003027 0.001039 0.000000 0.000000 0.000000
# 2 -0.003027 0.009467 -0.002363 0.000000 0.000000 0.000000
# 3 0.001039 -0.002363 0.012724 0.000000 0.000000 0.000000
# 4 0.000000 0.000000 0.000000 0.052892 0.000000 0.000000
# 5 0.000000 0.000000 0.000000 0.000000 -0.155185 0.000000
# 6 0.000000 0.000000 0.000000 0.000000 0.000000 -0.201381
#
#
# Mechanical properties :
#
#
# Convention : Reuss Voigt Hill
#
# Bulk Modulus (GPa) = 29.18106 35.37841 32.27974
# Shear Modulus (GPa) = -20.78329 15.75249 -2.51540
#
# Velocity S-wave (km/s) = -3.22781 2.81013 -1.12294
# Velocity P-wave (km/s) = 0.85844 5.31643 3.80798
#
# Compressibility (1/GPa) = 0.03426880
#
# Stress axis : x y z
#
# Youngs Moduli (GPa) = 48.12425 105.62804 78.58928
#
# Poissons Ratio (x) = 0.31977 -0.08165
# Poissons Ratio (y) = 0.14569 0.18569
# Poissons Ratio (z) = -0.05000 0.24958
#
# Static dielectric constant tensor:
#      x y z
#    x 1.678700 0.000000 0.000000 
#    y 0.000000 1.727540 0.000000 
#    z 0.000000 0.000000 1.710860 
# 
# From -- ./inp_files/17815.got.cif
#   From: 2010.05.17/outbox.cif.g08.bks.cpg/sg59_9_cif.got.tgz:17815.got - 2010.06.03 14:40:33.
