data_PCOD9452112
_publ_section_title
;
Structure prediction by ZEFSAII (Michael W. Deem and Ramdas Pophale) SiO2 
 PCOD9452112
Probable space group: P M M N
;
_chemical_formula_sum "Si O2"
_cell_formula_units_Z 56
_cell_length_a 8.060727
_cell_length_b 15.548178
_cell_length_c 22.581311
_cell_angle_alpha 90.000000
_cell_angle_beta 90.000000
_cell_angle_gamma 90.000000
_cell_volume 2830.107086
_symmetry_space_group_name_H-M "P M M N"
_symmetry_group_IT_number 59
_space_group.IT_coordinate_system_code '2'
_symmetry_cell_setting 'orthorhombic'
loop_
_space_group_symop_operation_xyz
x,y,z
1/2-x,1/2-y,z
1/2+x,-y,-z
-x,1/2+y,-z
-x,-y,-z
1/2+x,1/2+y,-z
1/2-x,y,z
x,1/2-y,z
loop_
_atom_site_type_symbol
_atom_site_label
_atom_site_fract_x
_atom_site_fract_y
_atom_site_fract_z
Si Si1 0.450831 0.488951 0.707251
Si Si2 0.050217 0.564209 0.161504
Si Si3 0.547036 0.345514 0.361351
Si Si4 0.948984 0.657759 0.381100
Si Si5 0.953073 0.250000 0.885247
Si Si6 0.051730 0.058506 0.056134
Si Si7 0.052194 0.750000 0.977893
Si Si8 0.448232 0.901488 0.507999
O O1 0.250000 0.489032 0.705720
O O2 0.503761 0.462827 0.772510
O O3 0.507899 0.581863 0.684394
O O4 0.512426 0.419857 0.658891
O O5 0.250000 0.566203 0.157026
O O6 0.991728 0.660847 0.145122
O O7 0.989391 0.493355 0.113997
O O8 0.750000 0.346936 0.362314
O O9 0.493590 0.250000 0.345246
O O10 0.492482 0.367500 0.428385
O O11 0.750000 0.657050 0.375547
O O12 0.012784 0.750000 0.360043
O O13 0.988091 0.646640 0.450074
O O14 0.750000 0.250000 0.884700
O O15 0.007774 0.250000 0.953783
O O16 0.250000 0.058867 0.057945
O O17 0.998432 0.158348 0.050623
O O18 0.000000 0.000000 0.000000
O O19 0.250000 0.750000 0.979481
O O20 0.250000 0.895387 0.508333
O O21 0.500000 0.000000 0.500000
#
# Coordination Sequence:
#
# PCOD9452112 Si02
#       8
#     8   8   8   8   4   8   4   8
#     4  10  21  38  57  80 112 150 193 236 284 344
#     4  10  22  40  60  84 120 157 192 240 294 346
#     4   9  18  35  58  79 104 141 187 240 290 338
#     4  10  21  37  55  80 116 149 181 231 291 342
#     4   9  18  37  61  87 119 155 186 229 292 349
#     4  11  22  39  63  91 124 160 199 247 303 356
#     4  11  21  39  65  93 125 159 200 247 298 357
#     4  11  20  34  57  83 112 144 186 236 293 351
#
# _framework density 19.787236
#
# number of rings (size 3 to 8) (size 9 to 14) (size 15 to 20)
#    0.000    1.857    2.857    1.500    1.000    2.571 
#    1.286    0.000    0.000    1.714    0.000    0.000 
#    0.000    0.000    0.000    0.000    0.000    0.000 
#
# Total GULP energy -312633.991650 kJ/mol
# GULP energy per Si atom -5582.749851 kJ/mol
# Density = 1.974220 g / cm^3
# Si number density = 19.787236 Si / 1000 Ang^3
#
#
#
# Elastic Constant Matrix: (Units=GPa)
#
#
# Indices 1 2 3 4 5 6 
#
# 1 13.8353 19.6723 7.0713 0.0000 0.0000 0.0000
# 2 19.6723 227.5366 102.1247 0.0000 0.0000 0.0000
# 3 7.0713 102.1247 145.1178 0.0000 0.0000 0.0000
# 4 0.0000 0.0000 0.0000 0.8795 0.0000 0.0000
# 5 0.0000 0.0000 0.0000 0.0000 29.7498 0.0000
# 6 0.0000 0.0000 0.0000 0.0000 0.0000 15.5464
#
#
#
# Elastic Compliance Matrix: (Units=1/GPa)
#
#
# Indices 1 2 3 4 5 6 
#
# 1 0.082622 -0.007800 0.001463 0.000000 0.000000 0.000000
# 2 -0.007800 0.007160 -0.004659 0.000000 0.000000 0.000000
# 3 0.001463 -0.004659 0.010098 0.000000 0.000000 0.000000
# 4 0.000000 0.000000 0.000000 1.137021 0.000000 0.000000
# 5 0.000000 0.000000 0.000000 0.000000 0.033614 0.000000
# 6 0.000000 0.000000 0.000000 0.000000 0.000000 0.064324
#
#
# Mechanical properties :
#
#
# Convention : Reuss Voigt Hill
#
# Bulk Modulus (GPa) = 12.83877 71.58068 42.20972
# Shear Modulus (GPa) = 3.61587 26.40990 15.01288
#
# Velocity S-wave (km/s) = 1.35327 3.65731 2.75747
# Velocity P-wave (km/s) = 2.99070 7.35447 5.61394
#
# Compressibility (1/GPa) = 0.07788910
#
# Stress axis : x y z
#
# Youngs Moduli (GPa) = 12.10331 139.65889 99.02671
#
# Poissons Ratio (x) = 1.08934 -0.14489
# Poissons Ratio (y) = 0.09441 0.46135
# Poissons Ratio (z) = -0.01771 0.65066
#
# Static dielectric constant tensor:
#      x y z
#    x 1.706410 0.000000 0.000000 
#    y 0.000000 2.246930 0.000000 
#    z 0.000000 0.000000 1.666960 
# 
# From -- ./inp_files/29231.got.cif
#   From: 2010.05.17/outbox.cif.g08.bks.cpg/sg59_15_cif.got.tgz:29231.got - 2010.06.03 14:40:33.
