data_PCOD9452606
_publ_section_title
;
Structure prediction by ZEFSAII (Michael W. Deem and Ramdas Pophale) SiO2 
 PCOD9452606
Probable space group: P M M N
;
_chemical_formula_sum "Si O2"
_cell_formula_units_Z 40
_cell_length_a 9.019854
_cell_length_b 22.810945
_cell_length_c 9.894633
_cell_angle_alpha 90.000000
_cell_angle_beta 90.000000
_cell_angle_gamma 90.000000
_cell_volume 2035.834528
_symmetry_space_group_name_H-M "P M M N"
_symmetry_group_IT_number 59
_space_group.IT_coordinate_system_code '2'
_symmetry_cell_setting 'orthorhombic'
loop_
_space_group_symop_operation_xyz
x,y,z
1/2-x,1/2-y,z
1/2+x,-y,-z
-x,1/2+y,-z
-x,-y,-z
1/2+x,1/2+y,-z
1/2-x,y,z
x,1/2-y,z
loop_
_atom_site_type_symbol
_atom_site_label
_atom_site_fract_x
_atom_site_fract_y
_atom_site_fract_z
Si Si1 0.071830 0.250000 0.648919
Si Si2 0.922494 0.056687 0.439077
Si Si3 0.575884 0.370623 0.706925
Si Si4 0.073253 0.441079 0.941123
Si Si5 0.426800 0.373077 0.207928
Si Si6 0.569921 0.750000 0.669285
O O1 0.250000 0.250000 0.657366
O O2 0.028882 0.250000 0.489068
O O3 0.006117 0.191503 0.715338
O O4 0.750000 0.044655 0.416332
O O5 0.937131 0.106824 0.553055
O O6 0.997547 0.078984 0.303083
O O7 0.000000 0.000000 0.500000
O O8 0.750000 0.365334 0.739186
O O9 0.501018 0.418614 0.803891
O O10 0.250000 0.449352 0.924807
O O11 0.047717 0.390377 0.053270
O O12 0.000000 0.500000 0.000000
O O13 0.250000 0.375816 0.231350
O O14 0.479793 0.308973 0.254826
O O15 0.750000 0.750000 0.672956
#
# Coordination Sequence:
#
# PCOD9452606 Si02
#       6
#     4   8   8   8   8   4
#     4  11  21  38  67  94 120 160 203 251 308 367
#     4  11  23  37  58  87 118 157 204 253 303 362
#     4  11  24  41  61  89 127 164 202 253 308 365
#     4  11  24  41  63  90 125 166 210 257 310 371
#     4  10  21  39  62  89 119 155 199 253 307 361
#     4   9  18  36  63  90 118 150 193 249 304 359
#
# _framework density 19.647962
#
# number of rings (size 3 to 8) (size 9 to 14) (size 15 to 20)
#    0.000    1.400    2.000    3.300    0.000    9.600 
#    0.000    2.500    0.000    0.000    0.000    0.000 
#    0.000    0.000    0.000    0.000    0.000    0.000 
#
# Total GULP energy -223622.895401 kJ/mol
# GULP energy per Si atom -5590.572385 kJ/mol
# Density = 1.960324 g / cm^3
# Si number density = 19.647962 Si / 1000 Ang^3
#
#
#
# Elastic Constant Matrix: (Units=GPa)
#
#
# Indices 1 2 3 4 5 6 
#
# 1 62.5389 19.9009 28.4132 0.0000 0.0000 0.0000
# 2 19.9009 78.7803 -13.0752 0.0000 0.0000 0.0000
# 3 28.4132 -13.0752 52.5490 0.0000 0.0000 0.0000
# 4 0.0000 0.0000 0.0000 35.5660 0.0000 0.0000
# 5 0.0000 0.0000 0.0000 0.0000 29.2870 0.0000
# 6 0.0000 0.0000 0.0000 0.0000 0.0000 33.4970
#
#
#
# Elastic Compliance Matrix: (Units=1/GPa)
#
#
# Indices 1 2 3 4 5 6 
#
# 1 0.026635 -0.009511 -0.016768 0.000000 0.000000 0.000000
# 2 -0.009511 0.016637 0.009282 0.000000 0.000000 0.000000
# 3 -0.016768 0.009282 0.030406 0.000000 0.000000 0.000000
# 4 0.000000 0.000000 0.000000 0.028117 0.000000 0.000000
# 5 0.000000 0.000000 0.000000 0.000000 0.034145 0.000000
# 6 0.000000 0.000000 0.000000 0.000000 0.000000 0.029853
#
#
# Mechanical properties :
#
#
# Convention : Reuss Voigt Hill
#
# Bulk Modulus (GPa) = 25.19936 29.37178 27.28557
# Shear Modulus (GPa) = 23.47252 30.24527 26.85890
#
# Velocity S-wave (km/s) = 3.46013 3.92772 3.70132
# Velocity P-wave (km/s) = 5.36811 5.96245 5.67307
#
# Compressibility (1/GPa) = 0.03968354
#
# Stress axis : x y z
#
# Youngs Moduli (GPa) = 37.54459 60.10760 32.88821
#
# Poissons Ratio (x) = 0.57171 0.55147
# Poissons Ratio (y) = 0.35710 -0.30528
# Poissons Ratio (z) = 0.62955 -0.55794
#
# Static dielectric constant tensor:
#      x y z
#    x 1.656100 0.000000 0.000000 
#    y 0.000000 1.687300 0.000000 
#    z 0.000000 0.000000 1.675670 
# 
# From -- ./inp_files/5902.got.cif
#   From: 2010.05.17/outbox.cif.g08.bks.cpg/sg59_3_cif.got.tgz:5902.got - 2010.06.03 14:40:33.
