data_PCOD9452666
_publ_section_title
;
Structure prediction by ZEFSAII (Michael W. Deem and Ramdas Pophale) SiO2 
 PCOD9452666
Probable space group: P M M N
;
_chemical_formula_sum "Si O2"
_cell_formula_units_Z 32
_cell_length_a 30.150844
_cell_length_b 5.208822
_cell_length_c 10.857546
_cell_angle_alpha 90.000000
_cell_angle_beta 90.000000
_cell_angle_gamma 90.000000
_cell_volume 1705.181720
_symmetry_space_group_name_H-M "P M M N"
_symmetry_group_IT_number 59
_space_group.IT_coordinate_system_code '2'
_symmetry_cell_setting 'orthorhombic'
loop_
_space_group_symop_operation_xyz
x,y,z
1/2-x,1/2-y,z
1/2+x,-y,-z
-x,1/2+y,-z
-x,-y,-z
1/2+x,1/2+y,-z
1/2-x,y,z
x,1/2-y,z
loop_
_atom_site_type_symbol
_atom_site_label
_atom_site_fract_x
_atom_site_fract_y
_atom_site_fract_z
Si Si1 0.198116 0.750000 0.999772
Si Si2 0.967131 0.250000 0.007852
Si Si3 0.490206 0.250000 0.580128
Si Si4 0.122347 0.250000 0.358224
Si Si5 0.300474 0.250000 0.168320
Si Si6 0.883052 0.250000 0.191254
Si Si7 0.387990 0.250000 0.643650
Si Si8 0.928125 0.250000 0.743999
O O1 0.250000 0.750000 0.953956
O O2 0.158440 0.750000 0.902148
O O3 0.192526 0.499584 0.084368
O O4 0.931870 0.250000 0.122863
O O5 0.933537 0.250000 0.890702
O O6 0.000000 0.500000 0.000000
O O7 0.500000 0.500000 0.500000
O O8 0.440278 0.250000 0.620934
O O9 0.521800 0.250000 0.696490
O O10 0.167410 0.250000 0.282956
O O11 0.130491 0.250000 0.504429
O O12 0.095362 0.500360 0.313075
O O13 0.250000 0.250000 0.210868
O O14 0.877994 0.499023 0.277018
#
# Coordination Sequence:
#
# PCOD9452666 Si02
#       8
#     4   4   4   4   4   4   4   4
#     4  10  22  43  69  95 119 157 208 257 311 374
#     4  12  25  41  59  88 124 159 202 256 308 365
#     4  12  21  39  57  84 118 160 207 246 292 346
#     4  12  23  40  60  92 119 157 204 246 303 358
#     4  10  21  40  67  94 121 150 195 259 312 362
#     4  12  24  42  62  89 126 167 202 253 315 363
#     4  12  25  40  60  89 127 166 204 249 295 372
#     4  12  23  39  63  87 117 158 209 256 296 354
#
# _framework density 18.76633
#
# number of rings (size 3 to 8) (size 9 to 14) (size 15 to 20)
#    0.000    0.500    2.500    7.500    0.000    0.000 
#    0.000    1.250    0.000    0.000    0.000    0.000 
#    0.000    0.000    0.000    0.000    0.000    0.000 
#
# Total GULP energy -178858.285942 kJ/mol
# GULP energy per Si atom -5589.321436 kJ/mol
# Density = 1.872362 g / cm^3
# Si number density = 18.766330 Si / 1000 Ang^3
#
#
#
# Elastic Constant Matrix: (Units=GPa)
#
#
# Indices 1 2 3 4 5 6 
#
# 1 134.4216 49.1848 69.5649 0.0000 0.0000 0.0000
# 2 49.1848 179.1126 57.0831 0.0000 0.0000 0.0000
# 3 69.5649 57.0831 117.9743 0.0000 0.0000 0.0000
# 4 0.0000 0.0000 0.0000 21.3724 0.0000 0.0000
# 5 0.0000 0.0000 0.0000 0.0000 37.8837 0.0000
# 6 0.0000 0.0000 0.0000 0.0000 0.0000 40.1945
#
#
#
# Elastic Compliance Matrix: (Units=1/GPa)
#
#
# Indices 1 2 3 4 5 6 
#
# 1 0.010892 -0.001116 -0.005882 0.000000 0.000000 0.000000
# 2 -0.001116 0.006715 -0.002591 0.000000 0.000000 0.000000
# 3 -0.005882 -0.002591 0.013199 0.000000 0.000000 0.000000
# 4 0.000000 0.000000 0.000000 0.046789 0.000000 0.000000
# 5 0.000000 0.000000 0.000000 0.000000 0.026397 0.000000
# 6 0.000000 0.000000 0.000000 0.000000 0.000000 0.024879
#
#
# Mechanical properties :
#
#
# Convention : Reuss Voigt Hill
#
# Bulk Modulus (GPa) = 86.01003 87.01935 86.51469
# Shear Modulus (GPa) = 32.91072 36.93518 34.92295
#
# Velocity S-wave (km/s) = 4.19228 4.44121 4.31854
# Velocity P-wave (km/s) = 8.32858 8.53052 8.43015
#
# Compressibility (1/GPa) = 0.01162655
#
# Stress axis : x y z
#
# Youngs Moduli (GPa) = 91.81086 148.91175 75.76434
#
# Poissons Ratio (x) = 0.16622 0.44568
# Poissons Ratio (y) = 0.10248 0.19631
# Poissons Ratio (z) = 0.54007 0.38585
#
# Static dielectric constant tensor:
#      x y z
#    x 1.635910 0.000000 0.000000 
#    y 0.000000 1.617580 0.000000 
#    z 0.000000 0.000000 1.657700 
# 
# From -- ./inp_files/12753.got.cif
#   From: 2010.05.17/outbox.cif.g08.bks.cpg/sg59_7_cif.got.tgz:12753.got - 2010.06.03 14:40:33.
