data_PCOD9452936
_publ_section_title
;
Structure prediction by ZEFSAII (Michael W. Deem and Ramdas Pophale) SiO2 
 PCOD9452936
Probable space group: P M M N
;
_chemical_formula_sum "Si O2"
_cell_formula_units_Z 58
_cell_length_a 18.539207
_cell_length_b 9.238830
_cell_length_c 17.045780
_cell_angle_alpha 90.000000
_cell_angle_beta 90.000000
_cell_angle_gamma 90.000000
_cell_volume 2919.611116
_symmetry_space_group_name_H-M "P M M N"
_symmetry_group_IT_number 59
_space_group.IT_coordinate_system_code '2'
_symmetry_cell_setting 'orthorhombic'
loop_
_space_group_symop_operation_xyz
x,y,z
1/2-x,1/2-y,z
1/2+x,-y,-z
-x,1/2+y,-z
-x,-y,-z
1/2+x,1/2+y,-z
1/2-x,y,z
x,1/2-y,z
loop_
_atom_site_type_symbol
_atom_site_label
_atom_site_fract_x
_atom_site_fract_y
_atom_site_fract_z
Si Si1 0.335761 0.408259 0.203991
Si Si2 0.164834 0.082063 0.644948
Si Si3 0.081359 0.921680 0.330292
Si Si4 0.619735 0.483409 0.961961
Si Si5 0.554298 0.079327 0.259796
Si Si6 0.964786 0.907392 0.105366
Si Si7 0.750000 0.250000 0.981498
Si Si8 0.576663 0.577531 0.514577
O O1 0.250000 0.416182 0.210572
O O2 0.360687 0.250000 0.233261
O O3 0.370661 0.533989 0.255682
O O4 0.357097 0.424105 0.113568
O O5 0.250000 0.063287 0.637661
O O6 0.150229 0.250000 0.666645
O O7 0.126531 0.056453 0.561346
O O8 0.130819 0.976183 0.709036
O O9 0.076811 0.750000 0.340596
O O10 0.108999 0.001352 0.408327
O O11 0.003872 0.991217 0.311035
O O12 0.543653 0.412260 0.934516
O O13 0.685403 0.375056 0.978601
O O14 0.595702 0.569981 0.039170
O O15 0.545821 0.250000 0.269521
O O16 0.541527 0.031428 0.170335
O O17 0.956521 0.750000 0.144104
O O18 0.500000 0.500000 0.500000
O O19 0.567008 0.750000 0.526635
#
# Coordination Sequence:
#
# PCOD9452936 Si02
#       8
#     8   8   8   8   8   8   2   8
#     4  11  24  42  64  94 133 174 217 270 334 400
#     4  10  23  45  70  96 131 175 219 272 340 407
#     4  12  25  40  64  96 132 174 220 271 327 394
#     4  11  24  40  70  94 137 174 225 275 344 401
#     4  12  25  41  67  98 132 172 222 281 333 398
#     4  11  24  43  68  99 131 177 226 280 335 412
#     4  12  24  44  66 108 136 182 220 300 340 416
#     4  11  22  39  67  98 131 170 217 270 328 397
#
# _framework density 19.865659999999998
#
# number of rings (size 3 to 8) (size 9 to 14) (size 15 to 20)
#    0.000    0.828    4.138    3.310    1.931    2.207 
#    1.241    1.379    0.000    0.000    0.000    0.000 
#    0.000    0.000    0.000    0.000    0.000    0.000 
#
# Total GULP energy -323616.202624 kJ/mol
# GULP energy per Si atom -5579.589700 kJ/mol
# Density = 1.982044 g / cm^3
# Si number density = 19.865660 Si / 1000 Ang^3
#
#
#
# Elastic Constant Matrix: (Units=GPa)
#
#
# Indices 1 2 3 4 5 6 
#
# 1 111.7210 48.6003 22.0386 0.0000 0.0000 0.0000
# 2 48.6003 135.5337 23.9032 0.0000 0.0000 0.0000
# 3 22.0386 23.9032 52.0154 0.0000 0.0000 0.0000
# 4 0.0000 0.0000 0.0000 13.7832 0.0000 0.0000
# 5 0.0000 0.0000 0.0000 0.0000 25.2746 0.0000
# 6 0.0000 0.0000 0.0000 0.0000 0.0000 24.4414
#
#
#
# Elastic Compliance Matrix: (Units=1/GPa)
#
#
# Indices 1 2 3 4 5 6 
#
# 1 0.011050 -0.003413 -0.003113 0.000000 0.000000 0.000000
# 2 -0.003413 0.009083 -0.002728 0.000000 0.000000 0.000000
# 3 -0.003113 -0.002728 0.021798 0.000000 0.000000 0.000000
# 4 0.000000 0.000000 0.000000 0.072552 0.000000 0.000000
# 5 0.000000 0.000000 0.000000 0.000000 0.039565 0.000000
# 6 0.000000 0.000000 0.000000 0.000000 0.000000 0.040914
#
#
# Mechanical properties :
#
#
# Convention : Reuss Voigt Hill
#
# Bulk Modulus (GPa) = 42.69494 54.26160 48.47827
# Shear Modulus (GPa) = 22.59593 26.34837 24.47215
#
# Velocity S-wave (km/s) = 3.37625 3.64583 3.51363
# Velocity P-wave (km/s) = 6.06112 6.71538 6.39662
#
# Compressibility (1/GPa) = 0.02342198
#
# Stress axis : x y z
#
# Youngs Moduli (GPa) = 90.49934 110.09229 45.87637
#
# Poissons Ratio (x) = 0.37577 0.14282
# Poissons Ratio (y) = 0.30890 0.12515
# Poissons Ratio (z) = 0.28174 0.30033
#
# Static dielectric constant tensor:
#      x y z
#    x 1.694110 0.000000 0.000000 
#    y 0.000000 1.700820 0.000000 
#    z 0.000000 0.000000 1.709770 
# 
# From -- ./inp_files/27899.got.cif
#   From: 2010.05.17/outbox.cif.g08.bks.cpg/sg59_14_cif.got.tgz:27899.got - 2010.06.03 14:40:33.
