data_PCOD9452517
_publ_section_title
;
Structure prediction by ZEFSAII (Michael W. Deem and Ramdas Pophale) SiO2 
 PCOD9452517
Probable space group: P M M N
;
_chemical_formula_sum "Si O2"
_cell_formula_units_Z 56
_cell_length_a 8.664159
_cell_length_b 23.343637
_cell_length_c 14.301191
_cell_angle_alpha 90.000000
_cell_angle_beta 90.000000
_cell_angle_gamma 90.000000
_cell_volume 2892.458535
_symmetry_space_group_name_H-M "P M M N"
_symmetry_group_IT_number 59
_space_group.IT_coordinate_system_code '2'
_symmetry_cell_setting 'orthorhombic'
loop_
_space_group_symop_operation_xyz
x,y,z
1/2-x,1/2-y,z
1/2+x,-y,-z
-x,1/2+y,-z
-x,-y,-z
1/2+x,1/2+y,-z
1/2-x,y,z
x,1/2-y,z
loop_
_atom_site_type_symbol
_atom_site_label
_atom_site_fract_x
_atom_site_fract_y
_atom_site_fract_z
Si Si1 0.932502 0.563309 0.506403
Si Si2 0.564732 0.684527 0.167594
Si Si3 0.434899 0.464506 0.145468
Si Si4 0.065550 0.619199 0.695273
Si Si5 0.934772 0.574091 0.061938
Si Si6 0.933134 0.750000 0.472603
Si Si7 0.436023 0.750000 0.676745
Si Si8 0.068035 0.643531 0.362507
O O1 0.750000 0.562110 0.519194
O O2 0.000000 0.500000 0.500000
O O3 0.002185 0.599714 0.593370
O O4 0.976423 0.591328 0.407446
O O5 0.750000 0.683704 0.183732
O O6 0.519571 0.750000 0.149062
O O7 0.529946 0.639499 0.086483
O O8 0.481976 0.660848 0.259281
O O9 0.250000 0.463407 0.152429
O O10 0.502256 0.425501 0.227917
O O11 0.490728 0.530274 0.136398
O O12 0.484007 0.439828 0.043758
O O13 0.250000 0.614615 0.691959
O O14 0.028919 0.686471 0.718988
O O15 0.750000 0.565851 0.066796
O O16 0.750000 0.750000 0.453061
O O17 0.967714 0.750000 0.581516
O O18 0.015543 0.696027 0.426991
O O19 0.250000 0.750000 0.658958
O O20 0.250000 0.633551 0.368455
#
# Coordination Sequence:
#
# PCOD9452517 Si02
#       8
#     8   8   8   8   8   4   4   8
#     4  12  26  43  62  89 123 161 205 252 305 360
#     4  10  21  38  61  88 120 159 208 256 307 367
#     4  10  21  39  63  92 121 156 203 253 308 371
#     4  11  23  41  64  90 123 162 204 253 307 365
#     4   9  20  40  64  89 118 157 204 255 311 367
#     4  12  22  36  60  85 114 157 206 249 290 350
#     4  10  22  40  62  85 118 161 206 249 304 364
#     4  12  24  39  59  86 122 160 200 247 300 358
#
# _framework density 19.360692
#
# number of rings (size 3 to 8) (size 9 to 14) (size 15 to 20)
#    0.000    1.286    2.143    4.071    2.000    1.714 
#    1.286    0.000    0.000    0.000    0.000    0.000 
#    0.000    0.000    0.000    0.000    0.000    0.000 
#
# Total GULP energy -312694.459963 kJ/mol
# GULP energy per Si atom -5583.829642 kJ/mol
# Density = 1.931663 g / cm^3
# Si number density = 19.360692 Si / 1000 Ang^3
#
#
#
# Elastic Constant Matrix: (Units=GPa)
#
#
# Indices 1 2 3 4 5 6 
#
# 1 54.5979 31.6399 20.9626 0.0000 0.0000 0.0000
# 2 31.6399 123.9878 25.8927 0.0000 0.0000 0.0000
# 3 20.9626 25.8927 47.6144 0.0000 0.0000 0.0000
# 4 0.0000 0.0000 0.0000 31.5030 0.0000 0.0000
# 5 0.0000 0.0000 0.0000 0.0000 23.1354 0.0000
# 6 0.0000 0.0000 0.0000 0.0000 0.0000 19.1030
#
#
#
# Elastic Compliance Matrix: (Units=1/GPa)
#
#
# Indices 1 2 3 4 5 6 
#
# 1 0.024014 -0.004422 -0.008168 0.000000 0.000000 0.000000
# 2 -0.004422 0.009913 -0.003444 0.000000 0.000000 0.000000
# 3 -0.008168 -0.003444 0.026471 0.000000 0.000000 0.000000
# 4 0.000000 0.000000 0.000000 0.031743 0.000000 0.000000
# 5 0.000000 0.000000 0.000000 0.000000 0.043224 0.000000
# 6 0.000000 0.000000 0.000000 0.000000 0.000000 0.052348
#
#
# Mechanical properties :
#
#
# Convention : Reuss Voigt Hill
#
# Bulk Modulus (GPa) = 35.29758 42.57673 38.93715
# Shear Modulus (GPa) = 21.81274 24.59526 23.20400
#
# Velocity S-wave (km/s) = 3.36020 3.56809 3.46571
# Velocity P-wave (km/s) = 5.77285 6.24613 6.01415
#
# Compressibility (1/GPa) = 0.02833055
#
# Stress axis : x y z
#
# Youngs Moduli (GPa) = 41.64152 100.87743 37.77779
#
# Poissons Ratio (x) = 0.44613 0.30855
# Poissons Ratio (y) = 0.18416 0.13009
# Poissons Ratio (z) = 0.34011 0.34739
#
# Static dielectric constant tensor:
#      x y z
#    x 1.650490 0.000000 0.000000 
#    y 0.000000 1.680370 0.000000 
#    z 0.000000 0.000000 1.652220 
# 
# From -- ./inp_files/21182.got.cif
#   From: 2010.05.17/outbox.cif.g08.bks.cpg/sg59_11_cif.got.tgz:21182.got - 2010.06.03 14:40:33.
