data_PCOD9452979
_publ_section_title
;
Structure prediction by ZEFSAII (Michael W. Deem and Ramdas Pophale) SiO2 
 PCOD9452979
Probable space group: P M M N
;
_chemical_formula_sum "Si O2"
_cell_formula_units_Z 64
_cell_length_a 21.115051
_cell_length_b 8.864290
_cell_length_c 20.970660
_cell_angle_alpha 90.000000
_cell_angle_beta 90.000000
_cell_angle_gamma 90.000000
_cell_volume 3925.077078
_symmetry_space_group_name_H-M "P M M N"
_symmetry_group_IT_number 59
_space_group.IT_coordinate_system_code '2'
_symmetry_cell_setting 'orthorhombic'
loop_
_space_group_symop_operation_xyz
x,y,z
1/2-x,1/2-y,z
1/2+x,-y,-z
-x,1/2+y,-z
-x,-y,-z
1/2+x,1/2+y,-z
1/2-x,y,z
x,1/2-y,z
loop_
_atom_site_type_symbol
_atom_site_label
_atom_site_fract_x
_atom_site_fract_y
_atom_site_fract_z
Si Si1 0.180530 0.567492 0.074880
Si Si2 0.543114 0.570183 0.944759
Si Si3 0.340030 0.921657 0.219062
Si Si4 0.641264 0.571943 0.653785
Si Si5 0.820808 0.069948 0.521776
Si Si6 0.943160 0.570073 0.458052
Si Si7 0.989058 0.078114 0.813036
Si Si8 0.497151 0.568086 0.324817
O O1 0.250000 0.527923 0.046667
O O2 0.173445 0.750000 0.071128
O O3 0.115378 0.493298 0.050838
O O4 0.183788 0.528911 0.150139
O O5 0.544708 0.750000 0.948980
O O6 0.512577 0.520424 0.876729
O O7 0.500000 0.500000 0.000000
O O8 0.319897 0.750000 0.232017
O O9 0.415652 0.917058 0.208540
O O10 0.327093 0.024914 0.279390
O O11 0.643951 0.750000 0.644173
O O12 0.671452 0.487452 0.594109
O O13 0.568341 0.516507 0.659234
O O14 0.750000 0.031471 0.499137
O O15 0.828259 0.250000 0.520827
O O16 0.876877 0.995430 0.481718
O O17 0.944191 0.750000 0.467095
O O18 0.956449 0.537606 0.383630
O O19 0.000000 0.500000 0.500000
O O20 0.008844 0.250000 0.828621
O O21 0.020998 0.026750 0.746513
O O22 0.514891 0.250000 0.676329
#
# Coordination Sequence:
#
# PCOD9452979 Si02
#       8
#     8   8   8   8   8   8   8   8
#     4   9  18  33  51  71  98 134 173 209 248 297
#     4  11  21  33  51  76 106 139 173 211 253 299
#     4   8  15  28  45  65  95 133 168 200 239 292
#     4  11  20  29  46  70  96 128 167 212 252 293
#     4  11  24  39  51  65  93 132 171 214 265 315
#     4  11  21  34  55  79 101 129 167 211 256 307
#     4   8  15  30  49  71  99 131 165 202 245 298
#     4   9  18  32  51  73 101 132 162 201 254 308
#
# _framework density 16.305412
#
# number of rings (size 3 to 8) (size 9 to 14) (size 15 to 20)
#    0.000    2.250    1.250    4.500    0.000    6.750 
#    0.000    1.250    0.000    0.000    0.000    0.875 
#    0.000    5.000    0.000    0.000    0.000    0.000 
#
# Total GULP energy -356716.569528 kJ/mol
# GULP energy per Si atom -5573.696399 kJ/mol
# Density = 1.626830 g / cm^3
# Si number density = 16.305412 Si / 1000 Ang^3
#
#
#
# Elastic Constant Matrix: (Units=GPa)
#
#
# Indices 1 2 3 4 5 6 
#
# 1 103.6190 51.9445 62.5147 0.0000 0.0000 0.0000
# 2 51.9445 70.9035 48.0141 0.0000 0.0000 0.0000
# 3 62.5147 48.0141 105.1842 0.0000 0.0000 0.0000
# 4 0.0000 0.0000 0.0000 25.8396 0.0000 0.0000
# 5 0.0000 0.0000 0.0000 0.0000 8.7456 0.0000
# 6 0.0000 0.0000 0.0000 0.0000 0.0000 14.8805
#
#
#
# Elastic Compliance Matrix: (Units=1/GPa)
#
#
# Indices 1 2 3 4 5 6 
#
# 1 0.018090 -0.008644 -0.006806 0.000000 0.000000 0.000000
# 2 -0.008644 0.024545 -0.006066 0.000000 0.000000 0.000000
# 3 -0.006806 -0.006066 0.016321 0.000000 0.000000 0.000000
# 4 0.000000 0.000000 0.000000 0.038700 0.000000 0.000000
# 5 0.000000 0.000000 0.000000 0.000000 0.114344 0.000000
# 6 0.000000 0.000000 0.000000 0.000000 0.000000 0.067202
#
#
# Mechanical properties :
#
#
# Convention : Reuss Voigt Hill
#
# Bulk Modulus (GPa) = 62.80197 67.18370 64.99284
# Shear Modulus (GPa) = 15.26521 17.70870 16.48696
#
# Velocity S-wave (km/s) = 3.06307 3.29912 3.18328
# Velocity P-wave (km/s) = 7.14909 7.47028 7.31145
#
# Compressibility (1/GPa) = 0.01592307
#
# Stress axis : x y z
#
# Youngs Moduli (GPa) = 55.27878 40.74216 61.27027
#
# Poissons Ratio (x) = 0.35219 0.41698
# Poissons Ratio (y) = 0.47785 0.37169
# Poissons Ratio (z) = 0.37621 0.24716
#
# Static dielectric constant tensor:
#      x y z
#    x 1.609390 0.000000 0.000000 
#    y 0.000000 1.543730 0.000000 
#    z 0.000000 0.000000 1.568320 
# 
# From -- ./inp_files/28179.got.cif
#   From: 2010.05.17/outbox.cif.g08.bks.cpg/sg59_15_cif.got.tgz:28179.got - 2010.06.03 14:40:33.
