data_PCOD9452617
_publ_section_title
;
Structure prediction by ZEFSAII (Michael W. Deem and Ramdas Pophale) SiO2 
 PCOD9452617
Probable space group: P M M N
;
_chemical_formula_sum "Si O2"
_cell_formula_units_Z 48
_cell_length_a 15.327379
_cell_length_b 8.782244
_cell_length_c 19.269887
_cell_angle_alpha 90.000000
_cell_angle_beta 90.000000
_cell_angle_gamma 90.000000
_cell_volume 2593.896023
_symmetry_space_group_name_H-M "P M M N"
_symmetry_group_IT_number 59
_space_group.IT_coordinate_system_code '2'
_symmetry_cell_setting 'orthorhombic'
loop_
_space_group_symop_operation_xyz
x,y,z
1/2-x,1/2-y,z
1/2+x,-y,-z
-x,1/2+y,-z
-x,-y,-z
1/2+x,1/2+y,-z
1/2-x,y,z
x,1/2-y,z
loop_
_atom_site_type_symbol
_atom_site_label
_atom_site_fract_x
_atom_site_fract_y
_atom_site_fract_z
Si Si1 0.898331 0.567923 0.826260
Si Si2 0.406126 0.932415 0.669823
Si Si3 0.750000 0.932256 0.582482
Si Si4 0.750000 0.570863 0.074221
Si Si5 0.402642 0.567945 0.325416
Si Si6 0.750000 0.068650 0.922146
Si Si7 0.750000 0.932198 0.418920
Si Si8 0.397064 0.569325 0.831084
O O1 0.886821 0.750000 0.821492
O O2 0.879550 0.494986 0.751180
O O3 0.834189 0.499078 0.882986
O O4 0.000283 0.538622 0.842736
O O5 0.413898 0.750000 0.663263
O O6 0.379546 0.964186 0.749883
O O7 0.500276 0.007805 0.658543
O O8 0.334446 0.997359 0.618151
O O9 0.750000 0.750000 0.591629
O O10 0.750000 0.966008 0.500708
O O11 0.665769 0.002384 0.619841
O O12 0.750000 0.750000 0.060607
O O13 0.834139 0.523480 0.119231
O O14 0.750000 0.482350 0.001752
O O15 0.400655 0.750000 0.324950
O O16 0.750000 0.250000 0.916544
O O17 0.750000 0.750000 0.409937
O O18 0.381919 0.750000 0.841730
#
# Coordination Sequence:
#
# PCOD9452617 Si02
#       8
#     8   8   4   4   8   4   4   8
#     4  10  21  40  64  88 116 150 191 238 289 343
#     4  10  21  39  63  88 117 154 193 237 292 348
#     4  11  24  41  58  81 118 159 196 237 292 351
#     4  12  25  38  57  85 118 155 191 234 287 340
#     4  11  22  38  62  90 117 149 195 243 287 340
#     4  12  25  40  59  84 118 156 193 236 285 342
#     4  11  24  39  58  86 118 154 196 243 292 345
#     4   9  20  39  62  86 113 149 190 233 282 339
#
# _framework density 18.504982999999999
#
# number of rings (size 3 to 8) (size 9 to 14) (size 15 to 20)
#    0.000    1.500    0.000    6.500    0.000    8.667 
#    0.000    0.000    0.000    0.000    0.000    0.000 
#    0.000    0.000    0.000    0.000    0.000    0.000 
#
# Total GULP energy -268442.656242 kJ/mol
# GULP energy per Si atom -5592.555338 kJ/mol
# Density = 1.846286 g / cm^3
# Si number density = 18.504983 Si / 1000 Ang^3
#
#
#
# Elastic Constant Matrix: (Units=GPa)
#
#
# Indices 1 2 3 4 5 6 
#
# 1 108.0912 75.9495 100.3205 0.0000 0.0000 0.0000
# 2 75.9495 128.0317 88.8164 0.0000 0.0000 0.0000
# 3 100.3205 88.8164 135.7934 0.0000 0.0000 0.0000
# 4 0.0000 0.0000 0.0000 33.5458 0.0000 0.0000
# 5 0.0000 0.0000 0.0000 0.0000 -63.2883 0.0000
# 6 0.0000 0.0000 0.0000 0.0000 0.0000 37.5138
#
#
#
# Elastic Compliance Matrix: (Units=1/GPa)
#
#
# Indices 1 2 3 4 5 6 
#
# 1 0.030817 -0.004553 -0.019788 0.000000 0.000000 0.000000
# 2 -0.004553 0.014971 -0.006428 0.000000 0.000000 0.000000
# 3 -0.019788 -0.006428 0.026187 0.000000 0.000000 0.000000
# 4 0.000000 0.000000 0.000000 0.029810 0.000000 0.000000
# 5 0.000000 0.000000 0.000000 0.000000 -0.015801 0.000000
# 6 0.000000 0.000000 0.000000 0.000000 0.000000 0.026657
#
#
# Mechanical properties :
#
#
# Convention : Reuss Voigt Hill
#
# Bulk Modulus (GPa) = 95.82490 100.23210 98.02850
# Shear Modulus (GPa) = 28.14400 8.67625 18.41013
#
# Velocity S-wave (km/s) = 3.90409 2.16767 3.15758
# Velocity P-wave (km/s) = 8.49813 7.78123 8.14757
#
# Compressibility (1/GPa) = 0.01043570
#
# Stress axis : x y z
#
# Youngs Moduli (GPa) = 32.45010 66.79761 38.18654
#
# Poissons Ratio (x) = 0.30416 0.75565
# Poissons Ratio (y) = 0.14776 0.24545
# Poissons Ratio (z) = 0.64213 0.42935
#
# Static dielectric constant tensor:
#      x y z
#    x 1.622060 0.000000 0.000000 
#    y 0.000000 1.613710 0.000000 
#    z 0.000000 0.000000 1.603730 
# 
# From -- ./inp_files/27512.got.cif
#   From: 2010.05.17/outbox.cif.g08.bks.cpg/sg59_14_cif.got.tgz:27512.got - 2010.06.03 14:40:33.
