data_PCOD9452845
_publ_section_title
;
Structure prediction by ZEFSAII (Michael W. Deem and Ramdas Pophale) SiO2 
 PCOD9452845
Probable space group: P M M N
;
_chemical_formula_sum "Si O2"
_cell_formula_units_Z 32
_cell_length_a 16.273474
_cell_length_b 16.392200
_cell_length_c 4.881492
_cell_angle_alpha 90.000000
_cell_angle_beta 90.000000
_cell_angle_gamma 90.000000
_cell_volume 1302.177241
_symmetry_space_group_name_H-M "P M M N"
_symmetry_group_IT_number 59
_space_group.IT_coordinate_system_code '2'
_symmetry_cell_setting 'orthorhombic'
loop_
_space_group_symop_operation_xyz
x,y,z
1/2-x,1/2-y,z
1/2+x,-y,-z
-x,1/2+y,-z
-x,-y,-z
1/2+x,1/2+y,-z
1/2-x,y,z
x,1/2-y,z
loop_
_atom_site_type_symbol
_atom_site_label
_atom_site_fract_x
_atom_site_fract_y
_atom_site_fract_z
Si Si1 0.085388 0.656660 0.136266
Si Si2 0.159212 0.163704 0.763607
Si Si3 0.157542 0.490518 0.166844
Si Si4 0.023234 0.117591 0.362027
O O1 0.115130 0.750000 0.120438
O O2 0.145372 0.582282 0.058163
O O3 0.054107 0.636235 0.441872
O O4 0.007661 0.646398 0.933323
O O5 0.250000 0.163313 0.641020
O O6 0.151426 0.250000 0.920333
O O7 0.094869 0.163805 0.520635
O O8 0.154691 0.081646 0.942277
O O9 0.250000 0.487275 0.292727
O O10 0.072419 0.468526 0.328375
#
# Coordination Sequence:
#
# PCOD9452845 Si02
#       4
#     8   8   8   8
#     4  12  27  45  72 103 137 183 231 283 340 406
#     4  10  22  40  65  99 138 180 224 280 348 412
#     4  11  26  46  71 102 141 182 229 282 345 411
#     4  12  24  46  68 100 135 176 232 283 340 399
#
# _framework density 24.574227
#
# number of rings (size 3 to 8) (size 9 to 14) (size 15 to 20)
#    0.000    0.750    2.500    4.500    3.500    2.500 
#    0.000    2.500    0.000    3.000    0.000    0.000 
#    0.000    0.000    0.000    0.000    0.000    0.000 
#
# Total GULP energy -178432.679853 kJ/mol
# GULP energy per Si atom -5576.021245 kJ/mol
# Density = 2.451830 g / cm^3
# Si number density = 24.574227 Si / 1000 Ang^3
#
#
#
# Elastic Constant Matrix: (Units=GPa)
#
#
# Indices 1 2 3 4 5 6 
#
# 1 52.6346 41.1731 5.3271 0.0000 0.0000 0.0000
# 2 41.1731 263.3677 23.7660 0.0000 0.0000 0.0000
# 3 5.3271 23.7660 68.2827 0.0000 0.0000 0.0000
# 4 0.0000 0.0000 0.0000 15.7049 0.0000 0.0000
# 5 0.0000 0.0000 0.0000 0.0000 13.8152 0.0000
# 6 0.0000 0.0000 0.0000 0.0000 0.0000 28.6624
#
#
#
# Elastic Compliance Matrix: (Units=1/GPa)
#
#
# Indices 1 2 3 4 5 6 
#
# 1 0.021664 -0.003339 -0.000528 0.000000 0.000000 0.000000
# 2 -0.003339 0.004435 -0.001283 0.000000 0.000000 0.000000
# 3 -0.000528 -0.001283 0.015133 0.000000 0.000000 0.000000
# 4 0.000000 0.000000 0.000000 0.063674 0.000000 0.000000
# 5 0.000000 0.000000 0.000000 0.000000 0.072384 0.000000
# 6 0.000000 0.000000 0.000000 0.000000 0.000000 0.034889
#
#
# Mechanical properties :
#
#
# Convention : Reuss Voigt Hill
#
# Bulk Modulus (GPa) = 32.32940 58.31305 45.32122
# Shear Modulus (GPa) = 21.47854 32.57107 27.02481
#
# Velocity S-wave (km/s) = 2.95960 3.64458 3.31980
# Velocity P-wave (km/s) = 4.98632 6.44139 5.75998
#
# Compressibility (1/GPa) = 0.03093160
#
# Stress axis : x y z
#
# Youngs Moduli (GPa) = 46.15859 225.49006 66.08185
#
# Poissons Ratio (x) = 0.75296 0.03489
# Poissons Ratio (y) = 0.15413 0.08479
# Poissons Ratio (z) = 0.02437 0.28931
#
# Static dielectric constant tensor:
#      x y z
#    x 1.992550 0.000000 0.000000 
#    y 0.000000 2.033230 0.000000 
#    z 0.000000 0.000000 1.967450 
# 
# From -- ./inp_files/1828.got.cif
#   From: 2010.05.17/outbox.cif.g08.bks.cpg/sg59_1_cif.got.tgz:1828.got - 2010.06.03 14:40:33.
