data_PCOD9452593
_publ_section_title
;
Structure prediction by ZEFSAII (Michael W. Deem and Ramdas Pophale) SiO2 
 PCOD9452593
Probable space group: P M M N
;
_chemical_formula_sum "Si O2"
_cell_formula_units_Z 64
_cell_length_a 24.246146
_cell_length_b 8.718249
_cell_length_c 15.803082
_cell_angle_alpha 90.000000
_cell_angle_beta 90.000000
_cell_angle_gamma 90.000000
_cell_volume 3340.517708
_symmetry_space_group_name_H-M "P M M N"
_symmetry_group_IT_number 59
_space_group.IT_coordinate_system_code '2'
_symmetry_cell_setting 'orthorhombic'
loop_
_space_group_symop_operation_xyz
x,y,z
1/2-x,1/2-y,z
1/2+x,-y,-z
-x,1/2+y,-z
-x,-y,-z
1/2+x,1/2+y,-z
1/2-x,y,z
x,1/2-y,z
loop_
_atom_site_type_symbol
_atom_site_label
_atom_site_fract_x
_atom_site_fract_y
_atom_site_fract_z
Si Si1 0.499669 0.566131 0.905216
Si Si2 0.612832 0.934244 0.339031
Si Si3 0.378959 0.065243 0.334782
Si Si4 0.500074 0.933900 0.594923
Si Si5 0.113654 0.567571 0.155351
Si Si6 0.812964 0.936886 0.498505
Si Si7 0.877265 0.433618 0.159183
Si Si8 0.685383 0.566236 0.998184
O O1 0.504872 0.750000 0.908062
O O2 0.551897 0.497664 0.856671
O O3 0.441026 0.528244 0.863125
O O4 0.500000 0.500000 0.000000
O O5 0.611296 0.750000 0.337308
O O6 0.650165 0.984338 0.418662
O O7 0.551600 0.997930 0.355093
O O8 0.635428 0.997077 0.250682
O O9 0.374895 0.250000 0.325415
O O10 0.441885 0.028749 0.360911
O O11 0.340682 0.016669 0.413113
O O12 0.364953 0.987249 0.246358
O O13 0.495485 0.750000 0.591271
O O14 0.500000 0.000000 0.500000
O O15 0.112292 0.750000 0.149724
O O16 0.150826 0.501838 0.079672
O O17 0.750000 0.988574 0.491497
O O18 0.813131 0.750000 0.498263
O O19 0.872253 0.250000 0.160797
O O20 0.839617 0.500969 0.085005
O O21 0.750000 0.527772 0.990765
O O22 0.679590 0.750000 0.997812
#
# Coordination Sequence:
#
# PCOD9452593 Si02
#       8
#     8   8   8   8   8   8   8   8
#     4  11  22  38  63  92 125 162 202 248 305 370
#     4  11  22  38  61  92 124 161 205 250 305 368
#     4  10  21  39  61  88 120 158 205 252 301 365
#     4  11  21  36  60  90 124 160 202 251 309 369
#     4  12  25  40  62  94 128 163 200 250 313 371
#     4   9  19  38  62  86 115 155 205 255 298 348
#     4  11  24  41  63  94 127 163 202 252 313 366
#     4  11  25  45  68  91 118 161 213 259 304 363
#
# _framework density 19.158708000000001
#
# number of rings (size 3 to 8) (size 9 to 14) (size 15 to 20)
#    0.000    1.250    2.500    3.750    0.000    7.500 
#    0.000    2.500    0.000    2.625    0.000    0.000 
#    0.000    0.000    0.000    0.000    0.000    0.000 
#
# Total GULP energy -357949.524682 kJ/mol
# GULP energy per Si atom -5592.961323 kJ/mol
# Density = 1.911510 g / cm^3
# Si number density = 19.158708 Si / 1000 Ang^3
#
#
#
# Elastic Constant Matrix: (Units=GPa)
#
#
# Indices 1 2 3 4 5 6 
#
# 1 85.1411 31.4903 17.0066 0.0000 0.0000 0.0000
# 2 31.4903 47.5956 25.9365 0.0000 0.0000 0.0000
# 3 17.0066 25.9365 117.8140 0.0000 0.0000 0.0000
# 4 0.0000 0.0000 0.0000 33.1175 0.0000 0.0000
# 5 0.0000 0.0000 0.0000 0.0000 -0.1687 0.0000
# 6 0.0000 0.0000 0.0000 0.0000 0.0000 25.5851
#
#
#
# Elastic Compliance Matrix: (Units=1/GPa)
#
#
# Indices 1 2 3 4 5 6 
#
# 1 0.015551 -0.010301 0.000023 0.000000 0.000000 0.000000
# 2 -0.010301 0.030698 -0.005271 0.000000 0.000000 0.000000
# 3 0.000023 -0.005271 0.009645 0.000000 0.000000 0.000000
# 4 0.000000 0.000000 0.000000 0.030196 0.000000 0.000000
# 5 0.000000 0.000000 0.000000 0.000000 -5.929068 0.000000
# 6 0.000000 0.000000 0.000000 0.000000 0.000000 0.039085
#
#
# Mechanical properties :
#
#
# Convention : Reuss Voigt Hill
#
# Bulk Modulus (GPa) = 40.33021 44.37973 42.35497
# Shear Modulus (GPa) = -0.86737 23.44793 11.29028
#
# Velocity S-wave (km/s) = -0.67358 3.50219 2.43019
# Velocity P-wave (km/s) = 4.52674 6.29034 5.47995
#
# Compressibility (1/GPa) = 0.02479531
#
# Stress axis : x y z
#
# Youngs Moduli (GPa) = 64.30618 32.57512 103.67988
#
# Poissons Ratio (x) = 0.33556 -0.00239
# Poissons Ratio (y) = 0.66243 0.54652
# Poissons Ratio (z) = -0.00148 0.17171
#
# Static dielectric constant tensor:
#      x y z
#    x 1.661560 0.000000 0.000000 
#    y 0.000000 1.644390 0.000000 
#    z 0.000000 0.000000 1.650720 
# 
# From -- ./inp_files/24671.got.cif
#   From: 2010.05.17/outbox.cif.g08.bks.cpg/sg59_13_cif.got.tgz:24671.got - 2010.06.03 14:40:33.
