data_PCOD9452342
_publ_section_title
;
Structure prediction by ZEFSAII (Michael W. Deem and Ramdas Pophale) SiO2 
 PCOD9452342
Probable space group: P M M N
;
_chemical_formula_sum "Si O2"
_cell_formula_units_Z 64
_cell_length_a 8.289978
_cell_length_b 25.585962
_cell_length_c 15.478944
_cell_angle_alpha 90.000000
_cell_angle_beta 90.000000
_cell_angle_gamma 90.000000
_cell_volume 3283.193336
_symmetry_space_group_name_H-M "P M M N"
_symmetry_group_IT_number 59
_space_group.IT_coordinate_system_code '2'
_symmetry_cell_setting 'orthorhombic'
loop_
_space_group_symop_operation_xyz
x,y,z
1/2-x,1/2-y,z
1/2+x,-y,-z
-x,1/2+y,-z
-x,-y,-z
1/2+x,1/2+y,-z
1/2-x,y,z
x,1/2-y,z
loop_
_atom_site_type_symbol
_atom_site_label
_atom_site_fract_x
_atom_site_fract_y
_atom_site_fract_z
Si Si1 0.058275 0.111771 0.281581
Si Si2 0.946072 0.883010 0.210622
Si Si3 0.055872 0.190412 0.945320
Si Si4 0.064073 0.537034 0.425924
Si Si5 0.057657 0.809566 0.864696
Si Si6 0.434418 0.495019 0.750954
Si Si7 0.942301 0.864757 0.520711
Si Si8 0.943249 0.191783 0.634234
O O1 0.250000 0.115011 0.281363
O O2 0.007063 0.128913 0.379066
O O3 0.991765 0.151755 0.211168
O O4 0.012459 0.052318 0.255545
O O5 0.750000 0.885094 0.212971
O O6 0.000582 0.848365 0.129397
O O7 0.000371 0.852262 0.297125
O O8 0.003468 0.943454 0.200919
O O9 0.250000 0.191623 0.940749
O O10 0.996100 0.250000 0.932474
O O11 0.007875 0.173774 0.041707
O O12 0.250000 0.526153 0.401986
O O13 0.000000 0.500000 0.500000
O O14 0.948435 0.527028 0.346018
O O15 0.043939 0.593353 0.466687
O O16 0.250000 0.808273 0.869703
O O17 0.998705 0.750000 0.848650
O O18 0.250000 0.502828 0.778196
O O19 0.750000 0.875977 0.517026
O O20 0.978307 0.814708 0.461157
O O21 0.750000 0.188465 0.626349
O O22 0.985194 0.250000 0.667860
#
# Coordination Sequence:
#
# PCOD9452342 Si02
#       8
#     8   8   8   8   8   8   8   8
#     4  11  24  40  61  87 117 154 199 247 295 351
#     4  10  21  37  60  88 119 156 197 240 292 354
#     4   9  18  36  63  91 117 149 192 241 292 350
#     4  12  22  34  55  81 112 152 198 245 290 339
#     4  10  22  41  65  91 118 148 187 241 300 356
#     4  11  22  36  57  86 121 158 198 243 291 348
#     4  11  23  38  56  80 111 151 198 246 293 344
#     4  11  24  38  54  81 118 158 199 246 299 356
#
# _framework density 19.493217000000001
#
# number of rings (size 3 to 8) (size 9 to 14) (size 15 to 20)
#    0.000    1.375    2.500    3.375    0.000    5.250 
#    0.000    4.375    0.000    0.000    0.000    0.000 
#    0.000    0.000    0.000    0.000    0.000    0.000 
#
# Total GULP energy -356948.705915 kJ/mol
# GULP energy per Si atom -5577.323530 kJ/mol
# Density = 1.944885 g / cm^3
# Si number density = 19.493217 Si / 1000 Ang^3
#
#
#
# Elastic Constant Matrix: (Units=GPa)
#
#
# Indices 1 2 3 4 5 6 
#
# 1 31.5499 7.4907 5.8209 0.0000 0.0000 0.0000
# 2 7.4907 92.5130 63.1233 0.0000 0.0000 0.0000
# 3 5.8209 63.1233 120.0781 0.0000 0.0000 0.0000
# 4 0.0000 0.0000 0.0000 31.7563 0.0000 0.0000
# 5 0.0000 0.0000 0.0000 0.0000 15.9817 0.0000
# 6 0.0000 0.0000 0.0000 0.0000 0.0000 20.5782
#
#
#
# Elastic Compliance Matrix: (Units=1/GPa)
#
#
# Indices 1 2 3 4 5 6 
#
# 1 0.032324 -0.002414 -0.000298 0.000000 0.000000 0.000000
# 2 -0.002414 0.017035 -0.008838 0.000000 0.000000 0.000000
# 3 -0.000298 -0.008838 0.012988 0.000000 0.000000 0.000000
# 4 0.000000 0.000000 0.000000 0.031490 0.000000 0.000000
# 5 0.000000 0.000000 0.000000 0.000000 0.062572 0.000000
# 6 0.000000 0.000000 0.000000 0.000000 0.000000 0.048595
#
#
# Mechanical properties :
#
#
# Convention : Reuss Voigt Hill
#
# Bulk Modulus (GPa) = 25.47935 44.11230 34.79583
# Shear Modulus (GPa) = 20.73085 24.84366 22.78725
#
# Velocity S-wave (km/s) = 3.26466 3.57385 3.42275
# Velocity P-wave (km/s) = 5.22589 6.30148 5.78872
#
# Compressibility (1/GPa) = 0.03924747
#
# Stress axis : x y z
#
# Youngs Moduli (GPa) = 30.93684 58.70219 76.99166
#
# Poissons Ratio (x) = 0.14171 0.02294
# Poissons Ratio (y) = 0.07468 0.68046
# Poissons Ratio (z) = 0.00922 0.51882
#
# Static dielectric constant tensor:
#      x y z
#    x 1.685620 0.000000 0.000000 
#    y 0.000000 1.774290 0.000000 
#    z 0.000000 0.000000 1.667210 
# 
# From -- ./inp_files/21595.got.cif
#   From: 2010.05.17/outbox.cif.g08.bks.cpg/sg59_11_cif.got.tgz:21595.got - 2010.06.03 14:40:33.
