data_PCOD9452062
_publ_section_title
;
Structure prediction by ZEFSAII (Michael W. Deem and Ramdas Pophale) SiO2 
 PCOD9452062
Probable space group: P M M N
;
_chemical_formula_sum "Si O2"
_cell_formula_units_Z 48
_cell_length_a 17.543243
_cell_length_b 8.674240
_cell_length_c 17.082577
_cell_angle_alpha 90.000000
_cell_angle_beta 90.000000
_cell_angle_gamma 90.000000
_cell_volume 2599.529200
_symmetry_space_group_name_H-M "P M M N"
_symmetry_group_IT_number 59
_space_group.IT_coordinate_system_code '2'
_symmetry_cell_setting 'orthorhombic'
loop_
_space_group_symop_operation_xyz
x,y,z
1/2-x,1/2-y,z
1/2+x,-y,-z
-x,1/2+y,-z
-x,-y,-z
1/2+x,1/2+y,-z
1/2-x,y,z
x,1/2-y,z
loop_
_atom_site_type_symbol
_atom_site_label
_atom_site_fract_x
_atom_site_fract_y
_atom_site_fract_z
Si Si1 0.750000 0.434835 0.343387
Si Si2 0.066617 0.934390 0.104348
Si Si3 0.398668 0.434436 0.572255
Si Si4 0.438774 0.436040 0.395392
Si Si5 0.096341 0.936204 0.925217
Si Si6 0.750000 0.062017 0.162301
Si Si7 0.162316 0.063653 0.247595
O O1 0.750000 0.250000 0.344327
O O2 0.825208 0.494880 0.386735
O O3 0.750000 0.486372 0.252693
O O4 0.066656 0.750000 0.108792
O O5 0.120107 0.002314 0.171022
O O6 0.094956 0.979270 0.017122
O O7 0.980362 0.995647 0.112007
O O8 0.394772 0.250000 0.576578
O O9 0.404836 0.478945 0.480370
O O10 0.477192 0.492799 0.610638
O O11 0.445745 0.250000 0.393904
O O12 0.384323 0.484650 0.324747
O O13 0.092119 0.750000 0.920715
O O14 0.173272 0.987552 0.882242
O O15 0.750000 0.250000 0.160914
O O16 0.250000 0.012402 0.250676
O O17 0.161674 0.250000 0.245833
#
# Coordination Sequence:
#
# PCOD9452062 Si02
#       7
#     4   8   8   8   8   4   8
#     4  11  23  37  57  86 117 150 194 233 277 339
#     4  10  21  36  58  86 116 146 183 235 290 332
#     4  10  21  38  61  86 115 148 188 238 290 332
#     4   9  20  39  62  83 111 152 192 229 279 345
#     4   9  19  38  61  81 109 151 193 229 277 341
#     4   9  20  37  59  82 105 148 196 229 267 333
#     4  10  22  38  59  84 112 150 193 229 272 337
#
# _framework density 18.464881999999999
#
# number of rings (size 3 to 8) (size 9 to 14) (size 15 to 20)
#    0.000    2.333    0.000    1.250    4.667    2.333 
#    0.000    1.250    0.000    0.000    0.000    0.000 
#    0.000    0.000    0.000    0.000    0.000    0.000 
#
# Total GULP energy -268023.068759 kJ/mol
# GULP energy per Si atom -5583.813932 kJ/mol
# Density = 1.842286 g / cm^3
# Si number density = 18.464882 Si / 1000 Ang^3
#
#
#
# Elastic Constant Matrix: (Units=GPa)
#
#
# Indices 1 2 3 4 5 6 
#
# 1 219.1331 43.6335 132.8001 0.0000 0.0000 0.0000
# 2 43.6335 18.0941 33.0659 0.0000 0.0000 0.0000
# 3 132.8001 33.0659 122.5845 0.0000 0.0000 0.0000
# 4 0.0000 0.0000 0.0000 28.3678 0.0000 0.0000
# 5 0.0000 0.0000 0.0000 0.0000 31.6228 0.0000
# 6 0.0000 0.0000 0.0000 0.0000 0.0000 28.5257
#
#
#
# Elastic Compliance Matrix: (Units=1/GPa)
#
#
# Indices 1 2 3 4 5 6 
#
# 1 0.014574 -0.012409 -0.012441 0.000000 0.000000 0.000000
# 2 -0.012409 0.119559 -0.018806 0.000000 0.000000 0.000000
# 3 -0.012441 -0.018806 0.026709 0.000000 0.000000 0.000000
# 4 0.000000 0.000000 0.000000 0.035251 0.000000 0.000000
# 5 0.000000 0.000000 0.000000 0.000000 0.031623 0.000000
# 6 0.000000 0.000000 0.000000 0.000000 0.000000 0.035056
#
#
# Mechanical properties :
#
#
# Convention : Reuss Voigt Hill
#
# Bulk Modulus (GPa) = 13.60029 86.53451 50.06740
# Shear Modulus (GPa) = 13.34772 27.72407 20.53590
#
# Velocity S-wave (km/s) = 2.69154 3.87906 3.33852
# Velocity P-wave (km/s) = 4.12804 8.18712 6.48342
#
# Compressibility (1/GPa) = 0.07352786
#
# Stress axis : x y z
#
# Youngs Moduli (GPa) = 68.61426 8.36406 37.44100
#
# Poissons Ratio (x) = 0.10379 0.46582
# Poissons Ratio (y) = 0.85147 0.70412
# Poissons Ratio (z) = 0.85366 0.15730
#
# Static dielectric constant tensor:
#      x y z
#    x 1.599790 0.000000 0.000000 
#    y 0.000000 1.624310 0.000000 
#    z 0.000000 0.000000 1.626790 
# 
# From -- ./inp_files/23760.got.cif
#   From: 2010.05.17/outbox.cif.g08.bks.cpg/sg59_12_cif.got.tgz:23760.got - 2010.06.03 14:40:33.
