data_PCOD9452601
_publ_section_title
;
Structure prediction by ZEFSAII (Michael W. Deem and Ramdas Pophale) SiO2 
 PCOD9452601
Probable space group: P M M N
;
_chemical_formula_sum "Si O2"
_cell_formula_units_Z 56
_cell_length_a 15.412763
_cell_length_b 8.488952
_cell_length_c 22.405516
_cell_angle_alpha 90.000000
_cell_angle_beta 90.000000
_cell_angle_gamma 90.000000
_cell_volume 2931.497502
_symmetry_space_group_name_H-M "P M M N"
_symmetry_group_IT_number 59
_space_group.IT_coordinate_system_code '2'
_symmetry_cell_setting 'orthorhombic'
loop_
_space_group_symop_operation_xyz
x,y,z
1/2-x,1/2-y,z
1/2+x,-y,-z
-x,1/2+y,-z
-x,-y,-z
1/2+x,1/2+y,-z
1/2-x,y,z
x,1/2-y,z
loop_
_atom_site_type_symbol
_atom_site_label
_atom_site_fract_x
_atom_site_fract_y
_atom_site_fract_z
Si Si1 0.058655 0.937913 0.944850
Si Si2 0.750000 0.561125 0.026193
Si Si3 0.750000 0.939078 0.885760
Si Si4 0.656698 0.558543 0.616907
Si Si5 0.512820 0.941491 0.711293
Si Si6 0.153784 0.559920 0.640439
Si Si7 0.903446 0.939101 0.488457
Si Si8 0.564623 0.437373 0.840871
O O1 0.061233 0.750000 0.948143
O O2 0.158127 0.999570 0.947751
O O3 0.006189 0.990394 0.886117
O O4 0.000000 0.000000 0.000000
O O5 0.750000 0.750000 0.030991
O O6 0.750000 0.517823 0.955882
O O7 0.750000 0.750000 0.881091
O O8 0.838784 0.002346 0.857024
O O9 0.750000 0.508333 0.640821
O O10 0.654006 0.750000 0.616615
O O11 0.579339 0.507267 0.659344
O O12 0.647240 0.510031 0.548113
O O13 0.515479 0.750000 0.715505
O O14 0.418456 0.990700 0.687726
O O15 0.540014 0.011854 0.774123
O O16 0.250000 0.505837 0.656316
O O17 0.152086 0.750000 0.639440
O O18 0.131256 0.504298 0.573756
O O19 0.902084 0.750000 0.485674
O O20 0.000000 0.000000 0.500000
O O21 0.563203 0.250000 0.847110
#
# Coordination Sequence:
#
# PCOD9452601 Si02
#       8
#     8   4   4   8   8   8   8   8
#     4  12  24  42  68  98 131 171 213 260 314 372
#     4  11  23  41  69 103 134 168 211 262 317 374
#     4  11  23  41  69  99 130 170 211 250 305 382
#     4   9  18  33  55  83 112 148 193 242 300 368
#     4  10  21  40  61  83 117 161 207 251 306 375
#     4  10  21  39  62  87 116 156 205 259 313 372
#     4  11  20  34  57  85 118 154 196 250 308 369
#     4  12  26  43  64  94 132 169 210 265 317 370
#
# _framework density 19.102865000000001
#
# number of rings (size 3 to 8) (size 9 to 14) (size 15 to 20)
#    0.000    1.286    2.857    3.857    1.000    2.000 
#    1.286    0.000    0.000    1.714    0.000    0.000 
#    0.000    0.000    0.000    0.000    0.000    0.000 
#
# Total GULP energy -312869.984899 kJ/mol
# GULP energy per Si atom -5586.964016 kJ/mol
# Density = 1.905939 g / cm^3
# Si number density = 19.102865 Si / 1000 Ang^3
#
#
#
# Elastic Constant Matrix: (Units=GPa)
#
#
# Indices 1 2 3 4 5 6 
#
# 1 207.8153 47.0805 82.3345 0.0000 0.0000 0.0000
# 2 47.0805 55.9841 32.9161 0.0000 0.0000 0.0000
# 3 82.3345 32.9161 121.8812 0.0000 0.0000 0.0000
# 4 0.0000 0.0000 0.0000 30.5539 0.0000 0.0000
# 5 0.0000 0.0000 0.0000 0.0000 3.0663 0.0000
# 6 0.0000 0.0000 0.0000 0.0000 0.0000 24.3597
#
#
#
# Elastic Compliance Matrix: (Units=1/GPa)
#
#
# Indices 1 2 3 4 5 6 
#
# 1 0.007190 -0.003793 -0.003832 0.000000 0.000000 0.000000
# 2 -0.003793 0.023235 -0.003713 0.000000 0.000000 0.000000
# 3 -0.003832 -0.003713 0.011796 0.000000 0.000000 0.000000
# 4 0.000000 0.000000 0.000000 0.032729 0.000000 0.000000
# 5 0.000000 0.000000 0.000000 0.000000 0.326121 0.000000
# 6 0.000000 0.000000 0.000000 0.000000 0.000000 0.041051
#
#
# Mechanical properties :
#
#
# Convention : Reuss Voigt Hill
#
# Bulk Modulus (GPa) = 51.16510 78.92698 65.04604
# Shear Modulus (GPa) = 10.60865 26.48594 18.54729
#
# Velocity S-wave (km/s) = 2.35913 3.72760 3.11933
# Velocity P-wave (km/s) = 5.85344 7.74165 6.86280
#
# Compressibility (1/GPa) = 0.01954457
#
# Stress axis : x y z
#
# Youngs Moduli (GPa) = 139.08901 43.03886 84.77178
#
# Poissons Ratio (x) = 0.16324 0.32489
# Poissons Ratio (y) = 0.52755 0.31474
# Poissons Ratio (z) = 0.53306 0.15979
#
# Static dielectric constant tensor:
#      x y z
#    x 1.708280 0.000000 0.000000 
#    y 0.000000 1.653670 0.000000 
#    z 0.000000 0.000000 1.639380 
# 
# From -- ./inp_files/30470.got.cif
#   From: 2010.05.17/outbox.cif.g08.bks.cpg/sg59_16_cif.got.tgz:30470.got - 2010.06.03 14:40:33.
