data_PCOD9452908
_publ_section_title
;
Structure prediction by ZEFSAII (Michael W. Deem and Ramdas Pophale) SiO2 
 PCOD9452908
Probable space group: P M M N
;
_chemical_formula_sum "Si O2"
_cell_formula_units_Z 64
_cell_length_a 21.124777
_cell_length_b 16.324544
_cell_length_c 9.741600
_cell_angle_alpha 90.000000
_cell_angle_beta 90.000000
_cell_angle_gamma 90.000000
_cell_volume 3359.413669
_symmetry_space_group_name_H-M "P M M N"
_symmetry_group_IT_number 59
_space_group.IT_coordinate_system_code '2'
_symmetry_cell_setting 'orthorhombic'
loop_
_space_group_symop_operation_xyz
x,y,z
1/2-x,1/2-y,z
1/2+x,-y,-z
-x,1/2+y,-z
-x,-y,-z
1/2+x,1/2+y,-z
1/2-x,y,z
x,1/2-y,z
loop_
_atom_site_type_symbol
_atom_site_label
_atom_site_fract_x
_atom_site_fract_y
_atom_site_fract_z
Si Si1 0.504912 0.338417 0.919987
Si Si2 0.324703 0.845976 0.889562
Si Si3 0.522180 0.560976 0.811605
Si Si4 0.877949 0.081739 0.832950
Si Si5 0.888053 0.018710 0.297779
Si Si6 0.613046 0.659927 0.282833
Si Si7 0.677869 0.494465 0.575531
Si Si8 0.394080 0.156829 0.396379
O O1 0.510708 0.250000 0.986619
O O2 0.564920 0.353656 0.822802
O O3 0.442901 0.339208 0.827263
O O4 0.501215 0.401150 0.045484
O O5 0.250000 0.848332 0.862979
O O6 0.344247 0.750000 0.888346
O O7 0.360186 0.903661 0.781414
O O8 0.339599 0.887973 0.035708
O O9 0.580804 0.501585 0.847403
O O10 0.462535 0.516122 0.740248
O O11 0.549966 0.626492 0.703293
O O12 0.834154 0.064914 0.703500
O O13 0.872105 0.028452 0.457565
O O14 0.856410 0.930079 0.260416
O O15 0.646179 0.750000 0.271379
O O16 0.589027 0.655911 0.441003
O O17 0.750000 0.489260 0.526861
O O18 0.660863 0.588310 0.616476
O O19 0.375549 0.250000 0.362193
#
# Coordination Sequence:
#
# PCOD9452908 Si02
#       8
#     8   8   8   8   8   8   8   8
#     4  11  20  32  52  82 117 149 182 225 283 347
#     4  11  24  41  60  82 112 157 208 247 284 340
#     4  11  21  33  57  88 119 146 187 231 299 357
#     4  11  21  36  58  82 113 145 190 237 290 344
#     4  11  21  38  61  84 120 154 193 243 297 346
#     4   9  19  34  55  86 121 151 185 230 289 354
#     4  10  23  39  59  82 109 153 201 240 287 339
#     4   9  20  36  57  85 117 149 187 237 292 352
#
# _framework density 19.050944000000001
#
# number of rings (size 3 to 8) (size 9 to 14) (size 15 to 20)
#    0.000    1.625    2.500    2.625    1.750    2.250 
#    0.000    1.250    0.000    4.125    0.000    0.000 
#    0.000    0.000    0.000    0.000    0.000    0.000 
#
# Total GULP energy -356457.834651 kJ/mol
# GULP energy per Si atom -5569.653666 kJ/mol
# Density = 1.900758 g / cm^3
# Si number density = 19.050944 Si / 1000 Ang^3
#
#
#
# Elastic Constant Matrix: (Units=GPa)
#
#
# Indices 1 2 3 4 5 6 
#
# 1 34.6493 8.9762 2.9059 0.0000 0.0000 0.0000
# 2 8.9762 96.2656 39.0404 0.0000 0.0000 0.0000
# 3 2.9059 39.0404 52.6695 0.0000 0.0000 0.0000
# 4 0.0000 0.0000 0.0000 29.0589 0.0000 0.0000
# 5 0.0000 0.0000 0.0000 0.0000 13.3926 0.0000
# 6 0.0000 0.0000 0.0000 0.0000 0.0000 18.9616
#
#
#
# Elastic Compliance Matrix: (Units=1/GPa)
#
#
# Indices 1 2 3 4 5 6 
#
# 1 0.029588 -0.002998 0.000590 0.000000 0.000000 0.000000
# 2 -0.002998 0.015157 -0.011069 0.000000 0.000000 0.000000
# 3 0.000590 -0.011069 0.027159 0.000000 0.000000 0.000000
# 4 0.000000 0.000000 0.000000 0.034413 0.000000 0.000000
# 5 0.000000 0.000000 0.000000 0.000000 0.074668 0.000000
# 6 0.000000 0.000000 0.000000 0.000000 0.000000 0.052738
#
#
# Mechanical properties :
#
#
# Convention : Reuss Voigt Hill
#
# Bulk Modulus (GPa) = 22.24784 31.71439 26.98112
# Shear Modulus (GPa) = 18.13830 21.12674 19.63252
#
# Velocity S-wave (km/s) = 3.08895 3.33372 3.21367
# Velocity P-wave (km/s) = 4.94222 5.61262 5.28806
#
# Compressibility (1/GPa) = 0.04494818
#
# Stress axis : x y z
#
# Youngs Moduli (GPa) = 33.79767 65.97807 36.82079
#
# Poissons Ratio (x) = 0.19781 -0.02172
# Poissons Ratio (y) = 0.10133 0.40757
# Poissons Ratio (z) = -0.01993 0.73032
#
# Static dielectric constant tensor:
#      x y z
#    x 1.643160 0.000000 0.000000 
#    y 0.000000 1.737360 0.000000 
#    z 0.000000 0.000000 1.649200 
# 
# From -- ./inp_files/12237.got.cif
#   From: 2010.05.17/outbox.cif.g08.bks.cpg/sg59_7_cif.got.tgz:12237.got - 2010.06.03 14:40:33.
