data_PCOD9452690
_publ_section_title
;
Structure prediction by ZEFSAII (Michael W. Deem and Ramdas Pophale) SiO2 
 PCOD9452690
Probable space group: P M M N
;
_chemical_formula_sum "Si O2"
_cell_formula_units_Z 56
_cell_length_a 20.335592
_cell_length_b 7.609962
_cell_length_c 16.627432
_cell_angle_alpha 90.000000
_cell_angle_beta 90.000000
_cell_angle_gamma 90.000000
_cell_volume 2573.146354
_symmetry_space_group_name_H-M "P M M N"
_symmetry_group_IT_number 59
_space_group.IT_coordinate_system_code '2'
_symmetry_cell_setting 'orthorhombic'
loop_
_space_group_symop_operation_xyz
x,y,z
1/2-x,1/2-y,z
1/2+x,-y,-z
-x,1/2+y,-z
-x,-y,-z
1/2+x,1/2+y,-z
1/2-x,y,z
x,1/2-y,z
loop_
_atom_site_type_symbol
_atom_site_label
_atom_site_fract_x
_atom_site_fract_y
_atom_site_fract_z
Si Si1 0.674673 0.536179 0.688058
Si Si2 0.915698 0.535020 0.836714
Si Si3 0.542458 0.040096 0.246333
Si Si4 0.324938 0.037499 0.494252
Si Si5 0.824629 0.964355 0.980203
Si Si6 0.542827 0.452612 0.422590
Si Si7 0.676978 0.961552 0.164079
O O1 0.750000 0.483756 0.704385
O O2 0.673438 0.750000 0.687251
O O3 0.626419 0.480702 0.758479
O O4 0.657916 0.480240 0.597130
O O5 0.914392 0.750000 0.840002
O O6 0.878858 0.473963 0.916923
O O7 0.989897 0.475155 0.819374
O O8 0.532825 0.250000 0.248973
O O9 0.529020 0.964487 0.335461
O O10 0.617142 0.011004 0.220635
O O11 0.250000 0.981215 0.511751
O O12 0.325325 0.250000 0.494743
O O13 0.380948 0.977067 0.554521
O O14 0.750000 0.014606 0.956281
O O15 0.825703 0.750000 0.980165
O O16 0.835437 0.021481 0.072151
O O17 0.500000 0.500000 0.500000
O O18 0.528346 0.250000 0.411319
O O19 0.750000 0.023014 0.188576
O O20 0.679088 0.750000 0.162087
#
# Coordination Sequence:
#
# PCOD9452690 Si02
#       7
#     8   8   8   8   8   8   8
#     4   8  13  23  43  71 101 132 164 200 244 294
#     4   9  15  25  44  71 103 133 163 201 245 295
#     4  10  22  36  51  75 103 132 167 209 256 304
#     4   9  18  33  53  77 104 134 172 218 264 311
#     4   8  14  26  47  75 103 131 164 202 244 291
#     4  11  23  38  55  75 103 137 174 217 263 314
#     4   9  19  36  55  75 101 132 168 210 252 297
#
# _framework density 21.763238000000001
#
# number of rings (size 3 to 8) (size 9 to 14) (size 15 to 20)
#    0.000    2.857    0.000    3.429    0.000    6.857 
#    0.000    2.857    0.000    0.000    0.000    0.000 
#    0.000    5.714    0.000    0.000    0.000    0.000 
#
# Total GULP energy -312507.135074 kJ/mol
# GULP energy per Si atom -5580.484555 kJ/mol
# Density = 2.171370 g / cm^3
# Si number density = 21.763238 Si / 1000 Ang^3
#
#
#
# Elastic Constant Matrix: (Units=GPa)
#
#
# Indices 1 2 3 4 5 6 
#
# 1 103.6156 -0.1220 62.5830 0.0000 0.0000 0.0000
# 2 -0.1220 40.7500 6.6800 0.0000 0.0000 0.0000
# 3 62.5830 6.6800 83.1814 0.0000 0.0000 0.0000
# 4 0.0000 0.0000 0.0000 7.1627 0.0000 0.0000
# 5 0.0000 0.0000 0.0000 0.0000 -8.1635 0.0000
# 6 0.0000 0.0000 0.0000 0.0000 0.0000 14.6878
#
#
#
# Elastic Compliance Matrix: (Units=1/GPa)
#
#
# Indices 1 2 3 4 5 6 
#
# 1 0.017898 0.002291 -0.013650 0.000000 0.000000 0.000000
# 2 0.002291 0.025161 -0.003744 0.000000 0.000000 0.000000
# 3 -0.013650 -0.003744 0.022593 0.000000 0.000000 0.000000
# 4 0.000000 0.000000 0.000000 0.139611 0.000000 0.000000
# 5 0.000000 0.000000 0.000000 0.000000 -0.122497 0.000000
# 6 0.000000 0.000000 0.000000 0.000000 0.000000 0.068084
#
#
# Mechanical properties :
#
#
# Convention : Reuss Voigt Hill
#
# Bulk Modulus (GPa) = 28.21290 40.64767 34.43029
# Shear Modulus (GPa) = 25.92401 13.29781 19.61091
#
# Velocity S-wave (km/s) = 3.45510 2.47457 3.00509
# Velocity P-wave (km/s) = 5.37667 5.18482 5.28162
#
# Compressibility (1/GPa) = 0.03544478
#
# Stress axis : x y z
#
# Youngs Moduli (GPa) = 55.87123 39.74479 44.26247
#
# Poissons Ratio (x) = -0.09106 0.60419
# Poissons Ratio (y) = -0.12801 0.16574
# Poissons Ratio (z) = 0.76265 0.14882
#
# Static dielectric constant tensor:
#      x y z
#    x 1.781790 0.000000 0.000000 
#    y 0.000000 1.842730 0.000000 
#    z 0.000000 0.000000 1.889950 
# 
# From -- ./inp_files/24188.got.cif
#   From: 2010.05.17/outbox.cif.g08.bks.cpg/sg59_13_cif.got.tgz:24188.got - 2010.06.03 14:40:33.
