data_PCOD9452033
_publ_section_title
;
Structure prediction by ZEFSAII (Michael W. Deem and Ramdas Pophale) SiO2 
 PCOD9452033
Probable space group: P M M N
;
_chemical_formula_sum "Si O2"
_cell_formula_units_Z 56
_cell_length_a 23.903122
_cell_length_b 8.840369
_cell_length_c 13.867701
_cell_angle_alpha 90.000000
_cell_angle_beta 90.000000
_cell_angle_gamma 90.000000
_cell_volume 2930.417441
_symmetry_space_group_name_H-M "P M M N"
_symmetry_group_IT_number 59
_space_group.IT_coordinate_system_code '2'
_symmetry_cell_setting 'orthorhombic'
loop_
_space_group_symop_operation_xyz
x,y,z
1/2-x,1/2-y,z
1/2+x,-y,-z
-x,1/2+y,-z
-x,-y,-z
1/2+x,1/2+y,-z
1/2-x,y,z
x,1/2-y,z
loop_
_atom_site_type_symbol
_atom_site_label
_atom_site_fract_x
_atom_site_fract_y
_atom_site_fract_z
Si Si1 0.627698 0.434011 0.563744
Si Si2 0.250000 0.565317 0.369823
Si Si3 0.587000 0.066664 0.350963
Si Si4 0.031602 0.931839 0.285856
Si Si5 0.312848 0.567614 0.792624
Si Si6 0.334029 0.075611 0.001164
Si Si7 0.540722 0.924236 0.923672
Si Si8 0.250000 0.569389 0.146782
O O1 0.628991 0.250000 0.565682
O O2 0.691405 0.485180 0.583150
O O3 0.605233 0.478278 0.458773
O O4 0.583315 0.481073 0.645727
O O5 0.250000 0.750000 0.373506
O O6 0.250000 0.520089 0.257601
O O7 0.582587 0.250000 0.347631
O O8 0.636587 0.020521 0.277401
O O9 0.527418 0.996659 0.323303
O O10 0.029380 0.750000 0.287091
O O11 0.040790 0.989672 0.177614
O O12 0.250000 0.525298 0.758607
O O13 0.314425 0.750000 0.797971
O O14 0.321695 0.501997 0.899199
O O15 0.316014 0.250000 0.996532
O O16 0.398845 0.071942 0.027222
O O17 0.302302 0.992004 0.087169
O O18 0.524426 0.750000 0.905980
O O19 0.500000 0.000000 0.000000
O O20 0.250000 0.750000 0.145458
#
# Coordination Sequence:
#
# PCOD9452033 Si02
#       8
#     8   4   8   8   8   8   8   4
#     4   9  19  35  58  87 118 153 195 247 300 353
#     4   9  18  33  56  87 116 144 187 243 298 347
#     4  10  21  37  60  87 117 153 199 250 299 353
#     4  11  22  38  59  87 121 159 201 244 297 358
#     4  10  21  36  56  85 116 151 196 245 297 353
#     4  11  23  38  57  83 115 153 192 237 292 350
#     4  11  24  40  60  87 119 155 197 245 299 354
#     4  11  21  35  58  85 114 152 193 235 284 347
#
# _framework density 19.109905999999999
#
# number of rings (size 3 to 8) (size 9 to 14) (size 15 to 20)
#    0.000    1.714    0.714    3.643    1.000    6.286 
#    0.000    0.714    0.000    1.714    0.000    0.000 
#    0.000    0.000    0.000    0.000    0.000    0.000 
#
# Total GULP energy -312832.887243 kJ/mol
# GULP energy per Si atom -5586.301558 kJ/mol
# Density = 1.906641 g / cm^3
# Si number density = 19.109906 Si / 1000 Ang^3
#
#
#
# Elastic Constant Matrix: (Units=GPa)
#
#
# Indices 1 2 3 4 5 6 
#
# 1 159.8494 31.9837 58.9352 0.0000 0.0000 0.0000
# 2 31.9837 31.2327 10.8748 0.0000 0.0000 0.0000
# 3 58.9352 10.8748 90.3149 0.0000 0.0000 0.0000
# 4 0.0000 0.0000 0.0000 15.6222 0.0000 0.0000
# 5 0.0000 0.0000 0.0000 0.0000 -65.1618 0.0000
# 6 0.0000 0.0000 0.0000 0.0000 0.0000 25.8503
#
#
#
# Elastic Compliance Matrix: (Units=1/GPa)
#
#
# Indices 1 2 3 4 5 6 
#
# 1 0.009931 -0.008260 -0.005486 0.000000 0.000000 0.000000
# 2 -0.008260 0.040289 0.000539 0.000000 0.000000 0.000000
# 3 -0.005486 0.000539 0.014587 0.000000 0.000000 0.000000
# 4 0.000000 0.000000 0.000000 0.064011 0.000000 0.000000
# 5 0.000000 0.000000 0.000000 0.000000 -0.015346 0.000000
# 6 0.000000 0.000000 0.000000 0.000000 0.000000 0.038684
#
#
# Mechanical properties :
#
#
# Convention : Reuss Voigt Hill
#
# Bulk Modulus (GPa) = 26.04638 53.88716 39.96677
# Shear Modulus (GPa) = 26.12763 7.23570 16.68166
#
# Velocity S-wave (km/s) = 3.70162 1.94797 2.95775
# Velocity P-wave (km/s) = 5.65055 5.77228 5.71174
#
# Compressibility (1/GPa) = 0.03839305
#
# Stress axis : x y z
#
# Youngs Moduli (GPa) = 100.69224 24.82094 68.55209
#
# Poissons Ratio (x) = 0.20502 0.37608
# Poissons Ratio (y) = 0.83170 -0.03694
# Poissons Ratio (z) = 0.55241 -0.01337
#
# Static dielectric constant tensor:
#      x y z
#    x 1.624370 0.000000 0.000000 
#    y 0.000000 1.654190 0.000000 
#    z 0.000000 0.000000 1.625190 
# 
# From -- ./inp_files/24419.got.cif
#   From: 2010.05.17/outbox.cif.g08.bks.cpg/sg59_13_cif.got.tgz:24419.got - 2010.06.03 14:40:33.
