data_PCOD9452227
_publ_section_title
;
Structure prediction by ZEFSAII (Michael W. Deem and Ramdas Pophale) SiO2 
 PCOD9452227
Probable space group: P M M N
;
_chemical_formula_sum "Si O2"
_cell_formula_units_Z 56
_cell_length_a 8.616659
_cell_length_b 19.341126
_cell_length_c 17.089762
_cell_angle_alpha 90.000000
_cell_angle_beta 90.000000
_cell_angle_gamma 90.000000
_cell_volume 2848.109452
_symmetry_space_group_name_H-M "P M M N"
_symmetry_group_IT_number 59
_space_group.IT_coordinate_system_code '2'
_symmetry_cell_setting 'orthorhombic'
loop_
_space_group_symop_operation_xyz
x,y,z
1/2-x,1/2-y,z
1/2+x,-y,-z
-x,1/2+y,-z
-x,-y,-z
1/2+x,1/2+y,-z
1/2-x,y,z
x,1/2-y,z
loop_
_atom_site_type_symbol
_atom_site_label
_atom_site_fract_x
_atom_site_fract_y
_atom_site_fract_z
Si Si1 0.935196 0.577924 0.004330
Si Si2 0.435278 0.587960 0.169829
Si Si3 0.939571 0.670512 0.856447
Si Si4 0.430265 0.166866 0.683114
Si Si5 0.567183 0.545799 0.570103
Si Si6 0.561135 0.551305 0.745327
Si Si7 0.567405 0.168111 0.515546
O O1 0.750000 0.573479 0.999268
O O2 0.985840 0.607013 0.088361
O O3 0.988107 0.627567 0.933619
O O4 0.000000 0.500000 0.000000
O O5 0.250000 0.590155 0.160876
O O6 0.488108 0.635277 0.241542
O O7 0.480803 0.510050 0.195336
O O8 0.750000 0.671743 0.856772
O O9 0.992383 0.750000 0.855741
O O10 0.988150 0.624466 0.781730
O O11 0.250000 0.145729 0.679585
O O12 0.436083 0.250000 0.687639
O O13 0.515683 0.146533 0.602901
O O14 0.500000 0.500000 0.500000
O O15 0.750000 0.533348 0.571834
O O16 0.504374 0.534580 0.657878
O O17 0.529424 0.624255 0.545994
O O18 0.750000 0.552110 0.741799
O O19 0.750000 0.154450 0.505851
O O20 0.540299 0.250000 0.508218
#
# Coordination Sequence:
#
# PCOD9452227 Si02
#       7
#     8   8   8   8   8   8   8
#     4  11  21  36  59  86 115 153 195 238 293 351
#     4  11  21  36  59  86 117 151 191 238 292 353
#     4   9  18  35  59  85 113 146 190 243 293 342
#     4  10  21  37  57  84 116 150 195 245 291 347
#     4  11  22  36  58  86 117 151 196 250 300 354
#     4   9  19  35  55  83 112 145 190 240 291 344
#     4  10  21  38  58  80 113 156 196 239 297 358
#
# _framework density 19.662165000000002
#
# number of rings (size 3 to 8) (size 9 to 14) (size 15 to 20)
#    0.000    1.857    1.429    3.000    0.000    4.000 
#    0.000    5.000    0.000    1.286    0.000    0.000 
#    0.000    0.000    0.000    0.000    0.000    0.000 
#
# Total GULP energy -312761.622883 kJ/mol
# GULP energy per Si atom -5585.028980 kJ/mol
# Density = 1.961741 g / cm^3
# Si number density = 19.662165 Si / 1000 Ang^3
#
#
#
# Elastic Constant Matrix: (Units=GPa)
#
#
# Indices 1 2 3 4 5 6 
#
# 1 28.9593 16.7562 10.8262 0.0000 0.0000 0.0000
# 2 16.7562 68.5360 34.8880 0.0000 0.0000 0.0000
# 3 10.8262 34.8880 113.2970 0.0000 0.0000 0.0000
# 4 0.0000 0.0000 0.0000 22.4168 0.0000 0.0000
# 5 0.0000 0.0000 0.0000 0.0000 26.9091 0.0000
# 6 0.0000 0.0000 0.0000 0.0000 0.0000 27.9330
#
#
#
# Elastic Compliance Matrix: (Units=1/GPa)
#
#
# Indices 1 2 3 4 5 6 
#
# 1 0.040311 -0.009362 -0.000969 0.000000 0.000000 0.000000
# 2 -0.009362 0.019478 -0.005103 0.000000 0.000000 0.000000
# 3 -0.000969 -0.005103 0.010490 0.000000 0.000000 0.000000
# 4 0.000000 0.000000 0.000000 0.044609 0.000000 0.000000
# 5 0.000000 0.000000 0.000000 0.000000 0.037162 0.000000
# 6 0.000000 0.000000 0.000000 0.000000 0.000000 0.035800
#
#
# Mechanical properties :
#
#
# Convention : Reuss Voigt Hill
#
# Bulk Modulus (GPa) = 25.37437 37.30366 31.33901
# Shear Modulus (GPa) = 21.56517 25.33990 23.45254
#
# Velocity S-wave (km/s) = 3.31537 3.59383 3.45740
# Velocity P-wave (km/s) = 5.25250 6.01950 5.64903
#
# Compressibility (1/GPa) = 0.03940985
#
# Stress axis : x y z
#
# Youngs Moduli (GPa) = 24.80739 51.34112 95.32529
#
# Poissons Ratio (x) = 0.48066 0.09237
# Poissons Ratio (y) = 0.23225 0.48646
# Poissons Ratio (z) = 0.02404 0.26200
#
# Static dielectric constant tensor:
#      x y z
#    x 1.676690 0.000000 0.000000 
#    y 0.000000 1.708720 0.000000 
#    z 0.000000 0.000000 1.689510 
# 
# From -- ./inp_files/20945.got.cif
#   From: 2010.05.17/outbox.cif.g08.bks.cpg/sg59_11_cif.got.tgz:20945.got - 2010.06.03 14:40:33.
