data_PCOD9452487
_publ_section_title
;
Structure prediction by ZEFSAII (Michael W. Deem and Ramdas Pophale) SiO2 
 PCOD9452487
Probable space group: P M M N
;
_chemical_formula_sum "Si O2"
_cell_formula_units_Z 32
_cell_length_a 12.491016
_cell_length_b 15.561409
_cell_length_c 8.156656
_cell_angle_alpha 90.000000
_cell_angle_beta 90.000000
_cell_angle_gamma 90.000000
_cell_volume 1585.472920
_symmetry_space_group_name_H-M "P M M N"
_symmetry_group_IT_number 59
_space_group.IT_coordinate_system_code '2'
_symmetry_cell_setting 'orthorhombic'
loop_
_space_group_symop_operation_xyz
x,y,z
1/2-x,1/2-y,z
1/2+x,-y,-z
-x,1/2+y,-z
-x,-y,-z
1/2+x,1/2+y,-z
1/2-x,y,z
x,1/2-y,z
loop_
_atom_site_type_symbol
_atom_site_label
_atom_site_fract_x
_atom_site_fract_y
_atom_site_fract_z
Si Si1 0.375454 0.250000 0.986965
Si Si2 0.869357 0.054759 0.168302
Si Si3 0.124267 0.250000 0.382066
Si Si4 0.472399 0.894571 0.148859
Si Si5 0.031789 0.898878 0.510364
O O1 0.250000 0.250000 0.950643
O O2 0.435548 0.330130 0.908341
O O3 0.388159 0.250000 0.184285
O O4 0.750000 0.017393 0.174371
O O5 0.890148 0.108760 0.333534
O O6 0.886530 0.103557 0.996840
O O7 0.963996 0.984619 0.164359
O O8 0.250000 0.250000 0.420436
O O9 0.067121 0.335231 0.452257
O O10 0.427131 0.875104 0.329129
O O11 0.000000 0.000000 0.500000
#
# Coordination Sequence:
#
# PCOD9452487 Si02
#       5
#     4   8   4   8   8
#     4  11  21  37  65  95 125 160 207 266 326 376
#     4  10  21  39  60  86 123 163 204 254 312 375
#     4  11  23  41  67  97 129 168 215 272 326 384
#     4  10  21  38  60  90 121 158 206 255 312 377
#     4  10  22  40  62  93 131 166 210 266 322 383
#
# _framework density 20.183250000000001
#
# number of rings (size 3 to 8) (size 9 to 14) (size 15 to 20)
#    0.000    1.750    2.500    1.500    0.000    7.000 
#    0.000    2.500    0.000    3.000    0.000    0.000 
#    0.000    0.000    0.000    0.000    0.000    0.000 
#
# Total GULP energy -178354.332921 kJ/mol
# GULP energy per Si atom -5573.572904 kJ/mol
# Density = 2.013731 g / cm^3
# Si number density = 20.183250 Si / 1000 Ang^3
#
#
#
# Elastic Constant Matrix: (Units=GPa)
#
#
# Indices 1 2 3 4 5 6 
#
# 1 52.9479 5.9324 38.3261 0.0000 0.0000 0.0000
# 2 5.9324 65.8617 22.8092 0.0000 0.0000 0.0000
# 3 38.3261 22.8092 195.7794 0.0000 0.0000 0.0000
# 4 0.0000 0.0000 0.0000 27.6336 0.0000 0.0000
# 5 0.0000 0.0000 0.0000 0.0000 6.7244 0.0000
# 6 0.0000 0.0000 0.0000 0.0000 0.0000 50.4550
#
#
#
# Elastic Compliance Matrix: (Units=1/GPa)
#
#
# Indices 1 2 3 4 5 6 
#
# 1 0.022021 -0.000511 -0.004251 0.000000 0.000000 0.000000
# 2 -0.000511 0.015834 -0.001745 0.000000 0.000000 0.000000
# 3 -0.004251 -0.001745 0.006143 0.000000 0.000000 0.000000
# 4 0.000000 0.000000 0.000000 0.036188 0.000000 0.000000
# 5 0.000000 0.000000 0.000000 0.000000 0.148713 0.000000
# 6 0.000000 0.000000 0.000000 0.000000 0.000000 0.019820
#
#
# Mechanical properties :
#
#
# Convention : Reuss Voigt Hill
#
# Bulk Modulus (GPa) = 32.27510 49.85828 41.06669
# Shear Modulus (GPa) = 18.37825 33.46399 25.92112
#
# Velocity S-wave (km/s) = 3.02084 4.07628 3.58759
# Velocity P-wave (km/s) = 5.30971 6.84917 6.12798
#
# Compressibility (1/GPa) = 0.03098364
#
# Stress axis : x y z
#
# Youngs Moduli (GPa) = 45.41105 63.15690 162.77914
#
# Poissons Ratio (x) = 0.03229 0.69203
# Poissons Ratio (y) = 0.02321 0.28399
# Poissons Ratio (z) = 0.19306 0.11018
#
# Static dielectric constant tensor:
#      x y z
#    x 1.657700 0.000000 0.000000 
#    y 0.000000 1.703770 0.000000 
#    z 0.000000 0.000000 1.793610 
# 
# From -- ./inp_files/6856.got.cif
#   From: 2010.05.17/outbox.cif.g08.bks.cpg/sg59_4_cif.got.tgz:6856.got - 2010.06.03 14:40:33.
