data_PCOD9452237
_publ_section_title
;
Structure prediction by ZEFSAII (Michael W. Deem and Ramdas Pophale) SiO2 
 PCOD9452237
Probable space group: P M M N
;
_chemical_formula_sum "Si O2"
_cell_formula_units_Z 64
_cell_length_a 8.813173
_cell_length_b 29.116742
_cell_length_c 12.847891
_cell_angle_alpha 90.000000
_cell_angle_beta 90.000000
_cell_angle_gamma 90.000000
_cell_volume 3296.908673
_symmetry_space_group_name_H-M "P M M N"
_symmetry_group_IT_number 59
_space_group.IT_coordinate_system_code '2'
_symmetry_cell_setting 'orthorhombic'
loop_
_space_group_symop_operation_xyz
x,y,z
1/2-x,1/2-y,z
1/2+x,-y,-z
-x,1/2+y,-z
-x,-y,-z
1/2+x,1/2+y,-z
1/2-x,y,z
x,1/2-y,z
loop_
_atom_site_type_symbol
_atom_site_label
_atom_site_fract_x
_atom_site_fract_y
_atom_site_fract_z
Si Si1 0.432934 0.481576 0.107842
Si Si2 0.930871 0.132374 0.386204
Si Si3 0.433803 0.377125 0.161404
Si Si4 0.071969 0.304827 0.562936
Si Si5 0.429039 0.664157 0.218470
Si Si6 0.570000 0.438302 0.733322
Si Si7 0.429786 0.050081 0.512449
Si Si8 0.432651 0.198676 0.993028
O O1 0.250000 0.482013 0.100248
O O2 0.480174 0.429422 0.133672
O O3 0.474200 0.517437 0.199179
O O4 0.500000 0.500000 0.000000
O O5 0.750000 0.131676 0.384257
O O6 0.997350 0.137984 0.271174
O O7 0.988554 0.170503 0.467530
O O8 0.994644 0.084546 0.431143
O O9 0.250000 0.376582 0.168925
O O10 0.480820 0.341293 0.072073
O O11 0.250000 0.317162 0.559100
O O12 0.057606 0.250000 0.555549
O O13 0.003697 0.321041 0.672848
O O14 0.250000 0.673385 0.224331
O O15 0.450077 0.609257 0.204986
O O16 0.500732 0.689697 0.120797
O O17 0.750000 0.442079 0.706713
O O18 0.474398 0.434394 0.628384
O O19 0.250000 0.049397 0.497538
O O20 0.500000 0.000000 0.500000
O O21 0.250000 0.196765 0.986047
O O22 0.475028 0.250000 0.029011
#
# Coordination Sequence:
#
# PCOD9452237 Si02
#       8
#     8   8   8   8   8   8   8   8
#     4  10  21  37  59  87 121 161 207 257 312 374
#     4  12  25  42  64  93 128 165 210 264 322 385
#     4  10  22  41  63  88 122 167 214 262 316 378
#     4  11  24  42  65  92 124 166 214 263 319 384
#     4  11  22  37  61  92 127 162 204 262 323 383
#     4  10  21  37  57  86 123 161 202 255 314 374
#     4  12  24  39  62  90 123 165 210 257 310 373
#     4  10  22  40  62  88 120 161 211 265 321 383
#
# _framework density 19.412123999999999
#
# number of rings (size 3 to 8) (size 9 to 14) (size 15 to 20)
#    0.000    1.250    1.250    4.875    0.000    6.250 
#    0.000    1.250    0.000    0.000    0.000    0.000 
#    0.000    0.000    0.000    0.000    0.000    0.000 
#
# Total GULP energy -357938.756303 kJ/mol
# GULP energy per Si atom -5592.793067 kJ/mol
# Density = 1.936794 g / cm^3
# Si number density = 19.412124 Si / 1000 Ang^3
#
#
#
# Elastic Constant Matrix: (Units=GPa)
#
#
# Indices 1 2 3 4 5 6 
#
# 1 55.6704 43.7957 39.3159 0.0000 0.0000 0.0000
# 2 43.7957 101.2639 45.2441 0.0000 0.0000 0.0000
# 3 39.3159 45.2441 129.0828 0.0000 0.0000 0.0000
# 4 0.0000 0.0000 0.0000 32.8100 0.0000 0.0000
# 5 0.0000 0.0000 0.0000 0.0000 34.0421 0.0000
# 6 0.0000 0.0000 0.0000 0.0000 0.0000 26.5876
#
#
#
# Elastic Compliance Matrix: (Units=1/GPa)
#
#
# Indices 1 2 3 4 5 6 
#
# 1 0.030169 -0.010603 -0.005472 0.000000 0.000000 0.000000
# 2 -0.010603 0.015435 -0.002181 0.000000 0.000000 0.000000
# 3 -0.005472 -0.002181 0.010178 0.000000 0.000000 0.000000
# 4 0.000000 0.000000 0.000000 0.030478 0.000000 0.000000
# 5 0.000000 0.000000 0.000000 0.000000 0.029375 0.000000
# 6 0.000000 0.000000 0.000000 0.000000 0.000000 0.037611
#
#
# Mechanical properties :
#
#
# Convention : Reuss Voigt Hill
#
# Bulk Modulus (GPa) = 51.89349 60.30315 56.09832
# Shear Modulus (GPa) = 25.48652 29.19873 27.34262
#
# Velocity S-wave (km/s) = 3.62735 3.88254 3.75711
# Velocity P-wave (km/s) = 6.65839 7.15758 6.91249
#
# Compressibility (1/GPa) = 0.01927024
#
# Stress axis : x y z
#
# Youngs Moduli (GPa) = 33.14696 64.78769 98.24994
#
# Poissons Ratio (x) = 0.68692 0.53767
# Poissons Ratio (y) = 0.35144 0.21426
# Poissons Ratio (z) = 0.18140 0.14128
#
# Static dielectric constant tensor:
#      x y z
#    x 1.649980 0.000000 0.000000 
#    y 0.000000 1.650290 0.000000 
#    z 0.000000 0.000000 1.645650 
# 
# From -- ./inp_files/15007.got.cif
#   From: 2010.05.17/outbox.cif.g08.bks.cpg/sg59_8_cif.got.tgz:15007.got - 2010.06.03 14:40:33.
