data_PCOD9452188
_publ_section_title
;
Structure prediction by ZEFSAII (Michael W. Deem and Ramdas Pophale) SiO2 
 PCOD9452188
Probable space group: P M M N
;
_chemical_formula_sum "Si O2"
_cell_formula_units_Z 64
_cell_length_a 14.782080
_cell_length_b 8.852943
_cell_length_c 26.912416
_cell_angle_alpha 90.000000
_cell_angle_beta 90.000000
_cell_angle_gamma 90.000000
_cell_volume 3521.890942
_symmetry_space_group_name_H-M "P M M N"
_symmetry_group_IT_number 59
_space_group.IT_coordinate_system_code '2'
_symmetry_cell_setting 'orthorhombic'
loop_
_space_group_symop_operation_xyz
x,y,z
1/2-x,1/2-y,z
1/2+x,-y,-z
-x,1/2+y,-z
-x,-y,-z
1/2+x,1/2+y,-z
1/2-x,y,z
x,1/2-y,z
loop_
_atom_site_type_symbol
_atom_site_label
_atom_site_fract_x
_atom_site_fract_y
_atom_site_fract_z
Si Si1 0.642400 0.571276 0.128482
Si Si2 0.357417 0.571286 0.764819
Si Si3 0.642380 0.428651 0.872122
Si Si4 0.354432 0.932320 0.501661
Si Si5 0.500309 0.430043 0.054706
Si Si6 0.000684 0.568679 0.307838
Si Si7 0.505952 0.932059 0.422916
Si Si8 0.642628 0.928628 0.765620
O O1 0.750000 0.550156 0.121561
O O2 0.623108 0.750000 0.128182
O O3 0.618293 0.502444 0.182203
O O4 0.586055 0.489681 0.085873
O O5 0.250000 0.550114 0.757592
O O6 0.376312 0.750000 0.766467
O O7 0.413938 0.494220 0.721354
O O8 0.750000 0.450333 0.878717
O O9 0.623128 0.250000 0.873466
O O10 0.586180 0.512506 0.914301
O O11 0.617886 0.494584 0.818060
O O12 0.250000 0.981995 0.498610
O O13 0.354839 0.750000 0.504584
O O14 0.415982 0.975492 0.454036
O O15 0.408218 0.997818 0.548796
O O16 0.501146 0.250000 0.051967
O O17 0.500000 0.500000 0.000000
O O18 0.002206 0.750000 0.305307
O O19 0.086246 0.502357 0.278508
O O20 0.999741 0.522761 0.365523
O O21 0.513251 0.750000 0.425049
O O22 0.750000 0.950111 0.758386
O O23 0.624153 0.750000 0.768490
#
# Coordination Sequence:
#
# PCOD9452188 Si02
#       8
#     8   8   8   8   8   8   8   8
#     4  10  21  39  62  85 111 144 183 227 274 327
#     4  10  21  37  57  81 110 146 186 225 269 323
#     4  10  21  39  62  85 111 145 185 227 272 326
#     4   9  18  35  58  79 102 137 180 225 272 322
#     4  12  25  40  59  83 113 146 183 228 276 329
#     4  11  22  35  54  80 113 149 182 223 272 322
#     4   9  20  36  53  78 109 141 179 222 269 322
#     4  10  21  37  57  82 112 146 184 224 268 321
#
# _framework density 18.172056999999999
#
# number of rings (size 3 to 8) (size 9 to 14) (size 15 to 20)
#    0.000    1.875    0.000    3.750    0.000    5.750 
#    0.000    3.750    0.000    0.000    0.000    0.000 
#    0.000    0.000    0.000    0.000    0.000    0.000 
#
# Total GULP energy -357621.890443 kJ/mol
# GULP energy per Si atom -5587.842038 kJ/mol
# Density = 1.813070 g / cm^3
# Si number density = 18.172057 Si / 1000 Ang^3
#
#
#
# Elastic Constant Matrix: (Units=GPa)
#
#
# Indices 1 2 3 4 5 6 
#
# 1 115.6545 59.6053 88.7235 0.0000 0.0000 0.0000
# 2 59.6053 107.0471 82.2830 0.0000 0.0000 0.0000
# 3 88.7235 82.2830 197.3402 0.0000 0.0000 0.0000
# 4 0.0000 0.0000 0.0000 31.8595 0.0000 0.0000
# 5 0.0000 0.0000 0.0000 0.0000 25.3933 0.0000
# 6 0.0000 0.0000 0.0000 0.0000 0.0000 20.2009
#
#
#
# Elastic Compliance Matrix: (Units=1/GPa)
#
#
# Indices 1 2 3 4 5 6 
#
# 1 0.014548 -0.004522 -0.004655 0.000000 0.000000 0.000000
# 2 -0.004522 0.015154 -0.004285 0.000000 0.000000 0.000000
# 3 -0.004655 -0.004285 0.008947 0.000000 0.000000 0.000000
# 4 0.000000 0.000000 0.000000 0.031388 0.000000 0.000000
# 5 0.000000 0.000000 0.000000 0.000000 0.039381 0.000000
# 6 0.000000 0.000000 0.000000 0.000000 0.000000 0.049503
#
#
# Mechanical properties :
#
#
# Convention : Reuss Voigt Hill
#
# Bulk Modulus (GPa) = 85.29901 97.91837 91.60869
# Shear Modulus (GPa) = 26.34987 28.11937 27.23462
#
# Velocity S-wave (km/s) = 3.81205 3.93796 3.87552
# Velocity P-wave (km/s) = 8.14967 8.64163 8.39925
#
# Compressibility (1/GPa) = 0.01172347
#
# Stress axis : x y z
#
# Youngs Moduli (GPa) = 68.73589 65.99029 111.76747
#
# Poissons Ratio (x) = 0.29844 0.52031
# Poissons Ratio (y) = 0.31086 0.47895
# Poissons Ratio (z) = 0.31998 0.28278
#
# Static dielectric constant tensor:
#      x y z
#    x 1.627120 0.000000 0.000000 
#    y 0.000000 1.612530 0.000000 
#    z 0.000000 0.000000 1.583240 
# 
# From -- ./inp_files/31498.got.cif
#   From: 2010.05.17/outbox.cif.g08.bks.cpg/sg59_16_cif.got.tgz:31498.got - 2010.06.03 14:40:33.
