data_PCOD9452386
_publ_section_title
;
Structure prediction by ZEFSAII (Michael W. Deem and Ramdas Pophale) SiO2 
 PCOD9452386
Probable space group: P M M N
;
_chemical_formula_sum "Si O2"
_cell_formula_units_Z 56
_cell_length_a 14.791927
_cell_length_b 7.571385
_cell_length_c 22.486621
_cell_angle_alpha 90.000000
_cell_angle_beta 90.000000
_cell_angle_gamma 90.000000
_cell_volume 2518.397534
_symmetry_space_group_name_H-M "P M M N"
_symmetry_group_IT_number 59
_space_group.IT_coordinate_system_code '2'
_symmetry_cell_setting 'orthorhombic'
loop_
_space_group_symop_operation_xyz
x,y,z
1/2-x,1/2-y,z
1/2+x,-y,-z
-x,1/2+y,-z
-x,-y,-z
1/2+x,1/2+y,-z
1/2-x,y,z
x,1/2-y,z
loop_
_atom_site_type_symbol
_atom_site_label
_atom_site_fract_x
_atom_site_fract_y
_atom_site_fract_z
Si Si1 0.653035 0.963216 0.143599
Si Si2 0.148683 0.039876 0.170222
Si Si3 0.954909 0.533744 0.712028
Si Si4 0.846115 0.453510 0.280568
Si Si5 0.450004 0.463903 0.417425
Si Si6 0.014227 0.959203 0.068894
Si Si7 0.853276 0.043181 0.461452
O O1 0.750000 0.999776 0.114627
O O2 0.646093 0.750000 0.150781
O O3 0.570761 0.032362 0.105499
O O4 0.653632 0.043513 0.208933
O O5 0.250000 0.967503 0.171041
O O6 0.153894 0.250000 0.179148
O O7 0.090757 0.971455 0.226731
O O8 0.101714 0.014460 0.106350
O O9 0.958751 0.750000 0.715681
O O10 0.913430 0.488772 0.648073
O O11 0.057510 0.466562 0.705666
O O12 0.750000 0.532892 0.300198
O O13 0.846557 0.250000 0.301100
O O14 0.453066 0.250000 0.421005
O O15 0.554818 0.525738 0.428521
O O16 0.384507 0.526787 0.469834
O O17 0.011176 0.750000 0.073779
O O18 0.000000 0.000000 0.000000
O O19 0.750000 0.972117 0.452563
O O20 0.848085 0.250000 0.445922
#
# Coordination Sequence:
#
# PCOD9452386 Si02
#       7
#     8   8   8   8   8   8   8
#     4   9  18  33  52  74 100 130 164 203 254 313
#     4  10  21  38  58  79 109 147 182 221 271 323
#     4   9  17  31  52  79 109 138 175 221 270 323
#     4   9  16  27  48  76 102 128 161 206 259 315
#     4   9  18  32  52  78 105 140 184 226 266 320
#     4  11  23  38  58  82 108 140 179 224 270 320
#     4   9  18  33  51  73 106 144 180 224 276 321
#
# _framework density 22.236360999999999
#
# number of rings (size 3 to 8) (size 9 to 14) (size 15 to 20)
#    0.000    2.571    1.429    0.429    0.000    2.857 
#    0.000    7.143    0.000    0.000    0.000    2.000 
#    0.000    0.000    0.000    0.000    0.000    0.000 
#
# Total GULP energy -312170.116536 kJ/mol
# GULP energy per Si atom -5574.466367 kJ/mol
# Density = 2.218575 g / cm^3
# Si number density = 22.236361 Si / 1000 Ang^3
#
#
#
# Elastic Constant Matrix: (Units=GPa)
#
#
# Indices 1 2 3 4 5 6 
#
# 1 120.1977 9.1901 55.0446 0.0000 0.0000 0.0000
# 2 9.1901 54.3225 -2.3519 0.0000 0.0000 0.0000
# 3 55.0446 -2.3519 143.5363 0.0000 0.0000 0.0000
# 4 0.0000 0.0000 0.0000 4.7215 0.0000 0.0000
# 5 0.0000 0.0000 0.0000 0.0000 0.5204 0.0000
# 6 0.0000 0.0000 0.0000 0.0000 0.0000 11.2422
#
#
#
# Elastic Compliance Matrix: (Units=1/GPa)
#
#
# Indices 1 2 3 4 5 6 
#
# 1 0.010287 -0.001912 -0.003976 0.000000 0.000000 0.000000
# 2 -0.001912 0.018777 0.001041 0.000000 0.000000 0.000000
# 3 -0.003976 0.001041 0.008509 0.000000 0.000000 0.000000
# 4 0.000000 0.000000 0.000000 0.211796 0.000000 0.000000
# 5 0.000000 0.000000 0.000000 0.000000 1.921677 0.000000
# 6 0.000000 0.000000 0.000000 0.000000 0.000000 0.088951
#
#
# Mechanical properties :
#
#
# Convention : Reuss Voigt Hill
#
# Bulk Modulus (GPa) = 35.87110 49.09135 42.48123
# Shear Modulus (GPa) = 2.19396 20.37505 11.28451
#
# Velocity S-wave (km/s) = 0.99438 3.03032 2.25518
# Velocity P-wave (km/s) = 4.18152 5.86249 5.09185
#
# Compressibility (1/GPa) = 0.02787759
#
# Stress axis : x y z
#
# Youngs Moduli (GPa) = 97.21251 53.25612 117.52587
#
# Poissons Ratio (x) = 0.10185 0.46731
# Poissons Ratio (y) = 0.18591 -0.12235
# Poissons Ratio (z) = 0.38654 -0.05544
#
# Static dielectric constant tensor:
#      x y z
#    x 1.862560 0.000000 0.000000 
#    y 0.000000 1.940860 0.000000 
#    z 0.000000 0.000000 1.276390 
# 
# From -- ./inp_files/29148.got.cif
#   From: 2010.05.17/outbox.cif.g08.bks.cpg/sg59_15_cif.got.tgz:29148.got - 2010.06.03 14:40:33.
