data_PCOD9452245
_publ_section_title
;
Structure prediction by ZEFSAII (Michael W. Deem and Ramdas Pophale) SiO2 
 PCOD9452245
Probable space group: P M M N
;
_chemical_formula_sum "Si O2"
_cell_formula_units_Z 48
_cell_length_a 8.796772
_cell_length_b 9.477086
_cell_length_c 32.303216
_cell_angle_alpha 90.000000
_cell_angle_beta 90.000000
_cell_angle_gamma 90.000000
_cell_volume 2693.046913
_symmetry_space_group_name_H-M "P M M N"
_symmetry_group_IT_number 59
_space_group.IT_coordinate_system_code '2'
_symmetry_cell_setting 'orthorhombic'
loop_
_space_group_symop_operation_xyz
x,y,z
1/2-x,1/2-y,z
1/2+x,-y,-z
-x,1/2+y,-z
-x,-y,-z
1/2+x,1/2+y,-z
1/2-x,y,z
x,1/2-y,z
loop_
_atom_site_type_symbol
_atom_site_label
_atom_site_fract_x
_atom_site_fract_y
_atom_site_fract_z
Si Si1 0.434392 0.583935 0.219227
Si Si2 0.066152 0.915452 0.038278
Si Si3 0.569599 0.582550 0.461503
Si Si4 0.432130 0.585207 0.703865
Si Si5 0.068109 0.584165 0.372902
Si Si6 0.427159 0.921545 0.128396
O O1 0.250000 0.574481 0.219757
O O2 0.471689 0.750000 0.224966
O O3 0.502636 0.491883 0.255687
O O4 0.490308 0.537768 0.173312
O O5 0.250000 0.925785 0.038423
O O6 0.027700 0.750000 0.034192
O O7 0.009221 0.966105 0.083764
O O8 0.000000 0.000000 0.000000
O O9 0.500000 0.500000 0.500000
O O10 0.750000 0.559189 0.459354
O O11 0.542299 0.750000 0.466904
O O12 0.494351 0.541007 0.417870
O O13 0.250000 0.574686 0.703754
O O14 0.474786 0.750000 0.703796
O O15 0.497299 0.507725 0.663509
O O16 0.250000 0.572271 0.372256
O O17 0.028679 0.750000 0.366738
O O18 0.250000 0.964490 0.128634
O O19 0.428690 0.750000 0.127980
#
# Coordination Sequence:
#
# PCOD9452245 Si02
#       6
#     8   8   8   8   8   8
#     4   9  17  32  56  80  97 121 164 213 256 300
#     4   9  17  30  48  70  97 129 164 203 248 297
#     4  10  21  37  58  84 113 145 179 215 258 306
#     4  11  24  38  51  73 107 142 171 203 250 306
#     4  10  21  38  60  83 105 134 176 221 260 301
#     4   7  12  26  48  71  94 122 160 205 248 293
#
# _framework density 17.823678000000001
#
# number of rings (size 3 to 8) (size 9 to 14) (size 15 to 20)
#    0.000    2.667    0.000    4.000    0.000    6.667 
#    0.000    1.667    0.000    8.000    0.000    0.000 
#    0.000    0.000    0.000    0.000    0.000    0.000 
#
# Total GULP energy -267599.743216 kJ/mol
# GULP energy per Si atom -5574.994650 kJ/mol
# Density = 1.778311 g / cm^3
# Si number density = 17.823678 Si / 1000 Ang^3
#
#
#
# Elastic Constant Matrix: (Units=GPa)
#
#
# Indices 1 2 3 4 5 6 
#
# 1 29.6413 40.8229 56.6700 0.0000 0.0000 0.0000
# 2 40.8229 73.5820 99.9070 0.0000 0.0000 0.0000
# 3 56.6700 99.9070 233.3455 0.0000 0.0000 0.0000
# 4 0.0000 0.0000 0.0000 32.2078 0.0000 0.0000
# 5 0.0000 0.0000 0.0000 0.0000 32.4135 0.0000
# 6 0.0000 0.0000 0.0000 0.0000 0.0000 26.2827
#
#
#
# Elastic Compliance Matrix: (Units=1/GPa)
#
#
# Indices 1 2 3 4 5 6 
#
# 1 0.143324 -0.077041 -0.001822 0.000000 0.000000 0.000000
# 2 -0.077041 0.073872 -0.012918 0.000000 0.000000 0.000000
# 3 -0.001822 -0.012918 0.010259 0.000000 0.000000 0.000000
# 4 0.000000 0.000000 0.000000 0.031048 0.000000 0.000000
# 5 0.000000 0.000000 0.000000 0.000000 0.030851 0.000000
# 6 0.000000 0.000000 0.000000 0.000000 0.000000 0.038048
#
#
# Mechanical properties :
#
#
# Convention : Reuss Voigt Hill
#
# Bulk Modulus (GPa) = 22.78328 81.26317 52.02322
# Shear Modulus (GPa) = 9.51300 27.45871 18.48586
#
# Velocity S-wave (km/s) = 2.31276 3.92927 3.22398
# Velocity P-wave (km/s) = 4.46567 8.14109 6.56580
#
# Compressibility (1/GPa) = 0.04389184
#
# Stress axis : x y z
#
# Youngs Moduli (GPa) = 6.97721 13.53689 97.47482
#
# Poissons Ratio (x) = 1.04289 0.17763
# Poissons Ratio (y) = 0.53753 1.25921
# Poissons Ratio (z) = 0.01271 0.17487
#
# Static dielectric constant tensor:
#      x y z
#    x 1.601730 0.000000 0.000000 
#    y 0.000000 1.590110 0.000000 
#    z 0.000000 0.000000 1.618840 
# 
# From -- ./inp_files/32890.got.cif
#   From: 2010.05.17/outbox.cif.g08.bks.cpg/sg59_17_cif.got.tgz:32890.got - 2010.06.03 14:40:33.
