data_PCOD9452401
_publ_section_title
;
Structure prediction by ZEFSAII (Michael W. Deem and Ramdas Pophale) SiO2 
 PCOD9452401
Probable space group: P M M N
;
_chemical_formula_sum "Si O2"
_cell_formula_units_Z 64
_cell_length_a 13.832951
_cell_length_b 8.839288
_cell_length_c 24.737782
_cell_angle_alpha 90.000000
_cell_angle_beta 90.000000
_cell_angle_gamma 90.000000
_cell_volume 3024.773648
_symmetry_space_group_name_H-M "P M M N"
_symmetry_group_IT_number 59
_space_group.IT_coordinate_system_code '2'
_symmetry_cell_setting 'orthorhombic'
loop_
_space_group_symop_operation_xyz
x,y,z
1/2-x,1/2-y,z
1/2+x,-y,-z
-x,1/2+y,-z
-x,-y,-z
1/2+x,1/2+y,-z
1/2-x,y,z
x,1/2-y,z
loop_
_atom_site_type_symbol
_atom_site_label
_atom_site_fract_x
_atom_site_fract_y
_atom_site_fract_z
Si Si1 0.866509 0.422097 0.645867
Si Si2 0.544032 0.571373 0.750267
Si Si3 0.138284 0.433202 0.701752
Si Si4 0.367424 0.072366 0.582282
Si Si5 0.949740 0.070277 0.859752
Si Si6 0.140551 0.434359 0.914784
Si Si7 0.868171 0.927387 0.534749
Si Si8 0.366260 0.423100 0.034728
O O1 0.750000 0.421906 0.643822
O O2 0.900472 0.250000 0.653352
O O3 0.898607 0.518298 0.697184
O O4 0.901454 0.484546 0.587903
O O5 0.538668 0.750000 0.752018
O O6 0.437702 0.499239 0.743271
O O7 0.588026 0.508648 0.805844
O O8 0.250000 0.476220 0.710979
O O9 0.134908 0.250000 0.702164
O O10 0.106086 0.487286 0.641460
O O11 0.250000 0.067264 0.583014
O O12 0.393362 0.250000 0.580703
O O13 0.397653 0.007276 0.524100
O O14 0.945515 0.250000 0.852720
O O15 0.060929 0.022600 0.871236
O O16 0.896392 0.022010 0.914470
O O17 0.250000 0.485707 0.904221
O O18 0.142545 0.250000 0.916794
O O19 0.106929 0.482517 0.974935
O O20 0.750000 0.931416 0.535248
O O21 0.894698 0.750000 0.538663
O O22 0.250000 0.416027 0.032922
O O23 0.402234 0.250000 0.041325
#
# Coordination Sequence:
#
# PCOD9452401 Si02
#       8
#     8   8   8   8   8   8   8   8
#     4  10  21  38  59  81 106 138 180 232 285 335
#     4  12  26  41  56  77 109 148 192 236 277 328
#     4   9  18  36  61  84 109 144 184 228 278 328
#     4   7  11  23  48  80 108 136 172 214 265 328
#     4  11  22  36  57  83 111 145 186 231 274 316
#     4   8  16  33  58  87 116 146 180 216 260 319
#     4   8  13  25  49  80 110 138 170 211 267 335
#     4   9  18  35  59  86 117 150 180 214 263 322
#
# _framework density 21.158608999999998
#
# number of rings (size 3 to 8) (size 9 to 14) (size 15 to 20)
#    0.000    2.750    0.000    4.500    0.000    2.250 
#    0.000    3.125    0.000    4.875    0.000    0.000 
#    0.000    0.000    0.000    0.000    0.000    0.000 
#
# Total GULP energy -357251.948339 kJ/mol
# GULP energy per Si atom -5582.061693 kJ/mol
# Density = 2.111045 g / cm^3
# Si number density = 21.158609 Si / 1000 Ang^3
#
#
#
# Elastic Constant Matrix: (Units=GPa)
#
#
# Indices 1 2 3 4 5 6 
#
# 1 32.8575 2.8357 4.7809 0.0000 0.0000 0.0000
# 2 2.8357 51.5189 25.8765 0.0000 0.0000 0.0000
# 3 4.7809 25.8765 117.7918 0.0000 0.0000 0.0000
# 4 0.0000 0.0000 0.0000 28.4529 0.0000 0.0000
# 5 0.0000 0.0000 0.0000 0.0000 18.8530 0.0000
# 6 0.0000 0.0000 0.0000 0.0000 0.0000 18.9518
#
#
#
# Elastic Compliance Matrix: (Units=1/GPa)
#
#
# Indices 1 2 3 4 5 6 
#
# 1 0.030681 -0.001195 -0.000983 0.000000 0.000000 0.000000
# 2 -0.001195 0.021864 -0.004755 0.000000 0.000000 0.000000
# 3 -0.000983 -0.004755 0.009574 0.000000 0.000000 0.000000
# 4 0.000000 0.000000 0.000000 0.035146 0.000000 0.000000
# 5 0.000000 0.000000 0.000000 0.000000 0.053042 0.000000
# 6 0.000000 0.000000 0.000000 0.000000 0.000000 0.052766
#
#
# Mechanical properties :
#
#
# Convention : Reuss Voigt Hill
#
# Bulk Modulus (GPa) = 20.72376 29.90605 25.31490
# Shear Modulus (GPa) = 21.45724 24.49654 22.97689
#
# Velocity S-wave (km/s) = 3.18797 3.40627 3.29893
# Velocity P-wave (km/s) = 4.83390 5.44382 5.14790
#
# Compressibility (1/GPa) = 0.04825379
#
# Stress axis : x y z
#
# Youngs Moduli (GPa) = 32.59393 45.73677 104.45019
#
# Poissons Ratio (x) = 0.05466 0.10264
# Poissons Ratio (y) = 0.03895 0.49662
# Poissons Ratio (z) = 0.03203 0.21746
#
# Static dielectric constant tensor:
#      x y z
#    x 1.810240 0.000000 0.000000 
#    y 0.000000 1.709230 0.000000 
#    z 0.000000 0.000000 1.764580 
# 
# From -- ./inp_files/32244.got.cif
#   From: 2010.05.17/outbox.cif.g08.bks.cpg/sg59_17_cif.got.tgz:32244.got - 2010.06.03 14:40:33.
