data_PCOD9452148
_publ_section_title
;
Structure prediction by ZEFSAII (Michael W. Deem and Ramdas Pophale) SiO2 
 PCOD9452148
Probable space group: P M M N
;
_chemical_formula_sum "Si O2"
_cell_formula_units_Z 48
_cell_length_a 26.060208
_cell_length_b 8.615489
_cell_length_c 12.104051
_cell_angle_alpha 90.000000
_cell_angle_beta 90.000000
_cell_angle_gamma 90.000000
_cell_volume 2717.618904
_symmetry_space_group_name_H-M "P M M N"
_symmetry_group_IT_number 59
_space_group.IT_coordinate_system_code '2'
_symmetry_cell_setting 'orthorhombic'
loop_
_space_group_symop_operation_xyz
x,y,z
1/2-x,1/2-y,z
1/2+x,-y,-z
-x,1/2+y,-z
-x,-y,-z
1/2+x,1/2+y,-z
1/2-x,y,z
x,1/2-y,z
loop_
_atom_site_type_symbol
_atom_site_label
_atom_site_fract_x
_atom_site_fract_y
_atom_site_fract_z
Si Si1 0.904297 0.563444 0.733285
Si Si2 0.405262 0.937787 0.738756
Si Si3 0.191601 0.562730 0.879230
Si Si4 0.691442 0.937273 0.878014
Si Si5 0.001200 0.564733 0.123888
Si Si6 0.941985 0.063831 0.503099
O O1 0.906547 0.750000 0.731230
O O2 0.850389 0.514409 0.787917
O O3 0.949995 0.501671 0.810561
O O4 0.913682 0.500519 0.610759
O O5 0.409240 0.750000 0.746402
O O6 0.350684 0.985399 0.789985
O O7 0.414142 0.980408 0.611217
O O8 0.450549 0.010365 0.811315
O O9 0.250000 0.511360 0.854793
O O10 0.191586 0.750000 0.883340
O O11 0.177666 0.500952 0.000817
O O12 0.750000 0.986817 0.853426
O O13 0.690807 0.750000 0.883340
O O14 0.003830 0.750000 0.121658
O O15 0.000000 0.500000 0.000000
O O16 0.944248 0.250000 0.509431
O O17 0.000000 0.000000 0.500000
#
# Coordination Sequence:
#
# PCOD9452148 Si02
#       6
#     8   8   8   8   8   8
#     4  11  22  37  57  81 111 145 186 232 278 331
#     4  10  21  37  56  79 110 144 184 227 273 330
#     4   9  18  34  57  83 110 142 179 224 277 330
#     4   9  19  36  57  81 110 145 182 224 276 331
#     4  12  24  36  54  80 112 144 179 226 279 335
#     4  11  22  37  57  80 110 150 190 231 277 329
#
# _framework density 17.662521999999999
#
# number of rings (size 3 to 8) (size 9 to 14) (size 15 to 20)
#    0.000    1.667    1.667    3.500    0.000    5.333 
#    0.000    0.833    0.000    1.000    0.000    0.000 
#    0.000    0.000    0.000    0.000    0.000    0.000 
#
# Total GULP energy -268122.755424 kJ/mol
# GULP energy per Si atom -5585.890738 kJ/mol
# Density = 1.762232 g / cm^3
# Si number density = 17.662522 Si / 1000 Ang^3
#
#
#
# Elastic Constant Matrix: (Units=GPa)
#
#
# Indices 1 2 3 4 5 6 
#
# 1 140.8754 37.3735 115.1310 0.0000 0.0000 0.0000
# 2 37.3735 39.4481 49.8145 0.0000 0.0000 0.0000
# 3 115.1310 49.8145 197.6002 0.0000 0.0000 0.0000
# 4 0.0000 0.0000 0.0000 30.5998 0.0000 0.0000
# 5 0.0000 0.0000 0.0000 0.0000 19.1313 0.0000
# 6 0.0000 0.0000 0.0000 0.0000 0.0000 6.0780
#
#
#
# Elastic Compliance Matrix: (Units=1/GPa)
#
#
# Indices 1 2 3 4 5 6 
#
# 1 0.014044 -0.004361 -0.007084 0.000000 0.000000 0.000000
# 2 -0.004361 0.038543 -0.007176 0.000000 0.000000 0.000000
# 3 -0.007084 -0.007176 0.010997 0.000000 0.000000 0.000000
# 4 0.000000 0.000000 0.000000 0.032680 0.000000 0.000000
# 5 0.000000 0.000000 0.000000 0.000000 0.052270 0.000000
# 6 0.000000 0.000000 0.000000 0.000000 0.000000 0.164527
#
#
# Mechanical properties :
#
#
# Convention : Reuss Voigt Hill
#
# Bulk Modulus (GPa) = 37.95961 86.95130 62.45545
# Shear Modulus (GPa) = 13.92436 22.86880 18.39658
#
# Velocity S-wave (km/s) = 2.81081 3.60219 3.23082
# Velocity P-wave (km/s) = 5.66326 8.16316 7.02530
#
# Compressibility (1/GPa) = 0.02634379
#
# Stress axis : x y z
#
# Youngs Moduli (GPa) = 71.20235 25.94538 90.93433
#
# Poissons Ratio (x) = 0.11314 0.64415
# Poissons Ratio (y) = 0.31050 0.65252
# Poissons Ratio (z) = 0.50437 0.18618
#
# Static dielectric constant tensor:
#      x y z
#    x 1.599050 0.000000 0.000000 
#    y 0.000000 1.596280 0.000000 
#    z 0.000000 0.000000 1.569050 
# 
# From -- ./inp_files/14355.got.cif
#   From: 2010.05.17/outbox.cif.g08.bks.cpg/sg59_8_cif.got.tgz:14355.got - 2010.06.03 14:40:33.
