data_PCOD9452963
_publ_section_title
;
Structure prediction by ZEFSAII (Michael W. Deem and Ramdas Pophale) SiO2 
 PCOD9452963
Probable space group: P M M N
;
_chemical_formula_sum "Si O2"
_cell_formula_units_Z 56
_cell_length_a 7.631765
_cell_length_b 29.906369
_cell_length_c 13.874956
_cell_angle_alpha 90.000000
_cell_angle_beta 90.000000
_cell_angle_gamma 90.000000
_cell_volume 3166.797483
_symmetry_space_group_name_H-M "P M M N"
_symmetry_group_IT_number 59
_space_group.IT_coordinate_system_code '2'
_symmetry_cell_setting 'orthorhombic'
loop_
_space_group_symop_operation_xyz
x,y,z
1/2-x,1/2-y,z
1/2+x,-y,-z
-x,1/2+y,-z
-x,-y,-z
1/2+x,1/2+y,-z
1/2-x,y,z
x,1/2-y,z
loop_
_atom_site_type_symbol
_atom_site_label
_atom_site_fract_x
_atom_site_fract_y
_atom_site_fract_z
Si Si1 0.960414 0.942551 0.402062
Si Si2 0.461615 0.392872 0.799771
Si Si3 0.964554 0.699716 0.266919
Si Si4 0.534805 0.469414 0.296556
Si Si5 0.448289 0.611124 0.589894
Si Si6 0.539723 0.519139 0.104405
Si Si7 0.458154 0.299147 0.512316
O O1 0.750000 0.941955 0.416712
O O2 0.995737 0.913613 0.306034
O O3 0.044361 0.919511 0.493925
O O4 0.016463 0.992728 0.374763
O O5 0.250000 0.390793 0.810023
O O6 0.525617 0.341899 0.797530
O O7 0.526176 0.430387 0.874530
O O8 0.750000 0.699080 0.266421
O O9 0.017890 0.750000 0.239096
O O10 0.022049 0.692044 0.378239
O O11 0.750000 0.469018 0.297391
O O12 0.469044 0.420872 0.328932
O O13 0.478313 0.487341 0.192126
O O14 0.250000 0.618506 0.620159
O O15 0.513905 0.659531 0.558368
O O16 0.750000 0.520884 0.113872
O O17 0.500000 0.500000 0.000000
O O18 0.250000 0.295726 0.522123
O O19 0.524683 0.250000 0.481681
#
# Coordination Sequence:
#
# PCOD9452963 Si02
#       7
#     8   8   8   8   8   8   8
#     4   9  15  27  43  57  82 119 151 172 198 242
#     4   8  13  23  41  61  82 111 141 169 207 251
#     4   8  12  20  38  62  82 104 141 176 195 231
#     4   8  17  30  43  60  84 116 146 172 210 260
#     4  11  19  26  39  62  90 116 144 178 214 248
#     4   9  17  31  48  63  82 108 140 179 218 259
#     4   9  17  29  44  60  81 115 155 182 204 244
#
# _framework density 17.683479999999999
#
# number of rings (size 3 to 8) (size 9 to 14) (size 15 to 20)
#    0.000    3.143    1.429    3.429    0.000    0.286 
#    0.000    5.000    0.000    0.000    0.000    1.000 
#    0.000    3.429    0.000    0.000    0.000    0.000 
#
# Total GULP energy -311833.797058 kJ/mol
# GULP energy per Si atom -5568.460662 kJ/mol
# Density = 1.764323 g / cm^3
# Si number density = 17.683480 Si / 1000 Ang^3
#
#
#
# Elastic Constant Matrix: (Units=GPa)
#
#
# Indices 1 2 3 4 5 6 
#
# 1 28.0243 8.3700 0.9992 0.0000 0.0000 0.0000
# 2 8.3700 190.6889 68.4533 0.0000 0.0000 0.0000
# 3 0.9992 68.4533 63.0579 0.0000 0.0000 0.0000
# 4 0.0000 0.0000 0.0000 20.1540 0.0000 0.0000
# 5 0.0000 0.0000 0.0000 0.0000 12.6119 0.0000
# 6 0.0000 0.0000 0.0000 0.0000 0.0000 12.8459
#
#
#
# Elastic Compliance Matrix: (Units=1/GPa)
#
#
# Indices 1 2 3 4 5 6 
#
# 1 0.036294 -0.002272 0.001891 0.000000 0.000000 0.000000
# 2 -0.002272 0.008735 -0.009446 0.000000 0.000000 0.000000
# 3 0.001891 -0.009446 0.026083 0.000000 0.000000 0.000000
# 4 0.000000 0.000000 0.000000 0.049618 0.000000 0.000000
# 5 0.000000 0.000000 0.000000 0.000000 0.079290 0.000000
# 6 0.000000 0.000000 0.000000 0.000000 0.000000 0.077846
#
#
# Mechanical properties :
#
#
# Convention : Reuss Voigt Hill
#
# Bulk Modulus (GPa) = 19.43317 48.60177 34.01747
# Shear Modulus (GPa) = 15.88951 22.71894 19.30423
#
# Velocity S-wave (km/s) = 3.00084 3.58824 3.30760
# Velocity P-wave (km/s) = 4.79792 6.68664 5.81942
#
# Compressibility (1/GPa) = 0.05145842
#
# Stress axis : x y z
#
# Youngs Moduli (GPa) = 27.55241 114.48369 38.33925
#
# Poissons Ratio (x) = 0.26011 -0.07251
# Poissons Ratio (y) = 0.06260 0.36216
# Poissons Ratio (z) = -0.05211 1.08144
#
# Static dielectric constant tensor:
#      x y z
#    x 1.666610 0.000000 0.000000 
#    y 0.000000 1.671950 0.000000 
#    z 0.000000 0.000000 1.578090 
# 
# From -- ./inp_files/21774.got.cif
#   From: 2010.05.17/outbox.cif.g08.bks.cpg/sg59_11_cif.got.tgz:21774.got - 2010.06.03 14:40:33.
