data_PCOD9452428
_publ_section_title
;
Structure prediction by ZEFSAII (Michael W. Deem and Ramdas Pophale) SiO2 
 PCOD9452428
Probable space group: P M M N
;
_chemical_formula_sum "Si O2"
_cell_formula_units_Z 48
_cell_length_a 16.017157
_cell_length_b 8.962995
_cell_length_c 17.077098
_cell_angle_alpha 90.000000
_cell_angle_beta 90.000000
_cell_angle_gamma 90.000000
_cell_volume 2451.617188
_symmetry_space_group_name_H-M "P M M N"
_symmetry_group_IT_number 59
_space_group.IT_coordinate_system_code '2'
_symmetry_cell_setting 'orthorhombic'
loop_
_space_group_symop_operation_xyz
x,y,z
1/2-x,1/2-y,z
1/2+x,-y,-z
-x,1/2+y,-z
-x,-y,-z
1/2+x,1/2+y,-z
1/2-x,y,z
x,1/2-y,z
loop_
_atom_site_type_symbol
_atom_site_label
_atom_site_fract_x
_atom_site_fract_y
_atom_site_fract_z
Si Si1 0.590800 0.427810 0.000245
Si Si2 0.410038 0.429320 0.676296
Si Si3 0.651670 0.425170 0.828512
Si Si4 0.152662 0.077101 0.844566
Si Si5 0.250000 0.071165 0.421450
Si Si6 0.750000 0.428407 0.408738
Si Si7 0.417323 0.072941 0.322753
O O1 0.584985 0.250000 0.002677
O O2 0.637035 0.484178 0.077611
O O3 0.500000 0.500000 0.000000
O O4 0.634532 0.468575 0.918265
O O5 0.404743 0.250000 0.669627
O O6 0.399573 0.468811 0.768506
O O7 0.332755 0.503350 0.631401
O O8 0.499691 0.488809 0.648807
O O9 0.750000 0.439723 0.812864
O O10 0.628556 0.250000 0.819395
O O11 0.601870 0.520998 0.765716
O O12 0.250000 0.069092 0.822287
O O13 0.132235 0.250000 0.862027
O O14 0.250000 0.250000 0.437433
O O15 0.333925 0.037602 0.372362
O O16 0.250000 0.980132 0.501365
O O17 0.750000 0.250000 0.401273
O O18 0.430922 0.250000 0.325995
#
# Coordination Sequence:
#
# PCOD9452428 Si02
#       7
#     8   8   8   8   4   4   8
#     4  11  23  37  54  83 121 164 212 263 314 366
#     4  11  23  43  68  95 131 173 210 255 319 382
#     4  10  21  38  59  84 120 166 213 260 318 381
#     4  10  21  39  61  86 119 163 211 255 310 375
#     4  10  24  46  68  93 132 169 202 257 322 381
#     4  12  26  44  70 101 128 161 210 261 310 377
#     4  11  23  41  66  98 129 165 214 265 315 373
#
# _framework density 19.578911999999999
#
# number of rings (size 3 to 8) (size 9 to 14) (size 15 to 20)
#    0.000    1.333    1.667    3.750    0.000    9.667 
#    0.000    0.000    0.000    0.000    0.000    0.000 
#    0.000    0.000    0.000    0.000    0.000    0.000 
#
# Total GULP energy -268365.382491 kJ/mol
# GULP energy per Si atom -5590.945469 kJ/mol
# Density = 1.953435 g / cm^3
# Si number density = 19.578912 Si / 1000 Ang^3
#
#
#
# Elastic Constant Matrix: (Units=GPa)
#
#
# Indices 1 2 3 4 5 6 
#
# 1 126.3732 62.5490 54.5351 0.0000 0.0000 0.0000
# 2 62.5490 73.5711 63.6986 0.0000 0.0000 0.0000
# 3 54.5351 63.6986 107.3335 0.0000 0.0000 0.0000
# 4 0.0000 0.0000 0.0000 31.1904 0.0000 0.0000
# 5 0.0000 0.0000 0.0000 0.0000 5.5606 0.0000
# 6 0.0000 0.0000 0.0000 0.0000 0.0000 35.3724
#
#
#
# Elastic Compliance Matrix: (Units=1/GPa)
#
#
# Indices 1 2 3 4 5 6 
#
# 1 0.013663 -0.011530 -0.000099 0.000000 0.000000 0.000000
# 2 -0.011530 0.037688 -0.016508 0.000000 0.000000 0.000000
# 3 -0.000099 -0.016508 0.019164 0.000000 0.000000 0.000000
# 4 0.000000 0.000000 0.000000 0.032061 0.000000 0.000000
# 5 0.000000 0.000000 0.000000 0.000000 0.179835 0.000000
# 6 0.000000 0.000000 0.000000 0.000000 0.000000 0.028271
#
#
# Mechanical properties :
#
#
# Convention : Reuss Voigt Hill
#
# Bulk Modulus (GPa) = 70.22450 74.31590 72.27020
# Shear Modulus (GPa) = 13.45162 22.85771 18.15466
#
# Velocity S-wave (km/s) = 2.62400 3.42053 3.04839
# Velocity P-wave (km/s) = 6.71757 7.32390 7.02728
#
# Compressibility (1/GPa) = 0.01424004
#
# Stress axis : x y z
#
# Youngs Moduli (GPa) = 73.19218 26.53397 52.18072
#
# Poissons Ratio (x) = 0.30593 0.00519
# Poissons Ratio (y) = 0.84389 0.86140
# Poissons Ratio (z) = 0.00727 0.43802
#
# Static dielectric constant tensor:
#      x y z
#    x 2.132130 0.000000 0.000000 
#    y 0.000000 1.657480 0.000000 
#    z 0.000000 0.000000 1.678550 
# 
# From -- ./inp_files/27468.got.cif
#   From: 2010.05.17/outbox.cif.g08.bks.cpg/sg59_14_cif.got.tgz:27468.got - 2010.06.03 14:40:33.
