data_PCOD9452538
_publ_section_title
;
Structure prediction by ZEFSAII (Michael W. Deem and Ramdas Pophale) SiO2 
 PCOD9452538
Probable space group: P M M N
;
_chemical_formula_sum "Si O2"
_cell_formula_units_Z 64
_cell_length_a 17.584063
_cell_length_b 18.238586
_cell_length_c 9.801458
_cell_angle_alpha 90.000000
_cell_angle_beta 90.000000
_cell_angle_gamma 90.000000
_cell_volume 3143.410356
_symmetry_space_group_name_H-M "P M M N"
_symmetry_group_IT_number 59
_space_group.IT_coordinate_system_code '2'
_symmetry_cell_setting 'orthorhombic'
loop_
_space_group_symop_operation_xyz
x,y,z
1/2-x,1/2-y,z
1/2+x,-y,-z
-x,1/2+y,-z
-x,-y,-z
1/2+x,1/2+y,-z
1/2-x,y,z
x,1/2-y,z
loop_
_atom_site_type_symbol
_atom_site_label
_atom_site_fract_x
_atom_site_fract_y
_atom_site_fract_z
Si Si1 0.553532 0.664918 0.015531
Si Si2 0.838222 0.670629 0.555362
Si Si3 0.097423 0.392153 0.689175
Si Si4 0.334722 0.914097 0.232803
Si Si5 0.159779 0.559320 0.708981
Si Si6 0.837620 0.918145 0.812480
Si Si7 0.456284 0.577538 0.474687
Si Si8 0.875053 0.164525 0.039362
O O1 0.572940 0.750000 0.005499
O O2 0.568930 0.638269 0.168472
O O3 0.606657 0.619929 0.915900
O O4 0.466020 0.655896 0.973000
O O5 0.750000 0.677228 0.590303
O O6 0.874965 0.750000 0.583384
O O7 0.839892 0.650580 0.396361
O O8 0.862863 0.606176 0.659488
O O9 0.128371 0.475088 0.714428
O O10 0.028696 0.378295 0.580011
O O11 0.250000 0.906260 0.292807
O O12 0.398196 0.916281 0.348537
O O13 0.340512 0.995079 0.169379
O O14 0.345164 0.856536 0.111173
O O15 0.250000 0.558062 0.667892
O O16 0.098076 0.594261 0.603197
O O17 0.154194 0.606742 0.847826
O O18 0.750000 0.896595 0.837715
O O19 0.500000 0.500000 0.500000
O O20 0.857314 0.250000 0.071767
#
# Coordination Sequence:
#
# PCOD9452538 Si02
#       8
#     8   8   8   8   8   8   8   8
#     4  11  24  40  60  89 128 168 207 258 314 377
#     4  10  21  38  61  92 134 175 207 251 311 379
#     4  11  22  39  64  94 127 163 214 253 308 382
#     4  11  22  41  69  94 124 166 212 265 318 379
#     4  11  24  42  66  95 127 164 210 268 324 381
#     4  10  22  38  62  96 128 163 209 255 311 384
#     4  10  22  39  63  96 127 162 198 258 318 374
#     4  11  26  45  65  92 125 169 221 276 334 384
#
# _framework density 20.360053000000001
#
# number of rings (size 3 to 8) (size 9 to 14) (size 15 to 20)
#    0.000    1.375    1.250    4.125    5.250    5.750 
#    0.000    1.250    0.000    1.500    0.000    0.000 
#    0.000    0.000    0.000    0.000    0.000    0.000 
#
# Total GULP energy -356650.998855 kJ/mol
# GULP energy per Si atom -5572.671857 kJ/mol
# Density = 2.031371 g / cm^3
# Si number density = 20.360053 Si / 1000 Ang^3
#
#
#
# Elastic Constant Matrix: (Units=GPa)
#
#
# Indices 1 2 3 4 5 6 
#
# 1 98.0769 38.9118 35.5773 0.0000 0.0000 0.0000
# 2 38.9118 94.5523 29.2190 0.0000 0.0000 0.0000
# 3 35.5773 29.2190 85.6312 0.0000 0.0000 0.0000
# 4 0.0000 0.0000 0.0000 53.2871 0.0000 0.0000
# 5 0.0000 0.0000 0.0000 0.0000 45.8568 0.0000
# 6 0.0000 0.0000 0.0000 0.0000 0.0000 17.5766
#
#
#
# Elastic Compliance Matrix: (Units=1/GPa)
#
#
# Indices 1 2 3 4 5 6 
#
# 1 0.013365 -0.004230 -0.004109 0.000000 0.000000 0.000000
# 2 -0.004230 0.013162 -0.002733 0.000000 0.000000 0.000000
# 3 -0.004109 -0.002733 0.014318 0.000000 0.000000 0.000000
# 4 0.000000 0.000000 0.000000 0.018766 0.000000 0.000000
# 5 0.000000 0.000000 0.000000 0.000000 0.021807 0.000000
# 6 0.000000 0.000000 0.000000 0.000000 0.000000 0.056894
#
#
# Mechanical properties :
#
#
# Convention : Reuss Voigt Hill
#
# Bulk Modulus (GPa) = 53.47991 53.96406 53.72198
# Shear Modulus (GPa) = 29.99557 34.98092 32.48825
#
# Velocity S-wave (km/s) = 3.84247 4.14951 3.99894
# Velocity P-wave (km/s) = 6.78308 7.03707 6.91124
#
# Compressibility (1/GPa) = 0.01869861
#
# Stress axis : x y z
#
# Youngs Moduli (GPa) = 74.82154 75.97741 69.84209
#
# Poissons Ratio (x) = 0.32141 0.28701
# Poissons Ratio (y) = 0.31652 0.19091
# Poissons Ratio (z) = 0.30747 0.20768
#
# Static dielectric constant tensor:
#      x y z
#    x 1.801020 0.000000 0.000000 
#    y 0.000000 1.760180 0.000000 
#    z 0.000000 0.000000 1.738880 
# 
# From -- ./inp_files/10705.got.cif
#   From: 2010.05.17/outbox.cif.g08.bks.cpg/sg59_6_cif.got.tgz:10705.got - 2010.06.03 14:40:33.
