data_PCOD9452729
_publ_section_title
;
Structure prediction by ZEFSAII (Michael W. Deem and Ramdas Pophale) SiO2 
 PCOD9452729
Probable space group: P M M N
;
_chemical_formula_sum "Si O2"
_cell_formula_units_Z 32
_cell_length_a 13.755438
_cell_length_b 8.733934
_cell_length_c 13.348114
_cell_angle_alpha 90.000000
_cell_angle_beta 90.000000
_cell_angle_gamma 90.000000
_cell_volume 1603.630238
_symmetry_space_group_name_H-M "P M M N"
_symmetry_group_IT_number 59
_space_group.IT_coordinate_system_code '2'
_symmetry_cell_setting 'orthorhombic'
loop_
_space_group_symop_operation_xyz
x,y,z
1/2-x,1/2-y,z
1/2+x,-y,-z
-x,1/2+y,-z
-x,-y,-z
1/2+x,1/2+y,-z
1/2-x,y,z
x,1/2-y,z
loop_
_atom_site_type_symbol
_atom_site_label
_atom_site_fract_x
_atom_site_fract_y
_atom_site_fract_z
Si Si1 0.250000 0.080995 0.130523
Si Si2 0.032331 0.935117 0.393077
Si Si3 0.595256 0.926490 0.043831
Si Si4 0.250000 0.929238 0.335017
Si Si5 0.859537 0.066706 0.256116
O O1 0.250000 0.250000 0.179521
O O2 0.250000 0.956176 0.216054
O O3 0.162702 0.070622 0.053265
O O4 0.031839 0.750000 0.392530
O O5 0.144093 0.988307 0.371688
O O6 0.000000 0.000000 0.500000
O O7 0.950872 0.992913 0.314134
O O8 0.582857 0.750000 0.075413
O O9 0.633241 0.017802 0.139906
O O10 0.500000 0.000000 0.000000
O O11 0.250000 0.750000 0.360457
O O12 0.750000 0.021815 0.292407
O O13 0.866940 0.250000 0.265171
#
# Coordination Sequence:
#
# PCOD9452729 Si02
#       5
#     4   8   8   4   8
#     4  10  22  38  59  88 125 164 207 252 304 370
#     4  11  25  45  69  97 128 168 214 269 332 390
#     4  11  22  38  60  91 129 170 214 262 315 376
#     4  10  24  44  65  92 129 166 209 264 322 386
#     4  11  24  42  65  96 133 173 218 270 325 384
#
# _framework density 19.954725
#
# number of rings (size 3 to 8) (size 9 to 14) (size 15 to 20)
#    0.000    1.250    1.250    3.750    1.750    9.500 
#    0.000    0.000    0.000    0.000    0.000    0.000 
#    0.000    0.000    0.000    0.000    0.000    0.000 
#
# Total GULP energy -178579.908883 kJ/mol
# GULP energy per Si atom -5580.622153 kJ/mol
# Density = 1.990931 g / cm^3
# Si number density = 19.954725 Si / 1000 Ang^3
#
#
#
# Elastic Constant Matrix: (Units=GPa)
#
#
# Indices 1 2 3 4 5 6 
#
# 1 197.2748 54.3911 52.5574 0.0000 0.0000 0.0000
# 2 54.3911 51.4464 16.0354 0.0000 0.0000 0.0000
# 3 52.5574 16.0354 85.9019 0.0000 0.0000 0.0000
# 4 0.0000 0.0000 0.0000 38.1393 0.0000 0.0000
# 5 0.0000 0.0000 0.0000 0.0000 10.7899 0.0000
# 6 0.0000 0.0000 0.0000 0.0000 0.0000 23.7735
#
#
#
# Elastic Compliance Matrix: (Units=1/GPa)
#
#
# Indices 1 2 3 4 5 6 
#
# 1 0.008058 -0.007414 -0.003546 0.000000 0.000000 0.000000
# 2 -0.007414 0.027460 -0.000590 0.000000 0.000000 0.000000
# 3 -0.003546 -0.000590 0.013921 0.000000 0.000000 0.000000
# 4 0.000000 0.000000 0.000000 0.026220 0.000000 0.000000
# 5 0.000000 0.000000 0.000000 0.000000 0.092679 0.000000
# 6 0.000000 0.000000 0.000000 0.000000 0.000000 0.042064
#
#
# Mechanical properties :
#
#
# Convention : Reuss Voigt Hill
#
# Bulk Modulus (GPa) = 37.96674 64.51008 51.23841
# Shear Modulus (GPa) = 20.63723 28.64981 24.64352
#
# Velocity S-wave (km/s) = 3.21939 3.79323 3.51803
# Velocity P-wave (km/s) = 5.73472 7.18214 6.49885
#
# Compressibility (1/GPa) = 0.02633884
#
# Stress axis : x y z
#
# Youngs Moduli (GPa) = 124.10182 36.41690 71.83428
#
# Poissons Ratio (x) = 0.26999 0.25473
# Poissons Ratio (y) = 0.92007 0.04238
# Poissons Ratio (z) = 0.44008 0.02148
#
# Static dielectric constant tensor:
#      x y z
#    x 1.715290 0.000000 0.000000 
#    y 0.000000 1.706000 0.000000 
#    z 0.000000 0.000000 1.655850 
# 
# From -- ./inp_files/16474.got.cif
#   From: 2010.05.17/outbox.cif.g08.bks.cpg/sg59_9_cif.got.tgz:16474.got - 2010.06.03 14:40:33.
