data_PCOD9452186
_publ_section_title
;
Structure prediction by ZEFSAII (Michael W. Deem and Ramdas Pophale) SiO2 
 PCOD9452186
Probable space group: P M M N
;
_chemical_formula_sum "Si O2"
_cell_formula_units_Z 48
_cell_length_a 9.188254
_cell_length_b 8.542305
_cell_length_c 31.771603
_cell_angle_alpha 90.000000
_cell_angle_beta 90.000000
_cell_angle_gamma 90.000000
_cell_volume 2493.717157
_symmetry_space_group_name_H-M "P M M N"
_symmetry_group_IT_number 59
_space_group.IT_coordinate_system_code '2'
_symmetry_cell_setting 'orthorhombic'
loop_
_space_group_symop_operation_xyz
x,y,z
1/2-x,1/2-y,z
1/2+x,-y,-z
-x,1/2+y,-z
-x,-y,-z
1/2+x,1/2+y,-z
1/2-x,y,z
x,1/2-y,z
loop_
_atom_site_type_symbol
_atom_site_label
_atom_site_fract_x
_atom_site_fract_y
_atom_site_fract_z
Si Si1 0.581774 0.939276 0.541146
Si Si2 0.418155 0.560740 0.626123
Si Si3 0.418249 0.560795 0.291600
Si Si4 0.918810 0.562153 0.041251
Si Si5 0.418786 0.437740 0.123743
Si Si6 0.919083 0.560548 0.206273
O O1 0.750000 0.990305 0.541491
O O2 0.579534 0.750000 0.540481
O O3 0.499750 0.990846 0.583601
O O4 0.500000 0.000000 0.500000
O O5 0.250000 0.509369 0.625985
O O6 0.420097 0.750000 0.626707
O O7 0.500650 0.500514 0.667204
O O8 0.250000 0.509722 0.290948
O O9 0.420491 0.750000 0.292459
O O10 0.501176 0.510437 0.249199
O O11 0.750000 0.511242 0.041293
O O12 0.921735 0.750000 0.040812
O O13 0.999310 0.502657 0.082903
O O14 0.000000 0.500000 0.000000
O O15 0.250000 0.488720 0.123803
O O16 0.422210 0.250000 0.122364
O O17 0.498539 0.495637 0.165716
O O18 0.750000 0.512745 0.206452
O O19 0.923629 0.750000 0.204558
#
# Coordination Sequence:
#
# PCOD9452186 Si02
#       6
#     8   8   8   8   8   8
#     4  10  21  37  57  81 109 143 183 227 276 330
#     4  10  21  37  57  81 110 145 184 227 277 331
#     4  10  21  37  58  84 113 147 187 230 278 332
#     4  11  24  41  62  89 119 152 192 236 283 336
#     4  11  24  40  59  86 118 152 192 235 280 334
#     4  10  21  38  60  85 113 147 188 233 281 333
#
# _framework density 19.248373999999998
#
# number of rings (size 3 to 8) (size 9 to 14) (size 15 to 20)
#    0.000    1.667    0.000    4.000    0.000   12.000 
#    0.000    0.000    0.000    0.000    0.000    0.000 
#    0.000    0.000    0.000    0.000    0.000    0.000 
#
# Total GULP energy -268389.044409 kJ/mol
# GULP energy per Si atom -5591.438425 kJ/mol
# Density = 1.920456 g / cm^3
# Si number density = 19.248374 Si / 1000 Ang^3
#
#
#
# Elastic Constant Matrix: (Units=GPa)
#
#
# Indices 1 2 3 4 5 6 
#
# 1 245.7712 41.9575 149.9796 0.0000 0.0000 0.0000
# 2 41.9575 14.8839 34.9605 0.0000 0.0000 0.0000
# 3 149.9796 34.9605 241.6431 0.0000 0.0000 0.0000
# 4 0.0000 0.0000 0.0000 40.8281 0.0000 0.0000
# 5 0.0000 0.0000 0.0000 0.0000 46.7610 0.0000
# 6 0.0000 0.0000 0.0000 0.0000 0.0000 30.0768
#
#
#
# Elastic Compliance Matrix: (Units=1/GPa)
#
#
# Indices 1 2 3 4 5 6 
#
# 1 0.009016 -0.018589 -0.002906 0.000000 0.000000 0.000000
# 2 -0.018589 0.140097 -0.008732 0.000000 0.000000 0.000000
# 3 -0.002906 -0.008732 0.007206 0.000000 0.000000 0.000000
# 4 0.000000 0.000000 0.000000 0.024493 0.000000 0.000000
# 5 0.000000 0.000000 0.000000 0.000000 0.021385 0.000000
# 6 0.000000 0.000000 0.000000 0.000000 0.000000 0.033248
#
#
# Mechanical properties :
#
#
# Convention : Reuss Voigt Hill
#
# Bulk Modulus (GPa) = 10.43134 106.23261 58.33197
# Shear Modulus (GPa) = 15.25071 41.89323 28.57197
#
# Velocity S-wave (km/s) = 2.81786 4.67031 3.85695
# Velocity P-wave (km/s) = 4.00227 9.18655 7.08558
#
# Compressibility (1/GPa) = 0.09586497
#
# Stress axis : x y z
#
# Youngs Moduli (GPa) = 110.91508 7.13791 138.78160
#
# Poissons Ratio (x) = 0.13268 0.40337
# Poissons Ratio (y) = 2.06177 1.21179
# Poissons Ratio (z) = 0.32237 0.06233
#
# Static dielectric constant tensor:
#      x y z
#    x 1.655940 0.000000 0.000000 
#    y 0.000000 1.664360 0.000000 
#    z 0.000000 0.000000 1.614440 
# 
# From -- ./inp_files/32796.got.cif
#   From: 2010.05.17/outbox.cif.g08.bks.cpg/sg59_17_cif.got.tgz:32796.got - 2010.06.03 14:40:33.
