data_PCOD9452844
_publ_section_title
;
Structure prediction by ZEFSAII (Michael W. Deem and Ramdas Pophale) SiO2 
 PCOD9452844
Probable space group: P M M N
;
_chemical_formula_sum "Si O2"
_cell_formula_units_Z 40
_cell_length_a 8.695635
_cell_length_b 18.471153
_cell_length_c 12.599513
_cell_angle_alpha 90.000000
_cell_angle_beta 90.000000
_cell_angle_gamma 90.000000
_cell_volume 2023.713676
_symmetry_space_group_name_H-M "P M M N"
_symmetry_group_IT_number 59
_space_group.IT_coordinate_system_code '2'
_symmetry_cell_setting 'orthorhombic'
loop_
_space_group_symop_operation_xyz
x,y,z
1/2-x,1/2-y,z
1/2+x,-y,-z
-x,1/2+y,-z
-x,-y,-z
1/2+x,1/2+y,-z
1/2-x,y,z
x,1/2-y,z
loop_
_atom_site_type_symbol
_atom_site_label
_atom_site_fract_x
_atom_site_fract_y
_atom_site_fract_z
Si Si1 0.067563 0.925818 0.548442
Si Si2 0.433378 0.333819 0.635884
Si Si3 0.066873 0.432365 0.841248
Si Si4 0.933639 0.166791 0.025180
Si Si5 0.067351 0.413630 0.217321
O O1 0.250000 0.933342 0.559902
O O2 0.024052 0.863527 0.465126
O O3 0.993731 0.911375 0.662727
O O4 0.000000 0.000000 0.500000
O O5 0.250000 0.339971 0.614950
O O6 0.468185 0.250000 0.658230
O O7 0.467286 0.383815 0.737373
O O8 0.250000 0.445556 0.845223
O O9 0.980546 0.508196 0.829653
O O10 0.014000 0.387398 0.943125
O O11 0.750000 0.158541 0.017526
O O12 0.973682 0.250000 0.000412
O O13 0.988807 0.145768 0.142533
O O14 0.250000 0.405542 0.215344
#
# Coordination Sequence:
#
# PCOD9452844 Si02
#       5
#     8   8   8   8   8
#     4  12  24  41  65  93 127 168 212 260 316 375
#     4  10  22  40  64  95 130 169 212 260 316 377
#     4  11  22  40  67  96 129 168 212 263 317 379
#     4  11  25  44  65  92 129 170 214 265 320 379
#     4  12  25  42  67  95 126 167 215 266 319 379
#
# _framework density 19.765642
#
# number of rings (size 3 to 8) (size 9 to 14) (size 15 to 20)
#    0.000    0.800    2.000    6.000    0.000    4.400 
#    0.000    0.000    0.000    0.000    0.000    0.000 
#    0.000    0.000    0.000    0.000    0.000    0.000 
#
# Total GULP energy -223938.936458 kJ/mol
# GULP energy per Si atom -5598.473411 kJ/mol
# Density = 1.972065 g / cm^3
# Si number density = 19.765642 Si / 1000 Ang^3
#
#
#
# Elastic Constant Matrix: (Units=GPa)
#
#
# Indices 1 2 3 4 5 6 
#
# 1 42.5982 6.3279 1.9280 0.0000 0.0000 0.0000
# 2 6.3279 36.2913 -13.4805 0.0000 0.0000 0.0000
# 3 1.9280 -13.4805 86.3513 0.0000 0.0000 0.0000
# 4 0.0000 0.0000 0.0000 10.7097 0.0000 0.0000
# 5 0.0000 0.0000 0.0000 0.0000 36.0891 0.0000
# 6 0.0000 0.0000 0.0000 0.0000 0.0000 2.6270
#
#
#
# Elastic Compliance Matrix: (Units=1/GPa)
#
#
# Indices 1 2 3 4 5 6 
#
# 1 0.024231 -0.004698 -0.001274 0.000000 0.000000 0.000000
# 2 -0.004698 0.030162 0.004814 0.000000 0.000000 0.000000
# 3 -0.001274 0.004814 0.012361 0.000000 0.000000 0.000000
# 4 0.000000 0.000000 0.000000 0.093374 0.000000 0.000000
# 5 0.000000 0.000000 0.000000 0.000000 0.027709 0.000000
# 6 0.000000 0.000000 0.000000 0.000000 0.000000 0.380656
#
#
# Mechanical properties :
#
#
# Convention : Reuss Voigt Hill
#
# Bulk Modulus (GPa) = 15.51958 17.19907 16.35932
# Shear Modulus (GPa) = 8.44182 21.24952 14.84567
#
# Velocity S-wave (km/s) = 2.06887 3.28239 2.74357
# Velocity P-wave (km/s) = 3.68454 4.80477 4.28145
#
# Compressibility (1/GPa) = 0.06443473
#
# Stress axis : x y z
#
# Youngs Moduli (GPa) = 41.26983 33.15423 80.90271
#
# Poissons Ratio (x) = 0.15577 0.10311
# Poissons Ratio (y) = 0.19390 -0.38943
# Poissons Ratio (z) = 0.05260 -0.15959
#
# Static dielectric constant tensor:
#      x y z
#    x 1.661770 0.000000 0.000000 
#    y 0.000000 1.677420 0.000000 
#    z 0.000000 0.000000 1.673610 
# 
# From -- ./inp_files/13822.got.cif
#   From: 2010.05.17/outbox.cif.g08.bks.cpg/sg59_7_cif.got.tgz:13822.got - 2010.06.03 14:40:33.
