data_PCOD9452889
_publ_section_title
;
Structure prediction by ZEFSAII (Michael W. Deem and Ramdas Pophale) SiO2 
 PCOD9452889
Probable space group: P M M N
;
_chemical_formula_sum "Si O2"
_cell_formula_units_Z 34
_cell_length_a 26.899724
_cell_length_b 10.394450
_cell_length_c 5.151405
_cell_angle_alpha 90.000000
_cell_angle_beta 90.000000
_cell_angle_gamma 90.000000
_cell_volume 1440.373205
_symmetry_space_group_name_H-M "P M M N"
_symmetry_group_IT_number 59
_space_group.IT_coordinate_system_code '2'
_symmetry_cell_setting 'orthorhombic'
loop_
_space_group_symop_operation_xyz
x,y,z
1/2-x,1/2-y,z
1/2+x,-y,-z
-x,1/2+y,-z
-x,-y,-z
1/2+x,1/2+y,-z
1/2-x,y,z
x,1/2-y,z
loop_
_atom_site_type_symbol
_atom_site_label
_atom_site_fract_x
_atom_site_fract_y
_atom_site_fract_z
Si Si1 0.334792 0.040390 0.247014
Si Si2 0.428518 0.111989 0.532860
Si Si3 0.809102 0.107442 0.235771
Si Si4 0.250000 0.250000 0.135839
Si Si5 0.025306 0.896498 0.807723
O O1 0.388650 0.099240 0.303390
O O2 0.293795 0.139748 0.147382
O O3 0.317929 0.990279 0.529293
O O4 0.335516 0.930795 0.030885
O O5 0.418594 0.250000 0.670632
O O6 0.483459 0.120031 0.413748
O O7 0.428880 0.978945 0.692940
O O8 0.750000 0.108144 0.182078
O O9 0.824007 0.250000 0.321508
O O10 0.036042 0.750000 0.903548
O O11 0.000000 0.000000 0.000000
#
# Coordination Sequence:
#
# PCOD9452889 Si02
#       5
#     8   8   8   2   8
#     4  12  25  43  69 100 136 180 227 284 338 414
#     4  10  23  43  64  95 129 174 224 284 344 412
#     4  11  24  44  66  94 134 179 227 280 341 404
#     4  12  24  46  66 106 140 182 236 280 344 408
#     4  10  22  42  67  95 131 172 223 284 350 415
#
# _framework density 23.604991999999999
#
# number of rings (size 3 to 8) (size 9 to 14) (size 15 to 20)
#    0.000    1.176    3.529    1.412    3.294    6.588 
#    0.000    0.000    0.000    0.000    0.000    0.000 
#    0.000    0.000    0.000    0.000    0.000    0.000 
#
# Total GULP energy -189365.237968 kJ/mol
# GULP energy per Si atom -5569.565823 kJ/mol
# Density = 2.355127 g / cm^3
# Si number density = 23.604992 Si / 1000 Ang^3
#
#
#
# Elastic Constant Matrix: (Units=GPa)
#
#
# Indices 1 2 3 4 5 6 
#
# 1 72.8081 8.1327 -4.4056 0.0000 0.0000 0.0000
# 2 8.1327 163.5027 15.2098 0.0000 0.0000 0.0000
# 3 -4.4056 15.2098 57.3003 0.0000 0.0000 0.0000
# 4 0.0000 0.0000 0.0000 9.8875 0.0000 0.0000
# 5 0.0000 0.0000 0.0000 0.0000 22.7896 0.0000
# 6 0.0000 0.0000 0.0000 0.0000 0.0000 14.4885
#
#
#
# Elastic Compliance Matrix: (Units=1/GPa)
#
#
# Indices 1 2 3 4 5 6 
#
# 1 0.013903 -0.000811 0.001284 0.000000 0.000000 0.000000
# 2 -0.000811 0.006318 -0.001739 0.000000 0.000000 0.000000
# 3 0.001284 -0.001739 0.018012 0.000000 0.000000 0.000000
# 4 0.000000 0.000000 0.000000 0.101138 0.000000 0.000000
# 5 0.000000 0.000000 0.000000 0.000000 0.043880 0.000000
# 6 0.000000 0.000000 0.000000 0.000000 0.000000 0.069020
#
#
# Mechanical properties :
#
#
# Convention : Reuss Voigt Hill
#
# Bulk Modulus (GPa) = 28.01028 36.83164 32.42096
# Shear Modulus (GPa) = 18.74734 27.74473 23.24604
#
# Velocity S-wave (km/s) = 2.82123 3.43209 3.14155
# Velocity P-wave (km/s) = 4.74389 5.59847 5.18880
#
# Compressibility (1/GPa) = 0.03570118
#
# Stress axis : x y z
#
# Youngs Moduli (GPa) = 71.92670 158.27137 55.51733
#
# Poissons Ratio (x) = 0.12836 -0.07130
# Poissons Ratio (y) = 0.05833 0.09657
# Poissons Ratio (z) = -0.09237 0.27531
#
# Static dielectric constant tensor:
#      x y z
#    x 1.888440 0.000000 0.000000 
#    y 0.000000 2.025750 0.000000 
#    z 0.000000 0.000000 1.880220 
# 
# From -- ./inp_files/4438.got.cif
#   From: 2010.05.17/outbox.cif.g08.bks.cpg/sg59_3_cif.got.tgz:4438.got - 2010.06.03 14:40:33.
