data_PCOD9452998
_publ_section_title
;
Structure prediction by ZEFSAII (Michael W. Deem and Ramdas Pophale) SiO2 
 PCOD9452998
Probable space group: P M M N
;
_chemical_formula_sum "Si O2"
_cell_formula_units_Z 64
_cell_length_a 31.757937
_cell_length_b 8.451180
_cell_length_c 12.279268
_cell_angle_alpha 90.000000
_cell_angle_beta 90.000000
_cell_angle_gamma 90.000000
_cell_volume 3295.657813
_symmetry_space_group_name_H-M "P M M N"
_symmetry_group_IT_number 59
_space_group.IT_coordinate_system_code '2'
_symmetry_cell_setting 'orthorhombic'
loop_
_space_group_symop_operation_xyz
x,y,z
1/2-x,1/2-y,z
1/2+x,-y,-z
-x,1/2+y,-z
-x,-y,-z
1/2+x,1/2+y,-z
1/2-x,y,z
x,1/2-y,z
loop_
_atom_site_type_symbol
_atom_site_label
_atom_site_fract_x
_atom_site_fract_y
_atom_site_fract_z
Si Si1 0.296205 0.557017 0.012747
Si Si2 0.086905 0.060852 0.248095
Si Si3 0.546485 0.059459 0.972961
Si Si4 0.180898 0.562793 0.255087
Si Si5 0.123264 0.939157 0.622800
Si Si6 0.796475 0.561611 0.510067
Si Si7 0.453360 0.061300 0.478094
Si Si8 0.376490 0.942986 0.872570
O O1 0.250000 0.509291 0.971767
O O2 0.297669 0.750000 0.012923
O O3 0.301113 0.508162 0.138811
O O4 0.335618 0.502684 0.940718
O O5 0.094603 0.250000 0.249571
O O6 0.061474 0.017153 0.356609
O O7 0.061831 0.012914 0.140706
O O8 0.131194 0.970931 0.249862
O O9 0.546780 0.250000 0.965638
O O10 0.580857 0.012101 0.064406
O O11 0.500000 0.000000 0.000000
O O12 0.188956 0.750000 0.265413
O O13 0.198295 0.479716 0.362537
O O14 0.121908 0.750000 0.624498
O O15 0.124570 0.996869 0.747702
O O16 0.164770 0.989985 0.556681
O O17 0.081612 0.998492 0.561593
O O18 0.750000 0.505671 0.473994
O O19 0.798404 0.750000 0.497926
O O20 0.453561 0.250000 0.484838
O O21 0.500000 0.000000 0.500000
O O22 0.375367 0.750000 0.871903
#
# Coordination Sequence:
#
# PCOD9452998 Si02
#       8
#     8   8   8   8   8   8   8   8
#     4   9  17  32  57  89 121 152 190 241 299 352
#     4  11  23  40  63  91 124 162 200 248 307 363
#     4  11  23  41  63  91 124 159 203 250 305 363
#     4  11  20  35  62  93 123 157 201 253 302 361
#     4  11  23  40  64  90 120 160 208 255 302 363
#     4  11  24  41  60  86 125 166 202 251 312 367
#     4  11  25  43  64  90 124 161 203 253 308 364
#     4   9  20  38  58  86 122 156 194 249 302 348
#
# _framework density 19.41949
#
# number of rings (size 3 to 8) (size 9 to 14) (size 15 to 20)
#    0.000    1.500    2.500    2.625    1.750    3.500 
#    0.000    3.125    0.000    0.000    0.000    0.000 
#    0.000    0.000    0.000    0.000    0.000    0.000 
#
# Total GULP energy -357675.288029 kJ/mol
# GULP energy per Si atom -5588.676375 kJ/mol
# Density = 1.937529 g / cm^3
# Si number density = 19.419490 Si / 1000 Ang^3
#
#
#
# Elastic Constant Matrix: (Units=GPa)
#
#
# Indices 1 2 3 4 5 6 
#
# 1 183.6673 16.0968 82.7121 0.0000 0.0000 0.0000
# 2 16.0968 19.6968 17.8104 0.0000 0.0000 0.0000
# 3 82.7121 17.8104 152.6573 0.0000 0.0000 0.0000
# 4 0.0000 0.0000 0.0000 13.8982 0.0000 0.0000
# 5 0.0000 0.0000 0.0000 0.0000 35.0890 0.0000
# 6 0.0000 0.0000 0.0000 0.0000 0.0000 23.1344
#
#
#
# Elastic Compliance Matrix: (Units=1/GPa)
#
#
# Indices 1 2 3 4 5 6 
#
# 1 0.007326 -0.002681 -0.003657 0.000000 0.000000 0.000000
# 2 -0.002681 0.057738 -0.005284 0.000000 0.000000 0.000000
# 3 -0.003657 -0.005284 0.009148 0.000000 0.000000 0.000000
# 4 0.000000 0.000000 0.000000 0.071952 0.000000 0.000000
# 5 0.000000 0.000000 0.000000 0.000000 0.028499 0.000000
# 6 0.000000 0.000000 0.000000 0.000000 0.000000 0.043226
#
#
# Mechanical properties :
#
#
# Convention : Reuss Voigt Hill
#
# Bulk Modulus (GPa) = 19.61923 65.47332 42.54628
# Shear Modulus (GPa) = 19.37066 30.38446 24.87756
#
# Velocity S-wave (km/s) = 3.16173 3.95984 3.58307
# Velocity P-wave (km/s) = 4.84288 7.39565 6.25096
#
# Compressibility (1/GPa) = 0.05097039
#
# Stress axis : x y z
#
# Youngs Moduli (GPa) = 136.49370 17.31952 109.30911
#
# Poissons Ratio (x) = 0.04643 0.39972
# Poissons Ratio (y) = 0.36591 0.57757
# Poissons Ratio (z) = 0.49913 0.09151
#
# Static dielectric constant tensor:
#      x y z
#    x 1.500210 0.000000 0.000000 
#    y 0.000000 1.674020 0.000000 
#    z 0.000000 0.000000 1.671580 
# 
# From -- ./inp_files/19372.got.cif
#   From: 2010.05.17/outbox.cif.g08.bks.cpg/sg59_10_cif.got.tgz:19372.got - 2010.06.03 14:40:33.
