data_PCOD9452060
_publ_section_title
;
Structure prediction by ZEFSAII (Michael W. Deem and Ramdas Pophale) SiO2 
 PCOD9452060
Probable space group: P M M N
;
_chemical_formula_sum "Si O2"
_cell_formula_units_Z 64
_cell_length_a 15.267307
_cell_length_b 24.444225
_cell_length_c 9.395642
_cell_angle_alpha 90.000000
_cell_angle_beta 90.000000
_cell_angle_gamma 90.000000
_cell_volume 3506.429987
_symmetry_space_group_name_H-M "P M M N"
_symmetry_group_IT_number 59
_space_group.IT_coordinate_system_code '2'
_symmetry_cell_setting 'orthorhombic'
loop_
_space_group_symop_operation_xyz
x,y,z
1/2-x,1/2-y,z
1/2+x,-y,-z
-x,1/2+y,-z
-x,-y,-z
1/2+x,1/2+y,-z
1/2-x,y,z
x,1/2-y,z
loop_
_atom_site_type_symbol
_atom_site_label
_atom_site_fract_x
_atom_site_fract_y
_atom_site_fract_z
Si Si1 0.846945 0.082842 0.060910
Si Si2 0.024331 0.598859 0.188775
Si Si3 0.648519 0.547983 0.066484
Si Si4 0.408178 0.900965 0.643655
Si Si5 0.346953 0.188797 0.402394
Si Si6 0.151103 0.971250 0.388338
Si Si7 0.976113 0.186452 0.573594
Si Si8 0.894417 0.580585 0.742305
O O1 0.750000 0.090994 0.998184
O O2 0.851689 0.108977 0.216727
O O3 0.859975 0.017554 0.080575
O O4 0.922990 0.103773 0.958287
O O5 0.079546 0.555238 0.282811
O O6 0.027109 0.654567 0.278009
O O7 0.926391 0.577361 0.159139
O O8 0.750000 0.562378 0.098880
O O9 0.628101 0.562211 0.901538
O O10 0.371349 0.949583 0.545181
O O11 0.420265 0.848854 0.540353
O O12 0.502894 0.917347 0.706236
O O13 0.250000 0.184451 0.466240
O O14 0.355485 0.250000 0.339979
O O15 0.424397 0.182874 0.515627
O O16 0.358341 0.140813 0.288884
O O17 0.250000 0.953536 0.351859
O O18 0.145205 0.036021 0.365834
O O19 0.950943 0.250000 0.581034
#
# Coordination Sequence:
#
# PCOD9452060 Si02
#       8
#     8   8   8   8   8   8   8   8
#     4  11  21  36  58  85 119 155 187 231 287 347
#     4  11  21  37  58  82 116 153 194 232 287 349
#     4  11  22  35  55  85 124 160 191 227 281 349
#     4  10  21  36  58  84 115 146 189 239 290 345
#     4   9  18  33  54  79 108 144 191 240 283 336
#     4  11  21  34  55  85 117 152 188 231 287 350
#     4   9  21  40  60  80 107 149 193 240 298 343
#     4  11  19  34  54  81 117 157 191 231 285 342
#
# _framework density 18.252182999999999
#
# number of rings (size 3 to 8) (size 9 to 14) (size 15 to 20)
#    0.000    1.625    2.500    3.375    0.000    2.500 
#    0.000    2.500    0.000   15.000    0.000    0.000 
#    0.000    0.000    0.000    0.000    0.000    0.000 
#
# Total GULP energy -357191.611918 kJ/mol
# GULP energy per Si atom -5581.118936 kJ/mol
# Density = 1.821064 g / cm^3
# Si number density = 18.252183 Si / 1000 Ang^3
#
#
#
# Elastic Constant Matrix: (Units=GPa)
#
#
# Indices 1 2 3 4 5 6 
#
# 1 107.7260 37.6356 36.7780 0.0000 0.0000 0.0000
# 2 37.6356 103.5204 41.4029 0.0000 0.0000 0.0000
# 3 36.7780 41.4029 86.3466 0.0000 0.0000 0.0000
# 4 0.0000 0.0000 0.0000 20.1407 0.0000 0.0000
# 5 0.0000 0.0000 0.0000 0.0000 12.9759 0.0000
# 6 0.0000 0.0000 0.0000 0.0000 0.0000 9.1621
#
#
#
# Elastic Compliance Matrix: (Units=1/GPa)
#
#
# Indices 1 2 3 4 5 6 
#
# 1 0.011457 -0.002739 -0.003567 0.000000 0.000000 0.000000
# 2 -0.002739 0.012607 -0.004878 0.000000 0.000000 0.000000
# 3 -0.003567 -0.004878 0.015440 0.000000 0.000000 0.000000
# 4 0.000000 0.000000 0.000000 0.049651 0.000000 0.000000
# 5 0.000000 0.000000 0.000000 0.000000 0.077066 0.000000
# 6 0.000000 0.000000 0.000000 0.000000 0.000000 0.109145
#
#
# Mechanical properties :
#
#
# Convention : Reuss Voigt Hill
#
# Bulk Modulus (GPa) = 58.35759 58.80289 58.58024
# Shear Modulus (GPa) = 16.47743 20.57418 18.52581
#
# Velocity S-wave (km/s) = 3.00786 3.36105 3.18935
# Velocity P-wave (km/s) = 6.64119 6.88106 6.76219
#
# Compressibility (1/GPa) = 0.01713573
#
# Stress axis : x y z
#
# Youngs Moduli (GPa) = 87.27989 79.32264 64.76855
#
# Poissons Ratio (x) = 0.21725 0.23102
# Poissons Ratio (y) = 0.23905 0.31596
# Poissons Ratio (z) = 0.31131 0.38696
#
# Static dielectric constant tensor:
#      x y z
#    x 1.661620 0.000000 0.000000 
#    y 0.000000 1.610780 0.000000 
#    z 0.000000 0.000000 1.624050 
# 
# From -- ./inp_files/9559.got.cif
#   From: 2010.05.17/outbox.cif.g08.bks.cpg/sg59_5_cif.got.tgz:9559.got - 2010.06.03 14:40:33.
