data_PCOD9452232
_publ_section_title
;
Structure prediction by ZEFSAII (Michael W. Deem and Ramdas Pophale) SiO2 
 PCOD9452232
Probable space group: P M M N
;
_chemical_formula_sum "Si O2"
_cell_formula_units_Z 56
_cell_length_a 15.409687
_cell_length_b 8.572878
_cell_length_c 22.389357
_cell_angle_alpha 90.000000
_cell_angle_beta 90.000000
_cell_angle_gamma 90.000000
_cell_volume 2957.754216
_symmetry_space_group_name_H-M "P M M N"
_symmetry_group_IT_number 59
_space_group.IT_coordinate_system_code '2'
_symmetry_cell_setting 'orthorhombic'
loop_
_space_group_symop_operation_xyz
x,y,z
1/2-x,1/2-y,z
1/2+x,-y,-z
-x,1/2+y,-z
-x,-y,-z
1/2+x,1/2+y,-z
1/2-x,y,z
x,1/2-y,z
loop_
_atom_site_type_symbol
_atom_site_label
_atom_site_fract_x
_atom_site_fract_y
_atom_site_fract_z
Si Si1 0.845120 0.935671 0.611964
Si Si2 0.555099 0.437738 0.056593
Si Si3 0.595937 0.063903 0.489278
Si Si4 0.067339 0.935832 0.160342
Si Si5 0.984192 0.560534 0.710668
Si Si6 0.846196 0.440228 0.357755
Si Si7 0.750000 0.061286 0.022692
Si Si8 0.750000 0.563633 0.887566
O O1 0.750000 0.963994 0.638228
O O2 0.856194 0.750000 0.603294
O O3 0.918789 0.987492 0.657661
O O4 0.851416 0.012258 0.547249
O O5 0.552123 0.250000 0.055747
O O6 0.505029 0.498698 0.114795
O O7 0.657231 0.484568 0.052176
O O8 0.500000 0.500000 0.000000
O O9 0.593378 0.250000 0.486697
O O10 0.631663 0.008311 0.425361
O O11 0.500000 0.000000 0.500000
O O12 0.069806 0.750000 0.155218
O O13 0.043069 0.988039 0.226947
O O14 0.161964 0.001714 0.142754
O O15 0.980667 0.750000 0.715452
O O16 0.079491 0.513168 0.688288
O O17 0.750000 0.492085 0.341281
O O18 0.846858 0.250000 0.358890
O O19 0.750000 0.250000 0.019578
O O20 0.750000 0.994263 0.955886
O O21 0.750000 0.750000 0.885662
#
# Coordination Sequence:
#
# PCOD9452232 Si02
#       8
#     8   8   8   8   8   8   4   4
#     4  10  21  37  57  85 118 152 191 241 301 363
#     4  11  22  40  66  96 128 166 206 254 307 359
#     4  11  20  34  57  85 117 152 195 245 303 362
#     4  12  26  43  62  91 130 166 206 256 307 367
#     4  10  21  40  61  83 115 158 206 249 299 364
#     4   9  18  35  60  85 110 148 200 254 304 361
#     4  10  22  40  66  98 132 162 205 258 305 358
#     4  12  24  40  68  98 126 164 207 246 303 370
#
# _framework density 18.933284
#
# number of rings (size 3 to 8) (size 9 to 14) (size 15 to 20)
#    0.000    1.429    2.857    3.214    1.000    2.000 
#    1.286    0.000    0.000    1.714    0.000    0.000 
#    0.000    0.000    0.000    0.000    0.000    0.000 
#
# Total GULP energy -312826.235123 kJ/mol
# GULP energy per Si atom -5586.182770 kJ/mol
# Density = 1.889019 g / cm^3
# Si number density = 18.933284 Si / 1000 Ang^3
#
#
#
# Elastic Constant Matrix: (Units=GPa)
#
#
# Indices 1 2 3 4 5 6 
#
# 1 192.4624 48.7314 80.4187 0.0000 0.0000 0.0000
# 2 48.7314 38.1527 29.6878 0.0000 0.0000 0.0000
# 3 80.4187 29.6878 119.2867 0.0000 0.0000 0.0000
# 4 0.0000 0.0000 0.0000 32.8641 0.0000 0.0000
# 5 0.0000 0.0000 0.0000 0.0000 6.1971 0.0000
# 6 0.0000 0.0000 0.0000 0.0000 0.0000 22.6205
#
#
#
# Elastic Compliance Matrix: (Units=1/GPa)
#
#
# Indices 1 2 3 4 5 6 
#
# 1 0.008973 -0.008376 -0.003965 0.000000 0.000000 0.000000
# 2 -0.008376 0.040324 -0.004389 0.000000 0.000000 0.000000
# 3 -0.003965 -0.004389 0.012148 0.000000 0.000000 0.000000
# 4 0.000000 0.000000 0.000000 0.030428 0.000000 0.000000
# 5 0.000000 0.000000 0.000000 0.000000 0.161366 0.000000
# 6 0.000000 0.000000 0.000000 0.000000 0.000000 0.044208
#
#
# Mechanical properties :
#
#
# Convention : Reuss Voigt Hill
#
# Bulk Modulus (GPa) = 35.73190 74.17529 54.95359
# Shear Modulus (GPa) = 14.69564 25.07392 19.88478
#
# Velocity S-wave (km/s) = 2.78902 3.64308 3.24428
# Velocity P-wave (km/s) = 5.41157 7.54707 6.56671
#
# Compressibility (1/GPa) = 0.02798620
#
# Stress axis : x y z
#
# Youngs Moduli (GPa) = 111.44091 24.79888 82.31527
#
# Poissons Ratio (x) = 0.20772 0.32637
# Poissons Ratio (y) = 0.93346 0.36127
# Poissons Ratio (z) = 0.44185 0.10884
#
# Static dielectric constant tensor:
#      x y z
#    x 1.752240 0.000000 0.000000 
#    y 0.000000 1.647720 0.000000 
#    z 0.000000 0.000000 1.623970 
# 
# From -- ./inp_files/30478.got.cif
#   From: 2010.05.17/outbox.cif.g08.bks.cpg/sg59_16_cif.got.tgz:30478.got - 2010.06.03 14:40:33.
