data_PCOD9452564
_publ_section_title
;
Structure prediction by ZEFSAII (Michael W. Deem and Ramdas Pophale) SiO2 
 PCOD9452564
Probable space group: P M M N
;
_chemical_formula_sum "Si O2"
_cell_formula_units_Z 48
_cell_length_a 14.755574
_cell_length_b 16.292213
_cell_length_c 9.897628
_cell_angle_alpha 90.000000
_cell_angle_beta 90.000000
_cell_angle_gamma 90.000000
_cell_volume 2379.399219
_symmetry_space_group_name_H-M "P M M N"
_symmetry_group_IT_number 59
_space_group.IT_coordinate_system_code '2'
_symmetry_cell_setting 'orthorhombic'
loop_
_space_group_symop_operation_xyz
x,y,z
1/2-x,1/2-y,z
1/2+x,-y,-z
-x,1/2+y,-z
-x,-y,-z
1/2+x,1/2+y,-z
1/2-x,y,z
x,1/2-y,z
loop_
_atom_site_type_symbol
_atom_site_label
_atom_site_fract_x
_atom_site_fract_y
_atom_site_fract_z
Si Si1 0.250000 0.842719 0.511736
Si Si2 0.572054 0.591569 0.389801
Si Si3 0.554545 0.429047 0.079607
Si Si4 0.063953 0.901583 0.616034
Si Si5 0.250000 0.154409 0.755082
Si Si6 0.057274 0.841368 0.175991
Si Si7 0.750000 0.417388 0.767092
Si Si8 0.250000 0.006530 0.965418
O O1 0.250000 0.750000 0.452218
O O2 0.157511 0.853010 0.595850
O O3 0.250000 0.913424 0.395665
O O4 0.515036 0.627404 0.514935
O O5 0.588206 0.496108 0.421190
O O6 0.662672 0.634166 0.337287
O O7 0.503908 0.597976 0.263088
O O8 0.529560 0.406156 0.231034
O O9 0.500000 0.500000 0.000000
O O10 0.540585 0.351876 0.981959
O O11 0.659049 0.459646 0.081647
O O12 0.250000 0.250000 0.794203
O O13 0.250000 0.093660 0.886384
O O14 0.038945 0.750000 0.224127
O O15 0.160374 0.867165 0.196759
O O16 0.750000 0.496296 0.869166
#
# Coordination Sequence:
#
# PCOD9452564 Si02
#       8
#     4   8   8   8   4   8   4   4
#     4  12  24  40  67 100 140 173 209 273 346 403
#     4  11  23  39  64  93 125 172 220 269 321 394
#     4  11  21  40  63  92 131 167 216 269 319 390
#     4  11  23  40  65  95 131 168 218 268 328 401
#     4  12  23  41  64  93 129 174 230 282 325 381
#     4  11  21  38  62  94 128 168 211 260 328 389
#     4  10  22  37  64  95 134 170 202 266 320 400
#     4  10  21  38  63  94 129 167 221 269 317 396
#
# _framework density 20.173158999999998
#
# number of rings (size 3 to 8) (size 9 to 14) (size 15 to 20)
#    0.000    1.000    5.000    2.250    0.000    1.333 
#    0.000    0.833    0.000    0.000    0.000    8.167 
#    0.000    0.000    0.000    0.000    0.000    0.000 
#
# Total GULP energy -267764.543379 kJ/mol
# GULP energy per Si atom -5578.427987 kJ/mol
# Density = 2.012724 g / cm^3
# Si number density = 20.173159 Si / 1000 Ang^3
#
#
#
# Elastic Constant Matrix: (Units=GPa)
#
#
# Indices 1 2 3 4 5 6 
#
# 1 96.5318 28.1369 46.8761 0.0000 0.0000 0.0000
# 2 28.1369 79.7226 19.0987 0.0000 0.0000 0.0000
# 3 46.8761 19.0987 154.0463 0.0000 0.0000 0.0000
# 4 0.0000 0.0000 0.0000 22.3461 0.0000 0.0000
# 5 0.0000 0.0000 0.0000 0.0000 22.5189 0.0000
# 6 0.0000 0.0000 0.0000 0.0000 0.0000 13.2037
#
#
#
# Elastic Compliance Matrix: (Units=1/GPa)
#
#
# Indices 1 2 3 4 5 6 
#
# 1 0.013188 -0.003806 -0.003541 0.000000 0.000000 0.000000
# 2 -0.003806 0.014026 -0.000581 0.000000 0.000000 0.000000
# 3 -0.003541 -0.000581 0.007641 0.000000 0.000000 0.000000
# 4 0.000000 0.000000 0.000000 0.044751 0.000000 0.000000
# 5 0.000000 0.000000 0.000000 0.000000 0.044407 0.000000
# 6 0.000000 0.000000 0.000000 0.000000 0.000000 0.075737
#
#
# Mechanical properties :
#
#
# Convention : Reuss Voigt Hill
#
# Bulk Modulus (GPa) = 52.63444 57.61379 55.12412
# Shear Modulus (GPa) = 22.52868 27.35967 24.94418
#
# Velocity S-wave (km/s) = 3.34543 3.68671 3.52021
# Velocity P-wave (km/s) = 6.40863 6.83697 6.62626
#
# Compressibility (1/GPa) = 0.01899897
#
# Stress axis : x y z
#
# Youngs Moduli (GPa) = 75.82423 71.29634 130.87010
#
# Poissons Ratio (x) = 0.27137 0.46345
# Poissons Ratio (y) = 0.28861 0.07600
# Poissons Ratio (z) = 0.26852 0.04140
#
# Static dielectric constant tensor:
#      x y z
#    x 1.705050 0.000000 0.000000 
#    y 0.000000 1.717070 0.000000 
#    z 0.000000 0.000000 1.750470 
# 
# From -- ./inp_files/9090.got.cif
#   From: 2010.05.17/outbox.cif.g08.bks.cpg/sg59_5_cif.got.tgz:9090.got - 2010.06.03 14:40:33.
