data_PCOD9452196
_publ_section_title
;
Structure prediction by ZEFSAII (Michael W. Deem and Ramdas Pophale) SiO2 
 PCOD9452196
Probable space group: P M M N
;
_chemical_formula_sum "Si O2"
_cell_formula_units_Z 64
_cell_length_a 28.708114
_cell_length_b 8.787854
_cell_length_c 12.629391
_cell_angle_alpha 90.000000
_cell_angle_beta 90.000000
_cell_angle_gamma 90.000000
_cell_volume 3186.177043
_symmetry_space_group_name_H-M "P M M N"
_symmetry_group_IT_number 59
_space_group.IT_coordinate_system_code '2'
_symmetry_cell_setting 'orthorhombic'
loop_
_space_group_symop_operation_xyz
x,y,z
1/2-x,1/2-y,z
1/2+x,-y,-z
-x,1/2+y,-z
-x,-y,-z
1/2+x,1/2+y,-z
1/2-x,y,z
x,1/2-y,z
loop_
_atom_site_type_symbol
_atom_site_label
_atom_site_fract_x
_atom_site_fract_y
_atom_site_fract_z
Si Si1 0.332711 0.927105 0.469177
Si Si2 0.804475 0.069993 0.966342
Si Si3 0.199066 0.933275 0.695913
Si Si4 0.520403 0.566347 0.108984
Si Si5 0.572632 0.574821 0.485911
Si Si6 0.001697 0.927810 0.673096
Si Si7 0.194063 0.078650 0.251776
Si Si8 0.871283 0.568865 0.141409
O O1 0.323693 0.750000 0.447670
O O2 0.303361 0.973511 0.572080
O O3 0.385443 0.958498 0.503096
O O4 0.323531 0.021307 0.364016
O O5 0.750000 0.024420 0.981186
O O6 0.807335 0.250000 0.985417
O O7 0.817956 0.029709 0.846033
O O8 0.839163 0.984762 0.044283
O O9 0.250000 0.980064 0.739504
O O10 0.196304 0.750000 0.703737
O O11 0.155270 0.001554 0.756983
O O12 0.517247 0.750000 0.108220
O O13 0.494111 0.497606 0.211200
O O14 0.574991 0.521920 0.124752
O O15 0.500000 0.500000 0.000000
O O16 0.588437 0.750000 0.473127
O O17 0.541996 0.565811 0.593072
O O18 0.540982 0.525746 0.387067
O O19 0.015244 0.750000 0.681751
O O20 0.250000 0.080607 0.257750
O O21 0.177471 0.250000 0.229800
O O22 0.870984 0.750000 0.149454
#
# Coordination Sequence:
#
# PCOD9452196 Si02
#       8
#     8   8   8   8   8   8   8   8
#     4  11  22  36  57  85 118 156 197 239 285 340
#     4  10  21  38  61  87 115 151 196 242 289 348
#     4  10  22  39  59  86 121 160 200 241 286 342
#     4  11  25  43  63  87 117 154 196 246 302 360
#     4  10  21  37  59  87 118 151 190 239 289 341
#     4  10  21  39  62  86 114 149 190 236 289 348
#     4  10  21  37  57  81 112 150 189 233 286 339
#     4  11  24  40  60  88 119 151 192 243 298 354
#
# _framework density 20.086767999999999
#
# number of rings (size 3 to 8) (size 9 to 14) (size 15 to 20)
#    0.000    1.625    0.000    4.125    0.000   11.250 
#    0.000    1.250    0.000    0.000    0.000    0.000 
#    0.000    0.000    0.000    0.000    0.000    0.000 
#
# Total GULP energy -357660.180222 kJ/mol
# GULP energy per Si atom -5588.440316 kJ/mol
# Density = 2.004105 g / cm^3
# Si number density = 20.086768 Si / 1000 Ang^3
#
#
#
# Elastic Constant Matrix: (Units=GPa)
#
#
# Indices 1 2 3 4 5 6 
#
# 1 44.6658 11.1784 10.9873 0.0000 0.0000 0.0000
# 2 11.1784 35.2317 14.6440 0.0000 0.0000 0.0000
# 3 10.9873 14.6440 103.5090 0.0000 0.0000 0.0000
# 4 0.0000 0.0000 0.0000 38.1666 0.0000 0.0000
# 5 0.0000 0.0000 0.0000 0.0000 -21.0592 0.0000
# 6 0.0000 0.0000 0.0000 0.0000 0.0000 27.9275
#
#
#
# Elastic Compliance Matrix: (Units=1/GPa)
#
#
# Indices 1 2 3 4 5 6 
#
# 1 0.024566 -0.007130 -0.001599 0.000000 0.000000 0.000000
# 2 -0.007130 0.032226 -0.003802 0.000000 0.000000 0.000000
# 3 -0.001599 -0.003802 0.010369 0.000000 0.000000 0.000000
# 4 0.000000 0.000000 0.000000 0.026201 0.000000 0.000000
# 5 0.000000 0.000000 0.000000 0.000000 -0.047485 0.000000
# 6 0.000000 0.000000 0.000000 0.000000 0.000000 0.035807
#
#
# Mechanical properties :
#
#
# Convention : Reuss Voigt Hill
#
# Bulk Modulus (GPa) = 23.75373 28.55843 26.15608
# Shear Modulus (GPa) = 41.39794 18.78010 30.08902
#
# Velocity S-wave (km/s) = 4.54470 3.06101 3.87454
# Velocity P-wave (km/s) = 6.27617 5.17121 5.75029
#
# Compressibility (1/GPa) = 0.04209865
#
# Stress axis : x y z
#
# Youngs Moduli (GPa) = 40.70636 31.03068 96.44443
#
# Poissons Ratio (x) = 0.22124 0.15421
# Poissons Ratio (y) = 0.29023 0.36672
# Poissons Ratio (z) = 0.06509 0.11799
#
# Static dielectric constant tensor:
#      x y z
#    x 1.732570 0.000000 0.000000 
#    y 0.000000 1.675980 0.000000 
#    z 0.000000 0.000000 1.707830 
# 
# From -- ./inp_files/19361.got.cif
#   From: 2010.05.17/outbox.cif.g08.bks.cpg/sg59_10_cif.got.tgz:19361.got - 2010.06.03 14:40:33.
