data_PCOD9452965
_publ_section_title
;
Structure prediction by ZEFSAII (Michael W. Deem and Ramdas Pophale) SiO2 
 PCOD9452965
Probable space group: P M M N
;
_chemical_formula_sum "Si O2"
_cell_formula_units_Z 48
_cell_length_a 10.543070
_cell_length_b 27.328749
_cell_length_c 9.205292
_cell_angle_alpha 90.000000
_cell_angle_beta 90.000000
_cell_angle_gamma 90.000000
_cell_volume 2652.310784
_symmetry_space_group_name_H-M "P M M N"
_symmetry_group_IT_number 59
_space_group.IT_coordinate_system_code '2'
_symmetry_cell_setting 'orthorhombic'
loop_
_space_group_symop_operation_xyz
x,y,z
1/2-x,1/2-y,z
1/2+x,-y,-z
-x,1/2+y,-z
-x,-y,-z
1/2+x,1/2+y,-z
1/2-x,y,z
x,1/2-y,z
loop_
_atom_site_type_symbol
_atom_site_label
_atom_site_fract_x
_atom_site_fract_y
_atom_site_fract_z
Si Si1 0.993482 0.092418 0.050418
Si Si2 0.250000 0.966682 0.837995
Si Si3 0.897881 0.304533 0.694534
Si Si4 0.750000 0.961188 0.918071
Si Si5 0.250000 0.036994 0.593550
Si Si6 0.750000 0.029711 0.662411
Si Si7 0.897657 0.196082 0.047331
Si Si8 0.502243 0.408471 0.696736
O O1 0.874424 0.062620 0.113674
O O2 0.976621 0.149056 0.093227
O O3 0.123096 0.069140 0.106376
O O4 0.994147 0.089300 0.873788
O O5 0.250000 0.983679 0.672282
O O6 0.250000 0.019214 0.917761
O O7 0.750000 0.311764 0.652768
O O8 0.937749 0.250000 0.645555
O O9 0.979415 0.351693 0.652120
O O10 0.899297 0.303682 0.871037
O O11 0.750000 0.011049 0.827669
O O12 0.374857 0.066996 0.637697
O O13 0.250000 0.020567 0.427101
O O14 0.876054 0.061418 0.640868
O O15 0.750000 0.189505 0.089401
O O16 0.939963 0.250000 0.096419
#
# Coordination Sequence:
#
# PCOD9452965 Si02
#       8
#     8   4   8   4   4   4   8   8
#     4  11  19  32  55  81 102 137 176 216 261 304
#     4  12  20  36  53  75 101 141 178 212 246 305
#     4   8  14  26  49  78 103 130 168 209 255 311
#     4  12  22  34  53  77 105 135 178 216 252 307
#     4  12  26  36  49  77 111 141 176 220 260 304
#     4  12  24  38  53  73 103 151 180 208 258 316
#     4   8  14  26  46  76 108 132 160 206 263 314
#     4  11  19  35  54  77 108 139 171 215 265 305
#
# _framework density 18.097425999999999
#
# number of rings (size 3 to 8) (size 9 to 14) (size 15 to 20)
#    0.000    1.667    5.000    3.000    0.000    0.000 
#    0.000    0.833    0.000    4.000    0.000    7.000 
#    0.000    0.000    0.000    0.000    0.000    0.000 
#
# Total GULP energy -267650.533667 kJ/mol
# GULP energy per Si atom -5576.052785 kJ/mol
# Density = 1.805624 g / cm^3
# Si number density = 18.097426 Si / 1000 Ang^3
#
#
#
# Elastic Constant Matrix: (Units=GPa)
#
#
# Indices 1 2 3 4 5 6 
#
# 1 141.8286 78.5620 5.6115 0.0000 0.0000 0.0000
# 2 78.5620 142.7561 -0.6675 0.0000 0.0000 0.0000
# 3 5.6115 -0.6675 8.1808 0.0000 0.0000 0.0000
# 4 0.0000 0.0000 0.0000 14.2949 0.0000 0.0000
# 5 0.0000 0.0000 0.0000 0.0000 2.9695 0.0000
# 6 0.0000 0.0000 0.0000 0.0000 0.0000 1.1090
#
#
#
# Elastic Compliance Matrix: (Units=1/GPa)
#
#
# Indices 1 2 3 4 5 6 
#
# 1 0.010613 -0.005877 -0.007759 0.000000 0.000000 0.000000
# 2 -0.005877 0.010262 0.004868 0.000000 0.000000 0.000000
# 3 -0.007759 0.004868 0.127957 0.000000 0.000000 0.000000
# 4 0.000000 0.000000 0.000000 0.069955 0.000000 0.000000
# 5 0.000000 0.000000 0.000000 0.000000 0.336755 0.000000
# 6 0.000000 0.000000 0.000000 0.000000 0.000000 0.901750
#
#
# Mechanical properties :
#
#
# Convention : Reuss Voigt Hill
#
# Bulk Modulus (GPa) = 7.61634 51.08639 29.35137
# Shear Modulus (GPa) = 3.29252 17.62530 10.45891
#
# Velocity S-wave (km/s) = 1.35029 3.12414 2.40661
# Velocity P-wave (km/s) = 2.57851 6.42678 4.89654
#
# Compressibility (1/GPa) = 0.13129660
#
# Stress axis : x y z
#
# Youngs Moduli (GPa) = 94.22286 97.44751 7.81511
#
# Poissons Ratio (x) = 0.57269 0.06064
# Poissons Ratio (y) = 0.55374 -0.03805
# Poissons Ratio (z) = 0.73112 -0.47442
#
# Static dielectric constant tensor:
#      x y z
#    x 1.592750 0.000000 0.000000 
#    y 0.000000 1.633300 0.000000 
#    z 0.000000 0.000000 1.605420 
# 
# From -- ./inp_files/6473.got.cif
#   From: 2010.05.17/outbox.cif.g08.bks.cpg/sg59_4_cif.got.tgz:6473.got - 2010.06.03 14:40:33.
