data_PCOD9452522
_publ_section_title
;
Structure prediction by ZEFSAII (Michael W. Deem and Ramdas Pophale) SiO2 
 PCOD9452522
Probable space group: P M M N
;
_chemical_formula_sum "Si O2"
_cell_formula_units_Z 56
_cell_length_a 21.323660
_cell_length_b 14.158668
_cell_length_c 10.206924
_cell_angle_alpha 90.000000
_cell_angle_beta 90.000000
_cell_angle_gamma 90.000000
_cell_volume 3081.619606
_symmetry_space_group_name_H-M "P M M N"
_symmetry_group_IT_number 59
_space_group.IT_coordinate_system_code '2'
_symmetry_cell_setting 'orthorhombic'
loop_
_space_group_symop_operation_xyz
x,y,z
1/2-x,1/2-y,z
1/2+x,-y,-z
-x,1/2+y,-z
-x,-y,-z
1/2+x,1/2+y,-z
1/2-x,y,z
x,1/2-y,z
loop_
_atom_site_type_symbol
_atom_site_label
_atom_site_fract_x
_atom_site_fract_y
_atom_site_fract_z
Si Si1 0.325723 0.250000 0.599699
Si Si2 0.674134 0.540329 0.010705
Si Si3 0.617528 0.010801 0.733658
Si Si4 0.408437 0.517369 0.747384
Si Si5 0.177911 0.043828 0.520268
Si Si6 0.514045 0.639924 0.649871
Si Si7 0.994124 0.361514 0.661544
Si Si8 0.325529 0.250000 0.903498
O O1 0.250000 0.250000 0.599350
O O2 0.344816 0.346679 0.529465
O O3 0.346710 0.250000 0.751249
O O4 0.750000 0.530939 0.022361
O O5 0.636036 0.490513 0.127579
O O6 0.657885 0.652283 0.025753
O O7 0.648506 0.500405 0.874470
O O8 0.573797 0.102015 0.709779
O O9 0.669652 0.999220 0.622126
O O10 0.570127 0.924321 0.702807
O O11 0.364148 0.512651 0.621209
O O12 0.453319 0.607067 0.732029
O O13 0.454672 0.426374 0.735141
O O14 0.250000 0.043154 0.562467
O O15 0.526765 0.750000 0.663557
O O16 0.501283 0.619575 0.495151
O O17 0.002484 0.250000 0.682355
O O18 0.250000 0.250000 0.896262
#
# Coordination Sequence:
#
# PCOD9452522 Si02
#       8
#     4   8   8   8   8   8   8   4
#     4   9  18  29  49  83 111 147 195 227 266 337
#     4  11  24  38  57  85 126 160 186 234 290 351
#     4  11  22  39  57  87 119 155 191 236 298 345
#     4  11  20  37  60  87 114 155 196 233 287 346
#     4  11  20  32  56  84 114 149 194 239 282 344
#     4  10  21  38  61  89 118 149 192 253 296 328
#     4  10  21  38  63  89 113 148 197 252 293 332
#     4   9  18  33  49  77 117 155 183 217 278 345
#
# _framework density 18.172262
#
# number of rings (size 3 to 8) (size 9 to 14) (size 15 to 20)
#    0.000    1.571    4.286    1.714    4.000    2.286 
#    0.000    4.286    0.000    5.143    0.000    0.000 
#    0.000    0.000    0.000    0.000    0.000    0.000 
#
# Total GULP energy -312591.214639 kJ/mol
# GULP energy per Si atom -5581.985976 kJ/mol
# Density = 1.813090 g / cm^3
# Si number density = 18.172262 Si / 1000 Ang^3
#
#
#
# Elastic Constant Matrix: (Units=GPa)
#
#
# Indices 1 2 3 4 5 6 
#
# 1 61.0834 10.3089 7.6934 0.0000 0.0000 0.0000
# 2 10.3089 50.6888 8.8934 0.0000 0.0000 0.0000
# 3 7.6934 8.8934 86.7593 0.0000 0.0000 0.0000
# 4 0.0000 0.0000 0.0000 11.9534 0.0000 0.0000
# 5 0.0000 0.0000 0.0000 0.0000 28.5069 0.0000
# 6 0.0000 0.0000 0.0000 0.0000 0.0000 20.0891
#
#
#
# Elastic Compliance Matrix: (Units=1/GPa)
#
#
# Indices 1 2 3 4 5 6 
#
# 1 0.017071 -0.003265 -0.001179 0.000000 0.000000 0.000000
# 2 -0.003265 0.020714 -0.001834 0.000000 0.000000 0.000000
# 3 -0.001179 -0.001834 0.011819 0.000000 0.000000 0.000000
# 4 0.000000 0.000000 0.000000 0.083658 0.000000 0.000000
# 5 0.000000 0.000000 0.000000 0.000000 0.035079 0.000000
# 6 0.000000 0.000000 0.000000 0.000000 0.000000 0.049778
#
#
# Mechanical properties :
#
#
# Convention : Reuss Voigt Hill
#
# Bulk Modulus (GPa) = 26.99225 28.03590 27.51407
# Shear Modulus (GPa) = 20.57414 23.55227 22.06320
#
# Velocity S-wave (km/s) = 3.36843 3.60398 3.48819
# Velocity P-wave (km/s) = 5.47852 5.72535 5.60329
#
# Compressibility (1/GPa) = 0.03704767
#
# Stress axis : x y z
#
# Youngs Moduli (GPa) = 58.58035 48.27658 84.61183
#
# Poissons Ratio (x) = 0.15762 0.09976
# Poissons Ratio (y) = 0.19126 0.15516
# Poissons Ratio (z) = 0.06907 0.08853
#
# Static dielectric constant tensor:
#      x y z
#    x 1.639760 0.000000 0.000000 
#    y 0.000000 1.620010 0.000000 
#    z 0.000000 0.000000 1.612920 
# 
# From -- ./inp_files/11464.got.cif
#   From: 2010.05.17/outbox.cif.g08.bks.cpg/sg59_6_cif.got.tgz:11464.got - 2010.06.03 14:40:33.
