data_PCOD9452539
_publ_section_title
;
Structure prediction by ZEFSAII (Michael W. Deem and Ramdas Pophale) SiO2 
 PCOD9452539
Probable space group: P M M N
;
_chemical_formula_sum "Si O2"
_cell_formula_units_Z 56
_cell_length_a 8.424373
_cell_length_b 22.366251
_cell_length_c 15.126868
_cell_angle_alpha 90.000000
_cell_angle_beta 90.000000
_cell_angle_gamma 90.000000
_cell_volume 2850.229292
_symmetry_space_group_name_H-M "P M M N"
_symmetry_group_IT_number 59
_space_group.IT_coordinate_system_code '2'
_symmetry_cell_setting 'orthorhombic'
loop_
_space_group_symop_operation_xyz
x,y,z
1/2-x,1/2-y,z
1/2+x,-y,-z
-x,1/2+y,-z
-x,-y,-z
1/2+x,1/2+y,-z
1/2-x,y,z
x,1/2-y,z
loop_
_atom_site_type_symbol
_atom_site_label
_atom_site_fract_x
_atom_site_fract_y
_atom_site_fract_z
Si Si1 0.939785 0.054389 0.284560
Si Si2 0.434416 0.250000 0.442272
Si Si3 0.942748 0.429145 0.644342
Si Si4 0.440944 0.819742 0.034592
Si Si5 0.066580 0.750000 0.751796
Si Si6 0.564356 0.862008 0.857118
Si Si7 0.940520 0.379556 0.461230
Si Si8 0.056765 0.682569 0.237153
O O1 0.750000 0.060017 0.277099
O O2 0.996548 0.096294 0.366374
O O3 0.018070 0.078281 0.195113
O O4 0.986125 0.987538 0.310750
O O5 0.250000 0.250000 0.462454
O O6 0.462710 0.250000 0.336466
O O7 0.510303 0.188717 0.476504
O O8 0.750000 0.433149 0.646897
O O9 0.993996 0.420775 0.542579
O O10 0.992253 0.369381 0.696730
O O11 0.250000 0.825144 0.029013
O O12 0.480588 0.750000 0.016037
O O13 0.489093 0.831533 0.135798
O O14 0.518764 0.860194 0.959879
O O15 0.250000 0.750000 0.723500
O O16 0.031097 0.691621 0.809630
O O17 0.750000 0.849941 0.846970
O O18 0.750000 0.381691 0.459462
O O19 0.250000 0.684063 0.238334
O O20 0.002590 0.750000 0.259280
#
# Coordination Sequence:
#
# PCOD9452539 Si02
#       8
#     8   4   8   8   4   8   8   8
#     4  11  23  39  57  80 117 161 196 234 289 351
#     4  12  24  36  56  87 120 153 192 243 286 330
#     4  10  21  38  62  87 112 149 201 247 283 337
#     4   9  17  32  56  84 116 151 185 230 291 351
#     4  12  22  36  56  81 118 155 188 231 290 348
#     4  12  23  35  56  87 118 150 192 237 282 338
#     4  10  22  38  59  84 116 157 195 237 292 346
#     4   8  16  33  59  89 115 144 189 241 292 342
#
# _framework density 19.647542999999999
#
# number of rings (size 3 to 8) (size 9 to 14) (size 15 to 20)
#    0.000    1.714    2.143    4.286    1.000    1.143 
#    0.000    1.429    0.000    0.857    0.000    0.000 
#    0.000    0.000    0.000    0.000    0.000    0.000 
#
# Total GULP energy -312884.164059 kJ/mol
# GULP energy per Si atom -5587.217215 kJ/mol
# Density = 1.960282 g / cm^3
# Si number density = 19.647543 Si / 1000 Ang^3
#
#
#
# Elastic Constant Matrix: (Units=GPa)
#
#
# Indices 1 2 3 4 5 6 
#
# 1 20.2561 4.4146 13.5659 0.0000 0.0000 0.0000
# 2 4.4146 74.7156 15.9986 0.0000 0.0000 0.0000
# 3 13.5659 15.9986 61.2031 0.0000 0.0000 0.0000
# 4 0.0000 0.0000 0.0000 22.1631 0.0000 0.0000
# 5 0.0000 0.0000 0.0000 0.0000 11.6864 0.0000
# 6 0.0000 0.0000 0.0000 0.0000 0.0000 24.6839
#
#
#
# Elastic Compliance Matrix: (Units=1/GPa)
#
#
# Indices 1 2 3 4 5 6 
#
# 1 0.058010 -0.000714 -0.012671 0.000000 0.000000 0.000000
# 2 -0.000714 0.014186 -0.003550 0.000000 0.000000 0.000000
# 3 -0.012671 -0.003550 0.020076 0.000000 0.000000 0.000000
# 4 0.000000 0.000000 0.000000 0.045120 0.000000 0.000000
# 5 0.000000 0.000000 0.000000 0.000000 0.085569 0.000000
# 6 0.000000 0.000000 0.000000 0.000000 0.000000 0.040512
#
#
# Mechanical properties :
#
#
# Convention : Reuss Voigt Hill
#
# Bulk Modulus (GPa) = 17.12312 24.90367 21.01339
# Shear Modulus (GPa) = 15.78223 19.85305 17.81764
#
# Velocity S-wave (km/s) = 2.83727 3.18222 3.01468
# Velocity P-wave (km/s) = 4.41220 5.11906 4.77872
#
# Compressibility (1/GPa) = 0.05840059
#
# Stress axis : x y z
#
# Youngs Moduli (GPa) = 17.23846 70.48978 49.81148
#
# Poissons Ratio (x) = 0.05035 0.63118
# Poissons Ratio (y) = 0.01231 0.17683
# Poissons Ratio (z) = 0.21844 0.25024
#
# Static dielectric constant tensor:
#      x y z
#    x 1.664230 0.000000 0.000000 
#    y 0.000000 1.675190 0.000000 
#    z 0.000000 0.000000 1.692990 
# 
# From -- ./inp_files/21140.got.cif
#   From: 2010.05.17/outbox.cif.g08.bks.cpg/sg59_11_cif.got.tgz:21140.got - 2010.06.03 14:40:33.
