data_PCOD9452720
_publ_section_title
;
Structure prediction by ZEFSAII (Michael W. Deem and Ramdas Pophale) SiO2 
 PCOD9452720
Probable space group: P M M N
;
_chemical_formula_sum "Si O2"
_cell_formula_units_Z 48
_cell_length_a 28.587793
_cell_length_b 7.916240
_cell_length_c 10.299975
_cell_angle_alpha 90.000000
_cell_angle_beta 90.000000
_cell_angle_gamma 90.000000
_cell_volume 2330.964996
_symmetry_space_group_name_H-M "P M M N"
_symmetry_group_IT_number 59
_space_group.IT_coordinate_system_code '2'
_symmetry_cell_setting 'orthorhombic'
loop_
_space_group_symop_operation_xyz
x,y,z
1/2-x,1/2-y,z
1/2+x,-y,-z
-x,1/2+y,-z
-x,-y,-z
1/2+x,1/2+y,-z
1/2-x,y,z
x,1/2-y,z
loop_
_atom_site_type_symbol
_atom_site_label
_atom_site_fract_x
_atom_site_fract_y
_atom_site_fract_z
Si Si1 0.546174 0.553903 0.718119
Si Si2 0.802323 0.043948 0.099001
Si Si3 0.393251 0.553512 0.050013
Si Si4 0.401621 0.452106 0.534639
Si Si5 0.554357 0.946800 0.198704
Si Si6 0.697943 0.046249 0.399278
O O1 0.533262 0.750000 0.700105
O O2 0.566529 0.483636 0.583124
O O3 0.500329 0.461589 0.770362
O O4 0.586217 0.540517 0.826475
O O5 0.750000 0.993980 0.058222
O O6 0.803905 0.250000 0.100253
O O7 0.844336 0.986654 0.007733
O O8 0.808814 0.990090 0.248998
O O9 0.387531 0.750000 0.085120
O O10 0.429834 0.539579 0.931163
O O11 0.407730 0.250000 0.536840
O O12 0.418764 0.516684 0.674595
O O13 0.346754 0.488644 0.520043
O O14 0.566663 0.750000 0.180980
O O15 0.750000 0.990271 0.440829
O O16 0.698065 0.250000 0.398994
#
# Coordination Sequence:
#
# PCOD9452720 Si02
#       6
#     8   8   8   8   8   8
#     4  11  24  40  55  77 113 151 185 227 275 328
#     4   8  15  30  54  83 110 137 175 223 270 316
#     4  11  21  36  59  85 112 147 183 225 277 327
#     4  10  22  38  57  82 113 147 183 227 279 327
#     4  11  22  38  59  83 108 141 189 235 274 327
#     4   9  17  32  57  86 112 141 181 227 271 322
#
# _framework density 20.59233
#
# number of rings (size 3 to 8) (size 9 to 14) (size 15 to 20)
#    0.000    2.000    1.667    3.500    0.000    2.333 
#    0.000    0.833    0.000    5.000    0.000    0.000 
#    0.000    0.000    0.000    0.000    0.000    0.000 
#
# Total GULP energy -268086.913342 kJ/mol
# GULP energy per Si atom -5585.144028 kJ/mol
# Density = 2.054546 g / cm^3
# Si number density = 20.592330 Si / 1000 Ang^3
#
#
#
# Elastic Constant Matrix: (Units=GPa)
#
#
# Indices 1 2 3 4 5 6 
#
# 1 80.2995 -9.3002 -12.6924 0.0000 0.0000 0.0000
# 2 -9.3002 26.6371 -1.6267 0.0000 0.0000 0.0000
# 3 -12.6924 -1.6267 33.9049 0.0000 0.0000 0.0000
# 4 0.0000 0.0000 0.0000 10.7346 0.0000 0.0000
# 5 0.0000 0.0000 0.0000 0.0000 0.5572 0.0000
# 6 0.0000 0.0000 0.0000 0.0000 0.0000 -2.4069
#
#
#
# Elastic Compliance Matrix: (Units=1/GPa)
#
#
# Indices 1 2 3 4 5 6 
#
# 1 0.013918 0.005193 0.005459 0.000000 0.000000 0.000000
# 2 0.005193 0.039589 0.003843 0.000000 0.000000 0.000000
# 3 0.005459 0.003843 0.031722 0.000000 0.000000 0.000000
# 4 0.000000 0.000000 0.000000 0.093157 0.000000 0.000000
# 5 0.000000 0.000000 0.000000 0.000000 1.794583 0.000000
# 6 0.000000 0.000000 0.000000 0.000000 0.000000 -0.415468
#
#
# Mechanical properties :
#
#
# Convention : Reuss Voigt Hill
#
# Bulk Modulus (GPa) = 8.75506 10.40034 9.57770
# Shear Modulus (GPa) = 3.19166 12.74102 7.96634
#
# Velocity S-wave (km/s) = 1.24631 2.49012 1.96901
# Velocity P-wave (km/s) = 2.51633 3.65091 3.13537
#
# Compressibility (1/GPa) = 0.11421971
#
# Stress axis : x y z
#
# Youngs Moduli (GPa) = 71.85097 25.25930 31.52357
#
# Poissons Ratio (x) = -0.13116 -0.17209
# Poissons Ratio (y) = -0.37310 -0.12115
# Poissons Ratio (z) = -0.39225 -0.09708
#
# Static dielectric constant tensor:
#      x y z
#    x 1.747650 0.000000 0.000000 
#    y 0.000000 1.732640 0.000000 
#    z 0.000000 0.000000 1.712850 
# 
# From -- ./inp_files/12918.got.cif
#   From: 2010.05.17/outbox.cif.g08.bks.cpg/sg59_7_cif.got.tgz:12918.got - 2010.06.03 14:40:33.
