data_PCOD9452463
_publ_section_title
;
Structure prediction by ZEFSAII (Michael W. Deem and Ramdas Pophale) SiO2 
 PCOD9452463
Probable space group: P M M N
;
_chemical_formula_sum "Si O2"
_cell_formula_units_Z 64
_cell_length_a 8.418584
_cell_length_b 15.471439
_cell_length_c 24.367189
_cell_angle_alpha 90.000000
_cell_angle_beta 90.000000
_cell_angle_gamma 90.000000
_cell_volume 3173.768101
_symmetry_space_group_name_H-M "P M M N"
_symmetry_group_IT_number 59
_space_group.IT_coordinate_system_code '2'
_symmetry_cell_setting 'orthorhombic'
loop_
_space_group_symop_operation_xyz
x,y,z
1/2-x,1/2-y,z
1/2+x,-y,-z
-x,1/2+y,-z
-x,-y,-z
1/2+x,1/2+y,-z
1/2-x,y,z
x,1/2-y,z
loop_
_atom_site_type_symbol
_atom_site_label
_atom_site_fract_x
_atom_site_fract_y
_atom_site_fract_z
Si Si1 0.940134 0.847396 0.204768
Si Si2 0.441930 0.148236 0.491248
Si Si3 0.933414 0.118466 0.118635
Si Si4 0.560833 0.985535 0.293481
Si Si5 0.557450 0.992488 0.417812
Si Si6 0.931414 0.062997 0.896362
Si Si7 0.567213 0.849496 0.001088
Si Si8 0.938256 0.844794 0.762698
O O1 0.750000 0.859631 0.196067
O O2 0.964070 0.750000 0.224093
O O3 0.999962 0.915127 0.250014
O O4 0.027653 0.863366 0.147360
O O5 0.250000 0.150840 0.490418
O O6 0.495083 0.250000 0.490373
O O7 0.490379 0.089895 0.544402
O O8 0.498052 0.084205 0.442326
O O9 0.750000 0.143684 0.120336
O O10 0.010723 0.146853 0.061501
O O11 0.020303 0.150964 0.172871
O O12 0.952718 0.015214 0.118493
O O13 0.750000 0.972149 0.296273
O O14 0.500180 0.979783 0.355557
O O15 0.525894 0.078950 0.268427
O O16 0.750000 0.995409 0.418587
O O17 0.750000 0.034009 0.890111
O O18 0.962790 0.093879 0.958026
O O19 0.750000 0.878516 0.004515
O O20 0.558913 0.750000 0.019438
O O21 0.750000 0.855958 0.756220
O O22 0.984132 0.750000 0.741853
#
# Coordination Sequence:
#
# PCOD9452463 Si02
#       8
#     8   8   8   8   8   8   8   8
#     4  10  21  38  60  86 116 152 195 244 299 357
#     4   9  18  34  57  85 119 159 200 242 293 348
#     4  12  24  40  62  86 114 148 191 242 299 358
#     4  10  21  38  60  86 118 157 199 244 294 350
#     4   9  19  35  56  85 119 156 200 247 292 341
#     4  12  24  39  60  85 115 151 193 240 295 357
#     4  11  24  41  60  84 115 149 189 239 295 358
#     4  11  24  41  61  86 117 155 197 243 297 355
#
# _framework density 20.165303000000002
#
# number of rings (size 3 to 8) (size 9 to 14) (size 15 to 20)
#    0.000    1.500    1.250    4.125    0.000    7.000 
#    0.000    5.000    0.000    0.000    0.000    3.500 
#    0.000    0.000    0.000    0.000    0.000    0.000 
#
# Total GULP energy -357514.026836 kJ/mol
# GULP energy per Si atom -5586.156669 kJ/mol
# Density = 2.011941 g / cm^3
# Si number density = 20.165303 Si / 1000 Ang^3
#
#
#
# Elastic Constant Matrix: (Units=GPa)
#
#
# Indices 1 2 3 4 5 6 
#
# 1 21.6445 4.5147 0.8332 0.0000 0.0000 0.0000
# 2 4.5147 98.5787 17.0036 0.0000 0.0000 0.0000
# 3 0.8332 17.0036 92.2977 0.0000 0.0000 0.0000
# 4 0.0000 0.0000 0.0000 2.7076 0.0000 0.0000
# 5 0.0000 0.0000 0.0000 0.0000 24.7210 0.0000
# 6 0.0000 0.0000 0.0000 0.0000 0.0000 24.8208
#
#
#
# Elastic Compliance Matrix: (Units=1/GPa)
#
#
# Indices 1 2 3 4 5 6 
#
# 1 0.046647 -0.002131 -0.000028 0.000000 0.000000 0.000000
# 2 -0.002131 0.010574 -0.001929 0.000000 0.000000 0.000000
# 3 -0.000028 -0.001929 0.011190 0.000000 0.000000 0.000000
# 4 0.000000 0.000000 0.000000 0.369325 0.000000 0.000000
# 5 0.000000 0.000000 0.000000 0.000000 0.040451 0.000000
# 6 0.000000 0.000000 0.000000 0.000000 0.000000 0.040289
#
#
# Mechanical properties :
#
#
# Convention : Reuss Voigt Hill
#
# Bulk Modulus (GPa) = 16.60192 28.58045 22.59118
# Shear Modulus (GPa) = 9.14525 23.12784 16.13654
#
# Velocity S-wave (km/s) = 2.13190 3.39028 2.83187
# Velocity P-wave (km/s) = 3.78296 5.43408 4.68188
#
# Compressibility (1/GPa) = 0.06023401
#
# Stress axis : x y z
#
# Youngs Moduli (GPa) = 21.43766 94.56717 89.36469
#
# Poissons Ratio (x) = 0.20156 0.00254
# Poissons Ratio (y) = 0.04569 0.17237
# Poissons Ratio (z) = 0.00061 0.18241
#
# Static dielectric constant tensor:
#      x y z
#    x 1.759780 0.000000 0.000000 
#    y 0.000000 1.731480 0.000000 
#    z 0.000000 0.000000 1.701510 
# 
# From -- ./inp_files/31461.got.cif
#   From: 2010.05.17/outbox.cif.g08.bks.cpg/sg59_16_cif.got.tgz:31461.got - 2010.06.03 14:40:33.
