data_PCOD9452499
_publ_section_title
;
Structure prediction by ZEFSAII (Michael W. Deem and Ramdas Pophale) SiO2 
 PCOD9452499
Probable space group: P M M N
;
_chemical_formula_sum "Si O2"
_cell_formula_units_Z 48
_cell_length_a 15.170401
_cell_length_b 8.944745
_cell_length_c 19.458375
_cell_angle_alpha 90.000000
_cell_angle_beta 90.000000
_cell_angle_gamma 90.000000
_cell_volume 2640.411366
_symmetry_space_group_name_H-M "P M M N"
_symmetry_group_IT_number 59
_space_group.IT_coordinate_system_code '2'
_symmetry_cell_setting 'orthorhombic'
loop_
_space_group_symop_operation_xyz
x,y,z
1/2-x,1/2-y,z
1/2+x,-y,-z
-x,1/2+y,-z
-x,-y,-z
1/2+x,1/2+y,-z
1/2-x,y,z
x,1/2-y,z
loop_
_atom_site_type_symbol
_atom_site_label
_atom_site_fract_x
_atom_site_fract_y
_atom_site_fract_z
Si Si1 0.145474 0.572964 0.171446
Si Si2 0.998607 0.928131 0.924790
Si Si3 0.352665 0.428463 0.317689
Si Si4 0.497726 0.571489 0.574930
Si Si5 0.353938 0.071136 0.830566
Si Si6 0.146403 0.428644 0.671569
O O1 0.250000 0.547057 0.160781
O O2 0.128509 0.750000 0.166836
O O3 0.086306 0.486818 0.116807
O O4 0.123767 0.514802 0.247940
O O5 0.997542 0.750000 0.929557
O O6 0.083333 0.983606 0.881847
O O7 0.000000 0.000000 0.000000
O O8 0.250000 0.458512 0.333320
O O9 0.361762 0.250000 0.305266
O O10 0.416228 0.469970 0.380086
O O11 0.500000 0.500000 0.500000
O O12 0.495517 0.750000 0.568738
O O13 0.414655 0.514355 0.618590
O O14 0.250000 0.041755 0.841845
O O15 0.367432 0.250000 0.838473
O O16 0.374562 0.032953 0.751007
O O17 0.250000 0.459343 0.660749
O O18 0.133644 0.250000 0.664046
#
# Coordination Sequence:
#
# PCOD9452499 Si02
#       6
#     8   8   8   8   8   8
#     4  10  21  38  61  87 113 143 183 231 280 332
#     4  12  25  39  57  82 115 153 189 229 277 329
#     4   9  19  37  59  82 109 143 184 228 276 331
#     4  11  23  36  53  80 113 150 188 228 276 328
#     4   9  19  38  63  88 114 146 184 227 277 332
#     4   9  19  37  60  83 109 144 183 225 276 331
#
# _framework density 18.178985999999998
#
# number of rings (size 3 to 8) (size 9 to 14) (size 15 to 20)
#    0.000    2.000    0.000    4.500    0.000    7.667 
#    0.000    3.333    0.000    0.000    0.000    0.000 
#    0.000    0.000    0.000    0.000    0.000    0.000 
#
# Total GULP energy -268205.815533 kJ/mol
# GULP energy per Si atom -5587.621157 kJ/mol
# Density = 1.813761 g / cm^3
# Si number density = 18.178986 Si / 1000 Ang^3
#
#
#
# Elastic Constant Matrix: (Units=GPa)
#
#
# Indices 1 2 3 4 5 6 
#
# 1 97.7993 74.6189 106.4836 0.0000 0.0000 0.0000
# 2 74.6189 96.6844 100.6216 0.0000 0.0000 0.0000
# 3 106.4836 100.6216 186.6503 0.0000 0.0000 0.0000
# 4 0.0000 0.0000 0.0000 37.5397 0.0000 0.0000
# 5 0.0000 0.0000 0.0000 0.0000 -34.4726 0.0000
# 6 0.0000 0.0000 0.0000 0.0000 0.0000 33.1744
#
#
#
# Elastic Compliance Matrix: (Units=1/GPa)
#
#
# Indices 1 2 3 4 5 6 
#
# 1 0.033258 -0.013490 -0.011701 0.000000 0.000000 0.000000
# 2 -0.013490 0.029034 -0.007956 0.000000 0.000000 0.000000
# 3 -0.011701 -0.007956 0.016322 0.000000 0.000000 0.000000
# 4 0.000000 0.000000 0.000000 0.026638 0.000000 0.000000
# 5 0.000000 0.000000 0.000000 0.000000 -0.029009 0.000000
# 6 0.000000 0.000000 0.000000 0.000000 0.000000 0.030144
#
#
# Mechanical properties :
#
#
# Convention : Reuss Voigt Hill
#
# Bulk Modulus (GPa) = 81.17055 104.95357 93.06206
# Shear Modulus (GPa) = 28.28221 13.87562 21.07891
#
# Velocity S-wave (km/s) = 3.94860 2.76575 3.40887
# Velocity P-wave (km/s) = 8.09545 8.24972 8.17295
#
# Compressibility (1/GPa) = 0.01231974
#
# Stress axis : x y z
#
# Youngs Moduli (GPa) = 30.06803 34.44192 61.26606
#
# Poissons Ratio (x) = 0.46462 0.71689
# Poissons Ratio (y) = 0.40562 0.48744
# Poissons Ratio (z) = 0.35183 0.27403
#
# Static dielectric constant tensor:
#      x y z
#    x 1.621100 0.000000 0.000000 
#    y 0.000000 1.605940 0.000000 
#    z 0.000000 0.000000 1.584940 
# 
# From -- ./inp_files/25424.got.cif
#   From: 2010.05.17/outbox.cif.g08.bks.cpg/sg59_13_cif.got.tgz:25424.got - 2010.06.03 14:40:33.
