data_PCOD9452126
_publ_section_title
;
Structure prediction by ZEFSAII (Michael W. Deem and Ramdas Pophale) SiO2 
 PCOD9452126
Probable space group: P M M N
;
_chemical_formula_sum "Si O2"
_cell_formula_units_Z 64
_cell_length_a 7.687524
_cell_length_b 19.691200
_cell_length_c 20.602712
_cell_angle_alpha 90.000000
_cell_angle_beta 90.000000
_cell_angle_gamma 90.000000
_cell_volume 3118.767929
_symmetry_space_group_name_H-M "P M M N"
_symmetry_group_IT_number 59
_space_group.IT_coordinate_system_code '2'
_symmetry_cell_setting 'orthorhombic'
loop_
_space_group_symop_operation_xyz
x,y,z
1/2-x,1/2-y,z
1/2+x,-y,-z
-x,1/2+y,-z
-x,-y,-z
1/2+x,1/2+y,-z
1/2-x,y,z
x,1/2-y,z
loop_
_atom_site_type_symbol
_atom_site_label
_atom_site_fract_x
_atom_site_fract_y
_atom_site_fract_z
Si Si1 0.459134 0.030968 0.779242
Si Si2 0.455409 0.174250 0.536416
Si Si3 0.457713 0.552106 0.081026
Si Si4 0.449664 0.601895 0.950293
Si Si5 0.461609 0.877489 0.812355
Si Si6 0.953821 0.823833 0.678333
Si Si7 0.035632 0.433798 0.635215
Si Si8 0.053190 0.572536 0.576410
O O1 0.250000 0.029236 0.777069
O O2 0.509786 0.071115 0.844486
O O3 0.520519 0.057931 0.709759
O O4 0.519230 0.953384 0.791097
O O5 0.250000 0.181567 0.546546
O O6 0.527816 0.250000 0.525429
O O7 0.523736 0.134158 0.599265
O O8 0.473427 0.123018 0.476067
O O9 0.250000 0.543189 0.072225
O O10 0.544625 0.478513 0.068745
O O11 0.522060 0.601631 0.023410
O O12 0.250000 0.624925 0.954816
O O13 0.525697 0.636252 0.885676
O O14 0.250000 0.876703 0.813650
O O15 0.523290 0.829297 0.755296
O O16 0.750000 0.829532 0.662199
O O17 0.016448 0.750000 0.655499
O O18 0.049525 0.885376 0.643536
O O19 0.250000 0.435829 0.635137
O O20 0.976100 0.499075 0.592973
O O21 0.250000 0.560911 0.554988
#
# Coordination Sequence:
#
# PCOD9452126 Si02
#       8
#     8   8   8   8   8   8   8   8
#     4   9  16  29  46  66  96 128 159 197 240 285
#     4  10  21  37  56  78 103 129 159 201 250 295
#     4   9  15  23  38  64  94 123 157 195 238 286
#     4   8  15  26  39  58  90 127 158 194 239 286
#     4   9  16  29  47  65  89 126 166 205 245 287
#     4  11  23  35  47  68  99 131 164 207 256 302
#     4   9  18  34  54  75 101 133 166 200 243 295
#     4  11  21  36  56  75  97 130 167 202 242 292
#
# _framework density 20.520924000000001
#
# number of rings (size 3 to 8) (size 9 to 14) (size 15 to 20)
#    0.000    2.500    1.250    2.625    0.000    5.250 
#    0.000    1.250    0.000    0.000    0.000    0.875 
#    0.000    3.000    0.000    0.000    0.000    0.000 
#
# Total GULP energy -356738.482518 kJ/mol
# GULP energy per Si atom -5574.038789 kJ/mol
# Density = 2.047422 g / cm^3
# Si number density = 20.520924 Si / 1000 Ang^3
#
#
#
# Elastic Constant Matrix: (Units=GPa)
#
#
# Indices 1 2 3 4 5 6 
#
# 1 39.3853 5.0401 1.6242 0.0000 0.0000 0.0000
# 2 5.0401 54.1454 51.6027 0.0000 0.0000 0.0000
# 3 1.6242 51.6027 144.2134 0.0000 0.0000 0.0000
# 4 0.0000 0.0000 0.0000 6.0384 0.0000 0.0000
# 5 0.0000 0.0000 0.0000 0.0000 13.9933 0.0000
# 6 0.0000 0.0000 0.0000 0.0000 0.0000 8.1565
#
#
#
# Elastic Compliance Matrix: (Units=1/GPa)
#
#
# Indices 1 2 3 4 5 6 
#
# 1 0.025767 -0.003220 0.000862 0.000000 0.000000 0.000000
# 2 -0.003220 0.028429 -0.010136 0.000000 0.000000 0.000000
# 3 0.000862 -0.010136 0.010551 0.000000 0.000000 0.000000
# 4 0.000000 0.000000 0.000000 0.165606 0.000000 0.000000
# 5 0.000000 0.000000 0.000000 0.000000 0.071463 0.000000
# 6 0.000000 0.000000 0.000000 0.000000 0.000000 0.122602
#
#
# Mechanical properties :
#
#
# Convention : Reuss Voigt Hill
#
# Bulk Modulus (GPa) = 25.15186 39.36421 32.25804
# Shear Modulus (GPa) = 10.80712 17.60279 14.20495
#
# Velocity S-wave (km/s) = 2.29735 2.93199 2.63386
# Velocity P-wave (km/s) = 4.39550 5.53952 5.00033
#
# Compressibility (1/GPa) = 0.03975849
#
# Stress axis : x y z
#
# Youngs Moduli (GPa) = 38.80983 35.17580 94.77430
#
# Poissons Ratio (x) = 0.11326 -0.08169
# Poissons Ratio (y) = 0.12497 0.96064
# Poissons Ratio (z) = -0.03345 0.35655
#
# Static dielectric constant tensor:
#      x y z
#    x 1.790450 0.000000 0.000000 
#    y 0.000000 1.717530 0.000000 
#    z 0.000000 0.000000 1.801190 
# 
# From -- ./inp_files/29478.got.cif
#   From: 2010.05.17/outbox.cif.g08.bks.cpg/sg59_15_cif.got.tgz:29478.got - 2010.06.03 14:40:33.
