data_PCOD9452024
_publ_section_title
;
Structure prediction by ZEFSAII (Michael W. Deem and Ramdas Pophale) SiO2 
 PCOD9452024
Probable space group: P M M N
;
_chemical_formula_sum "Si O2"
_cell_formula_units_Z 64
_cell_length_a 8.941795
_cell_length_b 14.987241
_cell_length_c 26.700439
_cell_angle_alpha 90.000000
_cell_angle_beta 90.000000
_cell_angle_gamma 90.000000
_cell_volume 3578.201570
_symmetry_space_group_name_H-M "P M M N"
_symmetry_group_IT_number 59
_space_group.IT_coordinate_system_code '2'
_symmetry_cell_setting 'orthorhombic'
loop_
_space_group_symop_operation_xyz
x,y,z
1/2-x,1/2-y,z
1/2+x,-y,-z
-x,1/2+y,-z
-x,-y,-z
1/2+x,1/2+y,-z
1/2-x,y,z
x,1/2-y,z
loop_
_atom_site_type_symbol
_atom_site_label
_atom_site_fract_x
_atom_site_fract_y
_atom_site_fract_z
Si Si1 0.920670 0.352080 0.104184
Si Si2 0.929117 0.499552 0.445509
Si Si3 0.570176 0.993481 0.825183
Si Si4 0.072201 0.097589 0.001673
Si Si5 0.069287 0.145343 0.636492
Si Si6 0.574959 0.150524 0.899857
Si Si7 0.930031 0.499143 0.708836
Si Si8 0.069222 0.645124 0.637180
O O1 0.750000 0.382165 0.095143
O O2 0.918871 0.250000 0.120388
O O3 0.009141 0.358894 0.052075
O O4 0.996150 0.411392 0.146407
O O5 0.750000 0.499341 0.450232
O O6 0.970356 0.587637 0.413121
O O7 0.970404 0.411771 0.412790
O O8 0.000000 0.500000 0.500000
O O9 0.750000 0.984867 0.827164
O O10 0.528519 0.079274 0.858498
O O11 0.527646 0.001083 0.767274
O O12 0.750000 0.906677 0.996129
O O13 0.018252 0.143371 0.950674
O O14 0.000000 0.000000 0.000000
O O15 0.250000 0.141330 0.641578
O O16 0.026441 0.250000 0.634702
O O17 0.995613 0.088128 0.681085
O O18 0.750000 0.133692 0.912768
O O19 0.563731 0.250000 0.879238
O O20 0.750000 0.499032 0.704607
O O21 0.995358 0.587154 0.681517
O O22 0.250000 0.640905 0.642359
O O23 0.026879 0.750000 0.635804
#
# Coordination Sequence:
#
# PCOD9452024 Si02
#       8
#     8   8   8   8   8   8   8   8
#     4  11  24  40  59  84 112 144 182 224 271 326
#     4   9  18  32  51  79 114 148 184 228 276 327
#     4  10  22  39  58  81 112 148 180 221 277 329
#     4  12  23  37  59  84 111 144 181 222 270 325
#     4   9  19  37  58  79 108 150 193 229 272 329
#     4  10  21  38  59  82 109 143 181 219 266 327
#     4  10  21  36  56  84 113 141 182 235 284 328
#     4   9  19  37  58  78 106 149 193 228 272 331
#
# _framework density 17.886081000000001
#
# number of rings (size 3 to 8) (size 9 to 14) (size 15 to 20)
#    0.000    2.000    1.250    3.000    0.000    7.750 
#    0.000    3.750    0.000    0.000    0.000    0.000 
#    0.000    0.000    0.000    0.000    0.000    0.000 
#
# Total GULP energy -357153.610275 kJ/mol
# GULP energy per Si atom -5580.525161 kJ/mol
# Density = 1.784537 g / cm^3
# Si number density = 17.886081 Si / 1000 Ang^3
#
#
#
# Elastic Constant Matrix: (Units=GPa)
#
#
# Indices 1 2 3 4 5 6 
#
# 1 39.6281 41.7029 59.7365 0.0000 0.0000 0.0000
# 2 41.7029 157.4701 86.5571 0.0000 0.0000 0.0000
# 3 59.7365 86.5571 175.1525 0.0000 0.0000 0.0000
# 4 0.0000 0.0000 0.0000 28.4589 0.0000 0.0000
# 5 0.0000 0.0000 0.0000 0.0000 31.4696 0.0000
# 6 0.0000 0.0000 0.0000 0.0000 0.0000 -22.6006
#
#
#
# Elastic Compliance Matrix: (Units=1/GPa)
#
#
# Indices 1 2 3 4 5 6 
#
# 1 0.055677 -0.005914 -0.016066 0.000000 0.000000 0.000000
# 2 -0.005914 0.009347 -0.002602 0.000000 0.000000 0.000000
# 3 -0.016066 -0.002602 0.012475 0.000000 0.000000 0.000000
# 4 0.000000 0.000000 0.000000 0.035138 0.000000 0.000000
# 5 0.000000 0.000000 0.000000 0.000000 0.031777 0.000000
# 6 0.000000 0.000000 0.000000 0.000000 0.000000 -0.044247
#
#
# Mechanical properties :
#
#
# Convention : Reuss Voigt Hill
#
# Bulk Modulus (GPa) = 35.29328 83.13819 59.21573
# Shear Modulus (GPa) = 31.49086 19.74917 25.62001
#
# Velocity S-wave (km/s) = 4.20054 3.32650 3.78881
# Velocity P-wave (km/s) = 6.58036 7.83180 7.23320
#
# Compressibility (1/GPa) = 0.02833401
#
# Stress axis : x y z
#
# Youngs Moduli (GPa) = 17.96079 106.98753 80.16184
#
# Poissons Ratio (x) = 0.63269 1.28791
# Poissons Ratio (y) = 0.10621 0.20860
# Poissons Ratio (z) = 0.28856 0.27840
#
# Static dielectric constant tensor:
#      x y z
#    x 1.606670 0.000000 0.000000 
#    y 0.000000 1.619070 0.000000 
#    z 0.000000 0.000000 1.596520 
# 
# From -- ./inp_files/31613.got.cif
#   From: 2010.05.17/outbox.cif.g08.bks.cpg/sg59_16_cif.got.tgz:31613.got - 2010.06.03 14:40:33.
