data_PCOD9452182
_publ_section_title
;
Structure prediction by ZEFSAII (Michael W. Deem and Ramdas Pophale) SiO2 
 PCOD9452182
Probable space group: P M M N
;
_chemical_formula_sum "Si O2"
_cell_formula_units_Z 48
_cell_length_a 8.166758
_cell_length_b 9.675001
_cell_length_c 31.845538
_cell_angle_alpha 90.000000
_cell_angle_beta 90.000000
_cell_angle_gamma 90.000000
_cell_volume 2516.223972
_symmetry_space_group_name_H-M "P M M N"
_symmetry_group_IT_number 59
_space_group.IT_coordinate_system_code '2'
_symmetry_cell_setting 'orthorhombic'
loop_
_space_group_symop_operation_xyz
x,y,z
1/2-x,1/2-y,z
1/2+x,-y,-z
-x,1/2+y,-z
-x,-y,-z
1/2+x,1/2+y,-z
1/2-x,y,z
x,1/2-y,z
loop_
_atom_site_type_symbol
_atom_site_label
_atom_site_fract_x
_atom_site_fract_y
_atom_site_fract_z
Si Si1 0.050222 0.589729 0.632400
Si Si2 0.055129 0.092879 0.960911
Si Si3 0.447163 0.907988 0.538803
Si Si4 0.950618 0.908951 0.288686
Si Si5 0.054557 0.408085 0.116229
Si Si6 0.947800 0.408464 0.210091
O O1 0.250000 0.588144 0.632896
O O2 0.002218 0.750000 0.638999
O O3 0.997967 0.546123 0.585457
O O4 0.994818 0.491440 0.669873
O O5 0.250000 0.101939 0.962901
O O6 0.988403 0.250000 0.962639
O O7 0.008775 0.014062 0.918279
O O8 0.000000 0.000000 0.000000
O O9 0.250000 0.906752 0.539751
O O10 0.503560 0.750000 0.533080
O O11 0.500000 0.000000 0.500000
O O12 0.750000 0.910043 0.288817
O O13 0.002933 0.750000 0.288838
O O14 0.003682 0.990268 0.246939
O O15 0.250000 0.404707 0.113374
O O16 0.993470 0.250000 0.108759
O O17 0.005292 0.447375 0.163546
O O18 0.750000 0.409147 0.210131
O O19 0.001240 0.250000 0.218163
#
# Coordination Sequence:
#
# PCOD9452182 Si02
#       6
#     8   8   8   8   8   8
#     4   8  14  26  43  63  90 123 157 195 242 296
#     4  11  24  40  59  84 112 142 177 216 258 305
#     4   9  18  31  47  69  96 126 162 204 249 299
#     4   9  16  25  41  68  97 122 155 202 249 292
#     4  10  21  37  57  81 108 139 177 217 255 299
#     4   9  17  30  49  72  99 132 165 199 246 300
#
# _framework density 19.076204000000001
#
# number of rings (size 3 to 8) (size 9 to 14) (size 15 to 20)
#    0.000    2.667    0.000    3.000    0.000    8.000 
#    0.000    3.333    0.000    1.000    0.000    2.333 
#    0.000    0.000    0.000    0.000    0.000    0.000 
#
# Total GULP energy -267793.506068 kJ/mol
# GULP energy per Si atom -5579.031376 kJ/mol
# Density = 1.903279 g / cm^3
# Si number density = 19.076204 Si / 1000 Ang^3
#
#
#
# Elastic Constant Matrix: (Units=GPa)
#
#
# Indices 1 2 3 4 5 6 
#
# 1 13.5049 17.9585 20.9233 0.0000 0.0000 0.0000
# 2 17.9585 152.6037 147.2323 0.0000 0.0000 0.0000
# 3 20.9233 147.2323 204.6573 0.0000 0.0000 0.0000
# 4 0.0000 0.0000 0.0000 38.7471 0.0000 0.0000
# 5 0.0000 0.0000 0.0000 0.0000 24.2161 0.0000
# 6 0.0000 0.0000 0.0000 0.0000 0.0000 15.8924
#
#
#
# Elastic Compliance Matrix: (Units=1/GPa)
#
#
# Indices 1 2 3 4 5 6 
#
# 1 0.089406 -0.005566 -0.005137 0.000000 0.000000 0.000000
# 2 -0.005566 0.021767 -0.015091 0.000000 0.000000 0.000000
# 3 -0.005137 -0.015091 0.016268 0.000000 0.000000 0.000000
# 4 0.000000 0.000000 0.000000 0.025808 0.000000 0.000000
# 5 0.000000 0.000000 0.000000 0.000000 0.041295 0.000000
# 6 0.000000 0.000000 0.000000 0.000000 0.000000 0.062923
#
#
# Mechanical properties :
#
#
# Convention : Reuss Voigt Hill
#
# Bulk Modulus (GPa) = 13.18293 82.55490 47.86891
# Shear Modulus (GPa) = 14.95491 28.08124 21.51807
#
# Velocity S-wave (km/s) = 2.80296 3.84090 3.36222
# Velocity P-wave (km/s) = 4.17146 7.93980 6.34198
#
# Compressibility (1/GPa) = 0.07585568
#
# Stress axis : x y z
#
# Youngs Moduli (GPa) = 11.18490 45.94046 61.47168
#
# Poissons Ratio (x) = 0.25569 0.31575
# Poissons Ratio (y) = 0.06225 0.92764
# Poissons Ratio (z) = 0.05745 0.69327
#
# Static dielectric constant tensor:
#      x y z
#    x 1.685280 0.000000 0.000000 
#    y 0.000000 1.657010 0.000000 
#    z 0.000000 0.000000 1.648240 
# 
# From -- ./inp_files/32850.got.cif
#   From: 2010.05.17/outbox.cif.g08.bks.cpg/sg59_17_cif.got.tgz:32850.got - 2010.06.03 14:40:33.
