data_PCOD9452310
_publ_section_title
;
Structure prediction by ZEFSAII (Michael W. Deem and Ramdas Pophale) SiO2 
 PCOD9452310
Probable space group: P M M N
;
_chemical_formula_sum "Si O2"
_cell_formula_units_Z 48
_cell_length_a 8.036163
_cell_length_b 17.234536
_cell_length_c 16.794772
_cell_angle_alpha 90.000000
_cell_angle_beta 90.000000
_cell_angle_gamma 90.000000
_cell_volume 2326.068205
_symmetry_space_group_name_H-M "P M M N"
_symmetry_group_IT_number 59
_space_group.IT_coordinate_system_code '2'
_symmetry_cell_setting 'orthorhombic'
loop_
_space_group_symop_operation_xyz
x,y,z
1/2-x,1/2-y,z
1/2+x,-y,-z
-x,1/2+y,-z
-x,-y,-z
1/2+x,1/2+y,-z
1/2-x,y,z
x,1/2-y,z
loop_
_atom_site_type_symbol
_atom_site_label
_atom_site_fract_x
_atom_site_fract_y
_atom_site_fract_z
Si Si1 0.942377 0.916945 0.032819
Si Si2 0.452998 0.750000 0.297335
Si Si3 0.056177 0.563874 0.728334
Si Si4 0.555397 0.159488 0.123935
Si Si5 0.048327 0.920807 0.547807
Si Si6 0.547188 0.250000 0.519076
Si Si7 0.444377 0.902982 0.207915
O O1 0.750000 0.921055 0.054805
O O2 0.039103 0.896473 0.112982
O O3 0.969127 0.859527 0.959237
O O4 0.000000 0.000000 0.000000
O O5 0.250000 0.750000 0.296071
O O6 0.504077 0.750000 0.388718
O O7 0.507282 0.826109 0.250775
O O8 0.250000 0.587504 0.722652
O O9 0.981846 0.614329 0.800393
O O10 0.987729 0.571846 0.639321
O O11 0.041324 0.476458 0.758640
O O12 0.750000 0.135739 0.114016
O O13 0.550104 0.250000 0.140654
O O14 0.250000 0.920254 0.546441
O O15 0.994792 0.834641 0.516443
O O16 0.000000 0.000000 0.500000
O O17 0.750000 0.250000 0.514210
O O18 0.250000 0.914394 0.227841
#
# Coordination Sequence:
#
# PCOD9452310 Si02
#       7
#     8   4   8   8   8   4   8
#     4  12  24  40  60  85 116 154 199 245 298 354
#     4   9  20  36  57  86 117 152 198 242 288 347
#     4  10  21  37  59  88 119 154 197 246 294 352
#     4  10  22  39  60  85 119 159 200 245 293 349
#     4  10  21  37  61  90 121 157 202 248 302 358
#     4   9  18  36  61  88 119 158 200 244 290 361
#     4  11  22  38  61  87 117 157 198 243 297 354
#
# _framework density 20.635679
#
# number of rings (size 3 to 8) (size 9 to 14) (size 15 to 20)
#    0.000    1.667    1.667    3.000    2.333    2.333 
#    0.000    1.667    0.000    4.000    0.000    0.000 
#    0.000    0.000    0.000    0.000    0.000    0.000 
#
# Total GULP energy -267971.000541 kJ/mol
# GULP energy per Si atom -5582.729178 kJ/mol
# Density = 2.058871 g / cm^3
# Si number density = 20.635679 Si / 1000 Ang^3
#
#
#
# Elastic Constant Matrix: (Units=GPa)
#
#
# Indices 1 2 3 4 5 6 
#
# 1 24.5357 -3.9983 -11.7120 0.0000 0.0000 0.0000
# 2 -3.9983 134.1349 81.8730 0.0000 0.0000 0.0000
# 3 -11.7120 81.8730 175.4284 0.0000 0.0000 0.0000
# 4 0.0000 0.0000 0.0000 13.1165 0.0000 0.0000
# 5 0.0000 0.0000 0.0000 0.0000 17.7707 0.0000
# 6 0.0000 0.0000 0.0000 0.0000 0.0000 22.3664
#
#
#
# Elastic Compliance Matrix: (Units=1/GPa)
#
#
# Indices 1 2 3 4 5 6 
#
# 1 0.042138 -0.000645 0.003114 0.000000 0.000000 0.000000
# 2 -0.000645 0.010435 -0.004913 0.000000 0.000000 0.000000
# 3 0.003114 -0.004913 0.008201 0.000000 0.000000 0.000000
# 4 0.000000 0.000000 0.000000 0.076240 0.000000 0.000000
# 5 0.000000 0.000000 0.000000 0.000000 0.056272 0.000000
# 6 0.000000 0.000000 0.000000 0.000000 0.000000 0.044710
#
#
# Mechanical properties :
#
#
# Convention : Reuss Voigt Hill
#
# Bulk Modulus (GPa) = 17.89317 51.82492 34.85904
# Shear Modulus (GPa) = 19.11954 28.51314 23.81634
#
# Velocity S-wave (km/s) = 3.04719 3.72121 3.40094
# Velocity P-wave (km/s) = 4.59024 6.60545 5.68781
#
# Compressibility (1/GPa) = 0.05588725
#
# Stress axis : x y z
#
# Youngs Moduli (GPa) = 23.73128 95.83387 121.93435
#
# Poissons Ratio (x) = 0.06179 -0.37972
# Poissons Ratio (y) = 0.01530 0.59906
# Poissons Ratio (z) = -0.07390 0.47083
#
# Static dielectric constant tensor:
#      x y z
#    x -14.523910 0.000000 0.000000 
#    y 0.000000 1.688750 0.000000 
#    z 0.000000 0.000000 1.720650 
# 
# From -- ./inp_files/20605.got.cif
#   From: 2010.05.17/outbox.cif.g08.bks.cpg/sg59_11_cif.got.tgz:20605.got - 2010.06.03 14:40:33.
