data_PCOD9452085
_publ_section_title
;
Structure prediction by ZEFSAII (Michael W. Deem and Ramdas Pophale) SiO2 
 PCOD9452085
Probable space group: P M M N
;
_chemical_formula_sum "Si O2"
_cell_formula_units_Z 48
_cell_length_a 19.846918
_cell_length_b 9.430986
_cell_length_c 15.472319
_cell_angle_alpha 90.000000
_cell_angle_beta 90.000000
_cell_angle_gamma 90.000000
_cell_volume 2896.046871
_symmetry_space_group_name_H-M "P M M N"
_symmetry_group_IT_number 59
_space_group.IT_coordinate_system_code '2'
_symmetry_cell_setting 'orthorhombic'
loop_
_space_group_symop_operation_xyz
x,y,z
1/2-x,1/2-y,z
1/2+x,-y,-z
-x,1/2+y,-z
-x,-y,-z
1/2+x,1/2+y,-z
1/2-x,y,z
x,1/2-y,z
loop_
_atom_site_type_symbol
_atom_site_label
_atom_site_fract_x
_atom_site_fract_y
_atom_site_fract_z
Si Si1 0.109776 0.415998 0.764899
Si Si2 0.050111 0.915420 0.265769
Si Si3 0.170662 0.083940 0.581068
Si Si4 0.071148 0.413097 0.099212
Si Si5 0.933781 0.080291 0.534353
Si Si6 0.091353 0.913157 0.932413
O O1 0.119703 0.250000 0.786364
O O2 0.153170 0.451123 0.680623
O O3 0.122403 0.510625 0.848852
O O4 0.031141 0.433239 0.738354
O O5 0.063636 0.750000 0.246389
O O6 0.072766 0.946566 0.363080
O O7 0.081388 0.012454 0.191386
O O8 0.250000 0.071925 0.566226
O O9 0.150551 0.250000 0.568856
O O10 0.128228 0.984042 0.518535
O O11 0.092692 0.250000 0.098857
O O12 0.989944 0.415152 0.083127
O O13 0.102928 0.500543 0.020356
O O14 0.940352 0.250000 0.522308
O O15 0.000000 0.000000 0.500000
O O16 0.112027 0.750000 0.939985
#
# Coordination Sequence:
#
# PCOD9452085 Si02
#       6
#     8   8   8   8   8   8
#     4   9  16  29  46  66  94 129 165 202 247 299
#     4   9  17  29  45  67  96 129 163 205 252 301
#     4  10  21  37  54  74 103 138 175 216 263 312
#     4   9  16  25  39  63  93 125 158 196 240 291
#     4  11  21  34  53  76 103 135 175 218 265 315
#     4   9  16  25  39  62  92 126 159 194 238 289
#
# _framework density 16.574317000000001
#
# number of rings (size 3 to 8) (size 9 to 14) (size 15 to 20)
#    0.000    2.500    1.667    1.500    0.000    6.333 
#    0.000    0.000    0.000    0.000    0.000    1.167 
#    0.000    6.667    0.000    0.000    0.000    0.000 
#
# Total GULP energy -267620.265484 kJ/mol
# GULP energy per Si atom -5575.422198 kJ/mol
# Density = 1.653659 g / cm^3
# Si number density = 16.574317 Si / 1000 Ang^3
#
#
#
# Elastic Constant Matrix: (Units=GPa)
#
#
# Indices 1 2 3 4 5 6 
#
# 1 29.0698 34.5615 36.0813 0.0000 0.0000 0.0000
# 2 34.5615 125.2779 109.4122 0.0000 0.0000 0.0000
# 3 36.0813 109.4122 151.4054 0.0000 0.0000 0.0000
# 4 0.0000 0.0000 0.0000 37.6921 0.0000 0.0000
# 5 0.0000 0.0000 0.0000 0.0000 12.1973 0.0000
# 6 0.0000 0.0000 0.0000 0.0000 0.0000 13.6014
#
#
#
# Elastic Compliance Matrix: (Units=1/GPa)
#
#
# Indices 1 2 3 4 5 6 
#
# 1 0.052875 -0.009711 -0.005583 0.000000 0.000000 0.000000
# 2 -0.009711 0.023423 -0.014612 0.000000 0.000000 0.000000
# 3 -0.005583 -0.014612 0.018495 0.000000 0.000000 0.000000
# 4 0.000000 0.000000 0.000000 0.026531 0.000000 0.000000
# 5 0.000000 0.000000 0.000000 0.000000 0.081986 0.000000
# 6 0.000000 0.000000 0.000000 0.000000 0.000000 0.073522
#
#
# Mechanical properties :
#
#
# Convention : Reuss Voigt Hill
#
# Bulk Modulus (GPa) = 28.58755 73.98478 51.28617
# Shear Modulus (GPa) = 14.35524 21.07801 17.71663
#
# Velocity S-wave (km/s) = 2.94617 3.57000 3.27298
# Velocity P-wave (km/s) = 5.37204 7.85674 6.73005
#
# Compressibility (1/GPa) = 0.03498026
#
# Stress axis : x y z
#
# Youngs Moduli (GPa) = 18.91236 42.69276 54.06958
#
# Poissons Ratio (x) = 0.41461 0.30186
# Poissons Ratio (y) = 0.18367 0.79008
# Poissons Ratio (z) = 0.10558 0.62384
#
# Static dielectric constant tensor:
#      x y z
#    x 1.524650 0.000000 0.000000 
#    y 0.000000 1.558100 0.000000 
#    z 0.000000 0.000000 1.549760 
# 
# From -- ./inp_files/20735.got.cif
#   From: 2010.05.17/outbox.cif.g08.bks.cpg/sg59_11_cif.got.tgz:20735.got - 2010.06.03 14:40:33.
