data_PCOD9452052
_publ_section_title
;
Structure prediction by ZEFSAII (Michael W. Deem and Ramdas Pophale) SiO2 
 PCOD9452052
Probable space group: P M M N
;
_chemical_formula_sum "Si O2"
_cell_formula_units_Z 64
_cell_length_a 8.951362
_cell_length_b 25.588740
_cell_length_c 14.680146
_cell_angle_alpha 90.000000
_cell_angle_beta 90.000000
_cell_angle_gamma 90.000000
_cell_volume 3362.547261
_symmetry_space_group_name_H-M "P M M N"
_symmetry_group_IT_number 59
_space_group.IT_coordinate_system_code '2'
_symmetry_cell_setting 'orthorhombic'
loop_
_space_group_symop_operation_xyz
x,y,z
1/2-x,1/2-y,z
1/2+x,-y,-z
-x,1/2+y,-z
-x,-y,-z
1/2+x,1/2+y,-z
1/2-x,y,z
x,1/2-y,z
loop_
_atom_site_type_symbol
_atom_site_label
_atom_site_fract_x
_atom_site_fract_y
_atom_site_fract_z
Si Si1 0.073278 0.187961 0.208469
Si Si2 0.429215 0.009288 0.218637
Si Si3 0.571106 0.400552 0.095625
Si Si4 0.425730 0.687626 0.599482
Si Si5 0.930252 0.690585 0.230114
Si Si6 0.573168 0.982100 0.405924
Si Si7 0.429357 0.901946 0.115817
Si Si8 0.926990 0.858618 0.421327
O O1 0.250000 0.177885 0.202435
O O2 0.047926 0.250000 0.197510
O O3 0.986054 0.154572 0.134060
O O4 0.013798 0.173007 0.308824
O O5 0.250000 0.013315 0.222147
O O6 0.495946 0.055275 0.157627
O O7 0.496264 0.009261 0.319774
O O8 0.470399 0.954074 0.171423
O O9 0.750000 0.404034 0.102836
O O10 0.528281 0.407268 0.989971
O O11 0.250000 0.678003 0.612892
O O12 0.447266 0.750000 0.585168
O O13 0.485646 0.657734 0.511478
O O14 0.750000 0.687612 0.225996
O O15 0.975823 0.750000 0.210198
O O16 0.973636 0.674761 0.333212
O O17 0.997563 0.648418 0.161787
O O18 0.750000 0.992863 0.406144
O O19 0.551743 0.919556 0.398620
O O20 0.500000 0.000000 0.500000
O O21 0.250000 0.896718 0.120210
O O22 0.750000 0.849838 0.437026
#
# Coordination Sequence:
#
# PCOD9452052 Si02
#       8
#     8   8   8   8   8   8   8   8
#     4  10  22  41  63  88 121 160 202 250 302 358
#     4  11  23  42  66  92 123 159 202 252 303 365
#     4  11  24  41  64  92 121 158 202 250 305 366
#     4  10  21  36  57  86 118 155 198 243 294 353
#     4  10  21  38  62  91 123 162 207 254 304 362
#     4  11  24  41  62  90 124 164 202 247 303 361
#     4  10  23  42  63  90 123 159 200 251 309 361
#     4  10  21  38  60  85 119 161 204 247 298 360
#
# _framework density 19.033190000000001
#
# number of rings (size 3 to 8) (size 9 to 14) (size 15 to 20)
#    0.000    1.625    1.250    2.625    1.750    5.750 
#    0.000    2.500    0.000    0.000    0.000    0.000 
#    0.000    0.000    0.000    0.000    0.000    0.000 
#
# Total GULP energy -357831.292965 kJ/mol
# GULP energy per Si atom -5591.113953 kJ/mol
# Density = 1.898987 g / cm^3
# Si number density = 19.033190 Si / 1000 Ang^3
#
#
#
# Elastic Constant Matrix: (Units=GPa)
#
#
# Indices 1 2 3 4 5 6 
#
# 1 53.0593 39.5367 46.4408 0.0000 0.0000 0.0000
# 2 39.5367 67.5563 45.8990 0.0000 0.0000 0.0000
# 3 46.4408 45.8990 143.5497 0.0000 0.0000 0.0000
# 4 0.0000 0.0000 0.0000 -48.6307 0.0000 0.0000
# 5 0.0000 0.0000 0.0000 0.0000 35.1593 0.0000
# 6 0.0000 0.0000 0.0000 0.0000 0.0000 34.0462
#
#
#
# Elastic Compliance Matrix: (Units=1/GPa)
#
#
# Indices 1 2 3 4 5 6 
#
# 1 0.037723 -0.017611 -0.006573 0.000000 0.000000 0.000000
# 2 -0.017611 0.027132 -0.002978 0.000000 0.000000 0.000000
# 3 -0.006573 -0.002978 0.010045 0.000000 0.000000 0.000000
# 4 0.000000 0.000000 0.000000 -0.020563 0.000000 0.000000
# 5 0.000000 0.000000 0.000000 0.000000 0.028442 0.000000
# 6 0.000000 0.000000 0.000000 0.000000 0.000000 0.029372
#
#
# Mechanical properties :
#
#
# Convention : Reuss Voigt Hill
#
# Bulk Modulus (GPa) = 48.60005 58.65759 53.62882
# Shear Modulus (GPa) = 28.84618 12.93422 20.89020
#
# Velocity S-wave (km/s) = 3.89726 2.60967 3.31655
# Velocity P-wave (km/s) = 6.77062 6.32186 6.55009
#
# Compressibility (1/GPa) = 0.02057611
#
# Stress axis : x y z
#
# Youngs Moduli (GPa) = 26.50928 36.85621 99.55355
#
# Poissons Ratio (x) = 0.64908 0.65435
# Poissons Ratio (y) = 0.46686 0.29646
# Poissons Ratio (z) = 0.17424 0.10976
#
# Static dielectric constant tensor:
#      x y z
#    x 1.636930 0.000000 0.000000 
#    y 0.000000 1.654380 0.000000 
#    z 0.000000 0.000000 1.625380 
# 
# From -- ./inp_files/21473.got.cif
#   From: 2010.05.17/outbox.cif.g08.bks.cpg/sg59_11_cif.got.tgz:21473.got - 2010.06.03 14:40:33.
