data_PCOD9452007
_publ_section_title
;
Structure prediction by ZEFSAII (Michael W. Deem and Ramdas Pophale) SiO2 
 PCOD9452007
Probable space group: P M M N
;
_chemical_formula_sum "Si O2"
_cell_formula_units_Z 64
_cell_length_a 32.571341
_cell_length_b 7.842574
_cell_length_c 12.358437
_cell_angle_alpha 90.000000
_cell_angle_beta 90.000000
_cell_angle_gamma 90.000000
_cell_volume 3156.878102
_symmetry_space_group_name_H-M "P M M N"
_symmetry_group_IT_number 59
_space_group.IT_coordinate_system_code '2'
_symmetry_cell_setting 'orthorhombic'
loop_
_space_group_symop_operation_xyz
x,y,z
1/2-x,1/2-y,z
1/2+x,-y,-z
-x,1/2+y,-z
-x,-y,-z
1/2+x,1/2+y,-z
1/2-x,y,z
x,1/2-y,z
loop_
_atom_site_type_symbol
_atom_site_label
_atom_site_fract_x
_atom_site_fract_y
_atom_site_fract_z
Si Si1 0.626561 0.046964 0.880419
Si Si2 0.936930 0.550822 0.235521
Si Si3 0.703095 0.455763 0.268907
Si Si4 0.487751 0.045969 0.377191
Si Si5 0.872083 0.950159 0.408724
Si Si6 0.106727 0.043736 0.355229
Si Si7 0.203023 0.541666 0.978600
Si Si8 0.047296 0.556811 0.001677
O O1 0.625938 0.250000 0.902613
O O2 0.628402 0.020393 0.752493
O O3 0.666820 0.980616 0.942891
O O4 0.583076 0.973245 0.925034
O O5 0.927804 0.750000 0.214125
O O6 0.904765 0.477647 0.322718
O O7 0.936967 0.457118 0.121421
O O8 0.980963 0.536133 0.292928
O O9 0.750000 0.504941 0.290358
O O10 0.700487 0.250000 0.272954
O O11 0.671907 0.529546 0.355038
O O12 0.693216 0.507678 0.145440
O O13 0.490404 0.250000 0.365590
O O14 0.441131 0.992923 0.354908
O O15 0.500000 0.000000 0.500000
O O16 0.882988 0.750000 0.417253
O O17 0.875357 0.018461 0.530138
O O18 0.108531 0.250000 0.352459
O O19 0.250000 0.486929 0.003664
O O20 0.203792 0.750000 0.981080
O O21 0.044596 0.750000 0.039394
O O22 0.000000 0.500000 0.000000
#
# Coordination Sequence:
#
# PCOD9452007 Si02
#       8
#     8   8   8   8   8   8   8   8
#     4  10  21  36  56  82 109 142 187 232 276 332
#     4  11  22  37  56  81 111 143 186 232 276 331
#     4   9  18  34  58  86 111 137 174 223 276 332
#     4  11  21  36  56  78 107 145 188 233 279 328
#     4  10  21  37  54  77 110 145 179 220 272 328
#     4  10  22  39  54  74 109 149 185 223 272 328
#     4   8  15  32  58  84 110 137 169 220 282 332
#     4  11  23  38  55  80 113 149 188 232 284 339
#
# _framework density 20.273192999999999
#
# number of rings (size 3 to 8) (size 9 to 14) (size 15 to 20)
#    0.000    2.000    1.250    3.375    0.000    6.750 
#    0.000    1.250    0.000    3.375    0.000    0.000 
#    0.000    0.000    0.000    0.000    0.000    0.000 
#
# Total GULP energy -357365.299468 kJ/mol
# GULP energy per Si atom -5583.832804 kJ/mol
# Density = 2.022705 g / cm^3
# Si number density = 20.273193 Si / 1000 Ang^3
#
#
#
# Elastic Constant Matrix: (Units=GPa)
#
#
# Indices 1 2 3 4 5 6 
#
# 1 110.7369 0.2420 68.7805 0.0000 0.0000 0.0000
# 2 0.2420 18.9177 -14.1258 0.0000 0.0000 0.0000
# 3 68.7805 -14.1258 116.7064 0.0000 0.0000 0.0000
# 4 0.0000 0.0000 0.0000 23.1477 0.0000 0.0000
# 5 0.0000 0.0000 0.0000 0.0000 36.5872 0.0000
# 6 0.0000 0.0000 0.0000 0.0000 0.0000 20.7487
#
#
#
# Elastic Compliance Matrix: (Units=1/GPa)
#
#
# Indices 1 2 3 4 5 6 
#
# 1 0.015166 -0.007550 -0.009852 0.000000 0.000000 0.000000
# 2 -0.007550 0.061871 0.011939 0.000000 0.000000 0.000000
# 3 -0.009852 0.011939 0.015820 0.000000 0.000000 0.000000
# 4 0.000000 0.000000 0.000000 0.043201 0.000000 0.000000
# 5 0.000000 0.000000 0.000000 0.000000 0.027332 0.000000
# 6 0.000000 0.000000 0.000000 0.000000 0.000000 0.048196
#
#
# Mechanical properties :
#
#
# Convention : Reuss Voigt Hill
#
# Bulk Modulus (GPa) = 12.20561 39.57272 25.88917
# Shear Modulus (GPa) = 20.01413 28.86100 24.43756
#
# Velocity S-wave (km/s) = 3.14542 3.77716 3.47567
# Velocity P-wave (km/s) = 4.38465 6.21166 5.37633
#
# Compressibility (1/GPa) = 0.08192954
#
# Stress axis : x y z
#
# Youngs Moduli (GPa) = 65.93630 16.16255 63.21216
#
# Poissons Ratio (x) = 0.12203 0.62277
# Poissons Ratio (y) = 0.49785 -0.75466
# Poissons Ratio (z) = 0.64960 -0.19296
#
# Static dielectric constant tensor:
#      x y z
#    x 1.717250 0.000000 0.000000 
#    y 0.000000 1.758830 0.000000 
#    z 0.000000 0.000000 1.697180 
# 
# From -- ./inp_files/19225.got.cif
#   From: 2010.05.17/outbox.cif.g08.bks.cpg/sg59_10_cif.got.tgz:19225.got - 2010.06.03 14:40:33.
