data_PCOD9452632
_publ_section_title
;
Structure prediction by ZEFSAII (Michael W. Deem and Ramdas Pophale) SiO2 
 PCOD9452632
Probable space group: P M M N
;
_chemical_formula_sum "Si O2"
_cell_formula_units_Z 48
_cell_length_a 8.695675
_cell_length_b 10.005408
_cell_length_c 29.220576
_cell_angle_alpha 90.000000
_cell_angle_beta 90.000000
_cell_angle_gamma 90.000000
_cell_volume 2542.300455
_symmetry_space_group_name_H-M "P M M N"
_symmetry_group_IT_number 59
_space_group.IT_coordinate_system_code '2'
_symmetry_cell_setting 'orthorhombic'
loop_
_space_group_symop_operation_xyz
x,y,z
1/2-x,1/2-y,z
1/2+x,-y,-z
-x,1/2+y,-z
-x,-y,-z
1/2+x,1/2+y,-z
1/2-x,y,z
x,1/2-y,z
loop_
_atom_site_type_symbol
_atom_site_label
_atom_site_fract_x
_atom_site_fract_y
_atom_site_fract_z
Si Si1 0.932692 0.096580 0.794623
Si Si2 0.934594 0.592979 0.459440
Si Si3 0.563483 0.250000 0.067728
Si Si4 0.564969 0.532742 0.105887
Si Si5 0.064781 0.750000 0.037762
Si Si6 0.431224 0.905255 0.718011
Si Si7 0.066302 0.404426 0.382268
O O1 0.750000 0.074029 0.796214
O O2 0.960353 0.250000 0.780874
O O3 0.000926 0.075949 0.845138
O O4 0.008922 0.998687 0.758190
O O5 0.750000 0.592729 0.462138
O O6 0.984190 0.750000 0.461608
O O7 0.000000 0.500000 0.500000
O O8 0.988389 0.516131 0.413745
O O9 0.750000 0.250000 0.066318
O O10 0.516713 0.382232 0.094320
O O11 0.512529 0.250000 0.014933
O O12 0.750000 0.542805 0.106317
O O13 0.499037 0.624233 0.065594
O O14 0.250000 0.750000 0.039011
O O15 0.250000 0.927114 0.710156
O O16 0.452856 0.750000 0.731054
O O17 0.520002 0.926710 0.670418
O O18 0.250000 0.411989 0.387745
O O19 0.019592 0.250000 0.394141
#
# Coordination Sequence:
#
# PCOD9452632 Si02
#       7
#     8   8   4   8   4   8   8
#     4  11  24  41  60  85 118 154 194 243 297 352
#     4  11  24  40  60  89 124 164 210 257 306 361
#     4   9  22  39  59  87 117 149 191 241 290 345
#     4  11  22  39  61  86 115 152 194 239 291 350
#     4  11  21  39  61  85 119 153 189 237 290 349
#     4  10  22  40  64  92 121 156 198 245 297 356
#     4  10  21  39  63  91 123 159 201 249 302 359
#
# _framework density 18.880538000000001
#
# number of rings (size 3 to 8) (size 9 to 14) (size 15 to 20)
#    0.000    1.500    0.833    3.750    1.167    7.000 
#    0.000    3.750    0.000    0.000    0.000    0.000 
#    0.000    0.000    0.000    0.000    0.000    0.000 
#
# Total GULP energy -268240.149561 kJ/mol
# GULP energy per Si atom -5588.336449 kJ/mol
# Density = 1.883757 g / cm^3
# Si number density = 18.880538 Si / 1000 Ang^3
#
#
#
# Elastic Constant Matrix: (Units=GPa)
#
#
# Indices 1 2 3 4 5 6 
#
# 1 58.4612 43.8535 24.7769 0.0000 0.0000 0.0000
# 2 43.8535 109.0177 37.8378 0.0000 0.0000 0.0000
# 3 24.7769 37.8378 69.5884 0.0000 0.0000 0.0000
# 4 0.0000 0.0000 0.0000 48.1269 0.0000 0.0000
# 5 0.0000 0.0000 0.0000 0.0000 31.1307 0.0000
# 6 0.0000 0.0000 0.0000 0.0000 0.0000 39.4851
#
#
#
# Elastic Compliance Matrix: (Units=1/GPa)
#
#
# Indices 1 2 3 4 5 6 
#
# 1 0.025508 -0.008762 -0.004318 0.000000 0.000000 0.000000
# 2 -0.008762 0.014317 -0.004665 0.000000 0.000000 0.000000
# 3 -0.004318 -0.004665 0.018444 0.000000 0.000000 0.000000
# 4 0.000000 0.000000 0.000000 0.020778 0.000000 0.000000
# 5 0.000000 0.000000 0.000000 0.000000 0.032123 0.000000
# 6 0.000000 0.000000 0.000000 0.000000 0.000000 0.025326
#
#
# Mechanical properties :
#
#
# Convention : Reuss Voigt Hill
#
# Bulk Modulus (GPa) = 43.89972 50.00040 46.95006
# Shear Modulus (GPa) = 27.84302 32.45515 30.14908
#
# Velocity S-wave (km/s) = 3.84434 4.15055 4.00038
# Velocity P-wave (km/s) = 6.55798 7.03629 6.80134
#
# Compressibility (1/GPa) = 0.02277919
#
# Stress axis : x y z
#
# Youngs Moduli (GPa) = 39.20305 69.84920 54.21851
#
# Poissons Ratio (x) = 0.61204 0.23410
# Poissons Ratio (y) = 0.34351 0.25291
# Poissons Ratio (z) = 0.16927 0.32582
#
# Static dielectric constant tensor:
#      x y z
#    x 1.639040 0.000000 0.000000 
#    y 0.000000 1.540300 0.000000 
#    z 0.000000 0.000000 1.615670 
# 
# From -- ./inp_files/33022.got.cif
#   From: 2010.05.17/outbox.cif.g08.bks.cpg/sg59_17_cif.got.tgz:33022.got - 2010.06.03 14:40:33.
