data_PCOD9452572
_publ_section_title
;
Structure prediction by ZEFSAII (Michael W. Deem and Ramdas Pophale) SiO2 
 PCOD9452572
Probable space group: P M M N
;
_chemical_formula_sum "Si O2"
_cell_formula_units_Z 64
_cell_length_a 12.918385
_cell_length_b 18.625179
_cell_length_c 12.132603
_cell_angle_alpha 90.000000
_cell_angle_beta 90.000000
_cell_angle_gamma 90.000000
_cell_volume 2919.192037
_symmetry_space_group_name_H-M "P M M N"
_symmetry_group_IT_number 59
_space_group.IT_coordinate_system_code '2'
_symmetry_cell_setting 'orthorhombic'
loop_
_space_group_symop_operation_xyz
x,y,z
1/2-x,1/2-y,z
1/2+x,-y,-z
-x,1/2+y,-z
-x,-y,-z
1/2+x,1/2+y,-z
1/2-x,y,z
x,1/2-y,z
loop_
_atom_site_type_symbol
_atom_site_label
_atom_site_fract_x
_atom_site_fract_y
_atom_site_fract_z
Si Si1 0.134434 0.665133 0.172075
Si Si2 0.364873 0.605709 0.511093
Si Si3 0.085914 0.366123 0.740105
Si Si4 0.860800 0.667171 0.010313
Si Si5 0.054369 0.924252 0.970582
Si Si6 0.085855 0.966468 0.740173
Si Si7 0.864544 0.533288 0.646283
Si Si8 0.414100 0.171404 0.498692
O O1 0.250000 0.655704 0.218324
O O2 0.123620 0.750000 0.141353
O O3 0.038431 0.645991 0.250331
O O4 0.119350 0.612024 0.068439
O O5 0.250000 0.635327 0.490576
O O6 0.370731 0.574941 0.635427
O O7 0.380483 0.535829 0.432948
O O8 0.461614 0.658484 0.499234
O O9 0.112718 0.449934 0.735716
O O10 0.121636 0.332963 0.625597
O O11 0.126895 0.337188 0.856550
O O12 0.750000 0.634234 0.980739
O O13 0.861467 0.750000 0.979296
O O14 0.957386 0.628706 0.956984
O O15 0.115098 0.934419 0.857603
O O16 0.000000 0.000000 0.000000
O O17 0.960437 0.963981 0.729006
O O18 0.750000 0.528018 0.695891
O O19 0.871227 0.604720 0.571003
O O20 0.389579 0.250000 0.453121
#
# Coordination Sequence:
#
# PCOD9452572 Si02
#       8
#     8   8   8   8   8   8   8   8
#     4  10  22  39  57  81 117 156 189 227 282 342
#     4  10  21  39  60  81 113 154 190 227 276 338
#     4  11  19  36  58  89 118 147 182 229 291 343
#     4  10  22  39  57  81 117 156 189 227 282 342
#     4  11  21  37  57  85 114 147 187 240 281 326
#     4  11  20  37  59  87 115 143 189 235 285 331
#     4  10  21  39  60  81 113 154 190 227 276 338
#     4  11  21  36  59  86 118 148 183 236 287 337
#
# _framework density 21.923874999999999
#
# number of rings (size 3 to 8) (size 9 to 14) (size 15 to 20)
#    0.000    1.500    5.000    3.000    0.000    4.000 
#    0.000    5.000    0.000    0.000    0.000    0.000 
#    0.000    0.000    0.000    0.000    0.000    0.000 
#
# Total GULP energy -357780.869134 kJ/mol
# GULP energy per Si atom -5590.326080 kJ/mol
# Density = 2.187398 g / cm^3
# Si number density = 21.923875 Si / 1000 Ang^3
#
#
#
# Elastic Constant Matrix: (Units=GPa)
#
#
# Indices 1 2 3 4 5 6 
#
# 1 95.8328 -3.3734 -13.8756 0.0000 0.0000 0.0000
# 2 -3.3734 92.4554 16.5116 0.0000 0.0000 0.0000
# 3 -13.8756 16.5116 60.1277 0.0000 0.0000 0.0000
# 4 0.0000 0.0000 0.0000 -49.0283 0.0000 0.0000
# 5 0.0000 0.0000 0.0000 0.0000 -11.0404 0.0000
# 6 0.0000 0.0000 0.0000 0.0000 0.0000 -1.0568
#
#
#
# Elastic Compliance Matrix: (Units=1/GPa)
#
#
# Indices 1 2 3 4 5 6 
#
# 1 0.010796 -0.000054 0.002506 0.000000 0.000000 0.000000
# 2 -0.000054 0.011374 -0.003136 0.000000 0.000000 0.000000
# 3 0.002506 -0.003136 0.018071 0.000000 0.000000 0.000000
# 4 0.000000 0.000000 0.000000 -0.020396 0.000000 0.000000
# 5 0.000000 0.000000 0.000000 0.000000 -0.090577 0.000000
# 6 0.000000 0.000000 0.000000 0.000000 0.000000 -0.946265
#
#
# Mechanical properties :
#
#
# Convention : Reuss Voigt Hill
#
# Bulk Modulus (GPa) = 25.72424 27.43789 26.58106
# Shear Modulus (GPa) = -4.98667 4.38513 -0.30077
#
# Velocity S-wave (km/s) = -1.50979 1.41581 -0.37079
# Velocity P-wave (km/s) = 2.95290 3.90063 3.45937
#
# Compressibility (1/GPa) = 0.03887384
#
# Stress axis : x y z
#
# Youngs Moduli (GPa) = 92.62859 87.91906 55.33812
#
# Poissons Ratio (x) = 0.00472 -0.13868
# Poissons Ratio (y) = 0.00497 0.17353
# Poissons Ratio (z) = -0.23213 0.27570
#
# Static dielectric constant tensor:
#      x y z
#    x 1.855830 0.000000 0.000000 
#    y 0.000000 1.761460 0.000000 
#    z 0.000000 0.000000 1.769570 
# 
# From -- ./inp_files/17234.got.cif
#   From: 2010.05.17/outbox.cif.g08.bks.cpg/sg59_9_cif.got.tgz:17234.got - 2010.06.03 14:40:33.
