data_PCOD9452073
_publ_section_title
;
Structure prediction by ZEFSAII (Michael W. Deem and Ramdas Pophale) SiO2 
 PCOD9452073
Probable space group: P M M N
;
_chemical_formula_sum "Si O2"
_cell_formula_units_Z 40
_cell_length_a 7.619174
_cell_length_b 16.235699
_cell_length_c 14.316587
_cell_angle_alpha 90.000000
_cell_angle_beta 90.000000
_cell_angle_gamma 90.000000
_cell_volume 1770.999260
_symmetry_space_group_name_H-M "P M M N"
_symmetry_group_IT_number 59
_space_group.IT_coordinate_system_code '2'
_symmetry_cell_setting 'orthorhombic'
loop_
_space_group_symop_operation_xyz
x,y,z
1/2-x,1/2-y,z
1/2+x,-y,-z
-x,1/2+y,-z
-x,-y,-z
1/2+x,1/2+y,-z
1/2-x,y,z
x,1/2-y,z
loop_
_atom_site_type_symbol
_atom_site_label
_atom_site_fract_x
_atom_site_fract_y
_atom_site_fract_z
Si Si1 0.461248 0.085331 0.947318
Si Si2 0.534797 0.843258 0.451803
Si Si3 0.536622 0.750000 0.945613
Si Si4 0.952493 0.920663 0.637137
Si Si5 0.451239 0.081686 0.737340
Si Si6 0.045562 0.750000 0.728265
O O1 0.250000 0.090102 0.942979
O O2 0.529703 0.085132 0.840668
O O3 0.522078 0.166584 0.002319
O O4 0.500000 0.000000 0.000000
O O5 0.750000 0.846980 0.452380
O O6 0.485281 0.750000 0.475440
O O7 0.475477 0.905016 0.533016
O O8 0.471548 0.866673 0.348689
O O9 0.750000 0.750000 0.944650
O O10 0.474239 0.750000 0.839484
O O11 0.750000 0.946842 0.631059
O O12 0.961424 0.832256 0.686800
O O13 0.047698 0.988619 0.698784
O O14 0.250000 0.110654 0.746400
O O15 0.250000 0.750000 0.702985
#
# Coordination Sequence:
#
# PCOD9452073 Si02
#       6
#     8   8   4   8   8   4
#     4  10  22  39  60  87 118 153 198 247 295 350
#     4   9  18  34  58  86 117 153 193 236 284 344
#     4  10  22  40  61  86 116 156 199 244 301 362
#     4  11  21  37  59  85 118 156 193 233 288 351
#     4  10  21  36  59  88 117 152 196 242 288 339
#     4  12  24  38  59  86 114 148 195 248 293 342
#
# _framework density 22.586119
#
# number of rings (size 3 to 8) (size 9 to 14) (size 15 to 20)
#    0.000    1.800    1.000    3.300    1.400    4.800 
#    0.000    1.000    0.000    0.000    0.000    0.000 
#    0.000    0.000    0.000    0.000    0.000    0.000 
#
# Total GULP energy -223618.468782 kJ/mol
# GULP energy per Si atom -5590.461720 kJ/mol
# Density = 2.253471 g / cm^3
# Si number density = 22.586119 Si / 1000 Ang^3
#
#
#
# Elastic Constant Matrix: (Units=GPa)
#
#
# Indices 1 2 3 4 5 6 
#
# 1 60.8509 -9.9977 -0.6924 0.0000 0.0000 0.0000
# 2 -9.9977 104.3620 41.0826 0.0000 0.0000 0.0000
# 3 -0.6924 41.0826 178.9678 0.0000 0.0000 0.0000
# 4 0.0000 0.0000 0.0000 25.6405 0.0000 0.0000
# 5 0.0000 0.0000 0.0000 0.0000 10.5966 0.0000
# 6 0.0000 0.0000 0.0000 0.0000 0.0000 16.8878
#
#
#
# Elastic Compliance Matrix: (Units=1/GPa)
#
#
# Indices 1 2 3 4 5 6 
#
# 1 0.016714 0.001732 -0.000333 0.000000 0.000000 0.000000
# 2 0.001732 0.010713 -0.002453 0.000000 0.000000 0.000000
# 3 -0.000333 -0.002453 0.006149 0.000000 0.000000 0.000000
# 4 0.000000 0.000000 0.000000 0.039001 0.000000 0.000000
# 5 0.000000 0.000000 0.000000 0.000000 0.094370 0.000000
# 6 0.000000 0.000000 0.000000 0.000000 0.000000 0.059214
#
#
# Mechanical properties :
#
#
# Convention : Reuss Voigt Hill
#
# Bulk Modulus (GPa) = 31.77571 44.99619 38.38595
# Shear Modulus (GPa) = 20.94160 31.54420 26.24290
#
# Velocity S-wave (km/s) = 3.04828 3.74119 3.41237
# Velocity P-wave (km/s) = 5.14671 6.21509 5.70596
#
# Compressibility (1/GPa) = 0.03147058
#
# Stress axis : x y z
#
# Youngs Moduli (GPa) = 59.82858 93.34058 162.61982
#
# Poissons Ratio (x) = -0.16169 0.05415
# Poissons Ratio (y) = -0.10364 0.39884
# Poissons Ratio (z) = 0.01992 0.22893
#
# Static dielectric constant tensor:
#      x y z
#    x 1.881630 0.000000 0.000000 
#    y 0.000000 1.798260 0.000000 
#    z 0.000000 0.000000 1.830300 
# 
# From -- ./inp_files/19966.got.cif
#   From: 2010.05.17/outbox.cif.g08.bks.cpg/sg59_10_cif.got.tgz:19966.got - 2010.06.03 14:40:33.
