data_PCOD9452192
_publ_section_title
;
Structure prediction by ZEFSAII (Michael W. Deem and Ramdas Pophale) SiO2 
 PCOD9452192
Probable space group: P M M N
;
_chemical_formula_sum "Si O2"
_cell_formula_units_Z 64
_cell_length_a 8.774389
_cell_length_b 20.706770
_cell_length_c 18.938916
_cell_angle_alpha 90.000000
_cell_angle_beta 90.000000
_cell_angle_gamma 90.000000
_cell_volume 3440.997537
_symmetry_space_group_name_H-M "P M M N"
_symmetry_group_IT_number 59
_space_group.IT_coordinate_system_code '2'
_symmetry_cell_setting 'orthorhombic'
loop_
_space_group_symop_operation_xyz
x,y,z
1/2-x,1/2-y,z
1/2+x,-y,-z
-x,1/2+y,-z
-x,-y,-z
1/2+x,1/2+y,-z
1/2-x,y,z
x,1/2-y,z
loop_
_atom_site_type_symbol
_atom_site_label
_atom_site_fract_x
_atom_site_fract_y
_atom_site_fract_z
Si Si1 0.431451 0.943629 0.548498
Si Si2 0.569230 0.942174 0.703729
Si Si3 0.933219 0.175435 0.049648
Si Si4 0.932281 0.561126 0.040977
Si Si5 0.566773 0.825427 0.465212
Si Si6 0.067951 0.674343 0.786057
Si Si7 0.935210 0.822968 0.302132
Si Si8 0.565238 0.558031 0.205129
O O1 0.250000 0.948192 0.548746
O O2 0.494115 0.950838 0.627388
O O3 0.484551 0.875344 0.516083
O O4 0.500000 0.000000 0.500000
O O5 0.750000 0.947613 0.697904
O O6 0.522005 0.873041 0.735430
O O7 0.504542 0.996286 0.756435
O O8 0.750000 0.170132 0.043214
O O9 0.975047 0.250000 0.035631
O O10 0.970190 0.161077 0.131722
O O11 0.011885 0.125548 0.997860
O O12 0.750000 0.557571 0.038455
O O13 0.978795 0.560679 0.123112
O O14 0.000000 0.500000 0.000000
O O15 0.750000 0.834121 0.470715
O O16 0.534025 0.750000 0.480124
O O17 0.522590 0.838003 0.383302
O O18 0.250000 0.663743 0.777787
O O19 0.038240 0.750000 0.772742
O O20 0.750000 0.821826 0.301042
O O21 0.986939 0.750000 0.285123
O O22 0.983991 0.877824 0.247723
O O23 0.750000 0.553911 0.208836
#
# Coordination Sequence:
#
# PCOD9452192 Si02
#       8
#     8   8   8   8   8   8   8   8
#     4  12  25  41  61  84 114 151 192 237 284 335
#     4  12  25  39  58  85 115 147 186 233 286 342
#     4   9  19  37  60  84 113 150 190 235 288 343
#     4  11  23  36  54  81 113 151 193 238 286 339
#     4   9  18  35  60  88 116 147 185 228 277 336
#     4   9  19  38  62  85 111 147 190 234 284 341
#     4   8  15  31  57  84 108 138 176 220 271 324
#     4  10  21  37  57  81 111 148 190 235 281 333
#
# _framework density 18.599257000000001
#
# number of rings (size 3 to 8) (size 9 to 14) (size 15 to 20)
#    0.000    2.000    0.000    5.625    0.000    7.250 
#    0.000    2.500    0.000    1.125    0.000    0.000 
#    0.000    0.000    0.000    0.000    0.000    0.000 
#
# Total GULP energy -357583.095562 kJ/mol
# GULP energy per Si atom -5587.235868 kJ/mol
# Density = 1.855692 g / cm^3
# Si number density = 18.599257 Si / 1000 Ang^3
#
#
#
# Elastic Constant Matrix: (Units=GPa)
#
#
# Indices 1 2 3 4 5 6 
#
# 1 62.6232 48.0087 55.3314 0.0000 0.0000 0.0000
# 2 48.0087 82.8016 70.6492 0.0000 0.0000 0.0000
# 3 55.3314 70.6492 117.9579 0.0000 0.0000 0.0000
# 4 0.0000 0.0000 0.0000 39.8179 0.0000 0.0000
# 5 0.0000 0.0000 0.0000 0.0000 26.8485 0.0000
# 6 0.0000 0.0000 0.0000 0.0000 0.0000 27.8605
#
#
#
# Elastic Compliance Matrix: (Units=1/GPa)
#
#
# Indices 1 2 3 4 5 6 
#
# 1 0.032043 -0.011768 -0.007983 0.000000 0.000000 0.000000
# 2 -0.011768 0.029021 -0.011862 0.000000 0.000000 0.000000
# 3 -0.007983 -0.011862 0.019326 0.000000 0.000000 0.000000
# 4 0.000000 0.000000 0.000000 0.025114 0.000000 0.000000
# 5 0.000000 0.000000 0.000000 0.000000 0.037246 0.000000
# 6 0.000000 0.000000 0.000000 0.000000 0.000000 0.035893
#
#
# Mechanical properties :
#
#
# Convention : Reuss Voigt Hill
#
# Bulk Modulus (GPa) = 58.25317 67.92902 63.09110
# Shear Modulus (GPa) = 20.19470 24.86492 22.52981
#
# Velocity S-wave (km/s) = 3.29869 3.66030 3.48419
# Velocity P-wave (km/s) = 6.77471 7.38007 7.08386
#
# Compressibility (1/GPa) = 0.01716645
#
# Stress axis : x y z
#
# Youngs Moduli (GPa) = 31.20803 34.45807 51.74273
#
# Poissons Ratio (x) = 0.40549 0.41304
# Poissons Ratio (y) = 0.36725 0.61375
# Poissons Ratio (z) = 0.24912 0.40873
#
# Static dielectric constant tensor:
#      x y z
#    x 1.623230 0.000000 0.000000 
#    y 0.000000 1.632190 0.000000 
#    z 0.000000 0.000000 1.617570 
# 
# From -- ./inp_files/26184.got.cif
#   From: 2010.05.17/outbox.cif.g08.bks.cpg/sg59_14_cif.got.tgz:26184.got - 2010.06.03 14:40:33.
