data_PCOD9452751
_publ_section_title
;
Structure prediction by ZEFSAII (Michael W. Deem and Ramdas Pophale) SiO2 
 PCOD9452751
Probable space group: P M M N
;
_chemical_formula_sum "Si O2"
_cell_formula_units_Z 64
_cell_length_a 7.849137
_cell_length_b 18.779896
_cell_length_c 20.755776
_cell_angle_alpha 90.000000
_cell_angle_beta 90.000000
_cell_angle_gamma 90.000000
_cell_volume 3059.525430
_symmetry_space_group_name_H-M "P M M N"
_symmetry_group_IT_number 59
_space_group.IT_coordinate_system_code '2'
_symmetry_cell_setting 'orthorhombic'
loop_
_space_group_symop_operation_xyz
x,y,z
1/2-x,1/2-y,z
1/2+x,-y,-z
-x,1/2+y,-z
-x,-y,-z
1/2+x,1/2+y,-z
1/2-x,y,z
x,1/2-y,z
loop_
_atom_site_type_symbol
_atom_site_label
_atom_site_fract_x
_atom_site_fract_y
_atom_site_fract_z
Si Si1 0.554280 0.909388 0.327401
Si Si2 0.043473 0.432722 0.914806
Si Si3 0.951252 0.934613 0.708631
Si Si4 0.546584 0.593479 0.942287
Si Si5 0.040960 0.331689 0.798056
Si Si6 0.049768 0.578277 0.474825
Si Si7 0.458732 0.170934 0.180928
Si Si8 0.042544 0.668986 0.592264
O O1 0.750000 0.888601 0.333348
O O2 0.478666 0.859520 0.271511
O O3 0.486399 0.909222 0.399939
O O4 0.539997 0.990146 0.301823
O O5 0.250000 0.431769 0.914953
O O6 0.985310 0.385105 0.854888
O O7 0.988588 0.515004 0.913636
O O8 0.981437 0.404071 0.984510
O O9 0.750000 0.948806 0.716083
O O10 0.014782 0.889704 0.769622
O O11 0.978895 0.884390 0.647016
O O12 0.750000 0.602174 0.946426
O O13 0.483850 0.650723 0.890842
O O14 0.250000 0.334095 0.797624
O O15 0.991722 0.250000 0.809741
O O16 0.250000 0.581451 0.482111
O O17 0.980470 0.637667 0.523857
O O18 0.000000 0.500000 0.500000
O O19 0.250000 0.170404 0.182156
O O20 0.513752 0.250000 0.200082
O O21 0.250000 0.668751 0.594217
O O22 0.985936 0.750000 0.602743
#
# Coordination Sequence:
#
# PCOD9452751 Si02
#       8
#     8   8   8   8   8   8   8   8
#     4  11  22  36  57  81 108 142 180 225 273 321
#     4   9  17  31  53  78 103 137 180 226 270 318
#     4  11  21  34  55  79 106 142 182 222 265 321
#     4   9  17  30  51  77 105 138 177 221 272 325
#     4   9  19  35  54  79 110 143 185 234 279 325
#     4  11  22  38  60  84 111 142 178 220 267 322
#     4   9  18  31  47  73 107 137 170 216 265 313
#     4  10  22  39  58  81 110 141 173 216 270 322
#
# _framework density 20.918277
#
# number of rings (size 3 to 8) (size 9 to 14) (size 15 to 20)
#    0.000    2.125    1.250    2.250    0.000    2.250 
#    0.000    3.750    0.000    4.875    0.000    3.500 
#    0.000    0.000    0.000    0.000    0.000    0.000 
#
# Total GULP energy -357334.334135 kJ/mol
# GULP energy per Si atom -5583.348971 kJ/mol
# Density = 2.087067 g / cm^3
# Si number density = 20.918277 Si / 1000 Ang^3
#
#
#
# Elastic Constant Matrix: (Units=GPa)
#
#
# Indices 1 2 3 4 5 6 
#
# 1 19.5149 -14.2195 -4.2523 0.0000 0.0000 0.0000
# 2 -14.2195 32.9432 15.4462 0.0000 0.0000 0.0000
# 3 -4.2523 15.4462 103.6494 0.0000 0.0000 0.0000
# 4 0.0000 0.0000 0.0000 4.6777 0.0000 0.0000
# 5 0.0000 0.0000 0.0000 0.0000 12.5919 0.0000
# 6 0.0000 0.0000 0.0000 0.0000 0.0000 -2.1713
#
#
#
# Elastic Compliance Matrix: (Units=1/GPa)
#
#
# Indices 1 2 3 4 5 6 
#
# 1 0.075093 0.033295 -0.001881 0.000000 0.000000 0.000000
# 2 0.033295 0.047398 -0.005697 0.000000 0.000000 0.000000
# 3 -0.001881 -0.005697 0.010420 0.000000 0.000000 0.000000
# 4 0.000000 0.000000 0.000000 0.213779 0.000000 0.000000
# 5 0.000000 0.000000 0.000000 0.000000 0.079416 0.000000
# 6 0.000000 0.000000 0.000000 0.000000 0.000000 -0.460550
#
#
# Mechanical properties :
#
#
# Convention : Reuss Voigt Hill
#
# Bulk Modulus (GPa) = 5.42465 16.67293 11.04879
# Shear Modulus (GPa) = -204.67562 13.62853 -95.52354
#
# Velocity S-wave (km/s) = -9.90241 2.55524 -6.76493
# Velocity P-wave (km/s) = 11.32011 4.08577 7.46496
#
# Compressibility (1/GPa) = 0.18434375
#
# Stress axis : x y z
#
# Youngs Moduli (GPa) = 13.31678 21.09800 95.97119
#
# Poissons Ratio (x) = -0.70245 0.18051
# Poissons Ratio (y) = -0.44338 0.54679
# Poissons Ratio (z) = 0.02505 0.12020
#
# Static dielectric constant tensor:
#      x y z
#    x 1.710380 0.000000 0.000000 
#    y 0.000000 1.682190 0.000000 
#    z 0.000000 0.000000 1.770480 
# 
# From -- ./inp_files/29547.got.cif
#   From: 2010.05.17/outbox.cif.g08.bks.cpg/sg59_15_cif.got.tgz:29547.got - 2010.06.03 14:40:33.
