data_PCOD9452363
_publ_section_title
;
Structure prediction by ZEFSAII (Michael W. Deem and Ramdas Pophale) SiO2 
 PCOD9452363
Probable space group: P M M N
;
_chemical_formula_sum "Si O2"
_cell_formula_units_Z 56
_cell_length_a 21.005441
_cell_length_b 15.972672
_cell_length_c 7.753645
_cell_angle_alpha 90.000000
_cell_angle_beta 90.000000
_cell_angle_gamma 90.000000
_cell_volume 2601.448845
_symmetry_space_group_name_H-M "P M M N"
_symmetry_group_IT_number 59
_space_group.IT_coordinate_system_code '2'
_symmetry_cell_setting 'orthorhombic'
loop_
_space_group_symop_operation_xyz
x,y,z
1/2-x,1/2-y,z
1/2+x,-y,-z
-x,1/2+y,-z
-x,-y,-z
1/2+x,1/2+y,-z
1/2-x,y,z
x,1/2-y,z
loop_
_atom_site_type_symbol
_atom_site_label
_atom_site_fract_x
_atom_site_fract_y
_atom_site_fract_z
Si Si1 0.323216 0.016691 0.272486
Si Si2 0.454753 0.070948 0.418464
Si Si3 0.571075 0.845364 0.251281
Si Si4 0.006520 0.844882 0.915217
Si Si5 0.179999 0.033071 0.871119
Si Si6 0.147651 0.655709 0.793653
Si Si7 0.325101 0.659865 0.406436
O O1 0.250000 0.033380 0.330996
O O2 0.328753 0.046572 0.076205
O O3 0.332984 0.916592 0.279172
O O4 0.380233 0.049796 0.389826
O O5 0.457059 0.144605 0.558445
O O6 0.479630 0.094328 0.230024
O O7 0.500000 0.000000 0.500000
O O8 0.594108 0.750000 0.225515
O O9 0.518305 0.863828 0.105610
O O10 0.625346 0.915026 0.223087
O O11 0.984903 0.750000 0.874108
O O12 0.081900 0.846375 0.896218
O O13 0.250000 0.063908 0.820087
O O14 0.179365 0.932935 0.838387
O O15 0.175898 0.750000 0.822004
O O16 0.137509 0.650809 0.585902
O O17 0.250000 0.659517 0.457488
O O18 0.339908 0.750000 0.327656
#
# Coordination Sequence:
#
# PCOD9452363 Si02
#       7
#     8   8   8   8   8   8   8
#     4  10  22  39  58  87 126 167 211 267 334 394
#     4  12  24  39  68  99 126 169 215 275 334 397
#     4  11  25  44  67  93 126 172 220 271 329 386
#     4  10  22  42  62  89 131 165 208 265 316 386
#     4  11  23  40  64  91 127 170 216 273 328 394
#     4  10  21  37  61  92 127 168 208 261 328 392
#     4   9  17  32  53  79 116 159 204 252 307 383
#
# _framework density 21.526465999999999
#
# number of rings (size 3 to 8) (size 9 to 14) (size 15 to 20)
#    0.000    1.571    1.429    3.429    2.000    4.571 
#    0.000    2.143    0.000    1.286    0.000    0.000 
#    0.000    0.000    0.000    0.000    0.000    0.000 
#
# Total GULP energy -312643.244779 kJ/mol
# GULP energy per Si atom -5582.915085 kJ/mol
# Density = 2.147747 g / cm^3
# Si number density = 21.526466 Si / 1000 Ang^3
#
#
#
# Elastic Constant Matrix: (Units=GPa)
#
#
# Indices 1 2 3 4 5 6 
#
# 1 60.9183 16.1816 4.3435 0.0000 0.0000 0.0000
# 2 16.1816 65.9553 11.6492 0.0000 0.0000 0.0000
# 3 4.3435 11.6492 56.1276 0.0000 0.0000 0.0000
# 4 0.0000 0.0000 0.0000 33.3481 0.0000 0.0000
# 5 0.0000 0.0000 0.0000 0.0000 12.0139 0.0000
# 6 0.0000 0.0000 0.0000 0.0000 0.0000 10.9830
#
#
#
# Elastic Compliance Matrix: (Units=1/GPa)
#
#
# Indices 1 2 3 4 5 6 
#
# 1 0.017572 -0.004226 -0.000483 0.000000 0.000000 0.000000
# 2 -0.004226 0.016755 -0.003150 0.000000 0.000000 0.000000
# 3 -0.000483 -0.003150 0.018508 0.000000 0.000000 0.000000
# 4 0.000000 0.000000 0.000000 0.029987 0.000000 0.000000
# 5 0.000000 0.000000 0.000000 0.000000 0.083237 0.000000
# 6 0.000000 0.000000 0.000000 0.000000 0.000000 0.091050
#
#
# Mechanical properties :
#
#
# Convention : Reuss Voigt Hill
#
# Bulk Modulus (GPa) = 26.94196 27.48330 27.21263
# Shear Modulus (GPa) = 17.53159 21.32412 19.42786
#
# Velocity S-wave (km/s) = 2.85690 3.15079 3.00744
# Velocity P-wave (km/s) = 4.83998 5.10212 4.97278
#
# Compressibility (1/GPa) = 0.03711682
#
# Stress axis : x y z
#
# Youngs Moduli (GPa) = 56.90743 59.68358 54.03139
#
# Poissons Ratio (x) = 0.25222 0.02609
# Poissons Ratio (y) = 0.24049 0.17022
# Poissons Ratio (z) = 0.02747 0.18803
#
# Static dielectric constant tensor:
#      x y z
#    x 1.792950 0.000000 0.000000 
#    y 0.000000 1.799760 0.000000 
#    z 0.000000 0.000000 1.774690 
# 
# From -- ./inp_files/11446.got.cif
#   From: 2010.05.17/outbox.cif.g08.bks.cpg/sg59_6_cif.got.tgz:11446.got - 2010.06.03 14:40:33.
