data_PCOD9452777
_publ_section_title
;
Structure prediction by ZEFSAII (Michael W. Deem and Ramdas Pophale) SiO2 
 PCOD9452777
Probable space group: P M M N
;
_chemical_formula_sum "Si O2"
_cell_formula_units_Z 58
_cell_length_a 26.482377
_cell_length_b 16.126134
_cell_length_c 7.098164
_cell_angle_alpha 90.000000
_cell_angle_beta 90.000000
_cell_angle_gamma 90.000000
_cell_volume 3031.330278
_symmetry_space_group_name_H-M "P M M N"
_symmetry_group_IT_number 59
_space_group.IT_coordinate_system_code '2'
_symmetry_cell_setting 'orthorhombic'
loop_
_space_group_symop_operation_xyz
x,y,z
1/2-x,1/2-y,z
1/2+x,-y,-z
-x,1/2+y,-z
-x,-y,-z
1/2+x,1/2+y,-z
1/2-x,y,z
x,1/2-y,z
loop_
_atom_site_type_symbol
_atom_site_label
_atom_site_fract_x
_atom_site_fract_y
_atom_site_fract_z
Si Si1 0.144453 0.954616 0.251052
Si Si2 0.825626 0.405536 0.155629
Si Si3 0.598155 0.151206 0.433767
Si Si4 0.402165 0.151440 0.739263
Si Si5 0.307236 0.439172 0.575066
Si Si6 0.449718 0.045738 0.073903
Si Si7 0.250000 0.750000 0.800184
Si Si8 0.484537 0.151003 0.421834
O O1 0.133864 0.881034 0.398996
O O2 0.172502 0.024536 0.375725
O O3 0.174243 0.925964 0.065513
O O4 0.090610 0.986285 0.175336
O O5 0.881472 0.386857 0.238684
O O6 0.807387 0.483764 0.277940
O O7 0.793427 0.323666 0.196044
O O8 0.599412 0.250000 0.424338
O O9 0.541063 0.122874 0.471767
O O10 0.403902 0.250000 0.780363
O O11 0.347800 0.125209 0.657563
O O12 0.418564 0.095178 0.914674
O O13 0.443811 0.131167 0.580585
O O14 0.250000 0.408079 0.556891
O O15 0.468361 0.110977 0.227828
O O16 0.500000 0.000000 0.000000
O O17 0.485784 0.250000 0.403442
#
# Coordination Sequence:
#
# PCOD9452777 Si02
#       8
#     8   8   8   8   8   8   2   8
#     4  11  24  39  63  94 127 169 216 269 326 393
#     4  11  23  43  61  95 129 173 219 274 327 389
#     4  10  22  39  60  91 134 174 216 261 315 391
#     4  11  24  44  68  96 130 171 224 275 332 396
#     4  11  24  44  68  91 127 169 223 278 334 391
#     4  12  23  38  67  98 130 173 213 261 333 404
#     4  12  24  40  70  92 134 178 220 268 332 384
#     4  10  22  40  62  93 132 168 208 264 322 388
#
# _framework density 19.133514999999999
#
# number of rings (size 3 to 8) (size 9 to 14) (size 15 to 20)
#    0.000    1.103    4.138    2.069    3.862    1.379 
#    0.000    6.207    0.000    0.000    0.000    0.000 
#    0.000    0.000    0.000    0.000    0.000    0.000 
#
# Total GULP energy -323457.099466 kJ/mol
# GULP energy per Si atom -5576.846543 kJ/mol
# Density = 1.908997 g / cm^3
# Si number density = 19.133515 Si / 1000 Ang^3
#
#
#
# Elastic Constant Matrix: (Units=GPa)
#
#
# Indices 1 2 3 4 5 6 
#
# 1 84.9069 21.6219 1.7660 0.0000 0.0000 0.0000
# 2 21.6219 29.9333 31.3929 0.0000 0.0000 0.0000
# 3 1.7660 31.3929 92.2638 0.0000 0.0000 0.0000
# 4 0.0000 0.0000 0.0000 25.6697 0.0000 0.0000
# 5 0.0000 0.0000 0.0000 0.0000 6.9051 0.0000
# 6 0.0000 0.0000 0.0000 0.0000 0.0000 8.8677
#
#
#
# Elastic Compliance Matrix: (Units=1/GPa)
#
#
# Indices 1 2 3 4 5 6 
#
# 1 0.016150 -0.017634 0.005691 0.000000 0.000000 0.000000
# 2 -0.017634 0.071198 -0.023888 0.000000 0.000000 0.000000
# 3 0.005691 -0.023888 0.018857 0.000000 0.000000 0.000000
# 4 0.000000 0.000000 0.000000 0.038957 0.000000 0.000000
# 5 0.000000 0.000000 0.000000 0.000000 0.144821 0.000000
# 6 0.000000 0.000000 0.000000 0.000000 0.000000 0.112768
#
#
# Mechanical properties :
#
#
# Convention : Reuss Voigt Hill
#
# Bulk Modulus (GPa) = 28.94907 35.18507 32.06707
# Shear Modulus (GPa) = 10.28962 18.44337 14.36650
#
# Velocity S-wave (km/s) = 2.32152 3.10809 2.74315
# Velocity P-wave (km/s) = 4.72746 5.59549 5.17969
#
# Compressibility (1/GPa) = 0.03454342
#
# Stress axis : x y z
#
# Youngs Moduli (GPa) = 61.92027 14.04544 53.02977
#
# Poissons Ratio (x) = 0.24768 -0.30178
# Poissons Ratio (y) = 1.09190 1.26675
# Poissons Ratio (z) = -0.35238 0.33551
#
# Static dielectric constant tensor:
#      x y z
#    x 1.652960 0.000000 0.000000 
#    y 0.000000 1.653240 0.000000 
#    z 0.000000 0.000000 1.668390 
# 
# From -- ./inp_files/4277.got.cif
#   From: 2010.05.17/outbox.cif.g08.bks.cpg/sg59_3_cif.got.tgz:4277.got - 2010.06.03 14:40:33.
