data_PCOD9452127
_publ_section_title
;
Structure prediction by ZEFSAII (Michael W. Deem and Ramdas Pophale) SiO2 
 PCOD9452127
Probable space group: P M M N
;
_chemical_formula_sum "Si O2"
_cell_formula_units_Z 64
_cell_length_a 15.968712
_cell_length_b 7.700578
_cell_length_c 24.636282
_cell_angle_alpha 90.000000
_cell_angle_beta 90.000000
_cell_angle_gamma 90.000000
_cell_volume 3029.482019
_symmetry_space_group_name_H-M "P M M N"
_symmetry_group_IT_number 59
_space_group.IT_coordinate_system_code '2'
_symmetry_cell_setting 'orthorhombic'
loop_
_space_group_symop_operation_xyz
x,y,z
1/2-x,1/2-y,z
1/2+x,-y,-z
-x,1/2+y,-z
-x,-y,-z
1/2+x,1/2+y,-z
1/2-x,y,z
x,1/2-y,z
loop_
_atom_site_type_symbol
_atom_site_label
_atom_site_fract_x
_atom_site_fract_y
_atom_site_fract_z
Si Si1 0.841335 0.543968 0.676390
Si Si2 0.655459 0.040091 0.929905
Si Si3 0.489722 0.954478 0.864809
Si Si4 0.658828 0.963266 0.327923
Si Si5 0.002413 0.048951 0.740828
Si Si6 0.344975 0.538115 0.945272
Si Si7 0.390542 0.453556 0.554912
Si Si8 0.586416 0.962333 0.562378
O O1 0.750000 0.474768 0.692179
O O2 0.834175 0.750000 0.669154
O O3 0.913951 0.520066 0.720065
O O4 0.869790 0.476451 0.617350
O O5 0.750000 0.983755 0.914581
O O6 0.655360 0.250000 0.929388
O O7 0.580452 0.980497 0.891860
O O8 0.640017 0.984039 0.992319
O O9 0.475277 0.750000 0.858739
O O10 0.417268 0.023781 0.904912
O O11 0.486636 0.031199 0.804872
O O12 0.750000 0.013654 0.306404
O O13 0.656475 0.750000 0.328409
O O14 0.581094 0.027267 0.292195
O O15 0.649394 0.024596 0.390157
O O16 0.000392 0.250000 0.726266
O O17 0.250000 0.486478 0.930083
O O18 0.346645 0.750000 0.945379
O O19 0.368651 0.250000 0.553667
O O20 0.372373 0.521741 0.494436
O O21 0.490595 0.474289 0.562327
O O22 0.584380 0.750000 0.561739
#
# Coordination Sequence:
#
# PCOD9452127 Si02
#       8
#     8   8   8   8   8   8   8   8
#     4  10  21  37  56  78 105 137 175 223 276 324
#     4   9  18  35  59  85 114 147 180 215 258 312
#     4  11  22  35  56  83 111 144 181 223 268 311
#     4   9  18  33  54  78 103 134 175 221 265 312
#     4  11  23  39  56  75 104 142 185 227 267 314
#     4   8  16  33  57  85 116 147 178 213 258 315
#     4   9  16  29  51  78 105 136 170 207 259 321
#     4   9  17  29  50  78 107 134 165 211 265 321
#
# _framework density 21.125723000000001
#
# number of rings (size 3 to 8) (size 9 to 14) (size 15 to 20)
#    0.000    2.500    1.250    1.875    0.000    2.000 
#    0.000    3.125    0.000    5.625    0.000    3.500 
#    0.000    0.000    0.000    0.000    0.000    0.000 
#
# Total GULP energy -357159.554405 kJ/mol
# GULP energy per Si atom -5580.618038 kJ/mol
# Density = 2.107764 g / cm^3
# Si number density = 21.125723 Si / 1000 Ang^3
#
#
#
# Elastic Constant Matrix: (Units=GPa)
#
#
# Indices 1 2 3 4 5 6 
#
# 1 101.4821 -10.7329 45.4371 0.0000 0.0000 0.0000
# 2 -10.7329 30.0859 -12.1191 0.0000 0.0000 0.0000
# 3 45.4371 -12.1191 80.3470 0.0000 0.0000 0.0000
# 4 0.0000 0.0000 0.0000 -6.0898 0.0000 0.0000
# 5 0.0000 0.0000 0.0000 0.0000 -7.9058 0.0000
# 6 0.0000 0.0000 0.0000 0.0000 0.0000 13.2070
#
#
#
# Elastic Compliance Matrix: (Units=1/GPa)
#
#
# Indices 1 2 3 4 5 6 
#
# 1 0.013288 0.001824 -0.007239 0.000000 0.000000 0.000000
# 2 0.001824 0.035639 0.004344 0.000000 0.000000 0.000000
# 3 -0.007239 0.004344 0.017195 0.000000 0.000000 0.000000
# 4 0.000000 0.000000 0.000000 -0.164209 0.000000 0.000000
# 5 0.000000 0.000000 0.000000 0.000000 -0.126489 0.000000
# 6 0.000000 0.000000 0.000000 0.000000 0.000000 0.075717
#
#
# Mechanical properties :
#
#
# Convention : Reuss Voigt Hill
#
# Bulk Modulus (GPa) = 15.62995 28.56501 22.09748
# Shear Modulus (GPa) = -39.87551 12.46428 -13.70561
#
# Velocity S-wave (km/s) = -4.34929 2.43164 -2.54985
# Velocity P-wave (km/s) = 4.21985 4.62975 1.34675
#
# Compressibility (1/GPa) = 0.06397972
#
# Stress axis : x y z
#
# Youngs Moduli (GPa) = 75.25434 28.05930 58.15571
#
# Poissons Ratio (x) = -0.05119 0.42102
# Poissons Ratio (y) = -0.13729 -0.25262
# Poissons Ratio (z) = 0.54480 -0.12189
#
# Static dielectric constant tensor:
#      x y z
#    x 1.779110 0.000000 0.000000 
#    y 0.000000 1.819500 0.000000 
#    z 0.000000 0.000000 1.735420 
# 
# From -- ./inp_files/32152.got.cif
#   From: 2010.05.17/outbox.cif.g08.bks.cpg/sg59_17_cif.got.tgz:32152.got - 2010.06.03 14:40:33.
