data_PCOD9452930
_publ_section_title
;
Structure prediction by ZEFSAII (Michael W. Deem and Ramdas Pophale) SiO2 
 PCOD9452930
Probable space group: P M M N
;
_chemical_formula_sum "Si O2"
_cell_formula_units_Z 32
_cell_length_a 13.155901
_cell_length_b 18.764434
_cell_length_c 5.579783
_cell_angle_alpha 90.000000
_cell_angle_beta 90.000000
_cell_angle_gamma 90.000000
_cell_volume 1377.442172
_symmetry_space_group_name_H-M "P M M N"
_symmetry_group_IT_number 59
_space_group.IT_coordinate_system_code '2'
_symmetry_cell_setting 'orthorhombic'
loop_
_space_group_symop_operation_xyz
x,y,z
1/2-x,1/2-y,z
1/2+x,-y,-z
-x,1/2+y,-z
-x,-y,-z
1/2+x,1/2+y,-z
1/2-x,y,z
x,1/2-y,z
loop_
_atom_site_type_symbol
_atom_site_label
_atom_site_fract_x
_atom_site_fract_y
_atom_site_fract_z
Si Si1 0.250000 0.478769 0.672974
Si Si2 0.057618 0.074579 0.462278
Si Si3 0.366646 0.171229 0.065531
Si Si4 0.932373 0.170623 0.740522
Si Si5 0.250000 0.567269 0.162993
O O1 0.351466 0.432393 0.652063
O O2 0.250000 0.526753 0.423845
O O3 0.250000 0.521022 0.921365
O O4 0.114790 0.101136 0.225959
O O5 0.972415 0.134670 0.497937
O O6 0.000000 0.000000 0.500000
O O7 0.250000 0.169346 0.974445
O O8 0.371266 0.250000 0.196203
O O9 0.463935 0.173651 0.892899
O O10 0.891763 0.250000 0.711156
O O11 0.849314 0.117260 0.844320
#
# Coordination Sequence:
#
# PCOD9452930 Si02
#       5
#     4   8   8   8   4
#     4  12  28  44  76 106 150 191 246 306 379 434
#     4  12  24  42  69 104 144 191 239 312 362 452
#     4  10  23  43  68 102 144 190 245 307 374 446
#     4  11  26  46  72 104 146 201 254 308 375 447
#     4  12  27  52  72 110 149 199 248 308 368 446
#
# _framework density 23.231466000000001
#
# number of rings (size 3 to 8) (size 9 to 14) (size 15 to 20)
#    0.000    0.750    3.750    2.625    5.250    2.000 
#    0.000    1.250    0.000    0.000    0.000    0.000 
#    0.000    0.000    0.000    0.000    0.000    0.000 
#
# Total GULP energy -178530.773322 kJ/mol
# GULP energy per Si atom -5579.086666 kJ/mol
# Density = 2.317859 g / cm^3
# Si number density = 23.231466 Si / 1000 Ang^3
#
#
#
# Elastic Constant Matrix: (Units=GPa)
#
#
# Indices 1 2 3 4 5 6 
#
# 1 121.0302 19.4399 15.0104 0.0000 0.0000 0.0000
# 2 19.4399 111.8015 43.5625 0.0000 0.0000 0.0000
# 3 15.0104 43.5625 68.8303 0.0000 0.0000 0.0000
# 4 0.0000 0.0000 0.0000 34.5479 0.0000 0.0000
# 5 0.0000 0.0000 0.0000 0.0000 21.2255 0.0000
# 6 0.0000 0.0000 0.0000 0.0000 0.0000 41.5010
#
#
#
# Elastic Compliance Matrix: (Units=1/GPa)
#
#
# Indices 1 2 3 4 5 6 
#
# 1 0.008578 -0.001012 -0.001230 0.000000 0.000000 0.000000
# 2 -0.001012 0.011992 -0.007369 0.000000 0.000000 0.000000
# 3 -0.001230 -0.007369 0.019460 0.000000 0.000000 0.000000
# 4 0.000000 0.000000 0.000000 0.028945 0.000000 0.000000
# 5 0.000000 0.000000 0.000000 0.000000 0.047113 0.000000
# 6 0.000000 0.000000 0.000000 0.000000 0.000000 0.024096
#
#
# Mechanical properties :
#
#
# Convention : Reuss Voigt Hill
#
# Bulk Modulus (GPa) = 48.05906 50.85418 49.45662
# Shear Modulus (GPa) = 30.05868 34.36483 32.21176
#
# Velocity S-wave (km/s) = 3.60095 3.85026 3.72769
# Velocity P-wave (km/s) = 6.16613 6.45784 6.31367
#
# Compressibility (1/GPa) = 0.02080773
#
# Stress axis : x y z
#
# Youngs Moduli (GPa) = 116.58378 83.39191 51.38656
#
# Poissons Ratio (x) = 0.08441 0.06320
# Poissons Ratio (y) = 0.11801 0.37865
# Poissons Ratio (z) = 0.14339 0.61449
#
# Static dielectric constant tensor:
#      x y z
#    x 1.839930 0.000000 0.000000 
#    y 0.000000 1.964620 0.000000 
#    z 0.000000 0.000000 1.945670 
# 
# From -- ./inp_files/1840.got.cif
#   From: 2010.05.17/outbox.cif.g08.bks.cpg/sg59_1_cif.got.tgz:1840.got - 2010.06.03 14:40:33.
