data_PCOD9452403
_publ_section_title
;
Structure prediction by ZEFSAII (Michael W. Deem and Ramdas Pophale) SiO2 
 PCOD9452403
Probable space group: P M M N
;
_chemical_formula_sum "Si O2"
_cell_formula_units_Z 32
_cell_length_a 28.817197
_cell_length_b 8.973465
_cell_length_c 7.134526
_cell_angle_alpha 90.000000
_cell_angle_beta 90.000000
_cell_angle_gamma 90.000000
_cell_volume 1844.917854
_symmetry_space_group_name_H-M "P M M N"
_symmetry_group_IT_number 59
_space_group.IT_coordinate_system_code '2'
_symmetry_cell_setting 'orthorhombic'
loop_
_space_group_symop_operation_xyz
x,y,z
1/2-x,1/2-y,z
1/2+x,-y,-z
-x,1/2+y,-z
-x,-y,-z
1/2+x,1/2+y,-z
1/2-x,y,z
x,1/2-y,z
loop_
_atom_site_type_symbol
_atom_site_label
_atom_site_fract_x
_atom_site_fract_y
_atom_site_fract_z
Si Si1 0.949933 0.427399 0.523999
Si Si2 0.125921 0.573708 0.795389
Si Si3 0.377860 0.427223 0.197641
Si Si4 0.304293 0.571479 0.468308
O O1 0.953579 0.250000 0.552177
O O2 0.918349 0.452133 0.339116
O O3 0.921518 0.499511 0.695126
O O4 0.000000 0.500000 0.500000
O O5 0.127542 0.750000 0.841310
O O6 0.170398 0.537969 0.665407
O O7 0.123773 0.480568 0.983944
O O8 0.380600 0.250000 0.210816
O O9 0.332623 0.487080 0.307692
O O10 0.250000 0.536110 0.470400
O O11 0.309785 0.750000 0.438378
#
# Coordination Sequence:
#
# PCOD9452403 Si02
#       4
#     8   8   8   8
#     4  10  21  38  59  81 107 140 179 223 268 316
#     4   9  19  36  56  79 107 141 181 221 262 313
#     4  11  22  35  54  81 112 144 177 218 268 319
#     4   9  19  37  59  80 105 141 183 225 268 316
#
# _framework density 17.344944999999999
#
# number of rings (size 3 to 8) (size 9 to 14) (size 15 to 20)
#    0.000    2.250    0.000    4.500    0.000    7.500 
#    0.000    2.500    0.000    0.000    0.000    0.000 
#    0.000    0.000    0.000    0.000    0.000    0.000 
#
# Total GULP energy -178658.971140 kJ/mol
# GULP energy per Si atom -5583.092848 kJ/mol
# Density = 1.730547 g / cm^3
# Si number density = 17.344945 Si / 1000 Ang^3
#
#
#
# Elastic Constant Matrix: (Units=GPa)
#
#
# Indices 1 2 3 4 5 6 
#
# 1 138.8787 76.7747 51.7715 0.0000 0.0000 0.0000
# 2 76.7747 106.1842 84.2558 0.0000 0.0000 0.0000
# 3 51.7715 84.2558 115.5866 0.0000 0.0000 0.0000
# 4 0.0000 0.0000 0.0000 8.7017 0.0000 0.0000
# 5 0.0000 0.0000 0.0000 0.0000 3.6932 0.0000
# 6 0.0000 0.0000 0.0000 0.0000 0.0000 30.3526
#
#
#
# Elastic Compliance Matrix: (Units=1/GPa)
#
#
# Indices 1 2 3 4 5 6 
#
# 1 0.012247 -0.010680 0.002299 0.000000 0.000000 0.000000
# 2 -0.010680 0.031651 -0.018288 0.000000 0.000000 0.000000
# 3 0.002299 -0.018288 0.020953 0.000000 0.000000 0.000000
# 4 0.000000 0.000000 0.000000 0.114920 0.000000 0.000000
# 5 0.000000 0.000000 0.000000 0.000000 0.270766 0.000000
# 6 0.000000 0.000000 0.000000 0.000000 0.000000 0.032946
#
#
# Mechanical properties :
#
#
# Convention : Reuss Voigt Hill
#
# Bulk Modulus (GPa) = 86.85316 87.36150 87.10733
# Shear Modulus (GPa) = 9.24801 18.40602 13.82702
#
# Velocity S-wave (km/s) = 2.31158 3.26110 2.82650
# Velocity P-wave (km/s) = 7.57016 8.04091 7.80908
#
# Compressibility (1/GPa) = 0.01151369
#
# Stress axis : x y z
#
# Youngs Moduli (GPa) = 81.65066 31.59501 47.72684
#
# Poissons Ratio (x) = 0.33742 -0.10973
# Poissons Ratio (y) = 0.87199 0.87283
# Poissons Ratio (z) = -0.18773 0.57781
#
# Static dielectric constant tensor:
#      x y z
#    x 1.571480 0.000000 0.000000 
#    y 0.000000 1.579590 0.000000 
#    z 0.000000 0.000000 1.560270 
# 
# From -- ./inp_files/560.got.cif
#   From: 2010.05.17/outbox.cif.g08.bks.cpg/sg59_1_cif.got.tgz:560.got - 2010.06.03 14:40:33.
