data_PCOD9452532
_publ_section_title
;
Structure prediction by ZEFSAII (Michael W. Deem and Ramdas Pophale) SiO2 
 PCOD9452532
Probable space group: P M M N
;
_chemical_formula_sum "Si O2"
_cell_formula_units_Z 40
_cell_length_a 8.707011
_cell_length_b 14.582214
_cell_length_c 17.446559
_cell_angle_alpha 90.000000
_cell_angle_beta 90.000000
_cell_angle_gamma 90.000000
_cell_volume 2215.145940
_symmetry_space_group_name_H-M "P M M N"
_symmetry_group_IT_number 59
_space_group.IT_coordinate_system_code '2'
_symmetry_cell_setting 'orthorhombic'
loop_
_space_group_symop_operation_xyz
x,y,z
1/2-x,1/2-y,z
1/2+x,-y,-z
-x,1/2+y,-z
-x,-y,-z
1/2+x,1/2+y,-z
1/2-x,y,z
x,1/2-y,z
loop_
_atom_site_type_symbol
_atom_site_label
_atom_site_fract_x
_atom_site_fract_y
_atom_site_fract_z
Si Si1 0.566724 0.488800 0.876572
Si Si2 0.067018 0.442158 0.711962
Si Si3 0.933887 0.250000 0.656183
Si Si4 0.066350 0.056504 0.428083
Si Si5 0.933895 0.250000 0.473539
Si Si6 0.934897 0.356668 0.017311
O O1 0.750000 0.489233 0.865395
O O2 0.484003 0.471633 0.796561
O O3 0.513537 0.582997 0.916730
O O4 0.528513 0.407785 0.937257
O O5 0.250000 0.443270 0.704736
O O6 0.003990 0.340901 0.693252
O O7 0.994043 0.509610 0.649060
O O8 0.750000 0.250000 0.666015
O O9 0.966324 0.250000 0.564943
O O10 0.250000 0.053344 0.430327
O O11 0.005871 0.159466 0.437030
O O12 0.000000 0.000000 0.500000
O O13 0.750000 0.250000 0.464211
O O14 0.750000 0.361656 0.026914
O O15 0.979814 0.250000 0.017180
#
# Coordination Sequence:
#
# PCOD9452532 Si02
#       6
#     8   8   4   8   4   8
#     4  10  21  38  61  90 123 158 198 248 302 357
#     4  12  25  41  62  91 125 161 203 253 304 359
#     4  11  23  39  63  91 123 158 201 252 306 362
#     4  12  24  41  64  90 122 162 205 253 304 362
#     4  11  23  41  65  91 119 160 205 252 308 366
#     4   9  19  38  63  89 119 159 199 242 300 362
#
# _framework density 18.057500999999998
#
# number of rings (size 3 to 8) (size 9 to 14) (size 15 to 20)
#    0.000    1.200    2.000    4.800    1.400    2.000 
#    1.800    0.000    0.000    0.000    0.000    0.000 
#    0.000    0.000    0.000    0.000    0.000    0.000 
#
# Total GULP energy -223688.478769 kJ/mol
# GULP energy per Si atom -5592.211969 kJ/mol
# Density = 1.801640 g / cm^3
# Si number density = 18.057501 Si / 1000 Ang^3
#
#
#
# Elastic Constant Matrix: (Units=GPa)
#
#
# Indices 1 2 3 4 5 6 
#
# 1 119.9406 70.9891 76.4331 0.0000 0.0000 0.0000
# 2 70.9891 186.5857 84.1159 0.0000 0.0000 0.0000
# 3 76.4331 84.1159 139.0218 0.0000 0.0000 0.0000
# 4 0.0000 0.0000 0.0000 -51.7188 0.0000 0.0000
# 5 0.0000 0.0000 0.0000 0.0000 33.5009 0.0000
# 6 0.0000 0.0000 0.0000 0.0000 0.0000 34.0019
#
#
#
# Elastic Compliance Matrix: (Units=1/GPa)
#
#
# Indices 1 2 3 4 5 6 
#
# 1 0.013623 -0.002484 -0.005987 0.000000 0.000000 0.000000
# 2 -0.002484 0.007823 -0.003367 0.000000 0.000000 0.000000
# 3 -0.005987 -0.003367 0.012522 0.000000 0.000000 0.000000
# 4 0.000000 0.000000 0.000000 -0.019335 0.000000 0.000000
# 5 0.000000 0.000000 0.000000 0.000000 0.029850 0.000000
# 6 0.000000 0.000000 0.000000 0.000000 0.000000 0.029410
#
#
# Mechanical properties :
#
#
# Convention : Reuss Voigt Hill
#
# Bulk Modulus (GPa) = 97.17141 100.95824 99.06482
# Shear Modulus (GPa) = 49.50549 17.42413 33.46481
#
# Velocity S-wave (km/s) = 5.24166 3.10969 4.30959
# Velocity P-wave (km/s) = 9.51643 8.30206 8.92991
#
# Compressibility (1/GPa) = 0.01029109
#
# Stress axis : x y z
#
# Youngs Moduli (GPa) = 73.40657 127.83384 79.85927
#
# Poissons Ratio (x) = 0.31755 0.47809
# Poissons Ratio (y) = 0.18235 0.26892
# Poissons Ratio (z) = 0.43946 0.43047
#
# Static dielectric constant tensor:
#      x y z
#    x 1.602350 0.000000 0.000000 
#    y 0.000000 1.610460 0.000000 
#    z 0.000000 0.000000 1.587410 
# 
# From -- ./inp_files/19918.got.cif
#   From: 2010.05.17/outbox.cif.g08.bks.cpg/sg59_10_cif.got.tgz:19918.got - 2010.06.03 14:40:33.
