data_PCOD9452674
_publ_section_title
;
Structure prediction by ZEFSAII (Michael W. Deem and Ramdas Pophale) SiO2 
 PCOD9452674
Probable space group: P M M N
;
_chemical_formula_sum "Si O2"
_cell_formula_units_Z 32
_cell_length_a 14.454112
_cell_length_b 19.111231
_cell_length_c 5.280304
_cell_angle_alpha 90.000000
_cell_angle_beta 90.000000
_cell_angle_gamma 90.000000
_cell_volume 1458.609387
_symmetry_space_group_name_H-M "P M M N"
_symmetry_group_IT_number 59
_space_group.IT_coordinate_system_code '2'
_symmetry_cell_setting 'orthorhombic'
loop_
_space_group_symop_operation_xyz
x,y,z
1/2-x,1/2-y,z
1/2+x,-y,-z
-x,1/2+y,-z
-x,-y,-z
1/2+x,1/2+y,-z
1/2-x,y,z
x,1/2-y,z
loop_
_atom_site_type_symbol
_atom_site_label
_atom_site_fract_x
_atom_site_fract_y
_atom_site_fract_z
Si Si1 0.047753 0.328337 0.693739
Si Si2 0.113854 0.670775 0.633651
Si Si3 0.750000 0.529326 0.769192
Si Si4 0.250000 0.380937 0.730420
Si Si5 0.885269 0.093576 0.865471
O O1 0.023224 0.250000 0.793803
O O2 0.156069 0.338090 0.691318
O O3 0.997451 0.331434 0.419350
O O4 0.995554 0.391458 0.840301
O O5 0.140427 0.750000 0.687062
O O6 0.141396 0.620588 0.859207
O O7 0.148631 0.644276 0.361532
O O8 0.750000 0.587284 0.988000
O O9 0.659559 0.480703 0.811040
O O10 0.750000 0.559951 0.487631
#
# Coordination Sequence:
#
# PCOD9452674 Si02
#       5
#     8   8   4   4   8
#     4   9  22  43  69  96 123 159 214 271 322 360
#     4   9  18  37  64  93 120 155 205 261 320 360
#     4  12  28  44  58  94 136 174 214 240 308 392
#     4  12  27  42  64  94 129 172 210 258 310 378
#     4  10  21  41  64  90 131 168 207 257 307 380
#
# _framework density 21.938704999999999
#
# number of rings (size 3 to 8) (size 9 to 14) (size 15 to 20)
#    1.500    0.500    0.000    3.375    3.500    2.000 
#    0.000    8.125    0.000    0.000    0.000    0.000 
#    0.000    0.000    0.000    0.000    0.000    0.000 
#
# Total GULP energy -178296.281256 kJ/mol
# GULP energy per Si atom -5571.758789 kJ/mol
# Density = 2.188877 g / cm^3
# Si number density = 21.938705 Si / 1000 Ang^3
#
#
#
# Elastic Constant Matrix: (Units=GPa)
#
#
# Indices 1 2 3 4 5 6 
#
# 1 144.8266 8.4215 -3.5561 0.0000 0.0000 0.0000
# 2 8.4215 32.2569 -13.0880 0.0000 0.0000 0.0000
# 3 -3.5561 -13.0880 65.6341 0.0000 0.0000 0.0000
# 4 0.0000 0.0000 0.0000 27.7160 0.0000 0.0000
# 5 0.0000 0.0000 0.0000 0.0000 14.4651 0.0000
# 6 0.0000 0.0000 0.0000 0.0000 0.0000 48.6532
#
#
#
# Elastic Compliance Matrix: (Units=1/GPa)
#
#
# Indices 1 2 3 4 5 6 
#
# 1 0.007011 -0.001824 0.000016 0.000000 0.000000 0.000000
# 2 -0.001824 0.034205 0.006722 0.000000 0.000000 0.000000
# 3 0.000016 0.006722 0.016577 0.000000 0.000000 0.000000
# 4 0.000000 0.000000 0.000000 0.036080 0.000000 0.000000
# 5 0.000000 0.000000 0.000000 0.000000 0.069132 0.000000
# 6 0.000000 0.000000 0.000000 0.000000 0.000000 0.020554
#
#
# Mechanical properties :
#
#
# Convention : Reuss Voigt Hill
#
# Bulk Modulus (GPa) = 14.78820 25.14138 19.96479
# Shear Modulus (GPa) = 25.47497 34.89621 30.18559
#
# Velocity S-wave (km/s) = 3.41132 3.99259 3.71334
# Velocity P-wave (km/s) = 4.71926 5.72181 5.24455
#
# Compressibility (1/GPa) = 0.06762149
#
# Stress axis : x y z
#
# Youngs Moduli (GPa) = 142.62764 29.23577 60.32360
#
# Poissons Ratio (x) = 0.05332 -0.00098
# Poissons Ratio (y) = 0.26014 -0.40549
# Poissons Ratio (z) = -0.00231 -0.19652
#
# Static dielectric constant tensor:
#      x y z
#    x 1.863160 0.000000 0.000000 
#    y 0.000000 1.770190 0.000000 
#    z 0.000000 0.000000 1.773050 
# 
# From -- ./inp_files/2604.got.cif
#   From: 2010.05.17/outbox.cif.g08.bks.cpg/sg59_2_cif.got.tgz:2604.got - 2010.06.03 14:40:33.
