data_PCOD9452318
_publ_section_title
;
Structure prediction by ZEFSAII (Michael W. Deem and Ramdas Pophale) SiO2 
 PCOD9452318
Probable space group: P M M N
;
_chemical_formula_sum "Si O2"
_cell_formula_units_Z 56
_cell_length_a 9.079639
_cell_length_b 20.521790
_cell_length_c 15.262852
_cell_angle_alpha 90.000000
_cell_angle_beta 90.000000
_cell_angle_gamma 90.000000
_cell_volume 2843.934003
_symmetry_space_group_name_H-M "P M M N"
_symmetry_group_IT_number 59
_space_group.IT_coordinate_system_code '2'
_symmetry_cell_setting 'orthorhombic'
loop_
_space_group_symop_operation_xyz
x,y,z
1/2-x,1/2-y,z
1/2+x,-y,-z
-x,1/2+y,-z
-x,-y,-z
1/2+x,1/2+y,-z
1/2-x,y,z
x,1/2-y,z
loop_
_atom_site_type_symbol
_atom_site_label
_atom_site_fract_x
_atom_site_fract_y
_atom_site_fract_z
Si Si1 0.078060 0.824971 0.784661
Si Si2 0.415063 0.973013 0.584592
Si Si3 0.425021 0.932238 0.295520
Si Si4 0.574884 0.581536 0.921112
Si Si5 0.075034 0.057530 0.883440
Si Si6 0.522131 0.324001 0.408090
Si Si7 0.584969 0.824050 0.402708
O O1 0.250000 0.844117 0.765642
O O2 0.081527 0.750000 0.812267
O O3 0.984341 0.827849 0.694605
O O4 0.005326 0.867608 0.859068
O O5 0.250000 0.000235 0.586001
O O6 0.404546 0.894969 0.580581
O O7 0.500000 0.000000 0.500000
O O8 0.502314 0.000834 0.668420
O O9 0.250000 0.938527 0.290999
O O10 0.495351 0.914795 0.201984
O O11 0.473303 0.876383 0.363937
O O12 0.750000 0.578058 0.904204
O O13 0.499792 0.512421 0.900250
O O14 0.554989 0.595290 0.024769
O O15 0.250000 0.050484 0.867970
O O16 0.590488 0.250000 0.414710
O O17 0.415051 0.325115 0.491407
O O18 0.750000 0.838141 0.370947
O O19 0.545170 0.750000 0.377197
#
# Coordination Sequence:
#
# PCOD9452318 Si02
#       7
#     8   8   8   8   8   8   8
#     4  10  21  37  59  88 122 160 201 246 300 364
#     4  12  24  38  59  88 125 164 204 257 311 364
#     4  12  25  40  62  92 125 162 207 258 306 368
#     4  10  21  38  62  91 119 150 195 248 303 366
#     4  10  21  39  63  88 118 157 197 246 306 365
#     4  10  22  39  62  89 120 161 210 252 301 365
#     4  10  22  41  64  88 119 161 207 256 310 367
#
# _framework density 19.691033999999998
#
# number of rings (size 3 to 8) (size 9 to 14) (size 15 to 20)
#    0.000    1.429    1.429    3.857    0.000    4.857 
#    0.000    5.000    0.000    0.857    0.000    0.000 
#    0.000    0.000    0.000    0.000    0.000    0.000 
#
# Total GULP energy -312189.491468 kJ/mol
# GULP energy per Si atom -5574.812348 kJ/mol
# Density = 1.964622 g / cm^3
# Si number density = 19.691034 Si / 1000 Ang^3
#
#
#
# Elastic Constant Matrix: (Units=GPa)
#
#
# Indices 1 2 3 4 5 6 
#
# 1 108.0881 33.8316 56.0493 0.0000 0.0000 0.0000
# 2 33.8316 99.4479 38.1048 0.0000 0.0000 0.0000
# 3 56.0493 38.1048 126.0554 0.0000 0.0000 0.0000
# 4 0.0000 0.0000 0.0000 32.5662 0.0000 0.0000
# 5 0.0000 0.0000 0.0000 0.0000 15.6405 0.0000
# 6 0.0000 0.0000 0.0000 0.0000 0.0000 16.5306
#
#
#
# Elastic Compliance Matrix: (Units=1/GPa)
#
#
# Indices 1 2 3 4 5 6 
#
# 1 0.012512 -0.002403 -0.004837 0.000000 0.000000 0.000000
# 2 -0.002403 0.011834 -0.002509 0.000000 0.000000 0.000000
# 3 -0.004837 -0.002509 0.010842 0.000000 0.000000 0.000000
# 4 0.000000 0.000000 0.000000 0.030707 0.000000 0.000000
# 5 0.000000 0.000000 0.000000 0.000000 0.063936 0.000000
# 6 0.000000 0.000000 0.000000 0.000000 0.000000 0.060494
#
#
# Mechanical properties :
#
#
# Convention : Reuss Voigt Hill
#
# Bulk Modulus (GPa) = 63.73211 65.50698 64.61954
# Shear Modulus (GPa) = 23.25001 26.65452 24.95227
#
# Velocity S-wave (km/s) = 3.43992 3.68317 3.56362
# Velocity P-wave (km/s) = 6.94361 7.17128 7.05836
#
# Compressibility (1/GPa) = 0.01569068
#
# Stress axis : x y z
#
# Youngs Moduli (GPa) = 79.92257 84.49977 92.23310
#
# Poissons Ratio (x) = 0.20307 0.44613
# Poissons Ratio (y) = 0.19207 0.23139
# Poissons Ratio (z) = 0.38658 0.21199
#
# Static dielectric constant tensor:
#      x y z
#    x 1.708210 0.000000 0.000000 
#    y 0.000000 1.697710 0.000000 
#    z 0.000000 0.000000 1.707210 
# 
# From -- ./inp_files/20997.got.cif
#   From: 2010.05.17/outbox.cif.g08.bks.cpg/sg59_11_cif.got.tgz:20997.got - 2010.06.03 14:40:33.
