data_PCOD9452557
_publ_section_title
;
Structure prediction by ZEFSAII (Michael W. Deem and Ramdas Pophale) SiO2 
 PCOD9452557
Probable space group: P M M N
;
_chemical_formula_sum "Si O2"
_cell_formula_units_Z 52
_cell_length_a 20.864008
_cell_length_b 18.704796
_cell_length_c 5.970250
_cell_angle_alpha 90.000000
_cell_angle_beta 90.000000
_cell_angle_gamma 90.000000
_cell_volume 2329.931934
_symmetry_space_group_name_H-M "P M M N"
_symmetry_group_IT_number 59
_space_group.IT_coordinate_system_code '2'
_symmetry_cell_setting 'orthorhombic'
loop_
_space_group_symop_operation_xyz
x,y,z
1/2-x,1/2-y,z
1/2+x,-y,-z
-x,1/2+y,-z
-x,-y,-z
1/2+x,1/2+y,-z
1/2-x,y,z
x,1/2-y,z
loop_
_atom_site_type_symbol
_atom_site_label
_atom_site_fract_x
_atom_site_fract_y
_atom_site_fract_z
Si Si1 0.750000 0.422748 0.416195
Si Si2 0.132630 0.569021 0.277855
Si Si3 0.824393 0.667379 0.663733
Si Si4 0.579566 0.563877 0.924156
Si Si5 0.072326 0.171953 0.694885
Si Si6 0.350286 0.832336 0.890025
Si Si7 0.970368 0.117347 0.367916
O O1 0.693285 0.455785 0.579298
O O2 0.694608 0.382102 0.262245
O O3 0.110875 0.513715 0.085659
O O4 0.074064 0.580749 0.446240
O O5 0.151860 0.641100 0.146639
O O6 0.750000 0.647611 0.656355
O O7 0.829002 0.750000 0.741192
O O8 0.866771 0.615896 0.816033
O O9 0.858255 0.665651 0.420974
O O10 0.516143 0.564969 0.771744
O O11 0.562368 0.602922 0.152990
O O12 0.066863 0.250000 0.808040
O O13 0.019728 0.168148 0.498957
O O14 0.331168 0.750000 0.870505
O O15 0.422600 0.841890 0.798842
#
# Coordination Sequence:
#
# PCOD9452557 Si02
#       7
#     4   8   8   8   8   8   8
#     4  10  25  46  64  88 127 166 210 262 323 386
#     4  11  25  43  64  96 128 165 213 263 321 388
#     4   9  20  39  60  86 122 168 215 258 305 365
#     4  11  23  39  62  93 128 171 208 261 319 380
#     4  10  21  38  62  94 127 164 212 261 311 371
#     4  11  24  43  69  96 125 166 217 273 328 385
#     4  10  23  41  64  92 128 170 212 262 313 383
#
# _framework density 22.318249999999999
#
# number of rings (size 3 to 8) (size 9 to 14) (size 15 to 20)
#    0.000    1.692    0.000    3.000    1.077   14.769 
#    0.000    1.538    0.000    0.000    0.000    0.000 
#    0.000    0.000    0.000    0.000    0.000    0.000 
#
# Total GULP energy -289644.580331 kJ/mol
# GULP energy per Si atom -5570.088083 kJ/mol
# Density = 2.226745 g / cm^3
# Si number density = 22.318250 Si / 1000 Ang^3
#
#
#
# Elastic Constant Matrix: (Units=GPa)
#
#
# Indices 1 2 3 4 5 6 
#
# 1 143.9346 7.5567 13.9058 0.0000 0.0000 0.0000
# 2 7.5567 41.0309 3.8462 0.0000 0.0000 0.0000
# 3 13.9058 3.8462 30.2681 0.0000 0.0000 0.0000
# 4 0.0000 0.0000 0.0000 10.3277 0.0000 0.0000
# 5 0.0000 0.0000 0.0000 0.0000 18.9340 0.0000
# 6 0.0000 0.0000 0.0000 0.0000 0.0000 21.6624
#
#
#
# Elastic Compliance Matrix: (Units=1/GPa)
#
#
# Indices 1 2 3 4 5 6 
#
# 1 0.007314 -0.001045 -0.003228 0.000000 0.000000 0.000000
# 2 -0.001045 0.024815 -0.002673 0.000000 0.000000 0.000000
# 3 -0.003228 -0.002673 0.034861 0.000000 0.000000 0.000000
# 4 0.000000 0.000000 0.000000 0.096827 0.000000 0.000000
# 5 0.000000 0.000000 0.000000 0.000000 0.052815 0.000000
# 6 0.000000 0.000000 0.000000 0.000000 0.000000 0.046163
#
#
# Mechanical properties :
#
#
# Convention : Reuss Voigt Hill
#
# Bulk Modulus (GPa) = 18.83284 29.53901 24.18592
# Shear Modulus (GPa) = 16.98455 22.84647 19.91551
#
# Velocity S-wave (km/s) = 2.76165 3.20295 2.99045
# Velocity P-wave (km/s) = 4.31573 5.19063 4.77327
#
# Compressibility (1/GPa) = 0.05309874
#
# Stress axis : x y z
#
# Youngs Moduli (GPa) = 136.71919 40.29843 28.68564
#
# Poissons Ratio (x) = 0.04209 0.09259
# Poissons Ratio (y) = 0.14281 0.07669
# Poissons Ratio (z) = 0.44127 0.10773
#
# Static dielectric constant tensor:
#      x y z
#    x 1.785800 0.000000 0.000000 
#    y 0.000000 1.855340 0.000000 
#    z 0.000000 0.000000 1.838890 
# 
# From -- ./inp_files/3373.got.cif
#   From: 2010.05.17/outbox.cif.g08.bks.cpg/sg59_2_cif.got.tgz:3373.got - 2010.06.03 14:40:33.
