data_PCOD9452713
_publ_section_title
;
Structure prediction by ZEFSAII (Michael W. Deem and Ramdas Pophale) SiO2 
 PCOD9452713
Probable space group: P M M N
;
_chemical_formula_sum "Si O2"
_cell_formula_units_Z 48
_cell_length_a 14.581095
_cell_length_b 9.759310
_cell_length_c 17.767809
_cell_angle_alpha 90.000000
_cell_angle_beta 90.000000
_cell_angle_gamma 90.000000
_cell_volume 2528.384562
_symmetry_space_group_name_H-M "P M M N"
_symmetry_group_IT_number 59
_space_group.IT_coordinate_system_code '2'
_symmetry_cell_setting 'orthorhombic'
loop_
_space_group_symop_operation_xyz
x,y,z
1/2-x,1/2-y,z
1/2+x,-y,-z
-x,1/2+y,-z
-x,-y,-z
1/2+x,1/2+y,-z
1/2-x,y,z
x,1/2-y,z
loop_
_atom_site_type_symbol
_atom_site_label
_atom_site_fract_x
_atom_site_fract_y
_atom_site_fract_z
Si Si1 0.362002 0.092188 0.985146
Si Si2 0.861370 0.908343 0.845825
Si Si3 0.141175 0.911532 0.294778
Si Si4 0.638271 0.093103 0.153764
Si Si5 0.140891 0.408550 0.704585
Si Si6 0.501914 0.412485 0.575246
O O1 0.250000 0.092880 0.983983
O O2 0.390424 0.250000 0.971677
O O3 0.389776 0.050972 0.069732
O O4 0.392099 0.989819 0.919972
O O5 0.750000 0.913388 0.845856
O O6 0.886982 0.750000 0.833617
O O7 0.891566 0.003699 0.777615
O O8 0.250000 0.933318 0.304312
O O9 0.125741 0.750000 0.281285
O O10 0.086869 0.948796 0.370164
O O11 0.750000 0.094837 0.152302
O O12 0.606904 0.250000 0.153908
O O13 0.612867 0.010269 0.228718
O O14 0.250000 0.421213 0.693543
O O15 0.121892 0.250000 0.726585
O O16 0.086684 0.435946 0.627978
O O17 0.500000 0.500000 0.500000
O O18 0.506930 0.250000 0.558164
#
# Coordination Sequence:
#
# PCOD9452713 Si02
#       6
#     8   8   8   8   8   8
#     4   8  13  22  38  63  97 134 169 204 241 283
#     4   8  14  25  43  69  99 132 171 208 240 281
#     4   9  18  33  52  74 102 133 161 195 245 298
#     4   9  16  25  41  69 101 131 166 206 246 288
#     4   9  18  34  54  73  97 131 167 202 242 288
#     4  10  22  38  55  77 101 126 160 200 245 299
#
# _framework density 18.984455000000001
#
# number of rings (size 3 to 8) (size 9 to 14) (size 15 to 20)
#    0.000    3.167    0.000    1.500    0.000    4.667 
#    0.000    3.333    0.000    1.000    0.000    0.000 
#    0.000    0.000    0.000    0.000    0.000    0.000 
#
# Total GULP energy -267823.249145 kJ/mol
# GULP energy per Si atom -5579.651024 kJ/mol
# Density = 1.894125 g / cm^3
# Si number density = 18.984455 Si / 1000 Ang^3
#
#
#
# Elastic Constant Matrix: (Units=GPa)
#
#
# Indices 1 2 3 4 5 6 
#
# 1 70.9565 35.9008 40.8615 0.0000 0.0000 0.0000
# 2 35.9008 119.9708 133.1436 0.0000 0.0000 0.0000
# 3 40.8615 133.1436 205.3645 0.0000 0.0000 0.0000
# 4 0.0000 0.0000 0.0000 38.3273 0.0000 0.0000
# 5 0.0000 0.0000 0.0000 0.0000 40.6198 0.0000
# 6 0.0000 0.0000 0.0000 0.0000 0.0000 4.0503
#
#
#
# Elastic Compliance Matrix: (Units=1/GPa)
#
#
# Indices 1 2 3 4 5 6 
#
# 1 0.016613 -0.004645 -0.000294 0.000000 0.000000 0.000000
# 2 -0.004645 0.031017 -0.019185 0.000000 0.000000 0.000000
# 3 -0.000294 -0.019185 0.017366 0.000000 0.000000 0.000000
# 4 0.000000 0.000000 0.000000 0.026091 0.000000 0.000000
# 5 0.000000 0.000000 0.000000 0.000000 0.024619 0.000000
# 6 0.000000 0.000000 0.000000 0.000000 0.000000 0.246896
#
#
# Mechanical properties :
#
#
# Convention : Reuss Voigt Hill
#
# Bulk Modulus (GPa) = 59.70985 90.67819 75.19402
# Shear Modulus (GPa) = 12.00680 29.02520 20.51600
#
# Velocity S-wave (km/s) = 2.51759 3.91435 3.29093
# Velocity P-wave (km/s) = 6.32228 8.26424 7.35761
#
# Compressibility (1/GPa) = 0.01674765
#
# Stress axis : x y z
#
# Youngs Moduli (GPa) = 60.19530 32.24087 57.58446
#
# Poissons Ratio (x) = 0.14976 0.01692
# Poissons Ratio (y) = 0.27962 1.10474
# Poissons Ratio (z) = 0.01769 0.61853
#
# Static dielectric constant tensor:
#      x y z
#    x 1.723900 0.000000 0.000000 
#    y 0.000000 1.635880 0.000000 
#    z 0.000000 0.000000 1.614080 
# 
# From -- ./inp_files/27388.got.cif
#   From: 2010.05.17/outbox.cif.g08.bks.cpg/sg59_14_cif.got.tgz:27388.got - 2010.06.03 14:40:33.
