data_PCOD9452704
_publ_section_title
;
Structure prediction by ZEFSAII (Michael W. Deem and Ramdas Pophale) SiO2 
 PCOD9452704
Probable space group: P M M N
;
_chemical_formula_sum "Si O2"
_cell_formula_units_Z 48
_cell_length_a 17.565157
_cell_length_b 8.557193
_cell_length_c 17.119289
_cell_angle_alpha 90.000000
_cell_angle_beta 90.000000
_cell_angle_gamma 90.000000
_cell_volume 2573.173598
_symmetry_space_group_name_H-M "P M M N"
_symmetry_group_IT_number 59
_space_group.IT_coordinate_system_code '2'
_symmetry_cell_setting 'orthorhombic'
loop_
_space_group_symop_operation_xyz
x,y,z
1/2-x,1/2-y,z
1/2+x,-y,-z
-x,1/2+y,-z
-x,-y,-z
1/2+x,1/2+y,-z
1/2-x,y,z
x,1/2-y,z
loop_
_atom_site_type_symbol
_atom_site_label
_atom_site_fract_x
_atom_site_fract_y
_atom_site_fract_z
Si Si1 0.750000 0.559111 0.336911
Si Si2 0.063456 0.937181 0.104769
Si Si3 0.401657 0.438795 0.573299
Si Si4 0.434375 0.438611 0.396791
Si Si5 0.099686 0.937203 0.927448
Si Si6 0.750000 0.937384 0.156343
Si Si7 0.162333 0.060859 0.247386
O O1 0.750000 0.750000 0.338011
O O2 0.826248 0.507939 0.381781
O O3 0.750000 0.509928 0.246737
O O4 0.061090 0.750000 0.107409
O O5 0.117209 0.000377 0.172434
O O6 0.093818 0.984764 0.018792
O O7 0.977792 0.001702 0.112024
O O8 0.402829 0.250000 0.575029
O O9 0.403705 0.487867 0.482179
O O10 0.479759 0.499718 0.610804
O O11 0.436398 0.250000 0.396412
O O12 0.381015 0.490656 0.326006
O O13 0.100872 0.750000 0.924080
O O14 0.174638 0.002906 0.886938
O O15 0.750000 0.750000 0.155442
O O16 0.250000 0.009351 0.246889
O O17 0.161549 0.250000 0.246335
#
# Coordination Sequence:
#
# PCOD9452704 Si02
#       7
#     4   8   8   8   8   4   8
#     4   9  20  35  55  84 111 144 188 229 273 329
#     4  10  22  40  62  85 112 148 191 236 286 343
#     4   9  18  35  58  80 109 148 187 230 280 332
#     4   9  19  35  56  82 111 146 188 231 279 335
#     4  10  22  41  62  85 114 150 191 235 288 342
#     4  11  23  37  57  88 121 152 192 235 281 337
#     4  10  22  37  56  85 117 149 188 233 283 339
#
# _framework density 18.654008000000001
#
# number of rings (size 3 to 8) (size 9 to 14) (size 15 to 20)
#    0.000    2.333    0.000    1.250    4.667    3.000 
#    0.000    1.250    0.000    0.000    0.000    0.000 
#    0.000    0.000    0.000    0.000    0.000    0.000 
#
# Total GULP energy -268016.705204 kJ/mol
# GULP energy per Si atom -5583.681358 kJ/mol
# Density = 1.861155 g / cm^3
# Si number density = 18.654008 Si / 1000 Ang^3
#
#
#
# Elastic Constant Matrix: (Units=GPa)
#
#
# Indices 1 2 3 4 5 6 
#
# 1 224.2457 35.5695 136.3676 0.0000 0.0000 0.0000
# 2 35.5695 16.4555 27.9853 0.0000 0.0000 0.0000
# 3 136.3676 27.9853 127.0186 0.0000 0.0000 0.0000
# 4 0.0000 0.0000 0.0000 23.2119 0.0000 0.0000
# 5 0.0000 0.0000 0.0000 0.0000 32.3676 0.0000
# 6 0.0000 0.0000 0.0000 0.0000 0.0000 34.3070
#
#
#
# Elastic Compliance Matrix: (Units=1/GPa)
#
#
# Indices 1 2 3 4 5 6 
#
# 1 0.013356 -0.007170 -0.012759 0.000000 0.000000 0.000000
# 2 -0.007170 0.101035 -0.014562 0.000000 0.000000 0.000000
# 3 -0.012759 -0.014562 0.024779 0.000000 0.000000 0.000000
# 4 0.000000 0.000000 0.000000 0.043081 0.000000 0.000000
# 5 0.000000 0.000000 0.000000 0.000000 0.030895 0.000000
# 6 0.000000 0.000000 0.000000 0.000000 0.000000 0.029149
#
#
# Mechanical properties :
#
#
# Convention : Reuss Voigt Hill
#
# Bulk Modulus (GPa) = 14.24773 85.28493 49.76633
# Shear Modulus (GPa) = 14.93997 29.16381 22.05189
#
# Velocity S-wave (km/s) = 2.83309 3.95828 3.44198
# Velocity P-wave (km/s) = 4.28443 8.16758 6.52172
#
# Compressibility (1/GPa) = 0.07018662
#
# Stress axis : x y z
#
# Youngs Moduli (GPa) = 74.87505 9.89759 40.35660
#
# Poissons Ratio (x) = 0.07097 0.51490
# Poissons Ratio (y) = 0.53689 0.58768
# Poissons Ratio (z) = 0.95531 0.14413
#
# Static dielectric constant tensor:
#      x y z
#    x 1.605630 0.000000 0.000000 
#    y 0.000000 1.638640 0.000000 
#    z 0.000000 0.000000 1.638680 
# 
# From -- ./inp_files/23761.got.cif
#   From: 2010.05.17/outbox.cif.g08.bks.cpg/sg59_12_cif.got.tgz:23761.got - 2010.06.03 14:40:33.
