data_PCOD9452678
_publ_section_title
;
Structure prediction by ZEFSAII (Michael W. Deem and Ramdas Pophale) SiO2 
 PCOD9452678
Probable space group: P M M N
;
_chemical_formula_sum "Si O2"
_cell_formula_units_Z 58
_cell_length_a 26.638318
_cell_length_b 11.726054
_cell_length_c 8.998486
_cell_angle_alpha 90.000000
_cell_angle_beta 90.000000
_cell_angle_gamma 90.000000
_cell_volume 2810.788281
_symmetry_space_group_name_H-M "P M M N"
_symmetry_group_IT_number 59
_space_group.IT_coordinate_system_code '2'
_symmetry_cell_setting 'orthorhombic'
loop_
_space_group_symop_operation_xyz
x,y,z
1/2-x,1/2-y,z
1/2+x,-y,-z
-x,1/2+y,-z
-x,-y,-z
1/2+x,1/2+y,-z
1/2-x,y,z
x,1/2-y,z
loop_
_atom_site_type_symbol
_atom_site_label
_atom_site_fract_x
_atom_site_fract_y
_atom_site_fract_z
Si Si1 0.690950 0.387744 0.510091
Si Si2 0.842259 0.909909 0.002455
Si Si3 0.385104 0.474792 0.282043
Si Si4 0.443183 0.419467 0.840991
Si Si5 0.310217 0.620184 0.829370
Si Si6 0.966304 0.617849 0.495775
Si Si7 0.250000 0.250000 0.930567
Si Si8 0.446953 0.621772 0.039013
O O1 0.750000 0.415976 0.539443
O O2 0.686964 0.250000 0.520292
O O3 0.651713 0.448510 0.617934
O O4 0.678994 0.420667 0.338921
O O5 0.893334 0.874029 0.082045
O O6 0.833687 0.041568 0.046158
O O7 0.794081 0.846836 0.061911
O O8 0.850722 0.899476 0.827184
O O9 0.423150 0.402938 0.382642
O O10 0.418833 0.551207 0.169100
O O11 0.444120 0.389110 0.669732
O O12 0.494440 0.377032 0.915759
O O13 0.443150 0.554098 0.883606
O O14 0.250000 0.619532 0.843678
O O15 0.327132 0.750000 0.841633
O O16 0.987178 0.750000 0.513596
O O17 0.000000 0.500000 0.500000
O O18 0.428409 0.750000 0.031833
#
# Coordination Sequence:
#
# PCOD9452678 Si02
#       8
#     8   8   8   8   8   8   2   8
#     4   9  19  36  64  99 141 181 225 282 349 421
#     4  11  25  43  67  97 134 177 232 284 342 409
#     4  11  24  42  66 100 136 183 229 285 352 426
#     4  10  23  43  66 100 135 179 228 290 342 414
#     4   9  18  38  64  93 128 168 218 280 337 399
#     4  12  27  48  72 104 141 184 233 291 364 436
#     4  12  28  44  66  98 136 184 236 284 350 396
#     4  10  21  41  68 102 138 178 232 289 353 416
#
# _framework density 20.634781
#
# number of rings (size 3 to 8) (size 9 to 14) (size 15 to 20)
#    0.000    1.655    2.069    2.483    3.862    3.862 
#    0.000    1.379    0.000    1.655    0.000    0.000 
#    0.000    0.000    0.000    0.000    0.000    0.000 
#
# Total GULP energy -323188.402556 kJ/mol
# GULP energy per Si atom -5572.213837 kJ/mol
# Density = 2.058782 g / cm^3
# Si number density = 20.634781 Si / 1000 Ang^3
#
#
#
# Elastic Constant Matrix: (Units=GPa)
#
#
# Indices 1 2 3 4 5 6 
#
# 1 107.0486 13.8471 30.1379 0.0000 0.0000 0.0000
# 2 13.8471 111.4442 31.8083 0.0000 0.0000 0.0000
# 3 30.1379 31.8083 82.7981 0.0000 0.0000 0.0000
# 4 0.0000 0.0000 0.0000 -12.8340 0.0000 0.0000
# 5 0.0000 0.0000 0.0000 0.0000 26.3828 0.0000
# 6 0.0000 0.0000 0.0000 0.0000 0.0000 -105.0137
#
#
#
# Elastic Compliance Matrix: (Units=1/GPa)
#
#
# Indices 1 2 3 4 5 6 
#
# 1 0.010414 -0.000238 -0.003699 0.000000 0.000000 0.000000
# 2 -0.000238 0.010084 -0.003787 0.000000 0.000000 0.000000
# 3 -0.003699 -0.003787 0.014879 0.000000 0.000000 0.000000
# 4 0.000000 0.000000 0.000000 -0.077918 0.000000 0.000000
# 5 0.000000 0.000000 0.000000 0.000000 0.037903 0.000000
# 6 0.000000 0.000000 0.000000 0.000000 0.000000 -0.009523
#
#
# Mechanical properties :
#
#
# Convention : Reuss Voigt Hill
#
# Bulk Modulus (GPa) = 50.18152 50.31972 50.25062
# Shear Modulus (GPa) = 630.47797 -3.25982 313.60908
#
# Velocity S-wave (km/s) = 17.49871 -1.25825 12.34142
# Velocity P-wave (km/s) = 20.80011 4.72524 15.08265
#
# Compressibility (1/GPa) = 0.01992766
#
# Stress axis : x y z
#
# Youngs Moduli (GPa) = 96.02672 99.17096 67.20933
#
# Poissons Ratio (x) = 0.02362 0.24861
# Poissons Ratio (y) = 0.02287 0.25453
# Poissons Ratio (z) = 0.35521 0.37557
#
# Static dielectric constant tensor:
#      x y z
#    x 1.752430 0.000000 0.000000 
#    y 0.000000 1.836640 0.000000 
#    z 0.000000 0.000000 1.717760 
# 
# From -- ./inp_files/12628.got.cif
#   From: 2010.05.17/outbox.cif.g08.bks.cpg/sg59_7_cif.got.tgz:12628.got - 2010.06.03 14:40:33.
