data_PCOD9452048
_publ_section_title
;
Structure prediction by ZEFSAII (Michael W. Deem and Ramdas Pophale) SiO2 
 PCOD9452048
Probable space group: P M M N
;
_chemical_formula_sum "Si O2"
_cell_formula_units_Z 64
_cell_length_a 23.960548
_cell_length_b 8.149013
_cell_length_c 15.880125
_cell_angle_alpha 90.000000
_cell_angle_beta 90.000000
_cell_angle_gamma 90.000000
_cell_volume 3100.670903
_symmetry_space_group_name_H-M "P M M N"
_symmetry_group_IT_number 59
_space_group.IT_coordinate_system_code '2'
_symmetry_cell_setting 'orthorhombic'
loop_
_space_group_symop_operation_xyz
x,y,z
1/2-x,1/2-y,z
1/2+x,-y,-z
-x,1/2+y,-z
-x,-y,-z
1/2+x,1/2+y,-z
1/2-x,y,z
x,1/2-y,z
loop_
_atom_site_type_symbol
_atom_site_label
_atom_site_fract_x
_atom_site_fract_y
_atom_site_fract_z
Si Si1 0.627587 0.561394 0.371756
Si Si2 0.999954 0.553613 0.220055
Si Si3 0.183433 0.937607 0.469470
Si Si4 0.609768 0.450814 0.868010
Si Si5 0.991795 0.065114 0.404913
Si Si6 0.814141 0.450399 0.711510
Si Si7 0.127262 0.053371 0.812234
Si Si8 0.813566 0.445823 0.020069
O O1 0.607096 0.750000 0.366199
O O2 0.667865 0.541384 0.449957
O O3 0.574491 0.449608 0.390203
O O4 0.652300 0.520315 0.280584
O O5 0.998424 0.750000 0.213546
O O6 0.047586 0.492173 0.156196
O O7 0.014239 0.517001 0.318364
O O8 0.937505 0.495819 0.195606
O O9 0.250000 0.930655 0.460876
O O10 0.163241 0.750000 0.481180
O O11 0.162886 0.003709 0.379557
O O12 0.607800 0.250000 0.871182
O O13 0.648411 0.498656 0.789354
O O14 0.641298 0.508960 0.951921
O O15 0.012197 0.250000 0.404644
O O16 0.000000 0.000000 0.500000
O O17 0.750000 0.503745 0.722748
O O18 0.813482 0.250000 0.708248
O O19 0.126996 0.250000 0.825112
O O20 0.161966 0.977402 0.887594
O O21 0.750000 0.510419 0.010287
O O22 0.810144 0.250000 0.006840
#
# Coordination Sequence:
#
# PCOD9452048 Si02
#       8
#     8   8   8   8   8   8   8   8
#     4  10  21  37  55  77 106 143 187 235 284 335
#     4   9  19  36  56  82 112 146 189 230 277 340
#     4   9  18  31  49  78 111 143 184 228 274 336
#     4   9  17  31  54  81 111 144 179 228 284 334
#     4  11  22  36  55  80 112 148 186 230 276 326
#     4   8  14  26  46  74 107 141 177 218 269 333
#     4   9  20  38  55  74 108 146 183 230 284 341
#     4  10  21  36  57  86 112 139 185 238 282 331
#
# _framework density 20.640695000000001
#
# number of rings (size 3 to 8) (size 9 to 14) (size 15 to 20)
#    0.000    2.625    0.000    3.375    1.750    5.500 
#    0.000    3.125    0.000    0.750    0.000    1.750 
#    0.000    0.000    0.000    0.000    0.000    0.000 
#
# Total GULP energy -356742.638043 kJ/mol
# GULP energy per Si atom -5574.103719 kJ/mol
# Density = 2.059372 g / cm^3
# Si number density = 20.640695 Si / 1000 Ang^3
#
#
#
# Elastic Constant Matrix: (Units=GPa)
#
#
# Indices 1 2 3 4 5 6 
#
# 1 26.9351 -1.8259 10.0280 0.0000 0.0000 0.0000
# 2 -1.8259 12.9848 -1.0190 0.0000 0.0000 0.0000
# 3 10.0280 -1.0190 99.7934 0.0000 0.0000 0.0000
# 4 0.0000 0.0000 0.0000 16.3817 0.0000 0.0000
# 5 0.0000 0.0000 0.0000 0.0000 32.2857 0.0000
# 6 0.0000 0.0000 0.0000 0.0000 0.0000 13.9600
#
#
#
# Elastic Compliance Matrix: (Units=1/GPa)
#
#
# Indices 1 2 3 4 5 6 
#
# 1 0.038913 0.005169 -0.003857 0.000000 0.000000 0.000000
# 2 0.005169 0.077762 0.000275 0.000000 0.000000 0.000000
# 3 -0.003857 0.000275 0.010411 0.000000 0.000000 0.000000
# 4 0.000000 0.000000 0.000000 0.061044 0.000000 0.000000
# 5 0.000000 0.000000 0.000000 0.000000 0.030973 0.000000
# 6 0.000000 0.000000 0.000000 0.000000 0.000000 0.071633
#
#
# Mechanical properties :
#
#
# Convention : Reuss Voigt Hill
#
# Bulk Modulus (GPa) = 7.67708 17.11995 12.39852
# Shear Modulus (GPa) = 15.10653 21.36084 18.23369
#
# Velocity S-wave (km/s) = 2.70826 3.22046 2.97540
# Velocity P-wave (km/s) = 3.67520 4.70540 4.22184
#
# Compressibility (1/GPa) = 0.13025782
#
# Stress axis : x y z
#
# Youngs Moduli (GPa) = 25.69848 12.85983 96.05098
#
# Poissons Ratio (x) = -0.06647 0.37052
# Poissons Ratio (y) = -0.13284 -0.02638
# Poissons Ratio (z) = 0.09913 -0.00353
#
# Static dielectric constant tensor:
#      x y z
#    x 2.064980 0.000000 0.000000 
#    y 0.000000 1.758510 0.000000 
#    z 0.000000 0.000000 1.753360 
# 
# From -- ./inp_files/24720.got.cif
#   From: 2010.05.17/outbox.cif.g08.bks.cpg/sg59_13_cif.got.tgz:24720.got - 2010.06.03 14:40:33.
