data_PCOD9452443
_publ_section_title
;
Structure prediction by ZEFSAII (Michael W. Deem and Ramdas Pophale) SiO2 
 PCOD9452443
Probable space group: P M M N
;
_chemical_formula_sum "Si O2"
_cell_formula_units_Z 48
_cell_length_a 7.936037
_cell_length_b 17.542490
_cell_length_c 17.182418
_cell_angle_alpha 90.000000
_cell_angle_beta 90.000000
_cell_angle_gamma 90.000000
_cell_volume 2392.099287
_symmetry_space_group_name_H-M "P M M N"
_symmetry_group_IT_number 59
_space_group.IT_coordinate_system_code '2'
_symmetry_cell_setting 'orthorhombic'
loop_
_space_group_symop_operation_xyz
x,y,z
1/2-x,1/2-y,z
1/2+x,-y,-z
-x,1/2+y,-z
-x,-y,-z
1/2+x,1/2+y,-z
1/2-x,y,z
x,1/2-y,z
loop_
_atom_site_type_symbol
_atom_site_label
_atom_site_fract_x
_atom_site_fract_y
_atom_site_fract_z
Si Si1 0.545737 0.937009 0.397553
Si Si2 0.456509 0.162526 0.749512
Si Si3 0.050371 0.393776 0.430200
Si Si4 0.045700 0.402210 0.075607
Si Si5 0.940835 0.250000 0.330531
Si Si6 0.446376 0.250000 0.158099
Si Si7 0.548091 0.928225 0.100114
O O1 0.750000 0.938695 0.398998
O O2 0.490288 0.886173 0.325236
O O3 0.488792 0.902449 0.480539
O O4 0.484739 0.023931 0.392322
O O5 0.250000 0.161894 0.749815
O O6 0.509909 0.250000 0.744562
O O7 0.515176 0.122747 0.828939
O O8 0.250000 0.380391 0.432510
O O9 0.972644 0.324558 0.382568
O O10 0.250000 0.402037 0.075465
O O11 0.982765 0.328071 0.121602
O O12 0.991851 0.482798 0.111761
O O13 0.986242 0.403786 0.985594
O O14 0.750000 0.250000 0.303138
O O15 0.045682 0.250000 0.251155
O O16 0.250000 0.250000 0.135083
O O17 0.750000 0.920063 0.098398
#
# Coordination Sequence:
#
# PCOD9452443 Si02
#       7
#     8   8   8   8   4   4   8
#     4   9  19  36  59  85 114 149 188 227 272 330
#     4   9  18  31  54  85 112 141 181 225 267 318
#     4  10  21  38  60  83 113 150 187 229 283 335
#     4   9  19  35  55  78 109 145 182 225 274 329
#     4  12  26  40  58  83 112 144 190 241 286 338
#     4  10  22  38  56  81 110 146 188 231 284 336
#     4   9  18  33  55  82 110 144 184 223 269 324
#
# _framework density 20.066057000000001
#
# number of rings (size 3 to 8) (size 9 to 14) (size 15 to 20)
#    0.000    2.500    0.000    1.250    4.667    1.333 
#    0.000    0.000    0.000    1.500    0.000    0.000 
#    0.000    0.000    0.000    0.000    0.000    0.000 
#
# Total GULP energy -267952.185240 kJ/mol
# GULP energy per Si atom -5582.337193 kJ/mol
# Density = 2.002039 g / cm^3
# Si number density = 20.066057 Si / 1000 Ang^3
#
#
#
# Elastic Constant Matrix: (Units=GPa)
#
#
# Indices 1 2 3 4 5 6 
#
# 1 14.1173 -11.9928 -8.2564 0.0000 0.0000 0.0000
# 2 -11.9928 137.7586 87.4668 0.0000 0.0000 0.0000
# 3 -8.2564 87.4668 97.2114 0.0000 0.0000 0.0000
# 4 0.0000 0.0000 0.0000 32.2349 0.0000 0.0000
# 5 0.0000 0.0000 0.0000 0.0000 9.4497 0.0000
# 6 0.0000 0.0000 0.0000 0.0000 0.0000 26.8938
#
#
#
# Elastic Compliance Matrix: (Units=1/GPa)
#
#
# Indices 1 2 3 4 5 6 
#
# 1 0.076550 0.005916 0.001179 0.000000 0.000000 0.000000
# 2 0.005916 0.017389 -0.015144 0.000000 0.000000 0.000000
# 3 0.001179 -0.015144 0.024013 0.000000 0.000000 0.000000
# 4 0.000000 0.000000 0.000000 0.031022 0.000000 0.000000
# 5 0.000000 0.000000 0.000000 0.000000 0.105823 0.000000
# 6 0.000000 0.000000 0.000000 0.000000 0.000000 0.037183
#
#
# Mechanical properties :
#
#
# Convention : Reuss Voigt Hill
#
# Bulk Modulus (GPa) = 9.81800 42.61362 26.21581
# Shear Modulus (GPa) = 14.61858 25.84032 20.22945
#
# Velocity S-wave (km/s) = 2.70204 3.59243 3.17857
# Velocity P-wave (km/s) = 3.82599 6.20405 5.15405
#
# Compressibility (1/GPa) = 0.10185372
#
# Stress axis : x y z
#
# Youngs Moduli (GPa) = 13.06334 57.50683 41.64469
#
# Poissons Ratio (x) = -0.34019 -0.04909
# Poissons Ratio (y) = -0.07728 0.63065
# Poissons Ratio (z) = -0.01540 0.87087
#
# Static dielectric constant tensor:
#      x y z
#    x 1.727640 0.000000 0.000000 
#    y 0.000000 1.669620 0.000000 
#    z 0.000000 0.000000 1.696510 
# 
# From -- ./inp_files/25635.got.cif
#   From: 2010.05.17/outbox.cif.g08.bks.cpg/sg59_13_cif.got.tgz:25635.got - 2010.06.03 14:40:33.
