data_PCOD9452374
_publ_section_title
;
Structure prediction by ZEFSAII (Michael W. Deem and Ramdas Pophale) SiO2 
 PCOD9452374
Probable space group: P M M N
;
_chemical_formula_sum "Si O2"
_cell_formula_units_Z 40
_cell_length_a 25.342681
_cell_length_b 16.266888
_cell_length_c 5.137017
_cell_angle_alpha 90.000000
_cell_angle_beta 90.000000
_cell_angle_gamma 90.000000
_cell_volume 2117.717553
_symmetry_space_group_name_H-M "P M M N"
_symmetry_group_IT_number 59
_space_group.IT_coordinate_system_code '2'
_symmetry_cell_setting 'orthorhombic'
loop_
_space_group_symop_operation_xyz
x,y,z
1/2-x,1/2-y,z
1/2+x,-y,-z
-x,1/2+y,-z
-x,-y,-z
1/2+x,1/2+y,-z
1/2-x,y,z
x,1/2-y,z
loop_
_atom_site_type_symbol
_atom_site_label
_atom_site_fract_x
_atom_site_fract_y
_atom_site_fract_z
Si Si1 0.467472 0.929515 0.853914
Si Si2 0.605926 0.553985 0.369188
Si Si3 0.926317 0.653544 0.855697
Si Si4 0.367086 0.653573 0.111159
Si Si5 0.812410 0.419928 0.376752
O O1 0.511832 0.862895 0.787913
O O2 0.436624 0.978637 0.627727
O O3 0.421966 0.890158 0.032093
O O4 0.500000 0.000000 0.000000
O O5 0.604785 0.604283 0.633864
O O6 0.661261 0.508762 0.321931
O O7 0.588662 0.612785 0.132032
O O8 0.915636 0.750000 0.856424
O O9 0.375695 0.750000 0.151705
O O10 0.340158 0.614354 0.363627
O O11 0.329067 0.637199 0.864941
O O12 0.750000 0.423491 0.407299
#
# Coordination Sequence:
#
# PCOD9452374 Si02
#       5
#     8   8   8   8   8
#     4   9  19  36  56  81 114 153 186 218 265 330
#     4  10  21  38  56  81 112 146 190 232 270 330
#     4  11  21  35  58  85 115 147 182 228 282 333
#     4  11  23  37  56  86 118 144 182 233 277 322
#     4  11  23  40  61  80 106 150 191 228 278 333
#
# _framework density 18.888259000000001
#
# number of rings (size 3 to 8) (size 9 to 14) (size 15 to 20)
#    0.000    1.600    0.000    6.600    0.000    7.200 
#    0.000   10.000    0.000    3.600    0.000    0.000 
#    0.000    0.000    0.000    0.000    0.000    0.000 
#
# Total GULP energy -223430.913604 kJ/mol
# GULP energy per Si atom -5585.772840 kJ/mol
# Density = 1.884527 g / cm^3
# Si number density = 18.888259 Si / 1000 Ang^3
#
#
#
# Elastic Constant Matrix: (Units=GPa)
#
#
# Indices 1 2 3 4 5 6 
#
# 1 94.3107 47.3032 -1.6689 0.0000 0.0000 0.0000
# 2 47.3032 97.7193 16.9053 0.0000 0.0000 0.0000
# 3 -1.6689 16.9053 71.8776 0.0000 0.0000 0.0000
# 4 0.0000 0.0000 0.0000 16.5980 0.0000 0.0000
# 5 0.0000 0.0000 0.0000 0.0000 15.7498 0.0000
# 6 0.0000 0.0000 0.0000 0.0000 0.0000 6.1498
#
#
#
# Elastic Compliance Matrix: (Units=1/GPa)
#
#
# Indices 1 2 3 4 5 6 
#
# 1 0.014285 -0.007268 0.002041 0.000000 0.000000 0.000000
# 2 -0.007268 0.014365 -0.003547 0.000000 0.000000 0.000000
# 3 0.002041 -0.003547 0.014794 0.000000 0.000000 0.000000
# 4 0.000000 0.000000 0.000000 0.060248 0.000000 0.000000
# 5 0.000000 0.000000 0.000000 0.000000 0.063493 0.000000
# 6 0.000000 0.000000 0.000000 0.000000 0.000000 0.162607
#
#
# Mechanical properties :
#
#
# Convention : Reuss Voigt Hill
#
# Bulk Modulus (GPa) = 38.61643 43.22076 40.91860
# Shear Modulus (GPa) = 14.04600 21.12405 17.58502
#
# Velocity S-wave (km/s) = 2.72993 3.34783 3.05454
# Velocity P-wave (km/s) = 5.51595 6.15435 5.84387
#
# Compressibility (1/GPa) = 0.02589571
#
# Stress axis : x y z
#
# Youngs Moduli (GPa) = 70.00482 69.61219 67.59379
#
# Poissons Ratio (x) = 0.50594 -0.13796
# Poissons Ratio (y) = 0.50879 0.23978
# Poissons Ratio (z) = -0.14288 0.24694
#
# Static dielectric constant tensor:
#      x y z
#    x 1.661230 0.000000 0.000000 
#    y 0.000000 1.652360 0.000000 
#    z 0.000000 0.000000 1.671360 
# 
# From -- ./inp_files/2018.got.cif
#   From: 2010.05.17/outbox.cif.g08.bks.cpg/sg59_2_cif.got.tgz:2018.got - 2010.06.03 14:40:33.
