data_PCOD9452540
_publ_section_title
;
Structure prediction by ZEFSAII (Michael W. Deem and Ramdas Pophale) SiO2 
 PCOD9452540
Probable space group: P M M N
;
_chemical_formula_sum "Si O2"
_cell_formula_units_Z 40
_cell_length_a 23.198390
_cell_length_b 8.531088
_cell_length_c 10.205863
_cell_angle_alpha 90.000000
_cell_angle_beta 90.000000
_cell_angle_gamma 90.000000
_cell_volume 2019.816899
_symmetry_space_group_name_H-M "P M M N"
_symmetry_group_IT_number 59
_space_group.IT_coordinate_system_code '2'
_symmetry_cell_setting 'orthorhombic'
loop_
_space_group_symop_operation_xyz
x,y,z
1/2-x,1/2-y,z
1/2+x,-y,-z
-x,1/2+y,-z
-x,-y,-z
1/2+x,1/2+y,-z
1/2-x,y,z
x,1/2-y,z
loop_
_atom_site_type_symbol
_atom_site_label
_atom_site_fract_x
_atom_site_fract_y
_atom_site_fract_z
Si Si1 0.642631 0.060235 0.782866
Si Si2 0.685289 0.563865 0.051633
Si Si3 0.399797 0.564066 0.735169
Si Si4 0.815398 0.441226 0.494019
Si Si5 0.012831 0.936711 0.145704
O O1 0.646712 0.250000 0.792921
O O2 0.666081 0.014357 0.640643
O O3 0.575906 0.014038 0.804454
O O4 0.677833 0.984418 0.901051
O O5 0.750000 0.523972 0.096121
O O6 0.676614 0.750000 0.065866
O O7 0.638209 0.474171 0.136931
O O8 0.406914 0.750000 0.722990
O O9 0.362287 0.504999 0.612142
O O10 0.462116 0.490027 0.757730
O O11 0.750000 0.493436 0.465225
O O12 0.815167 0.250000 0.489040
O O13 0.012685 0.750000 0.137544
O O14 0.000000 0.000000 0.000000
#
# Coordination Sequence:
#
# PCOD9452540 Si02
#       5
#     8   8   8   8   8
#     4  10  21  38  62  87 113 153 200 244 295 351
#     4  11  23  37  56  85 118 152 195 247 298 349
#     4  11  22  37  60  87 116 157 199 240 293 351
#     4   9  19  37  60  87 118 151 195 248 294 347
#     4  11  22  37  59  88 121 155 197 248 297 350
#
# _framework density 19.803775999999999
#
# number of rings (size 3 to 8) (size 9 to 14) (size 15 to 20)
#    0.000    1.600    2.000    3.000    0.000    4.800 
#    0.000    2.000    0.000    4.800    0.000    0.000 
#    0.000    0.000    0.000    0.000    0.000    0.000 
#
# Total GULP energy -223562.533457 kJ/mol
# GULP energy per Si atom -5589.063336 kJ/mol
# Density = 1.975870 g / cm^3
# Si number density = 19.803776 Si / 1000 Ang^3
#
#
#
# Elastic Constant Matrix: (Units=GPa)
#
#
# Indices 1 2 3 4 5 6 
#
# 1 87.1487 13.5775 -9.8554 0.0000 0.0000 0.0000
# 2 13.5775 14.5278 -5.6406 0.0000 0.0000 0.0000
# 3 -9.8554 -5.6406 57.3274 0.0000 0.0000 0.0000
# 4 0.0000 0.0000 0.0000 9.4468 0.0000 0.0000
# 5 0.0000 0.0000 0.0000 0.0000 36.5710 0.0000
# 6 0.0000 0.0000 0.0000 0.0000 0.0000 15.1227
#
#
#
# Elastic Compliance Matrix: (Units=1/GPa)
#
#
# Indices 1 2 3 4 5 6 
#
# 1 0.013499 -0.012180 0.001122 0.000000 0.000000 0.000000
# 2 -0.012180 0.082558 0.006029 0.000000 0.000000 0.000000
# 3 0.001122 0.006029 0.018230 0.000000 0.000000 0.000000
# 4 0.000000 0.000000 0.000000 0.105856 0.000000 0.000000
# 5 0.000000 0.000000 0.000000 0.000000 0.027344 0.000000
# 6 0.000000 0.000000 0.000000 0.000000 0.000000 0.066126
#
#
# Mechanical properties :
#
#
# Convention : Reuss Voigt Hill
#
# Bulk Modulus (GPa) = 9.59425 17.24075 13.41750
# Shear Modulus (GPa) = 13.95032 22.95625 18.45328
#
# Velocity S-wave (km/s) = 2.65698 3.40837 3.05586
# Velocity P-wave (km/s) = 3.77729 4.92078 4.38645
#
# Compressibility (1/GPa) = 0.10422914
#
# Stress axis : x y z
#
# Youngs Moduli (GPa) = 74.07829 12.11266 54.85515
#
# Poissons Ratio (x) = 0.14754 -0.06156
# Poissons Ratio (y) = 0.90231 -0.33073
# Poissons Ratio (z) = -0.08313 -0.07303
#
# Static dielectric constant tensor:
#      x y z
#    x 1.705460 0.000000 0.000000 
#    y 0.000000 1.674120 0.000000 
#    z 0.000000 0.000000 1.675140 
# 
# From -- ./inp_files/5631.got.cif
#   From: 2010.05.17/outbox.cif.g08.bks.cpg/sg59_3_cif.got.tgz:5631.got - 2010.06.03 14:40:33.
