data_PCOD9452760
_publ_section_title
;
Structure prediction by ZEFSAII (Michael W. Deem and Ramdas Pophale) SiO2 
 PCOD9452760
Probable space group: P M M N
;
_chemical_formula_sum "Si O2"
_cell_formula_units_Z 48
_cell_length_a 29.544758
_cell_length_b 8.617557
_cell_length_c 10.205892
_cell_angle_alpha 90.000000
_cell_angle_beta 90.000000
_cell_angle_gamma 90.000000
_cell_volume 2598.457213
_symmetry_space_group_name_H-M "P M M N"
_symmetry_group_IT_number 59
_space_group.IT_coordinate_system_code '2'
_symmetry_cell_setting 'orthorhombic'
loop_
_space_group_symop_operation_xyz
x,y,z
1/2-x,1/2-y,z
1/2+x,-y,-z
-x,1/2+y,-z
-x,-y,-z
1/2+x,1/2+y,-z
1/2-x,y,z
x,1/2-y,z
loop_
_atom_site_type_symbol
_atom_site_label
_atom_site_fract_x
_atom_site_fract_y
_atom_site_fract_z
Si Si1 0.302352 0.562777 0.511342
Si Si2 0.625684 0.936458 0.987055
Si Si3 0.302051 0.063044 0.227575
Si Si4 0.019834 0.936514 0.634955
Si Si5 0.878450 0.437722 0.281410
Si Si6 0.468332 0.564560 0.114715
O O1 0.250000 0.511477 0.533850
O O2 0.302311 0.750000 0.510638
O O3 0.316884 0.505073 0.367502
O O4 0.337902 0.511532 0.622057
O O5 0.623341 0.750000 0.991262
O O6 0.667739 0.983831 0.895716
O O7 0.581345 0.002227 0.916299
O O8 0.627648 0.998518 0.135011
O O9 0.250000 0.015613 0.208184
O O10 0.303809 0.250000 0.237145
O O11 0.018396 0.750000 0.635210
O O12 0.072081 0.983475 0.662857
O O13 0.000000 0.000000 0.500000
O O14 0.988768 0.001593 0.750867
O O15 0.877820 0.250000 0.275198
O O16 0.468614 0.750000 0.113763
O O17 0.500000 0.500000 0.000000
#
# Coordination Sequence:
#
# PCOD9452760 Si02
#       6
#     8   8   8   8   8   8
#     4   9  19  37  60  86 116 151 193 240 293 351
#     4  11  23  38  60  89 118 156 199 240 292 353
#     4   9  20  39  60  86 119 152 192 241 290 346
#     4  11  24  41  60  87 121 158 199 244 292 350
#     4  10  22  39  58  84 118 155 194 242 293 346
#     4  12  24  41  63  87 119 157 197 244 295 350
#
# _framework density 18.472498999999999
#
# number of rings (size 3 to 8) (size 9 to 14) (size 15 to 20)
#    0.000    1.667    1.667    2.500    2.333    3.333 
#    0.000    0.000    0.000    0.000    0.000    0.000 
#    0.000    0.000    0.000    0.000    0.000    0.000 
#
# Total GULP energy -268136.175555 kJ/mol
# GULP energy per Si atom -5586.170324 kJ/mol
# Density = 1.843045 g / cm^3
# Si number density = 18.472499 Si / 1000 Ang^3
#
#
#
# Elastic Constant Matrix: (Units=GPa)
#
#
# Indices 1 2 3 4 5 6 
#
# 1 132.1122 38.2009 116.7673 0.0000 0.0000 0.0000
# 2 38.2009 37.0732 44.3749 0.0000 0.0000 0.0000
# 3 116.7673 44.3749 208.3406 0.0000 0.0000 0.0000
# 4 0.0000 0.0000 0.0000 38.5409 0.0000 0.0000
# 5 0.0000 0.0000 0.0000 0.0000 43.5534 0.0000
# 6 0.0000 0.0000 0.0000 0.0000 0.0000 19.3519
#
#
#
# Elastic Compliance Matrix: (Units=1/GPa)
#
#
# Indices 1 2 3 4 5 6 
#
# 1 0.016602 -0.008012 -0.007598 0.000000 0.000000 0.000000
# 2 -0.008012 0.040070 -0.004044 0.000000 0.000000 0.000000
# 3 -0.007598 -0.004044 0.009920 0.000000 0.000000 0.000000
# 4 0.000000 0.000000 0.000000 0.025946 0.000000 0.000000
# 5 0.000000 0.000000 0.000000 0.000000 0.022960 0.000000
# 6 0.000000 0.000000 0.000000 0.000000 0.000000 0.051675
#
#
# Mechanical properties :
#
#
# Convention : Reuss Voigt Hill
#
# Bulk Modulus (GPa) = 36.65315 86.24581 61.44948
# Shear Modulus (GPa) = 23.19372 32.16809 27.68090
#
# Velocity S-wave (km/s) = 3.54726 4.17754 3.87524
# Velocity P-wave (km/s) = 6.05496 8.37014 7.30485
#
# Compressibility (1/GPa) = 0.02728279
#
# Stress axis : x y z
#
# Youngs Moduli (GPa) = 60.23510 24.95627 100.80979
#
# Poissons Ratio (x) = 0.19995 0.76596
# Poissons Ratio (y) = 0.48260 0.40769
# Poissons Ratio (z) = 0.45767 0.10093
#
# Static dielectric constant tensor:
#      x y z
#    x 1.637450 0.000000 0.000000 
#    y 0.000000 1.622040 0.000000 
#    z 0.000000 0.000000 1.591580 
# 
# From -- ./inp_files/6277.got.cif
#   From: 2010.05.17/outbox.cif.g08.bks.cpg/sg59_4_cif.got.tgz:6277.got - 2010.06.03 14:40:33.
