data_PCOD9452788
_publ_section_title
;
Structure prediction by ZEFSAII (Michael W. Deem and Ramdas Pophale) SiO2 
 PCOD9452788
Probable space group: P M M N
;
_chemical_formula_sum "Si O2"
_cell_formula_units_Z 64
_cell_length_a 14.867524
_cell_length_b 8.536958
_cell_length_c 28.940553
_cell_angle_alpha 90.000000
_cell_angle_beta 90.000000
_cell_angle_gamma 90.000000
_cell_volume 3673.234194
_symmetry_space_group_name_H-M "P M M N"
_symmetry_group_IT_number 59
_space_group.IT_coordinate_system_code '2'
_symmetry_cell_setting 'orthorhombic'
loop_
_space_group_symop_operation_xyz
x,y,z
1/2-x,1/2-y,z
1/2+x,-y,-z
-x,1/2+y,-z
-x,-y,-z
1/2+x,1/2+y,-z
1/2-x,y,z
x,1/2-y,z
loop_
_atom_site_type_symbol
_atom_site_label
_atom_site_fract_x
_atom_site_fract_y
_atom_site_fract_z
Si Si1 0.351091 0.439176 0.610381
Si Si2 0.147319 0.440918 0.153775
Si Si3 0.850351 0.569483 0.585580
Si Si4 0.975913 0.066427 0.661146
Si Si5 0.851435 0.561602 0.740640
Si Si6 0.645254 0.560974 0.020309
Si Si7 0.472898 0.439395 0.069146
Si Si8 0.599724 0.436834 0.490638
O O1 0.250000 0.477355 0.624694
O O2 0.359206 0.250000 0.606205
O O3 0.425715 0.493954 0.646851
O O4 0.369177 0.509066 0.559739
O O5 0.250000 0.487914 0.141420
O O6 0.146984 0.250000 0.153081
O O7 0.129755 0.489732 0.206646
O O8 0.073263 0.492576 0.116835
O O9 0.750000 0.562870 0.605532
O O10 0.881418 0.750000 0.587144
O O11 0.916184 0.464624 0.615588
O O12 0.847080 0.512567 0.533058
O O13 0.981950 0.250000 0.670322
O O14 0.924922 0.989760 0.703850
O O15 0.750000 0.506706 0.728361
O O16 0.849069 0.750000 0.740762
O O17 0.750000 0.507813 0.023910
O O18 0.647195 0.750000 0.021566
O O19 0.572649 0.502667 0.058127
O O20 0.596630 0.514709 0.971986
O O21 0.477767 0.250000 0.069042
O O22 0.500000 0.500000 0.500000
O O23 0.603172 0.250000 0.493515
#
# Coordination Sequence:
#
# PCOD9452788 Si02
#       8
#     8   8   8   8   8   8   8   8
#     4  10  22  40  58  75  98 130 166 204 246 289
#     4   8  14  27  49  74  97 125 163 203 246 297
#     4  11  23  37  54  76 104 136 163 194 239 288
#     4  11  22  35  54  77 101 130 162 201 243 291
#     4   9  18  33  53  76 102 130 158 196 249 303
#     4   9  17  28  42  64  98 136 169 205 252 302
#     4   9  16  27  46  70  94 126 171 215 249 291
#     4  12  23  36  55  78 104 133 165 200 239 285
#
# _framework density 17.423338000000001
#
# number of rings (size 3 to 8) (size 9 to 14) (size 15 to 20)
#    0.000    2.125    1.250    3.750    0.000    6.750 
#    0.000    0.625    0.000    2.625    0.000    3.500 
#    0.000    0.000    0.000    0.000    0.000    0.000 
#
# Total GULP energy -356934.571307 kJ/mol
# GULP energy per Si atom -5577.102677 kJ/mol
# Density = 1.738368 g / cm^3
# Si number density = 17.423338 Si / 1000 Ang^3
#
#
#
# Elastic Constant Matrix: (Units=GPa)
#
#
# Indices 1 2 3 4 5 6 
#
# 1 141.8040 12.2432 66.8390 0.0000 0.0000 0.0000
# 2 12.2432 9.3915 8.3702 0.0000 0.0000 0.0000
# 3 66.8390 8.3702 101.2882 0.0000 0.0000 0.0000
# 4 0.0000 0.0000 0.0000 20.2987 0.0000 0.0000
# 5 0.0000 0.0000 0.0000 0.0000 27.5029 0.0000
# 6 0.0000 0.0000 0.0000 0.0000 0.0000 20.8961
#
#
#
# Elastic Compliance Matrix: (Units=1/GPa)
#
#
# Indices 1 2 3 4 5 6 
#
# 1 0.010810 -0.008350 -0.006443 0.000000 0.000000 0.000000
# 2 -0.008350 0.121395 -0.004522 0.000000 0.000000 0.000000
# 3 -0.006443 -0.004522 0.014498 0.000000 0.000000 0.000000
# 4 0.000000 0.000000 0.000000 0.049264 0.000000 0.000000
# 5 0.000000 0.000000 0.000000 0.000000 0.036360 0.000000
# 6 0.000000 0.000000 0.000000 0.000000 0.000000 0.047856
#
#
# Mechanical properties :
#
#
# Convention : Reuss Voigt Hill
#
# Bulk Modulus (GPa) = 9.25296 47.48759 28.37027
# Shear Modulus (GPa) = 14.09095 24.74163 19.41629
#
# Velocity S-wave (km/s) = 2.84692 3.77241 3.34186
# Velocity P-wave (km/s) = 4.01607 6.80361 5.58650
#
# Compressibility (1/GPa) = 0.10807351
#
# Stress axis : x y z
#
# Youngs Moduli (GPa) = 92.50717 8.23757 68.97311
#
# Poissons Ratio (x) = 0.06878 0.44442
# Poissons Ratio (y) = 0.77242 0.31188
# Poissons Ratio (z) = 0.59606 0.03725
#
# Static dielectric constant tensor:
#      x y z
#    x 1.603680 0.000000 0.000000 
#    y 0.000000 1.593610 0.000000 
#    z 0.000000 0.000000 1.586180 
# 
# From -- ./inp_files/33345.got.cif
#   From: 2010.05.17/outbox.cif.g08.bks.cpg/sg59_17_cif.got.tgz:33345.got - 2010.06.03 14:40:33.
