data_PCOD9452798
_publ_section_title
;
Structure prediction by ZEFSAII (Michael W. Deem and Ramdas Pophale) SiO2 
 PCOD9452798
Probable space group: P M M N
;
_chemical_formula_sum "Si O2"
_cell_formula_units_Z 64
_cell_length_a 15.257907
_cell_length_b 7.735352
_cell_length_c 24.753848
_cell_angle_alpha 90.000000
_cell_angle_beta 90.000000
_cell_angle_gamma 90.000000
_cell_volume 2921.579877
_symmetry_space_group_name_H-M "P M M N"
_symmetry_group_IT_number 59
_space_group.IT_coordinate_system_code '2'
_symmetry_cell_setting 'orthorhombic'
loop_
_space_group_symop_operation_xyz
x,y,z
1/2-x,1/2-y,z
1/2+x,-y,-z
-x,1/2+y,-z
-x,-y,-z
1/2+x,1/2+y,-z
1/2-x,y,z
x,1/2-y,z
loop_
_atom_site_type_symbol
_atom_site_label
_atom_site_fract_x
_atom_site_fract_y
_atom_site_fract_z
Si Si1 0.653947 0.044209 0.368773
Si Si2 0.480287 0.945929 0.313716
Si Si3 0.600480 0.043265 0.487552
Si Si4 0.655846 0.547915 0.602914
Si Si5 0.349142 0.541620 0.018520
Si Si6 0.037982 0.961518 0.118544
Si Si7 0.350250 0.961831 0.222308
Si Si8 0.653350 0.547894 0.106126
O O1 0.750000 0.977766 0.352889
O O2 0.659843 0.250000 0.374898
O O3 0.628528 0.976759 0.428622
O O4 0.575777 0.016016 0.326902
O O5 0.494143 0.750000 0.296491
O O6 0.415433 0.025688 0.269332
O O7 0.424707 0.954344 0.369040
O O8 0.611475 0.250000 0.487947
O O9 0.500000 0.000000 0.500000
O O10 0.652030 0.970426 0.538623
O O11 0.750000 0.481618 0.622867
O O12 0.648018 0.750000 0.616177
O O13 0.250000 0.504007 0.038554
O O14 0.355712 0.750000 0.013287
O O15 0.421523 0.482022 0.061234
O O16 0.356861 0.464635 0.958854
O O17 0.035044 0.750000 0.117205
O O18 0.104996 0.009526 0.165733
O O19 0.938536 0.024039 0.128319
O O20 0.250000 0.021345 0.227699
O O21 0.347411 0.750000 0.224703
O O22 0.750000 0.472323 0.119315
O O23 0.656534 0.750000 0.121202
#
# Coordination Sequence:
#
# PCOD9452798 Si02
#       8
#     8   8   8   8   8   8   8   8
#     4  10  22  40  60  80 108 146 181 214 258 316
#     4  11  22  36  57  82 107 136 174 225 277 322
#     4  11  21  35  57  84 113 145 179 216 263 316
#     4  11  23  37  55  80 111 147 183 219 263 317
#     4   9  16  26  44  70  97 128 167 208 250 301
#     4   9  16  28  47  70  97 131 170 211 257 308
#     4   9  18  33  53  78 105 131 167 218 271 318
#     4   9  17  28  43  67 100 135 167 202 249 305
#
# _framework density 21.905957000000001
#
# number of rings (size 3 to 8) (size 9 to 14) (size 15 to 20)
#    0.000    2.125    1.250    2.625    0.000    4.250 
#    0.000    0.625    0.000    5.250    0.000    3.500 
#    0.000    0.000    0.000    0.000    0.000    0.000 
#
# Total GULP energy -357285.992301 kJ/mol
# GULP energy per Si atom -5582.593630 kJ/mol
# Density = 2.185610 g / cm^3
# Si number density = 21.905957 Si / 1000 Ang^3
#
#
#
# Elastic Constant Matrix: (Units=GPa)
#
#
# Indices 1 2 3 4 5 6 
#
# 1 189.4443 5.0835 35.8082 0.0000 0.0000 0.0000
# 2 5.0835 35.1951 -5.9333 0.0000 0.0000 0.0000
# 3 35.8082 -5.9333 47.3284 0.0000 0.0000 0.0000
# 4 0.0000 0.0000 0.0000 11.0165 0.0000 0.0000
# 5 0.0000 0.0000 0.0000 0.0000 27.4491 0.0000
# 6 0.0000 0.0000 0.0000 0.0000 0.0000 1.0944
#
#
#
# Elastic Compliance Matrix: (Units=1/GPa)
#
#
# Indices 1 2 3 4 5 6 
#
# 1 0.006262 -0.001740 -0.004956 0.000000 0.000000 0.000000
# 2 -0.001740 0.029510 0.005016 0.000000 0.000000 0.000000
# 3 -0.004956 0.005016 0.025507 0.000000 0.000000 0.000000
# 4 0.000000 0.000000 0.000000 0.090773 0.000000 0.000000
# 5 0.000000 0.000000 0.000000 0.000000 0.036431 0.000000
# 6 0.000000 0.000000 0.000000 0.000000 0.000000 0.913750
#
#
# Mechanical properties :
#
#
# Convention : Reuss Voigt Hill
#
# Bulk Modulus (GPa) = 17.26534 37.98715 27.62624
# Shear Modulus (GPa) = 4.44484 23.71261 14.07873
#
# Velocity S-wave (km/s) = 1.42599 3.29367 2.53788
# Velocity P-wave (km/s) = 3.25729 5.64296 4.60722
#
# Compressibility (1/GPa) = 0.05791952
#
# Stress axis : x y z
#
# Youngs Moduli (GPa) = 159.69240 33.88686 39.20432
#
# Poissons Ratio (x) = 0.05896 0.19429
# Poissons Ratio (y) = 0.27786 -0.19665
# Poissons Ratio (z) = 0.79142 -0.16997
#
# Static dielectric constant tensor:
#      x y z
#    x 1.831580 0.000000 0.000000 
#    y 0.000000 1.798790 0.000000 
#    z 0.000000 0.000000 1.784890 
# 
# From -- ./inp_files/32108.got.cif
#   From: 2010.05.17/outbox.cif.g08.bks.cpg/sg59_17_cif.got.tgz:32108.got - 2010.06.03 14:40:33.
