data_PCOD9453520
_publ_section_title
;
Structure prediction by ZEFSAII (Michael W. Deem and Ramdas Pophale) SiO2 
 PCOD9453520
Probable space group: P M M N
;
_chemical_formula_sum "Si O2"
_cell_formula_units_Z 48
_cell_length_a 9.000000
_cell_length_b 9.000000
_cell_length_c 30.000000
_cell_angle_alpha 90.000000
_cell_angle_beta 90.000000
_cell_angle_gamma 90.000000
_cell_volume 2430.000000
_symmetry_space_group_name_H-M "P M M N"
_symmetry_group_IT_number 59
_space_group.IT_coordinate_system_code '2'
_symmetry_cell_setting 'orthorhombic'
loop_
_space_group_symop_operation_xyz
x,y,z
1/2-x,1/2-y,z
1/2+x,-y,-z
-x,1/2+y,-z
-x,-y,-z
1/2+x,1/2+y,-z
1/2-x,y,z
x,1/2-y,z
loop_
_atom_site_type_symbol
_atom_site_label
_atom_site_fract_x
_atom_site_fract_y
_atom_site_fract_z
Si Si1 0.925160 0.081705 0.459281
Si Si2 0.073074 0.578197 0.225493
Si Si3 0.930243 0.581317 0.862476
Si Si4 0.582681 0.073411 0.618970
Si Si5 0.421370 0.924976 0.697194
Si Si6 0.419611 0.428131 0.040852
O O1 0.750000 0.083926 0.465866
O O2 0.979836 0.250000 0.456034
O O3 0.000000 0.000000 0.500000
O O4 0.967550 0.995781 0.415084
O O5 0.250000 0.550525 0.233068
O O6 0.043876 0.750000 0.236459
O O7 0.038898 0.539456 0.174638
O O8 0.972067 0.468218 0.253811
O O9 0.750000 0.589374 0.866150
O O10 0.978238 0.750000 0.850611
O O11 0.988499 0.538562 0.910929
O O12 0.750000 0.025075 0.607570
O O13 0.578080 0.250000 0.617096
O O14 0.534145 0.015599 0.666645
O O15 0.250000 0.966853 0.688780
O O16 0.435778 0.750000 0.688567
O O17 0.250000 0.480818 0.040665
O O18 0.419339 0.250000 0.037273
O O19 0.500000 0.500000 0.000000
#
# Coordination Sequence:
#
# PCOD9453520 Si02
#       6
#     8   8   8   8   8   8
#     4  11  24  41  62  90 122 156 196 238 281 332
#     4  10  20  34  55  83 109 135 174 222 270 323
#     4   8  15  30  51  73 100 136 176 218 264 315
#     4  11  24  41  62  89 118 149 189 234 279 330
#     4  11  24  40  58  82 112 147 186 225 269 325
#     4   9  18  32  50  74 103 135 174 218 264 318
#
# _framework density 19.753086
#
# number of rings (size 3 to 8) (size 9 to 14) (size 15 to 20)
#    0.000    2.000    0.000    4.500    0.000   12.000 
#    0.000    2.500    0.000    1.000    0.000    0.000 
#    0.000    0.000    0.000    0.000    0.000    0.000 
#
# Total GULP energy -267733.972703 kJ/mol
# GULP energy per Si atom -5577.791098 kJ/mol
# Density = 1.970813 g / cm^3
# Si number density = 19.753086 Si / 1000 Ang^3
#
#
#
# Elastic Constant Matrix: (Units=GPa)
#
#
# Indices 1 2 3 4 5 6 
#
# 1 26.8399 27.8946 6.5832 0.0000 0.0000 0.0000
# 2 27.8946 38.7705 15.2312 0.0000 0.0000 0.0000
# 3 6.5832 15.2312 67.7746 0.0000 0.0000 0.0000
# 4 0.0000 0.0000 0.0000 33.7186 0.0000 0.0000
# 5 0.0000 0.0000 0.0000 0.0000 25.2886 0.0000
# 6 0.0000 0.0000 0.0000 0.0000 0.0000 22.1908
#
#
#
# Elastic Compliance Matrix: (Units=1/GPa)
#
#
# Indices 1 2 3 4 5 6 
#
# 1 0.154787 -0.115672 0.010960 0.000000 0.000000 0.000000
# 2 -0.115672 0.114732 -0.014548 0.000000 0.000000 0.000000
# 3 0.010960 -0.014548 0.016960 0.000000 0.000000 0.000000
# 4 0.000000 0.000000 0.000000 0.029657 0.000000 0.000000
# 5 0.000000 0.000000 0.000000 0.000000 0.039543 0.000000
# 6 0.000000 0.000000 0.000000 0.000000 0.000000 0.045064
#
#
# Mechanical properties :
#
#
# Convention : Reuss Voigt Hill
#
# Bulk Modulus (GPa) = 20.85140 25.86700 23.35920
# Shear Modulus (GPa) = 7.63069 21.81800 14.72434
#
# Velocity S-wave (km/s) = 1.96759 3.32706 2.73320
# Velocity P-wave (km/s) = 3.96747 5.28041 4.67031
#
# Compressibility (1/GPa) = 0.04795841
#
# Stress axis : x y z
#
# Youngs Moduli (GPa) = 6.46050 8.71598 58.96331
#
# Poissons Ratio (x) = 1.00819 -0.64626
# Poissons Ratio (y) = 0.74730 0.85783
# Poissons Ratio (z) = -0.07081 0.12680
#
# Static dielectric constant tensor:
#      x y z
#    x 1.683650 0.000000 0.000000 
#    y 0.000000 1.680910 0.000000 
#    z 0.000000 0.000000 1.829250 
# 
# From -- ./inp_files/32825.got.cif
#   From: 2010.05.17/outbox.ucp.g08.bks.cvg/sg59_17_cif.got.tgz:32825.got - 2010.06.11 16:43:56.
