data_PCOD9453825
_publ_section_title
;
Structure prediction by ZEFSAII (Michael W. Deem and Ramdas Pophale) SiO2 
 PCOD9453825
Probable space group: P B C N
;
_chemical_formula_sum "Si O2"
_cell_formula_units_Z 64
_cell_length_a 7.683515
_cell_length_b 10.486225
_cell_length_c 30.645473
_cell_angle_alpha 90.000000
_cell_angle_beta 90.000000
_cell_angle_gamma 90.000000
_cell_volume 2469.138461
_symmetry_space_group_name_H-M "P B C N"
_symmetry_group_IT_number 60
_symmetry_cell_setting 'orthorhombic'
loop_
_space_group_symop_operation_xyz
x,y,z
1/2-x,1/2-y,1/2+z
1/2+x,1/2-y,-z
-x,y,1/2-z
-x,-y,-z
1/2+x,1/2+y,1/2-z
1/2-x,1/2+y,z
x,-y,1/2+z
loop_
_atom_site_type_symbol
_atom_site_label
_atom_site_fract_x
_atom_site_fract_y
_atom_site_fract_z
Si Si1 0.034829 0.254250 0.700052
Si Si2 0.948632 0.241474 0.299935
Si Si3 0.085328 0.664941 0.391683
Si Si4 0.698776 0.539348 0.983939
Si Si5 0.571838 0.917484 0.369320
Si Si6 0.530731 0.503457 0.849572
Si Si7 0.716089 0.273703 0.933076
Si Si8 0.845835 0.901446 0.063250
O O1 0.240784 0.275985 0.694485
O O2 0.924106 0.315946 0.660780
O O3 0.000000 0.287781 0.750000
O O4 0.004752 0.106491 0.688612
O O5 0.995498 0.375842 0.322059
O O6 0.025753 0.126913 0.327740
O O7 0.000000 0.236961 0.250000
O O8 0.054983 0.513662 0.393720
O O9 0.903218 0.724509 0.409365
O O10 0.209438 0.760310 0.419583
O O11 0.704210 0.414172 0.953003
O O12 0.807101 0.663456 0.969306
O O13 0.507258 0.598379 0.972530
O O14 0.764161 0.492380 0.031017
O O15 0.764291 0.980565 0.363186
O O16 0.595625 0.785577 0.395516
O O17 0.420487 0.531899 0.893069
#
# Coordination Sequence:
#
# PCOD9453825 Si02
#       8
#     8   8   8   8   8   8   8   8
#     4  10  20  34  57  83 110 151 199 242 290 358
#     4  11  22  34  55  88 121 149 198 259 300 343
#     4  10  17  32  55  79 106 151 194 237 289 360
#     4  10  19  30  55  85 109 141 192 249 292 346
#     4  11  17  31  56  83 111 147 193 242 300 351
#     4  10  17  35  57  77 108 152 197 237 288 370
#     4  11  17  32  57  84 111 146 195 247 295 349
#     4   9  18  32  54  80 108 145 196 235 293 357
#
# _framework density 25.919972000000001
#
# number of rings (size 3 to 8) (size 9 to 14) (size 15 to 20)
#    0.000    1.750    7.500    1.125    0.000    0.500 
#    0.000    0.625    8.250    0.000    0.000    0.000 
#    0.000    0.000    0.000    0.000    0.000    0.000 
#
# Total GULP energy -357100.253578 kJ/mol
# GULP energy per Si atom -5579.691462 kJ/mol
# Density = 2.586098 g / cm^3
# Si number density = 25.919972 Si / 1000 Ang^3
#
#
#
# Elastic Constant Matrix: (Units=GPa)
#
#
# Indices 1 2 3 4 5 6 
#
# 1 65.0413 13.2366 15.1027 0.0000 0.0000 0.0000
# 2 13.2366 132.2300 50.4136 0.0000 0.0000 0.0000
# 3 15.1027 50.4136 158.7706 0.0000 0.0000 0.0000
# 4 0.0000 0.0000 0.0000 37.9155 0.0000 0.0000
# 5 0.0000 0.0000 0.0000 0.0000 29.4403 0.0000
# 6 0.0000 0.0000 0.0000 0.0000 0.0000 -1.9686
#
#
#
# Elastic Compliance Matrix: (Units=1/GPa)
#
#
# Indices 1 2 3 4 5 6 
#
# 1 0.015875 -0.001153 -0.001144 0.000000 0.000000 0.000000
# 2 -0.001153 0.008688 -0.002649 0.000000 0.000000 0.000000
# 3 -0.001144 -0.002649 0.007248 0.000000 0.000000 0.000000
# 4 0.000000 0.000000 0.000000 0.026374 0.000000 0.000000
# 5 0.000000 0.000000 0.000000 0.000000 0.033967 0.000000
# 6 0.000000 0.000000 0.000000 0.000000 0.000000 -0.507963
#
#
# Mechanical properties :
#
#
# Convention : Reuss Voigt Hill
#
# Bulk Modulus (GPa) = 45.62144 57.06085 51.34114
# Shear Modulus (GPa) = -12.54352 31.56337 9.50992
#
# Velocity S-wave (km/s) = -2.20223 3.49338 1.91753
# Velocity P-wave (km/s) = 3.34255 6.19141 4.97525
#
# Compressibility (1/GPa) = 0.02191952
#
# Stress axis : x y z
#
# Youngs Moduli (GPa) = 62.99160 115.10220 137.96298
#
# Poissons Ratio (x) = 0.13271 0.15783
# Poissons Ratio (y) = 0.07263 0.36546
# Poissons Ratio (z) = 0.07206 0.30490
#
# Static dielectric constant tensor:
#      x y z
#    x 2.340960 0.000000 0.000000 
#    y 0.000000 2.225630 0.000000 
#    z 0.000000 0.000000 2.111710 
# 
# From -- ./inp_files/25371.got.cif
#   From: 2010.05.17/outbox.cif.g08.bks.cpg/sg60_13_cif.got.tgz:25371.got - 2010.06.03 14:59:27.
