data_PCOD9453452
_publ_section_title
;
Structure prediction by ZEFSAII (Michael W. Deem and Ramdas Pophale) SiO2 
 PCOD9453452
Probable space group: P M M N
;
_chemical_formula_sum "Si O2"
_cell_formula_units_Z 64
_cell_length_a 9.000000
_cell_length_b 30.000000
_cell_length_c 12.000000
_cell_angle_alpha 90.000000
_cell_angle_beta 90.000000
_cell_angle_gamma 90.000000
_cell_volume 3240.000000
_symmetry_space_group_name_H-M "P M M N"
_symmetry_group_IT_number 59
_space_group.IT_coordinate_system_code '2'
_symmetry_cell_setting 'orthorhombic'
loop_
_space_group_symop_operation_xyz
x,y,z
1/2-x,1/2-y,z
1/2+x,-y,-z
-x,1/2+y,-z
-x,-y,-z
1/2+x,1/2+y,-z
1/2-x,y,z
x,1/2-y,z
loop_
_atom_site_type_symbol
_atom_site_label
_atom_site_fract_x
_atom_site_fract_y
_atom_site_fract_z
Si Si1 0.926256 0.063335 0.259201
Si Si2 0.072872 0.199932 0.992130
Si Si3 0.427646 0.478184 0.891533
Si Si4 0.926565 0.160488 0.199378
Si Si5 0.579622 0.375664 0.607392
Si Si6 0.580113 0.381981 0.867104
Si Si7 0.570344 0.199483 0.441866
Si Si8 0.075266 0.452331 0.487716
O O1 0.750000 0.065280 0.285709
O O2 0.957103 0.107455 0.185515
O O3 0.021269 0.067235 0.370288
O O4 0.956515 0.015489 0.203578
O O5 0.250000 0.197438 0.982236
O O6 0.025647 0.250000 0.957177
O O7 0.998973 0.158697 0.928463
O O8 0.020982 0.190969 0.118018
O O9 0.250000 0.474081 0.902677
O O10 0.498631 0.429614 0.875160
O O11 0.500000 0.500000 0.000000
O O12 0.750000 0.167419 0.180043
O O13 0.960270 0.175168 0.325360
O O14 0.750000 0.384608 0.568998
O O15 0.583479 0.368640 0.738003
O O16 0.521227 0.332775 0.541220
O O17 0.482347 0.418563 0.580471
O O18 0.750000 0.387202 0.908231
O O19 0.750000 0.202328 0.450078
O O20 0.512473 0.250000 0.445428
O O21 0.250000 0.457272 0.492482
O O22 0.000000 0.500000 0.500000
#
# Coordination Sequence:
#
# PCOD9453452 Si02
#       8
#     8   8   8   8   8   8   8   8
#     4  10  21  38  60  88 123 161 202 251 307 364
#     4  11  25  43  63  89 124 163 204 258 320 378
#     4  11  23  39  62  91 125 164 208 259 314 375
#     4  10  19  36  64  93 125 161 205 258 308 369
#     4  10  21  40  62  88 124 159 201 255 305 363
#     4  11  24  41  64  90 121 164 212 261 310 370
#     4   9  17  32  59  92 123 158 199 249 308 361
#     4  12  24  37  58  86 119 160 204 248 300 361
#
# _framework density 19.753086
#
# number of rings (size 3 to 8) (size 9 to 14) (size 15 to 20)
#    0.000    1.500    1.250    4.125    0.000    7.500 
#    0.000    1.250    0.000    0.375    0.000    0.000 
#    0.000    0.000    0.000    0.000    0.000    0.000 
#
# Total GULP energy -357484.647272 kJ/mol
# GULP energy per Si atom -5585.697614 kJ/mol
# Density = 1.970813 g / cm^3
# Si number density = 19.753086 Si / 1000 Ang^3
#
#
#
# Elastic Constant Matrix: (Units=GPa)
#
#
# Indices 1 2 3 4 5 6 
#
# 1 56.9240 38.3477 19.6210 0.0000 0.0000 0.0000
# 2 38.3477 157.9389 31.4256 0.0000 0.0000 0.0000
# 3 19.6210 31.4256 61.0613 0.0000 0.0000 0.0000
# 4 0.0000 0.0000 0.0000 25.1512 0.0000 0.0000
# 5 0.0000 0.0000 0.0000 0.0000 19.3343 0.0000
# 6 0.0000 0.0000 0.0000 0.0000 0.0000 26.9298
#
#
#
# Elastic Compliance Matrix: (Units=1/GPa)
#
#
# Indices 1 2 3 4 5 6 
#
# 1 0.022227 -0.004429 -0.004863 0.000000 0.000000 0.000000
# 2 -0.004429 0.007937 -0.002661 0.000000 0.000000 0.000000
# 3 -0.004863 -0.002661 0.019309 0.000000 0.000000 0.000000
# 4 0.000000 0.000000 0.000000 0.039760 0.000000 0.000000
# 5 0.000000 0.000000 0.000000 0.000000 0.051722 0.000000
# 6 0.000000 0.000000 0.000000 0.000000 0.000000 0.037134
#
#
# Mechanical properties :
#
#
# Convention : Reuss Voigt Hill
#
# Bulk Modulus (GPa) = 39.11402 50.52363 44.81883
# Shear Modulus (GPa) = 23.75110 26.71838 25.23474
#
# Velocity S-wave (km/s) = 3.47133 3.68179 3.57810
# Velocity P-wave (km/s) = 5.99260 6.61114 6.30945
#
# Compressibility (1/GPa) = 0.02556628
#
# Stress axis : x y z
#
# Youngs Moduli (GPa) = 44.98979 125.99986 51.78871
#
# Poissons Ratio (x) = 0.55808 0.25184
# Poissons Ratio (y) = 0.19927 0.13783
# Poissons Ratio (z) = 0.21878 0.33533
#
# Static dielectric constant tensor:
#      x y z
#    x 1.673450 0.000000 0.000000 
#    y 0.000000 1.688840 0.000000 
#    z 0.000000 0.000000 1.745710 
# 
# From -- ./inp_files/15010.got.cif
#   From: 2010.05.17/outbox.ucp.g08.bks.cvg/sg59_8_cif.got.tgz:15010.got - 2010.06.11 16:43:56.
