data_PCOD9453677
_publ_section_title
;
Structure prediction by ZEFSAII (Michael W. Deem and Ramdas Pophale) SiO2 
 PCOD9453677
Probable space group: P M M N
;
_chemical_formula_sum "Si O2"
_cell_formula_units_Z 64
_cell_length_a 18.000000
_cell_length_b 21.000000
_cell_length_c 9.000000
_cell_angle_alpha 90.000000
_cell_angle_beta 90.000000
_cell_angle_gamma 90.000000
_cell_volume 3402.000000
_symmetry_space_group_name_H-M "P M M N"
_symmetry_group_IT_number 59
_space_group.IT_coordinate_system_code '2'
_symmetry_cell_setting 'orthorhombic'
loop_
_space_group_symop_operation_xyz
x,y,z
1/2-x,1/2-y,z
1/2+x,-y,-z
-x,1/2+y,-z
-x,-y,-z
1/2+x,1/2+y,-z
1/2-x,y,z
x,1/2-y,z
loop_
_atom_site_type_symbol
_atom_site_label
_atom_site_fract_x
_atom_site_fract_y
_atom_site_fract_z
Si Si1 0.132724 0.430625 0.651307
Si Si2 0.833654 0.426209 0.450856
Si Si3 0.163350 0.677563 0.808332
Si Si4 0.165309 0.323973 0.418756
Si Si5 0.581266 0.916681 0.788430
Si Si6 0.460496 0.946509 0.321480
Si Si7 0.062260 0.904281 0.987484
Si Si8 0.166474 0.024074 0.957271
O O1 0.163149 0.500114 0.602405
O O2 0.162518 0.371180 0.559640
O O3 0.153466 0.426891 0.824213
O O4 0.044297 0.433895 0.631737
O O5 0.750000 0.414834 0.508551
O O6 0.847471 0.375304 0.320044
O O7 0.898448 0.419539 0.569824
O O8 0.250000 0.674768 0.849922
O O9 0.146936 0.750000 0.760376
O O10 0.112048 0.655520 0.943477
O O11 0.250000 0.326180 0.360055
O O12 0.147831 0.250000 0.450434
O O13 0.108220 0.357038 0.305667
O O14 0.514663 0.901100 0.900008
O O15 0.553537 0.977550 0.694093
O O16 0.649307 0.943473 0.886199
O O17 0.450679 0.915442 0.160080
O O18 0.107131 0.967623 0.936963
O O19 0.250000 0.998538 0.950854
#
# Coordination Sequence:
#
# PCOD9453677 Si02
#       8
#     8   8   8   8   8   8   8   8
#     4  12  21  39  61  92 121 161 198 257 305 358
#     4  11  22  36  60  93 122 159 205 248 299 361
#     4  10  22  40  61  87 122 161 199 244 302 369
#     4  11  26  44  61  86 122 163 209 258 308 366
#     4  11  21  39  60  89 123 155 198 252 307 358
#     4  11  22  37  61  91 126 152 195 254 305 353
#     4  11  21  38  58  91 123 154 196 247 300 360
#     4  11  20  34  62  92 121 157 197 246 302 358
#
# _framework density 18.812463000000001
#
# number of rings (size 3 to 8) (size 9 to 14) (size 15 to 20)
#    0.000    1.000    5.000    3.000    1.750    3.000 
#    0.000    1.875    0.000    3.750    0.000    0.000 
#    0.000    0.000    0.000    0.000    0.000    0.000 
#
# Total GULP energy -357420.726077 kJ/mol
# GULP energy per Si atom -5584.698845 kJ/mol
# Density = 1.876965 g / cm^3
# Si number density = 18.812463 Si / 1000 Ang^3
#
#
#
# Elastic Constant Matrix: (Units=GPa)
#
#
# Indices 1 2 3 4 5 6 
#
# 1 106.9343 33.8592 38.4584 0.0000 0.0000 0.0000
# 2 33.8592 120.7718 26.6912 0.0000 0.0000 0.0000
# 3 38.4584 26.6912 46.2598 0.0000 0.0000 0.0000
# 4 0.0000 0.0000 0.0000 22.8081 0.0000 0.0000
# 5 0.0000 0.0000 0.0000 0.0000 29.9290 0.0000
# 6 0.0000 0.0000 0.0000 0.0000 0.0000 15.5093
#
#
#
# Elastic Compliance Matrix: (Units=1/GPa)
#
#
# Indices 1 2 3 4 5 6 
#
# 1 0.013574 -0.001503 -0.010418 0.000000 0.000000 0.000000
# 2 -0.001503 0.009657 -0.004322 0.000000 0.000000 0.000000
# 3 -0.010418 -0.004322 0.032772 0.000000 0.000000 0.000000
# 4 0.000000 0.000000 0.000000 0.043844 0.000000 0.000000
# 5 0.000000 0.000000 0.000000 0.000000 0.033412 0.000000
# 6 0.000000 0.000000 0.000000 0.000000 0.000000 0.064478
#
#
# Mechanical properties :
#
#
# Convention : Reuss Voigt Hill
#
# Bulk Modulus (GPa) = 42.52315 52.44261 47.48288
# Shear Modulus (GPa) = 21.00302 25.31308 23.15805
#
# Velocity S-wave (km/s) = 3.34494 3.67215 3.51236
# Velocity P-wave (km/s) = 6.12952 6.77618 6.46094
#
# Compressibility (1/GPa) = 0.02351660
#
# Stress axis : x y z
#
# Youngs Moduli (GPa) = 73.66937 103.55480 30.51432
#
# Poissons Ratio (x) = 0.15567 0.31789
# Poissons Ratio (y) = 0.11074 0.13188
# Poissons Ratio (z) = 0.76746 0.44757
#
# Static dielectric constant tensor:
#      x y z
#    x 1.665870 0.000000 0.000000 
#    y 0.000000 1.622750 0.000000 
#    z 0.000000 0.000000 1.688900 
# 
# From -- ./inp_files/10712.got.cif
#   From: 2010.05.17/outbox.ucp.g08.bks.cvg/sg59_6_cif.got.tgz:10712.got - 2010.06.11 16:43:56.
