data_PCOD9453730
_publ_section_title
;
Structure prediction by ZEFSAII (Michael W. Deem and Ramdas Pophale) SiO2 
 PCOD9453730
Probable space group: P B C N
;
_chemical_formula_sum "Si O2"
_cell_formula_units_Z 56
_cell_length_a 19.655629
_cell_length_b 22.572035
_cell_length_c 5.479454
_cell_angle_alpha 90.000000
_cell_angle_beta 90.000000
_cell_angle_gamma 90.000000
_cell_volume 2431.055908
_symmetry_space_group_name_H-M "P B C N"
_symmetry_group_IT_number 60
_symmetry_cell_setting 'orthorhombic'
loop_
_space_group_symop_operation_xyz
x,y,z
1/2-x,1/2-y,1/2+z
1/2+x,1/2-y,-z
-x,y,1/2-z
-x,-y,-z
1/2+x,1/2+y,1/2-z
1/2-x,1/2+y,z
x,-y,1/2+z
loop_
_atom_site_type_symbol
_atom_site_label
_atom_site_fract_x
_atom_site_fract_y
_atom_site_fract_z
Si Si1 0.043311 0.160225 0.999956
Si Si2 0.911131 0.351264 0.089460
Si Si3 0.400015 0.788342 0.912546
Si Si4 0.421513 0.524820 0.011475
Si Si5 0.237452 0.807555 0.914963
Si Si6 0.758251 0.331260 0.085283
Si Si7 0.925998 0.482900 0.183145
O O1 0.076612 0.095650 0.030509
O O2 0.000000 0.170414 0.250000
O O3 0.087940 0.218870 0.950977
O O4 0.000000 0.154949 0.750000
O O5 0.928103 0.319831 0.345023
O O6 0.829368 0.364335 0.086495
O O7 0.939481 0.416561 0.094384
O O8 0.926509 0.312760 0.847840
O O9 0.319684 0.803808 0.913193
O O10 0.390345 0.496625 0.255748
O O11 0.500000 0.500000 0.000000
O O12 0.217023 0.738575 0.913683
O O13 0.218331 0.838732 0.665108
O O14 0.217201 0.838099 0.165645
O O15 0.891649 0.484378 0.452435
O O16 0.000000 0.509332 0.250000
#
# Coordination Sequence:
#
# PCOD9453730 Si02
#       7
#     8   8   8   8   8   8   8
#     4  12  21  31  45  66  95 123 163 194 231 273
#     4  10  19  34  50  71  98 122 158 192 250 296
#     4  10  21  31  45  71 102 130 148 196 245 299
#     4  10  16  30  47  62  78 111 158 206 217 238
#     4   8  14  27  42  65  94 118 151 174 223 279
#     4   8  14  25  47  67  87 119 146 185 217 280
#     4  10  21  36  53  70  90 124 169 210 239 286
#
# _framework density 23.035259
#
# number of rings (size 3 to 8) (size 9 to 14) (size 15 to 20)
#    0.000    2.286    2.857    1.714    0.000    1.714 
#    0.000    0.000    0.000    0.000    0.000    2.000 
#    0.000    0.000    0.000    0.000    0.000    0.000 
#
# Total GULP energy -312477.305323 kJ/mol
# GULP energy per Si atom -5579.951881 kJ/mol
# Density = 2.298283 g / cm^3
# Si number density = 23.035259 Si / 1000 Ang^3
#
#
#
# Elastic Constant Matrix: (Units=GPa)
#
#
# Indices 1 2 3 4 5 6 
#
# 1 30.8532 16.2812 22.3893 0.0000 0.0000 0.0000
# 2 16.2812 132.3263 61.5474 0.0000 0.0000 0.0000
# 3 22.3893 61.5474 269.0296 0.0000 0.0000 0.0000
# 4 0.0000 0.0000 0.0000 34.0558 0.0000 0.0000
# 5 0.0000 0.0000 0.0000 0.0000 13.5865 0.0000
# 6 0.0000 0.0000 0.0000 0.0000 0.0000 -256.8266
#
#
#
# Elastic Compliance Matrix: (Units=1/GPa)
#
#
# Indices 1 2 3 4 5 6 
#
# 1 0.035795 -0.003378 -0.002206 0.000000 0.000000 0.000000
# 2 -0.003378 0.008776 -0.001727 0.000000 0.000000 0.000000
# 3 -0.002206 -0.001727 0.004296 0.000000 0.000000 0.000000
# 4 0.000000 0.000000 0.000000 0.029364 0.000000 0.000000
# 5 0.000000 0.000000 0.000000 0.000000 0.073603 0.000000
# 6 0.000000 0.000000 0.000000 0.000000 0.000000 -0.003894
#
#
# Mechanical properties :
#
#
# Convention : Reuss Voigt Hill
#
# Bulk Modulus (GPa) = 29.20135 70.29386 49.74761
# Shear Modulus (GPa) = 28.73968 -19.70412 4.51778
#
# Velocity S-wave (km/s) = 3.53602 -2.92788 1.40196
# Velocity P-wave (km/s) = 5.41993 4.37631 4.92583
#
# Compressibility (1/GPa) = 0.03424499
#
# Stress axis : x y z
#
# Youngs Moduli (GPa) = 27.93684 113.95029 232.79340
#
# Poissons Ratio (x) = 0.38493 0.51357
# Poissons Ratio (y) = 0.09437 0.40193
# Poissons Ratio (z) = 0.06163 0.19674
#
# Static dielectric constant tensor:
#      x y z
#    x 2.100730 0.000000 0.000000 
#    y 0.000000 1.805140 0.000000 
#    z 0.000000 0.000000 2.115500 
# 
# From -- ./inp_files/2382.got.cif
#   From: 2010.05.17/outbox.cif.g08.bks.cpg/sg60_2_cif.got.tgz:2382.got - 2010.06.03 14:59:27.
