data_PCOD9453575
_publ_section_title
;
Structure prediction by ZEFSAII (Michael W. Deem and Ramdas Pophale) SiO2 
 PCOD9453575
Probable space group: P M M N
;
_chemical_formula_sum "Si O2"
_cell_formula_units_Z 64
_cell_length_a 30.000000
_cell_length_b 9.000000
_cell_length_c 12.000000
_cell_angle_alpha 90.000000
_cell_angle_beta 90.000000
_cell_angle_gamma 90.000000
_cell_volume 3240.000000
_symmetry_space_group_name_H-M "P M M N"
_symmetry_group_IT_number 59
_space_group.IT_coordinate_system_code '2'
_symmetry_cell_setting 'orthorhombic'
loop_
_space_group_symop_operation_xyz
x,y,z
1/2-x,1/2-y,z
1/2+x,-y,-z
-x,1/2+y,-z
-x,-y,-z
1/2+x,1/2+y,-z
1/2-x,y,z
x,1/2-y,z
loop_
_atom_site_type_symbol
_atom_site_label
_atom_site_fract_x
_atom_site_fract_y
_atom_site_fract_z
Si Si1 0.198830 0.568026 0.106833
Si Si2 0.304206 0.923264 0.348167
Si Si3 0.378284 0.572616 0.950828
Si Si4 0.480232 0.927605 0.338631
Si Si5 0.034445 0.572661 0.084453
Si Si6 0.433696 0.924075 0.554998
Si Si7 0.630340 0.576175 0.277391
Si Si8 0.803107 0.078142 0.408502
O O1 0.250000 0.523222 0.092603
O O2 0.197900 0.750000 0.111215
O O3 0.181363 0.515492 0.228352
O O4 0.167903 0.521836 0.005462
O O5 0.250000 0.924852 0.342669
O O6 0.317805 0.750000 0.352155
O O7 0.316745 0.984526 0.469205
O O8 0.376676 0.750000 0.933664
O O9 0.388056 0.496905 0.834149
O O10 0.416544 0.539561 0.039534
O O11 0.491372 0.750000 0.342677
O O12 0.471629 0.972174 0.212254
O O13 0.438929 0.947591 0.422838
O O14 0.520216 0.023406 0.388828
O O15 0.028347 0.750000 0.080491
O O16 0.000000 0.500000 0.000000
O O17 0.426608 0.750000 0.574928
O O18 0.397091 0.018980 0.616940
O O19 0.628575 0.750000 0.267514
O O20 0.679040 0.514922 0.305746
O O21 0.750000 0.080956 0.408598
O O22 0.818401 0.250000 0.398776
#
# Coordination Sequence:
#
# PCOD9453575 Si02
#       8
#     8   8   8   8   8   8   8   8
#     4   8  14  27  51  82 111 136 166 213 268 316
#     4   7  11  23  47  79 107 128 157 203 260 317
#     4  10  21  36  54  78 105 137 184 229 265 318
#     4   9  19  36  58  85 114 141 172 216 270 320
#     4  10  21  36  55  80 109 142 178 220 269 318
#     4  10  20  36  59  84 110 141 177 217 263 320
#     4  12  25  38  52  73 107 147 183 225 274 318
#     4   9  18  34  57  82 106 136 177 222 268 323
#
# _framework density 19.753086
#
# number of rings (size 3 to 8) (size 9 to 14) (size 15 to 20)
#    0.000    2.625    0.000    3.750    0.000    5.250 
#    0.000    5.000    0.000    2.250    0.000    1.750 
#    0.000    0.000    0.000    0.000    0.000    0.000 
#
# Total GULP energy -356663.562459 kJ/mol
# GULP energy per Si atom -5572.868163 kJ/mol
# Density = 1.970813 g / cm^3
# Si number density = 19.753086 Si / 1000 Ang^3
#
#
#
# Elastic Constant Matrix: (Units=GPa)
#
#
# Indices 1 2 3 4 5 6 
#
# 1 48.1197 28.3758 42.3799 0.0000 0.0000 0.0000
# 2 28.3758 12.5981 27.6684 0.0000 0.0000 0.0000
# 3 42.3799 27.6684 113.7597 0.0000 0.0000 0.0000
# 4 0.0000 0.0000 0.0000 4.6275 0.0000 0.0000
# 5 0.0000 0.0000 0.0000 0.0000 19.1142 0.0000
# 6 0.0000 0.0000 0.0000 0.0000 0.0000 11.3514
#
#
#
# Elastic Compliance Matrix: (Units=1/GPa)
#
#
# Indices 1 2 3 4 5 6 
#
# 1 -0.042925 0.132155 -0.016151 0.000000 0.000000 0.000000
# 2 0.132155 -0.236480 0.008283 0.000000 0.000000 0.000000
# 3 -0.016151 0.008283 0.012793 0.000000 0.000000 0.000000
# 4 0.000000 0.000000 0.000000 0.216099 0.000000 0.000000
# 5 0.000000 0.000000 0.000000 0.000000 0.052317 0.000000
# 6 0.000000 0.000000 0.000000 0.000000 0.000000 0.088095
#
#
# Mechanical properties :
#
#
# Convention : Reuss Voigt Hill
#
# Bulk Modulus (GPa) = -55.44000 41.25842 -7.09079
# Shear Modulus (GPa) = -30.36058 12.08886 -9.13586
#
# Velocity S-wave (km/s) = -3.92472 2.47654 -2.15292
# Velocity P-wave (km/s) = 6.97605 5.39538 3.12692
#
# Compressibility (1/GPa) = -0.01803752
#
# Stress axis : x y z
#
# Youngs Moduli (GPa) = -23.29668 -4.22869 78.16863
#
# Poissons Ratio (x) = 0.55884 1.26254
# Poissons Ratio (y) = 3.07878 -0.64749
# Poissons Ratio (z) = -0.37628 0.03503
#
# Static dielectric constant tensor:
#      x y z
#    x 1.765460 0.000000 0.000000 
#    y 0.000000 1.664270 0.000000 
#    z 0.000000 0.000000 1.727800 
# 
# From -- ./inp_files/19324.got.cif
#   From: 2010.05.17/outbox.ucp.g08.bks.cvg/sg59_10_cif.got.tgz:19324.got - 2010.06.11 16:43:56.
