data_PCOD9453374
_publ_section_title
;
Structure prediction by ZEFSAII (Michael W. Deem and Ramdas Pophale) SiO2 
 PCOD9453374
Probable space group: P M M N
;
_chemical_formula_sum "Si O2"
_cell_formula_units_Z 64
_cell_length_a 9.000000
_cell_length_b 24.000000
_cell_length_c 18.000000
_cell_angle_alpha 90.000000
_cell_angle_beta 90.000000
_cell_angle_gamma 90.000000
_cell_volume 3888.000000
_symmetry_space_group_name_H-M "P M M N"
_symmetry_group_IT_number 59
_space_group.IT_coordinate_system_code '2'
_symmetry_cell_setting 'orthorhombic'
loop_
_space_group_symop_operation_xyz
x,y,z
1/2-x,1/2-y,z
1/2+x,-y,-z
-x,1/2+y,-z
-x,-y,-z
1/2+x,1/2+y,-z
1/2-x,y,z
x,1/2-y,z
loop_
_atom_site_type_symbol
_atom_site_label
_atom_site_fract_x
_atom_site_fract_y
_atom_site_fract_z
Si Si1 0.927394 0.868649 0.636245
Si Si2 0.579615 0.182172 0.058751
Si Si3 0.572008 0.187053 0.500728
Si Si4 0.930756 0.107559 0.634240
Si Si5 0.083725 0.317649 0.913979
Si Si6 0.570974 0.184851 0.224253
Si Si7 0.570575 0.990365 0.580194
Si Si8 0.428355 0.686458 0.235878
O O1 0.750000 0.865992 0.636676
O O2 0.992225 0.826025 0.575918
O O3 0.993054 0.852049 0.714868
O O4 0.974032 0.930831 0.612484
O O5 0.750000 0.164848 0.047018
O O6 0.580310 0.250000 0.058045
O O7 0.529906 0.166714 0.141050
O O8 0.478079 0.162004 0.992208
O O9 0.750000 0.182440 0.490583
O O10 0.541809 0.250000 0.526966
O O11 0.524220 0.141150 0.560518
O O12 0.750000 0.108878 0.635668
O O13 0.975029 0.043401 0.629713
O O14 0.985002 0.142968 0.703823
O O15 0.250000 0.336931 0.899574
O O16 0.086017 0.250000 0.918078
O O17 0.977867 0.331025 0.845751
O O18 0.750000 0.181781 0.230195
O O19 0.530475 0.250000 0.234309
O O20 0.750000 0.990882 0.573473
O O21 0.500000 0.000000 0.500000
O O22 0.250000 0.687867 0.239682
O O23 0.480861 0.750000 0.250116
#
# Coordination Sequence:
#
# PCOD9453374 Si02
#       8
#     8   8   8   8   8   8   8   8
#     4  11  22  32  45  68  95 122 153 190 237 285
#     4   8  14  26  44  65  89 119 156 191 219 258
#     4  10  19  31  49  69  89 119 157 191 228 277
#     4   9  17  31  50  68  87 115 155 200 235 266
#     4   9  16  25  39  63  96 129 153 175 216 274
#     4   9  18  32  49  69  94 125 159 192 228 273
#     4  10  20  35  52  68  87 117 158 200 239 279
#     4   9  16  27  45  68  92 118 151 190 229 270
#
# _framework density 16.460905
#
# number of rings (size 3 to 8) (size 9 to 14) (size 15 to 20)
#    0.000    2.625    1.250    2.250    0.000    6.000 
#    0.000    2.500    0.000    1.500    0.000    0.875 
#    0.000    0.000    0.000    0.000    0.000    0.000 
#
# Total GULP energy -356489.867621 kJ/mol
# GULP energy per Si atom -5570.154182 kJ/mol
# Density = 1.642344 g / cm^3
# Si number density = 16.460905 Si / 1000 Ang^3
#
#
#
# Elastic Constant Matrix: (Units=GPa)
#
#
# Indices 1 2 3 4 5 6 
#
# 1 1.3765 14.6066 17.2690 0.0000 0.0000 0.0000
# 2 14.6066 54.6975 25.3770 0.0000 0.0000 0.0000
# 3 17.2690 25.3770 79.1275 0.0000 0.0000 0.0000
# 4 0.0000 0.0000 0.0000 -7.6827 0.0000 0.0000
# 5 0.0000 0.0000 0.0000 0.0000 0.4664 0.0000
# 6 0.0000 0.0000 0.0000 0.0000 0.0000 13.0414
#
#
#
# Elastic Compliance Matrix: (Units=1/GPa)
#
#
# Indices 1 2 3 4 5 6 
#
# 1 -0.240466 0.046836 0.037459 0.000000 0.000000 0.000000
# 2 0.046836 0.012356 -0.014184 0.000000 0.000000 0.000000
# 3 0.037459 -0.014184 0.009012 0.000000 0.000000 0.000000
# 4 0.000000 0.000000 0.000000 -0.130162 0.000000 0.000000
# 5 0.000000 0.000000 0.000000 0.000000 2.144184 0.000000
# 6 0.000000 0.000000 0.000000 0.000000 0.000000 0.076679
#
#
# Mechanical properties :
#
#
# Convention : Reuss Voigt Hill
#
# Bulk Modulus (GPa) = -12.67791 27.74518 7.53363
# Shear Modulus (GPa) = 2.93240 6.36160 4.64700
#
# Velocity S-wave (km/s) = 1.33615 1.96801 1.68202
# Velocity P-wave (km/s) = 2.31044 4.69637 2.89117
#
# Compressibility (1/GPa) = -0.07887733
#
# Stress axis : x y z
#
# Youngs Moduli (GPa) = -4.15859 80.93222 110.96714
#
# Poissons Ratio (x) = -3.79051 -4.15674
# Poissons Ratio (y) = 0.19477 1.57398
# Poissons Ratio (z) = 0.15578 1.14796
#
# Static dielectric constant tensor:
#      x y z
#    x 1.554390 0.000000 0.000000 
#    y 0.000000 1.545210 0.000000 
#    z 0.000000 0.000000 1.556740 
# 
# From -- ./inp_files/26455.got.cif
#   From: 2010.05.17/outbox.ucp.g08.bks.cvg/sg59_14_cif.got.tgz:26455.got - 2010.06.11 16:43:56.
