data_PCOD9453948
_publ_section_title
;
Structure prediction by ZEFSAII (Michael W. Deem and Ramdas Pophale) SiO2 
 PCOD9453948
Probable space group: P B C N
;
_chemical_formula_sum "Si O2"
_cell_formula_units_Z 36
_cell_length_a 12.577926
_cell_length_b 13.914223
_cell_length_c 9.016975
_cell_angle_alpha 90.000000
_cell_angle_beta 90.000000
_cell_angle_gamma 90.000000
_cell_volume 1578.079435
_symmetry_space_group_name_H-M "P B C N"
_symmetry_group_IT_number 60
_symmetry_cell_setting 'orthorhombic'
loop_
_space_group_symop_operation_xyz
x,y,z
1/2-x,1/2-y,1/2+z
1/2+x,1/2-y,-z
-x,y,1/2-z
-x,-y,-z
1/2+x,1/2+y,1/2-z
1/2-x,1/2+y,z
x,-y,1/2+z
loop_
_atom_site_type_symbol
_atom_site_label
_atom_site_fract_x
_atom_site_fract_y
_atom_site_fract_z
Si Si1 0.882349 0.060832 0.812849
Si Si2 0.630849 0.768158 0.748579
Si Si3 0.221977 0.922075 0.890637
Si Si4 0.000000 0.541453 0.750000
Si Si5 0.368948 0.911780 0.517292
O O1 0.836505 0.157318 0.735437
O O2 0.000000 0.051927 0.750000
O O3 0.824296 0.963425 0.762697
O O4 0.870510 0.086431 0.986306
O O5 0.500000 0.771910 0.750000
O O6 0.695756 0.834829 0.633423
O O7 0.664227 0.813296 0.906859
O O8 0.287995 0.010858 0.955621
O O9 0.072433 0.470075 0.651233
O O10 0.943656 0.604750 0.624975
#
# Coordination Sequence:
#
# PCOD9453948 Si02
#       5
#     8   8   8   4   8
#     4  11  27  46  69  95 137 186 234 285 334 410
#     4  11  23  41  68 101 138 169 224 288 343 402
#     4  12  23  43  70  96 133 185 224 278 348 407
#     4  10  18  30  60  92 134 168 192 262 348 394
#     4  11  18  35  59  95 130 166 209 262 336 392
#
# _framework density 22.812539999999998
#
# number of rings (size 3 to 8) (size 9 to 14) (size 15 to 20)
#    0.000    0.889    5.556    2.000    3.111    0.000 
#    0.000    0.000   12.222    1.333    0.000    0.000 
#    0.000    0.000    0.000    0.000    0.000    0.000 
#
# Total GULP energy -200782.124475 kJ/mol
# GULP energy per Si atom -5577.281235 kJ/mol
# Density = 2.276062 g / cm^3
# Si number density = 22.812540 Si / 1000 Ang^3
#
#
#
# Elastic Constant Matrix: (Units=GPa)
#
#
# Indices 1 2 3 4 5 6 
#
# 1 43.1286 19.6210 26.5328 0.0000 0.0000 0.0000
# 2 19.6210 80.7352 2.7717 0.0000 0.0000 0.0000
# 3 26.5328 2.7717 115.1594 0.0000 0.0000 0.0000
# 4 0.0000 0.0000 0.0000 20.7906 0.0000 0.0000
# 5 0.0000 0.0000 0.0000 0.0000 41.7939 0.0000
# 6 0.0000 0.0000 0.0000 0.0000 0.0000 16.7339
#
#
#
# Elastic Compliance Matrix: (Units=1/GPa)
#
#
# Indices 1 2 3 4 5 6 
#
# 1 0.030723 -0.007230 -0.006905 0.000000 0.000000 0.000000
# 2 -0.007230 0.014098 0.001326 0.000000 0.000000 0.000000
# 3 -0.006905 0.001326 0.010243 0.000000 0.000000 0.000000
# 4 0.000000 0.000000 0.000000 0.048099 0.000000 0.000000
# 5 0.000000 0.000000 0.000000 0.000000 0.023927 0.000000
# 6 0.000000 0.000000 0.000000 0.000000 0.000000 0.059759
#
#
# Mechanical properties :
#
#
# Convention : Reuss Voigt Hill
#
# Bulk Modulus (GPa) = 33.95850 37.43048 35.69449
# Shear Modulus (GPa) = 22.49417 28.53684 25.51550
#
# Velocity S-wave (km/s) = 3.14354 3.54068 3.34801
# Velocity P-wave (km/s) = 5.30038 5.75836 5.53411
#
# Compressibility (1/GPa) = 0.02944771
#
# Stress axis : x y z
#
# Youngs Moduli (GPa) = 32.54859 70.93386 97.63210
#
# Poissons Ratio (x) = 0.51282 0.67412
# Poissons Ratio (y) = 0.23531 -0.12950
# Poissons Ratio (z) = 0.22474 -0.09409
#
# Static dielectric constant tensor:
#      x y z
#    x 1.947050 0.000000 0.000000 
#    y 0.000000 1.870770 0.000000 
#    z 0.000000 0.000000 1.926500 
# 
# From -- ./inp_files/5594.got.cif
#   From: 2010.05.17/outbox.cif.g08.bks.cpg/sg60_3_cif.got.tgz:5594.got - 2010.06.03 14:59:27.
