data_PCOD9453231
_publ_section_title
;
Structure prediction by ZEFSAII (Michael W. Deem and Ramdas Pophale) SiO2 
 PCOD9453231
Probable space group: P M M N
;
_chemical_formula_sum "Si O2"
_cell_formula_units_Z 56
_cell_length_a 14.233902
_cell_length_b 7.555832
_cell_length_c 30.583094
_cell_angle_alpha 90.000000
_cell_angle_beta 90.000000
_cell_angle_gamma 90.000000
_cell_volume 3289.180327
_symmetry_space_group_name_H-M "P M M N"
_symmetry_group_IT_number 59
_space_group.IT_coordinate_system_code '2'
_symmetry_cell_setting 'orthorhombic'
loop_
_space_group_symop_operation_xyz
x,y,z
1/2-x,1/2-y,z
1/2+x,-y,-z
-x,1/2+y,-z
-x,-y,-z
1/2+x,1/2+y,-z
1/2-x,y,z
x,1/2-y,z
loop_
_atom_site_type_symbol
_atom_site_label
_atom_site_fract_x
_atom_site_fract_y
_atom_site_fract_z
Si Si1 0.859850 0.033764 0.155134
Si Si2 0.036428 0.038905 0.569266
Si Si3 0.144461 0.536283 0.480947
Si Si4 0.642518 0.539493 0.346316
Si Si5 0.358534 0.537388 0.749288
Si Si6 0.645081 0.962530 0.979306
Si Si7 0.960360 0.037429 0.068210
O O1 0.750000 0.982807 0.150568
O O2 0.860737 0.250000 0.154362
O O3 0.895515 0.978150 0.203349
O O4 0.920467 0.970556 0.114149
O O5 0.025050 0.250000 0.574407
O O6 0.079134 0.967702 0.614335
O O7 0.935983 0.969465 0.552195
O O8 0.109135 0.008988 0.529637
O O9 0.250000 0.471684 0.473134
O O10 0.145748 0.750000 0.478134
O O11 0.750000 0.468027 0.347670
O O12 0.649892 0.750000 0.352902
O O13 0.601084 0.513485 0.297713
O O14 0.250000 0.475292 0.748115
O O15 0.357764 0.750000 0.750278
O O16 0.750000 0.030978 0.971443
O O17 0.647666 0.750000 0.974483
O O18 0.562052 0.030190 0.947734
O O19 0.611492 0.999676 0.028715
O O20 0.967506 0.250000 0.071699
#
# Coordination Sequence:
#
# PCOD9453231 Si02
#       7
#     8   8   8   8   8   8   8
#     4   8  13  22  37  56  74  92 120 156 186 216
#     4   9  17  28  41  57  78 104 130 154 186 226
#     4   9  17  28  41  58  79 101 128 161 189 216
#     4   9  16  25  37  54  76 100 124 149 180 223
#     4   8  14  24  37  53  73  95 119 151 189 222
#     4   9  17  27  37  54  81 104 123 155 193 222
#     4   9  16  26  41  57  73 100 134 157 180 223
#
# _framework density 17.025518999999999
#
# number of rings (size 3 to 8) (size 9 to 14) (size 15 to 20)
#    0.000    3.286    0.000    1.714    0.000    2.286 
#    0.000    2.143    0.000    2.571    0.000    1.000 
#    0.000    1.143    0.000    0.000    0.000    0.000 
#
# Total GULP energy -311822.386474 kJ/mol
# GULP energy per Si atom -5568.256901 kJ/mol
# Density = 1.698677 g / cm^3
# Si number density = 17.025519 Si / 1000 Ang^3
#
#
#
# Elastic Constant Matrix: (Units=GPa)
#
#
# Indices 1 2 3 4 5 6 
#
# 1 110.5483 3.2617 79.4355 0.0000 0.0000 0.0000
# 2 3.2617 36.9156 2.7357 0.0000 0.0000 0.0000
# 3 79.4355 2.7357 178.0039 0.0000 0.0000 0.0000
# 4 0.0000 0.0000 0.0000 15.4162 0.0000 0.0000
# 5 0.0000 0.0000 0.0000 0.0000 23.9215 0.0000
# 6 0.0000 0.0000 0.0000 0.0000 0.0000 6.5703
#
#
#
# Elastic Compliance Matrix: (Units=1/GPa)
#
#
# Indices 1 2 3 4 5 6 
#
# 1 0.013336 -0.000738 -0.005940 0.000000 0.000000 0.000000
# 2 -0.000738 0.027161 -0.000088 0.000000 0.000000 0.000000
# 3 -0.005940 -0.000088 0.008270 0.000000 0.000000 0.000000
# 4 0.000000 0.000000 0.000000 0.064867 0.000000 0.000000
# 5 0.000000 0.000000 0.000000 0.000000 0.041803 0.000000
# 6 0.000000 0.000000 0.000000 0.000000 0.000000 0.152201
#
#
# Mechanical properties :
#
#
# Convention : Reuss Voigt Hill
#
# Bulk Modulus (GPa) = 28.38149 55.14817 41.76483
# Shear Modulus (GPa) = 15.01890 25.18392 20.10141
#
# Velocity S-wave (km/s) = 2.97331 3.85019 3.43981
# Velocity P-wave (km/s) = 5.33794 7.22683 6.35298
#
# Compressibility (1/GPa) = 0.03523423
#
# Stress axis : x y z
#
# Youngs Moduli (GPa) = 74.98675 36.81814 120.92068
#
# Poissons Ratio (x) = 0.02718 0.71824
# Poissons Ratio (y) = 0.05535 0.01065
# Poissons Ratio (z) = 0.44541 0.00324
#
# Static dielectric constant tensor:
#      x y z
#    x 1.578570 0.000000 0.000000 
#    y 0.000000 1.636340 0.000000 
#    z 0.000000 0.000000 1.595290 
# 
# From -- ./inp_files/33168.got.cif
#   From: 2010.05.17/outbox.cif.g08.bks.cpg/sg59_17_cif.got.tgz:33168.got - 2010.06.03 14:40:33.
