data_PCOD9453631
_publ_section_title
;
Structure prediction by ZEFSAII (Michael W. Deem and Ramdas Pophale) SiO2 
 PCOD9453631
Probable space group: P M M N
;
_chemical_formula_sum "Si O2"
_cell_formula_units_Z 40
_cell_length_a 9.000000
_cell_length_b 9.000000
_cell_length_c 24.000000
_cell_angle_alpha 90.000000
_cell_angle_beta 90.000000
_cell_angle_gamma 90.000000
_cell_volume 1944.000000
_symmetry_space_group_name_H-M "P M M N"
_symmetry_group_IT_number 59
_space_group.IT_coordinate_system_code '2'
_symmetry_cell_setting 'orthorhombic'
loop_
_space_group_symop_operation_xyz
x,y,z
1/2-x,1/2-y,z
1/2+x,-y,-z
-x,1/2+y,-z
-x,-y,-z
1/2+x,1/2+y,-z
1/2-x,y,z
x,1/2-y,z
loop_
_atom_site_type_symbol
_atom_site_label
_atom_site_fract_x
_atom_site_fract_y
_atom_site_fract_z
Si Si1 0.920516 0.576287 0.949897
Si Si2 0.581116 0.414910 0.244188
Si Si3 0.076417 0.081424 0.449362
Si Si4 0.572713 0.413765 0.845252
Si Si5 0.414359 0.079207 0.642251
O O1 0.750000 0.525921 0.950417
O O2 0.925657 0.750000 0.956323
O O3 0.984205 0.529038 0.890711
O O4 0.000000 0.500000 0.000000
O O5 0.750000 0.414709 0.222880
O O6 0.517404 0.250000 0.236890
O O7 0.490558 0.539585 0.213083
O O8 0.586972 0.463998 0.307539
O O9 0.250000 0.090575 0.459214
O O10 0.019298 0.250000 0.440781
O O11 0.000000 0.000000 0.500000
O O12 0.041086 0.976310 0.397782
O O13 0.750000 0.419328 0.841781
O O14 0.527127 0.250000 0.862894
O O15 0.250000 0.071602 0.614753
O O16 0.433277 0.250000 0.660564
#
# Coordination Sequence:
#
# PCOD9453631 Si02
#       5
#     8   8   8   8   8
#     4  10  21  37  57  81 109 143 183 227 276 329
#     4  10  21  37  58  84 113 147 186 227 274 327
#     4  11  24  40  59  85 115 148 187 229 275 328
#     4  10  21  37  57  81 110 145 184 227 276 328
#     4  10  21  38  60  85 113 146 185 229 276 326
#
# _framework density 20.576132000000001
#
# number of rings (size 3 to 8) (size 9 to 14) (size 15 to 20)
#    0.000    1.800    0.000    3.600    0.000   10.400 
#    0.000    0.000    0.000    0.000    0.000    0.000 
#    0.000    0.000    0.000    0.000    0.000    0.000 
#
# Total GULP energy -222840.066894 kJ/mol
# GULP energy per Si atom -5571.001672 kJ/mol
# Density = 2.052930 g / cm^3
# Si number density = 20.576132 Si / 1000 Ang^3
#
#
#
# Elastic Constant Matrix: (Units=GPa)
#
#
# Indices 1 2 3 4 5 6 
#
# 1 27.7948 48.8480 35.4062 0.0000 0.0000 0.0000
# 2 48.8480 -24.1632 -5.5754 0.0000 0.0000 0.0000
# 3 35.4062 -5.5754 47.3428 0.0000 0.0000 0.0000
# 4 0.0000 0.0000 0.0000 27.0557 0.0000 0.0000
# 5 0.0000 0.0000 0.0000 0.0000 25.5365 0.0000
# 6 0.0000 0.0000 0.0000 0.0000 0.0000 25.3148
#
#
#
# Elastic Compliance Matrix: (Units=1/GPa)
#
#
# Indices 1 2 3 4 5 6 
#
# 1 0.008729 0.018645 -0.004332 0.000000 0.000000 0.000000
# 2 0.018645 -0.000463 -0.013999 0.000000 0.000000 0.000000
# 3 -0.004332 -0.013999 0.022714 0.000000 0.000000 0.000000
# 4 0.000000 0.000000 0.000000 0.036961 0.000000 0.000000
# 5 0.000000 0.000000 0.000000 0.000000 0.039160 0.000000
# 6 0.000000 0.000000 0.000000 0.000000 0.000000 0.039503
#
#
# Mechanical properties :
#
#
# Convention : Reuss Voigt Hill
#
# Bulk Modulus (GPa) = 31.63697 23.14800 27.39248
# Shear Modulus (GPa) = 31.94686 13.73444 22.84065
#
# Velocity S-wave (km/s) = 3.94460 2.58639 3.33536
# Velocity P-wave (km/s) = 6.01294 4.49373 5.30797
#
# Compressibility (1/GPa) = 0.03160859
#
# Stress axis : x y z
#
# Youngs Moduli (GPa) = 114.56691 -2161.54225 44.02614
#
# Poissons Ratio (x) = 40.30207 0.19072
# Poissons Ratio (y) = -2.13611 0.61630
# Poissons Ratio (z) = 0.49631 -30.25849
#
# Static dielectric constant tensor:
#      x y z
#    x 1.528330 0.000000 0.000000 
#    y 0.000000 1.767320 0.000000 
#    z 0.000000 0.000000 1.640670 
# 
# From -- ./inp_files/31110.got.cif
#   From: 2010.05.17/outbox.ucp.g08.bks.cvg/sg59_16_cif.got.tgz:31110.got - 2010.06.11 16:43:56.
