data_PCOD9453671
_publ_section_title
;
Structure prediction by ZEFSAII (Michael W. Deem and Ramdas Pophale) SiO2 
 PCOD9453671
Probable space group: P M M N
;
_chemical_formula_sum "Si O2"
_cell_formula_units_Z 56
_cell_length_a 21.000000
_cell_length_b 9.000000
_cell_length_c 15.000000
_cell_angle_alpha 90.000000
_cell_angle_beta 90.000000
_cell_angle_gamma 90.000000
_cell_volume 2835.000000
_symmetry_space_group_name_H-M "P M M N"
_symmetry_group_IT_number 59
_space_group.IT_coordinate_system_code '2'
_symmetry_cell_setting 'orthorhombic'
loop_
_space_group_symop_operation_xyz
x,y,z
1/2-x,1/2-y,z
1/2+x,-y,-z
-x,1/2+y,-z
-x,-y,-z
1/2+x,1/2+y,-z
1/2-x,y,z
x,1/2-y,z
loop_
_atom_site_type_symbol
_atom_site_label
_atom_site_fract_x
_atom_site_fract_y
_atom_site_fract_z
Si Si1 0.633687 0.571992 0.577730
Si Si2 0.250000 0.928828 0.316128
Si Si3 0.618119 0.928576 0.367126
Si Si4 0.010481 0.071109 0.297325
Si Si5 0.325495 0.573918 0.809276
Si Si6 0.350363 0.417243 0.989300
Si Si7 0.520604 0.913712 0.910833
Si Si8 0.250000 0.575172 0.110048
O O1 0.644696 0.750000 0.579568
O O2 0.689625 0.488892 0.629519
O O3 0.629950 0.530478 0.471869
O O4 0.570804 0.543525 0.638009
O O5 0.250000 0.750000 0.315734
O O6 0.250000 0.983236 0.212313
O O7 0.624212 0.750000 0.360787
O O8 0.547894 0.983031 0.340094
O O9 0.660021 0.004005 0.288164
O O10 0.999431 0.250000 0.298596
O O11 0.016725 0.029029 0.191512
O O12 0.250000 0.557465 0.828086
O O13 0.340712 0.750000 0.807978
O O14 0.361610 0.491729 0.891673
O O15 0.325451 0.250000 0.971690
O O16 0.406900 0.398290 0.059675
O O17 0.306610 0.522785 0.047319
O O18 0.489601 0.750000 0.910864
O O19 0.500000 0.000000 0.000000
O O20 0.250000 0.750000 0.118518
#
# Coordination Sequence:
#
# PCOD9453671 Si02
#       8
#     8   4   8   8   8   8   8   4
#     4  10  23  43  66  91 123 163 207 262 320 376
#     4  11  25  41  62  93 126 161 207 258 308 371
#     4  11  24  40  63  93 124 159 208 264 318 375
#     4  10  21  41  65  90 123 165 209 253 312 380
#     4  11  24  41  61  88 125 167 210 258 315 377
#     4  11  22  38  62  90 120 159 205 251 300 360
#     4  10  22  37  57  87 120 157 199 244 298 358
#     4  11  23  39  58  87 122 157 195 242 300 361
#
# _framework density 19.753086
#
# number of rings (size 3 to 8) (size 9 to 14) (size 15 to 20)
#    0.000    1.429    0.714    3.857    1.000    8.857 
#    0.000    0.000    0.000    0.000    0.000    0.000 
#    0.000    0.000    0.000    0.000    0.000    0.000 
#
# Total GULP energy -312065.312862 kJ/mol
# GULP energy per Si atom -5572.594873 kJ/mol
# Density = 1.970813 g / cm^3
# Si number density = 19.753086 Si / 1000 Ang^3
#
#
#
# Elastic Constant Matrix: (Units=GPa)
#
#
# Indices 1 2 3 4 5 6 
#
# 1 46.3683 23.0534 22.7243 0.0000 0.0000 0.0000
# 2 23.0534 65.8976 53.3934 0.0000 0.0000 0.0000
# 3 22.7243 53.3934 213.3577 0.0000 0.0000 0.0000
# 4 0.0000 0.0000 0.0000 40.7328 0.0000 0.0000
# 5 0.0000 0.0000 0.0000 0.0000 45.7908 0.0000
# 6 0.0000 0.0000 0.0000 0.0000 0.0000 28.3204
#
#
#
# Elastic Compliance Matrix: (Units=1/GPa)
#
#
# Indices 1 2 3 4 5 6 
#
# 1 0.026173 -0.008652 -0.000622 0.000000 0.000000 0.000000
# 2 -0.008652 0.021895 -0.004558 0.000000 0.000000 0.000000
# 3 -0.000622 -0.004558 0.005894 0.000000 0.000000 0.000000
# 4 0.000000 0.000000 0.000000 0.024550 0.000000 0.000000
# 5 0.000000 0.000000 0.000000 0.000000 0.021838 0.000000
# 6 0.000000 0.000000 0.000000 0.000000 0.000000 0.035310
#
#
# Mechanical properties :
#
#
# Convention : Reuss Voigt Hill
#
# Bulk Modulus (GPa) = 38.02657 58.21840 48.12248
# Shear Modulus (GPa) = 29.05446 38.06565 33.56005
#
# Velocity S-wave (km/s) = 3.83937 4.39461 4.12634
# Velocity P-wave (km/s) = 6.24076 7.43553 6.86419
#
# Compressibility (1/GPa) = 0.02629740
#
# Stress axis : x y z
#
# Youngs Moduli (GPa) = 38.20714 45.67316 169.66864
#
# Poissons Ratio (x) = 0.39516 0.10561
# Poissons Ratio (y) = 0.33057 0.77330
# Poissons Ratio (z) = 0.02378 0.20816
#
# Static dielectric constant tensor:
#      x y z
#    x 1.589780 0.000000 0.000000 
#    y 0.000000 1.721710 0.000000 
#    z 0.000000 0.000000 1.654180 
# 
# From -- ./inp_files/24418.got.cif
#   From: 2010.05.17/outbox.ucp.g08.bks.cvg/sg59_13_cif.got.tgz:24418.got - 2010.06.11 16:43:56.
