data_PCOD9453074
_publ_section_title
;
Structure prediction by ZEFSAII (Michael W. Deem and Ramdas Pophale) SiO2 
 PCOD9453074
Probable space group: P M M N
;
_chemical_formula_sum "Si O2"
_cell_formula_units_Z 40
_cell_length_a 15.407840
_cell_length_b 18.838996
_cell_length_c 7.005077
_cell_angle_alpha 90.000000
_cell_angle_beta 90.000000
_cell_angle_gamma 90.000000
_cell_volume 2033.351345
_symmetry_space_group_name_H-M "P M M N"
_symmetry_group_IT_number 59
_space_group.IT_coordinate_system_code '2'
_symmetry_cell_setting 'orthorhombic'
loop_
_space_group_symop_operation_xyz
x,y,z
1/2-x,1/2-y,z
1/2+x,-y,-z
-x,1/2+y,-z
-x,-y,-z
1/2+x,1/2+y,-z
1/2-x,y,z
x,1/2-y,z
loop_
_atom_site_type_symbol
_atom_site_label
_atom_site_fract_x
_atom_site_fract_y
_atom_site_fract_z
Si Si1 0.845399 0.577472 0.033835
Si Si2 0.153254 0.666175 0.455679
Si Si3 0.092446 0.430855 0.377855
Si Si4 0.970156 0.833921 0.294919
Si Si5 0.106105 0.958844 0.700623
O O1 0.750000 0.601422 0.099575
O O2 0.921175 0.624154 0.128702
O O3 0.859888 0.497571 0.111852
O O4 0.851378 0.581566 0.807423
O O5 0.250000 0.653382 0.378072
O O6 0.145488 0.750000 0.498713
O O7 0.140581 0.618163 0.643809
O O8 0.072490 0.648105 0.317374
O O9 0.072909 0.362474 0.508903
O O10 0.129601 0.489642 0.522330
O O11 0.998386 0.456775 0.301527
O O12 0.960980 0.750000 0.272639
#
# Coordination Sequence:
#
# PCOD9453074 Si02
#       5
#     8   8   8   8   8
#     4  11  22  34  53  82 112 146 188 227 267 321
#     4   9  17  32  57  83 105 137 178 219 274 337
#     4   9  19  35  56  79 104 143 187 225 270 323
#     4   9  20  38  56  78 112 147 181 228 277 322
#     4   9  18  35  56  78 109 141 175 225 278 323
#
# _framework density 19.671956000000002
#
# number of rings (size 3 to 8) (size 9 to 14) (size 15 to 20)
#    0.000    2.600    0.000    2.400    0.000    5.200 
#    0.000    0.000    0.000    6.000    0.000   30.800 
#    0.000    0.000    0.000    0.000    0.000    0.000 
#
# Total GULP energy -223106.287842 kJ/mol
# GULP energy per Si atom -5577.657196 kJ/mol
# Density = 1.962718 g / cm^3
# Si number density = 19.671956 Si / 1000 Ang^3
#
#
#
# Elastic Constant Matrix: (Units=GPa)
#
#
# Indices 1 2 3 4 5 6 
#
# 1 90.9916 31.3162 25.2906 0.0000 0.0000 0.0000
# 2 31.3162 53.9024 5.4538 0.0000 0.0000 0.0000
# 3 25.2906 5.4538 59.7990 0.0000 0.0000 0.0000
# 4 0.0000 0.0000 0.0000 8.0545 0.0000 0.0000
# 5 0.0000 0.0000 0.0000 0.0000 17.1153 0.0000
# 6 0.0000 0.0000 0.0000 0.0000 0.0000 17.6420
#
#
#
# Elastic Compliance Matrix: (Units=1/GPa)
#
#
# Indices 1 2 3 4 5 6 
#
# 1 0.015495 -0.008417 -0.005786 0.000000 0.000000 0.000000
# 2 -0.008417 0.023297 0.001435 0.000000 0.000000 0.000000
# 3 -0.005786 0.001435 0.019039 0.000000 0.000000 0.000000
# 4 0.000000 0.000000 0.000000 0.124154 0.000000 0.000000
# 5 0.000000 0.000000 0.000000 0.000000 0.058427 0.000000
# 6 0.000000 0.000000 0.000000 0.000000 0.000000 0.056683
#
#
# Mechanical properties :
#
#
# Convention : Reuss Voigt Hill
#
# Bulk Modulus (GPa) = 30.96399 36.53492 33.74946
# Shear Modulus (GPa) = 14.99725 18.07119 16.53422
#
# Velocity S-wave (km/s) = 2.76409 3.03417 2.90228
# Velocity P-wave (km/s) = 5.09522 5.55764 5.33145
#
# Compressibility (1/GPa) = 0.03229557
#
# Stress axis : x y z
#
# Youngs Moduli (GPa) = 64.53749 42.92425 52.52468
#
# Poissons Ratio (x) = 0.36129 0.30388
# Poissons Ratio (y) = 0.54320 -0.07537
# Poissons Ratio (z) = 0.37339 -0.06160
#
# Static dielectric constant tensor:
#      x y z
#    x 1.741220 0.000000 0.000000 
#    y 0.000000 1.693090 0.000000 
#    z 0.000000 0.000000 1.669140 
# 
# From -- ./inp_files/2738.got.cif
#   From: 2010.05.17/outbox.cif.g08.bks.cpg/sg59_2_cif.got.tgz:2738.got - 2010.06.03 14:40:33.
