data_PCOD9453918
_publ_section_title
;
Structure prediction by ZEFSAII (Michael W. Deem and Ramdas Pophale) SiO2 
 PCOD9453918
Probable space group: P B C N
;
_chemical_formula_sum "Si O2"
_cell_formula_units_Z 48
_cell_length_a 7.061836
_cell_length_b 22.562739
_cell_length_c 12.589178
_cell_angle_alpha 90.000000
_cell_angle_beta 90.000000
_cell_angle_gamma 90.000000
_cell_volume 2005.888651
_symmetry_space_group_name_H-M "P B C N"
_symmetry_group_IT_number 60
_symmetry_cell_setting 'orthorhombic'
loop_
_space_group_symop_operation_xyz
x,y,z
1/2-x,1/2-y,1/2+z
1/2+x,1/2-y,-z
-x,y,1/2-z
-x,-y,-z
1/2+x,1/2+y,1/2-z
1/2-x,1/2+y,z
x,-y,1/2+z
loop_
_atom_site_type_symbol
_atom_site_label
_atom_site_fract_x
_atom_site_fract_y
_atom_site_fract_z
Si Si1 0.260186 0.084992 0.329164
Si Si2 0.286781 0.704964 0.208471
Si Si3 0.165040 0.034904 0.120283
Si Si4 0.788377 0.837358 0.247134
Si Si5 0.674006 0.358454 0.012948
Si Si6 0.734169 0.597488 0.942668
O O1 0.283627 0.151080 0.282424
O O2 0.294768 0.045395 0.224232
O O3 0.345957 0.086638 0.447228
O O4 0.042425 0.063412 0.354758
O O5 0.500000 0.712858 0.250000
O O6 0.197688 0.768981 0.220392
O O7 0.280133 0.682725 0.087302
O O8 0.157858 0.966744 0.091971
O O9 0.229214 0.075005 0.021715
O O10 0.734675 0.840495 0.123907
O O11 0.676468 0.872489 0.338512
O O12 0.000000 0.865067 0.250000
O O13 0.444777 0.360044 0.028092
#
# Coordination Sequence:
#
# PCOD9453918 Si02
#       6
#     8   8   8   8   8   8
#     4   9  16  28  46  75  96 133 168 209 257 305
#     4  11  19  36  54  70 104 145 182 203 252 321
#     4   9  16  26  50  75 104 127 162 219 270 306
#     4  10  24  32  48  79 109 137 170 220 262 302
#     4   9  18  32  48  73 105 132 170 212 264 299
#     4  10  18  29  48  76 112 128 168 218 275 302
#
# _framework density 23.929545000000001
#
# number of rings (size 3 to 8) (size 9 to 14) (size 15 to 20)
#    0.000    2.333    5.000    2.000   11.667    0.000 
#    0.000    0.000    0.000    0.000    0.000    5.833 
#    0.000    0.167    0.000    0.000    0.000    0.000 
#
# Total GULP energy -267671.564970 kJ/mol
# GULP energy per Si atom -5576.490937 kJ/mol
# Density = 2.387508 g / cm^3
# Si number density = 23.929545 Si / 1000 Ang^3
#
#
#
# Elastic Constant Matrix: (Units=GPa)
#
#
# Indices 1 2 3 4 5 6 
#
# 1 60.2786 -3.7535 -1.5827 0.0000 0.0000 0.0000
# 2 -3.7535 142.4842 87.8893 0.0000 0.0000 0.0000
# 3 -1.5827 87.8893 240.1434 0.0000 0.0000 0.0000
# 4 0.0000 0.0000 0.0000 13.1839 0.0000 0.0000
# 5 0.0000 0.0000 0.0000 0.0000 6.3378 0.0000
# 6 0.0000 0.0000 0.0000 0.0000 0.0000 11.1176
#
#
#
# Elastic Compliance Matrix: (Units=1/GPa)
#
#
# Indices 1 2 3 4 5 6 
#
# 1 0.016618 0.000478 -0.000065 0.000000 0.000000 0.000000
# 2 0.000478 0.009078 -0.003319 0.000000 0.000000 0.000000
# 3 -0.000065 -0.003319 0.005379 0.000000 0.000000 0.000000
# 4 0.000000 0.000000 0.000000 0.075850 0.000000 0.000000
# 5 0.000000 0.000000 0.000000 0.000000 0.157783 0.000000
# 6 0.000000 0.000000 0.000000 0.000000 0.000000 0.089947
#
#
# Mechanical properties :
#
#
# Convention : Reuss Voigt Hill
#
# Bulk Modulus (GPa) = 39.58637 67.55695 53.57166
# Shear Modulus (GPa) = 13.55423 30.15142 21.85283
#
# Velocity S-wave (km/s) = 2.38255 3.55351 3.02522
# Velocity P-wave (km/s) = 4.91401 6.71785 5.88545
#
# Compressibility (1/GPa) = 0.02526122
#
# Stress axis : x y z
#
# Youngs Moduli (GPa) = 60.17688 110.15066 185.92122
#
# Poissons Ratio (x) = -0.05267 0.01217
# Poissons Ratio (y) = -0.02877 0.61716
# Poissons Ratio (z) = 0.00394 0.36564
#
# Static dielectric constant tensor:
#      x y z
#    x 1.992130 0.000000 0.000000 
#    y 0.000000 1.841580 0.000000 
#    z 0.000000 0.000000 2.023140 
# 
# From -- ./inp_files/11108.got.cif
#   From: 2010.05.17/outbox.cif.g08.bks.cpg/sg60_6_cif.got.tgz:11108.got - 2010.06.03 14:59:27.
