data_PCOD9453301
_publ_section_title
;
Structure prediction by ZEFSAII (Michael W. Deem and Ramdas Pophale) SiO2 
 PCOD9453301
Probable space group: P M M N
;
_chemical_formula_sum "Si O2"
_cell_formula_units_Z 64
_cell_length_a 7.703648
_cell_length_b 14.507828
_cell_length_c 32.936802
_cell_angle_alpha 90.000000
_cell_angle_beta 90.000000
_cell_angle_gamma 90.000000
_cell_volume 3681.122394
_symmetry_space_group_name_H-M "P M M N"
_symmetry_group_IT_number 59
_space_group.IT_coordinate_system_code '2'
_symmetry_cell_setting 'orthorhombic'
loop_
_space_group_symop_operation_xyz
x,y,z
1/2-x,1/2-y,z
1/2+x,-y,-z
-x,1/2+y,-z
-x,-y,-z
1/2+x,1/2+y,-z
1/2-x,y,z
x,1/2-y,z
loop_
_atom_site_type_symbol
_atom_site_label
_atom_site_fract_x
_atom_site_fract_y
_atom_site_fract_z
Si Si1 0.542753 0.355519 0.317546
Si Si2 0.040713 0.643766 0.525086
Si Si3 0.040946 0.145467 0.980879
Si Si4 0.042841 0.855804 0.859329
Si Si5 0.456528 0.354996 0.229214
Si Si6 0.536718 0.032749 0.395414
Si Si7 0.956459 0.646669 0.434769
Si Si8 0.040980 0.536936 0.937503
O O1 0.750000 0.349255 0.322438
O O2 0.473548 0.250000 0.319353
O O3 0.509671 0.395262 0.272599
O O4 0.476848 0.417573 0.354490
O O5 0.250000 0.642286 0.525169
O O6 0.983025 0.750000 0.528402
O O7 0.981784 0.588824 0.564516
O O8 0.982912 0.610564 0.480746
O O9 0.250000 0.148575 0.977259
O O10 0.975748 0.250000 0.975036
O O11 0.976390 0.064775 0.950543
O O12 0.999583 0.106867 0.025721
O O13 0.250000 0.849558 0.864593
O O14 0.973937 0.750000 0.861395
O O15 0.974628 0.919664 0.895553
O O16 0.011062 0.894603 0.814158
O O17 0.250000 0.350580 0.229041
O O18 0.529203 0.250000 0.229403
O O19 0.750000 0.033070 0.394967
O O20 0.477783 0.928232 0.402921
O O21 0.750000 0.653449 0.428965
O O22 0.030748 0.750000 0.432211
O O23 0.250000 0.530116 0.934780
#
# Coordination Sequence:
#
# PCOD9453301 Si02
#       8
#     8   8   8   8   8   8   8   8
#     4   9  16  27  43  60  78 101 128 156 188 231
#     4   9  16  26  40  57  77 101 129 159 188 220
#     4   9  17  28  41  59  86 117 145 176 215 251
#     4   9  16  26  41  60  81 107 139 170 198 233
#     4   9  17  28  41  59  84 108 126 152 196 244
#     4   9  16  26  41  59  77 100 130 159 187 223
#     4   9  17  28  40  55  77 103 129 158 191 223
#     4   9  17  28  42  61  84 112 147 181 209 242
#
# _framework density 17.386001
#
# number of rings (size 3 to 8) (size 9 to 14) (size 15 to 20)
#    0.000    3.000    0.000    1.500    0.000    4.250 
#    0.000    2.500    0.000    3.000    0.000    0.875 
#    0.000    7.000    0.000    0.000    0.000    0.000 
#
# Total GULP energy -356545.406895 kJ/mol
# GULP energy per Si atom -5571.021983 kJ/mol
# Density = 1.734643 g / cm^3
# Si number density = 17.386001 Si / 1000 Ang^3
#
#
#
# Elastic Constant Matrix: (Units=GPa)
#
#
# Indices 1 2 3 4 5 6 
#
# 1 27.3208 5.7432 1.5595 0.0000 0.0000 0.0000
# 2 5.7432 103.5709 83.2793 0.0000 0.0000 0.0000
# 3 1.5595 83.2793 158.8777 0.0000 0.0000 0.0000
# 4 0.0000 0.0000 0.0000 21.2593 0.0000 0.0000
# 5 0.0000 0.0000 0.0000 0.0000 15.9912 0.0000
# 6 0.0000 0.0000 0.0000 0.0000 0.0000 6.4831
#
#
#
# Elastic Compliance Matrix: (Units=1/GPa)
#
#
# Indices 1 2 3 4 5 6 
#
# 1 0.037174 -0.003056 0.001237 0.000000 0.000000 0.000000
# 2 -0.003056 0.016941 -0.008850 0.000000 0.000000 0.000000
# 3 0.001237 -0.008850 0.010921 0.000000 0.000000 0.000000
# 4 0.000000 0.000000 0.000000 0.047038 0.000000 0.000000
# 5 0.000000 0.000000 0.000000 0.000000 0.062534 0.000000
# 6 0.000000 0.000000 0.000000 0.000000 0.000000 0.154247
#
#
# Mechanical properties :
#
#
# Convention : Reuss Voigt Hill
#
# Bulk Modulus (GPa) = 22.88444 52.32593 37.60519
# Shear Modulus (GPa) = 13.70771 22.02590 17.86680
#
# Velocity S-wave (km/s) = 2.81095 3.56318 3.20918
# Velocity P-wave (km/s) = 4.87098 6.86223 5.95049
#
# Compressibility (1/GPa) = 0.04369781
#
# Stress axis : x y z
#
# Youngs Moduli (GPa) = 26.90053 59.02965 91.56807
#
# Poissons Ratio (x) = 0.18039 -0.11327
# Poissons Ratio (y) = 0.08221 0.81036
# Poissons Ratio (z) = -0.03328 0.52240
#
# Static dielectric constant tensor:
#      x y z
#    x 1.631790 0.000000 0.000000 
#    y 0.000000 1.615570 0.000000 
#    z 0.000000 0.000000 1.595810 
# 
# From -- ./inp_files/33209.got.cif
#   From: 2010.05.17/outbox.cif.g08.bks.cpg/sg59_17_cif.got.tgz:33209.got - 2010.06.03 14:40:33.
