data_PCOD9453588
_publ_section_title
;
Structure prediction by ZEFSAII (Michael W. Deem and Ramdas Pophale) SiO2 
 PCOD9453588
Probable space group: P M M N
;
_chemical_formula_sum "Si O2"
_cell_formula_units_Z 48
_cell_length_a 9.000000
_cell_length_b 30.000000
_cell_length_c 9.000000
_cell_angle_alpha 90.000000
_cell_angle_beta 90.000000
_cell_angle_gamma 90.000000
_cell_volume 2430.000000
_symmetry_space_group_name_H-M "P M M N"
_symmetry_group_IT_number 59
_space_group.IT_coordinate_system_code '2'
_symmetry_cell_setting 'orthorhombic'
loop_
_space_group_symop_operation_xyz
x,y,z
1/2-x,1/2-y,z
1/2+x,-y,-z
-x,1/2+y,-z
-x,-y,-z
1/2+x,1/2+y,-z
1/2-x,y,z
x,1/2-y,z
loop_
_atom_site_type_symbol
_atom_site_label
_atom_site_fract_x
_atom_site_fract_y
_atom_site_fract_z
Si Si1 0.422153 0.329768 0.814031
Si Si2 0.075688 0.002056 0.655909
Si Si3 0.419477 0.328164 0.160071
Si Si4 0.412473 0.750000 0.688804
Si Si5 0.079910 0.920720 0.845719
Si Si6 0.083919 0.578520 0.192381
Si Si7 0.581812 0.250000 0.661765
O O1 0.250000 0.340736 0.782834
O O2 0.530336 0.371310 0.795363
O O3 0.487036 0.291740 0.713093
O O4 0.429742 0.315410 0.986429
O O5 0.250000 0.996973 0.643318
O O6 0.034624 0.048156 0.729379
O O7 0.017241 0.961984 0.756478
O O8 0.000000 0.000000 0.500000
O O9 0.250000 0.327791 0.204849
O O10 0.506431 0.293559 0.256849
O O11 0.484498 0.377102 0.175106
O O12 0.250000 0.750000 0.757297
O O13 0.404936 0.750000 0.513454
O O14 0.250000 0.911136 0.800146
O O15 0.084016 0.932746 0.018585
O O16 0.250000 0.571917 0.252500
O O17 0.750000 0.250000 0.725712
#
# Coordination Sequence:
#
# PCOD9453588 Si02
#       7
#     8   8   8   4   8   8   4
#     4  10  21  38  60  86 113 144 184 231 279 331
#     4  11  23  38  56  82 116 152 188 229 277 332
#     4  10  21  37  60  87 112 141 184 232 278 329
#     4  11  24  39  56  80 114 151 186 225 274 330
#     4   9  20  38  60  84 111 145 186 230 278 330
#     4  10  20  37  61  86 111 144 186 232 280 331
#     4  11  24  39  56  82 114 151 190 229 276 332
#
# _framework density 19.753086
#
# number of rings (size 3 to 8) (size 9 to 14) (size 15 to 20)
#    0.000    1.833    0.000    3.500    0.000    8.667 
#    0.000    1.667    0.000    0.000    0.000    0.000 
#    0.000    0.000    0.000    0.000    0.000    0.000 
#
# Total GULP energy -267725.507675 kJ/mol
# GULP energy per Si atom -5577.614743 kJ/mol
# Density = 1.970813 g / cm^3
# Si number density = 19.753086 Si / 1000 Ang^3
#
#
#
# Elastic Constant Matrix: (Units=GPa)
#
#
# Indices 1 2 3 4 5 6 
#
# 1 40.7138 -11.7108 38.2093 0.0000 0.0000 0.0000
# 2 -11.7108 -42.9284 91.7005 0.0000 0.0000 0.0000
# 3 38.2093 91.7005 8.5260 0.0000 0.0000 0.0000
# 4 0.0000 0.0000 0.0000 45.1370 0.0000 0.0000
# 5 0.0000 0.0000 0.0000 0.0000 1.4116 0.0000
# 6 0.0000 0.0000 0.0000 0.0000 0.0000 28.6350
#
#
#
# Elastic Compliance Matrix: (Units=1/GPa)
#
#
# Indices 1 2 3 4 5 6 
#
# 1 0.023225 -0.009538 -0.001499 0.000000 0.000000 0.000000
# 2 -0.009538 0.002945 0.011066 0.000000 0.000000 0.000000
# 3 -0.001499 0.011066 0.004989 0.000000 0.000000 0.000000
# 4 0.000000 0.000000 0.000000 0.022155 0.000000 0.000000
# 5 0.000000 0.000000 0.000000 0.000000 0.708413 0.000000
# 6 0.000000 0.000000 0.000000 0.000000 0.000000 0.034922
#
#
# Mechanical properties :
#
#
# Convention : Reuss Voigt Hill
#
# Bulk Modulus (GPa) = 32.03379 26.96769 29.50074
# Shear Modulus (GPa) = 6.19580 7.57756 6.88668
#
# Velocity S-wave (km/s) = 1.77297 1.96073 1.86921
# Velocity P-wave (km/s) = 4.52146 4.33682 4.43010
#
# Compressibility (1/GPa) = 0.03121704
#
# Stress axis : x y z
#
# Youngs Moduli (GPa) = 43.05697 339.51819 200.44557
#
# Poissons Ratio (x) = 3.23830 0.30048
# Poissons Ratio (y) = 0.41067 -2.21810
# Poissons Ratio (z) = 0.06454 -3.75705
#
# Static dielectric constant tensor:
#      x y z
#    x 1.736640 0.000000 0.000000 
#    y 0.000000 1.488430 0.000000 
#    z 0.000000 0.000000 1.667790 
# 
# From -- ./inp_files/6381.got.cif
#   From: 2010.05.17/outbox.ucp.g08.bks.cvg/sg59_4_cif.got.tgz:6381.got - 2010.06.11 16:43:56.
