data_PCOD9453316
_publ_section_title
;
Structure prediction by ZEFSAII (Michael W. Deem and Ramdas Pophale) SiO2 
 PCOD9453316
Probable space group: P M M N
;
_chemical_formula_sum "Si O2"
_cell_formula_units_Z 40
_cell_length_a 9.000000
_cell_length_b 15.000000
_cell_length_c 15.000000
_cell_angle_alpha 90.000000
_cell_angle_beta 90.000000
_cell_angle_gamma 90.000000
_cell_volume 2025.000000
_symmetry_space_group_name_H-M "P M M N"
_symmetry_group_IT_number 59
_space_group.IT_coordinate_system_code '2'
_symmetry_cell_setting 'orthorhombic'
loop_
_space_group_symop_operation_xyz
x,y,z
1/2-x,1/2-y,z
1/2+x,-y,-z
-x,1/2+y,-z
-x,-y,-z
1/2+x,1/2+y,-z
1/2-x,y,z
x,1/2-y,z
loop_
_atom_site_type_symbol
_atom_site_label
_atom_site_fract_x
_atom_site_fract_y
_atom_site_fract_z
Si Si1 0.077097 0.575951 0.077265
Si Si2 0.074954 0.853627 0.891291
Si Si3 0.928813 0.541137 0.761809
Si Si4 0.586098 0.250000 0.802588
Si Si5 0.069895 0.559525 0.421742
Si Si6 0.572819 0.750000 0.380948
O O1 0.250000 0.548831 0.063976
O O2 0.008521 0.514655 0.154071
O O3 0.079591 0.667445 0.131960
O O4 0.011620 0.595054 0.979777
O O5 0.250000 0.875151 0.882568
O O6 0.065000 0.750000 0.916081
O O7 0.995561 0.866240 0.795465
O O8 0.750000 0.543467 0.763989
O O9 0.968239 0.492571 0.670493
O O10 0.750000 0.250000 0.757002
O O11 0.466497 0.250000 0.724527
O O12 0.250000 0.564519 0.428452
O O13 0.000000 0.500000 0.500000
O O14 0.000613 0.658869 0.418659
O O15 0.750000 0.750000 0.395592
#
# Coordination Sequence:
#
# PCOD9453316 Si02
#       6
#     8   8   8   4   8   4
#     4   9  16  31  57  84 113 155 202 244 295 352
#     4  10  20  34  54  81 117 162 207 247 291 355
#     4  10  21  37  59  85 116 155 196 245 306 363
#     4  10  16  32  60  85 116 159 202 243 292 352
#     4  11  24  45  70  95 124 161 205 258 317 376
#     4  12  24  40  66  99 128 157 200 255 316 378
#
# _framework density 19.753086
#
# number of rings (size 3 to 8) (size 9 to 14) (size 15 to 20)
#    0.000    1.800    3.000    2.100    0.000    2.000 
#    1.800    1.000    0.000    0.000    0.000    0.000 
#    0.000    0.000    0.000    0.000    0.000    0.000 
#
# Total GULP energy -222669.117036 kJ/mol
# GULP energy per Si atom -5566.727926 kJ/mol
# Density = 1.970813 g / cm^3
# Si number density = 19.753086 Si / 1000 Ang^3
#
#
#
# Elastic Constant Matrix: (Units=GPa)
#
#
# Indices 1 2 3 4 5 6 
#
# 1 58.9975 33.5888 57.1137 0.0000 0.0000 0.0000
# 2 33.5888 61.3406 80.3206 0.0000 0.0000 0.0000
# 3 57.1137 80.3206 147.0673 0.0000 0.0000 0.0000
# 4 0.0000 0.0000 0.0000 28.3441 0.0000 0.0000
# 5 0.0000 0.0000 0.0000 0.0000 31.8651 0.0000
# 6 0.0000 0.0000 0.0000 0.0000 0.0000 24.6203
#
#
#
# Elastic Compliance Matrix: (Units=1/GPa)
#
#
# Indices 1 2 3 4 5 6 
#
# 1 0.027406 -0.003758 -0.008590 0.000000 0.000000 0.000000
# 2 -0.003758 0.057744 -0.030077 0.000000 0.000000 0.000000
# 3 -0.008590 -0.030077 0.026562 0.000000 0.000000 0.000000
# 4 0.000000 0.000000 0.000000 0.035281 0.000000 0.000000
# 5 0.000000 0.000000 0.000000 0.000000 0.031382 0.000000
# 6 0.000000 0.000000 0.000000 0.000000 0.000000 0.040617
#
#
# Mechanical properties :
#
#
# Convention : Reuss Voigt Hill
#
# Bulk Modulus (GPa) = 37.22985 67.71684 52.47335
# Shear Modulus (GPa) = 15.98475 23.39139 19.68807
#
# Velocity S-wave (km/s) = 2.84778 3.44494 3.16049
# Velocity P-wave (km/s) = 5.44992 7.08375 6.31986
#
# Compressibility (1/GPa) = 0.02686017
#
# Stress axis : x y z
#
# Youngs Moduli (GPa) = 36.48870 17.31771 37.64713
#
# Poissons Ratio (x) = 0.06509 0.32341
# Poissons Ratio (y) = 0.13714 1.13233
# Poissons Ratio (z) = 0.31345 0.52087
#
# Static dielectric constant tensor:
#      x y z
#    x 1.743280 0.000000 0.000000 
#    y 0.000000 2.171170 0.000000 
#    z 0.000000 0.000000 1.687450 
# 
# From -- ./inp_files/19900.got.cif
#   From: 2010.05.17/outbox.ucp.g08.bks.cvg/sg59_10_cif.got.tgz:19900.got - 2010.06.11 16:43:56.
