data_PCOD9453372
_publ_section_title
;
Structure prediction by ZEFSAII (Michael W. Deem and Ramdas Pophale) SiO2 
 PCOD9453372
Probable space group: P M M N
;
_chemical_formula_sum "Si O2"
_cell_formula_units_Z 64
_cell_length_a 18.000000
_cell_length_b 9.000000
_cell_length_c 21.000000
_cell_angle_alpha 90.000000
_cell_angle_beta 90.000000
_cell_angle_gamma 90.000000
_cell_volume 3402.000000
_symmetry_space_group_name_H-M "P M M N"
_symmetry_group_IT_number 59
_space_group.IT_coordinate_system_code '2'
_symmetry_cell_setting 'orthorhombic'
loop_
_space_group_symop_operation_xyz
x,y,z
1/2-x,1/2-y,z
1/2+x,-y,-z
-x,1/2+y,-z
-x,-y,-z
1/2+x,1/2+y,-z
1/2-x,y,z
x,1/2-y,z
loop_
_atom_site_type_symbol
_atom_site_label
_atom_site_fract_x
_atom_site_fract_y
_atom_site_fract_z
Si Si1 0.839308 0.081211 0.105810
Si Si2 0.574888 0.570178 0.358992
Si Si3 0.665307 0.569048 0.870133
Si Si4 0.079144 0.073139 0.006771
Si Si5 0.661609 0.573158 0.236040
Si Si6 0.095489 0.575517 0.380753
Si Si7 0.918042 0.927423 0.495998
Si Si8 0.338363 0.417665 0.266620
O O1 0.750000 0.080991 0.103712
O O2 0.865798 0.250000 0.096987
O O3 0.870098 0.976360 0.051445
O O4 0.861614 0.016709 0.173996
O O5 0.575378 0.750000 0.355765
O O6 0.617672 0.517046 0.297486
O O7 0.488653 0.525621 0.363145
O O8 0.611809 0.530614 0.426507
O O9 0.750000 0.515945 0.877025
O O10 0.667919 0.750000 0.870634
O O11 0.632215 0.529900 0.801611
O O12 0.616916 0.518198 0.928519
O O13 0.073092 0.250000 0.009067
O O14 0.000000 0.000000 0.000000
O O15 0.750000 0.555579 0.245579
O O16 0.648173 0.750000 0.226877
O O17 0.093408 0.750000 0.393519
O O18 0.123230 0.490679 0.443174
O O19 0.144044 0.531609 0.321255
O O20 0.924444 0.750000 0.499667
O O21 0.000000 0.000000 0.500000
O O22 0.250000 0.407001 0.258120
O O23 0.365389 0.250000 0.281825
#
# Coordination Sequence:
#
# PCOD9453372 Si02
#       8
#     8   8   8   8   8   8   8   8
#     4  10  21  37  55  76 104 137 173 211 251 301
#     4   8  16  30  48  72  99 128 167 213 253 292
#     4   8  16  33  56  77  97 128 171 212 249 298
#     4  11  22  36  55  80 109 137 169 211 259 306
#     4   9  17  32  54  76  99 131 170 209 251 300
#     4  10  19  31  48  71 101 134 167 205 250 302
#     4   9  16  29  48  70  98 131 169 211 254 300
#     4   9  18  34  54  74  96 123 160 207 253 297
#
# _framework density 18.812463000000001
#
# number of rings (size 3 to 8) (size 9 to 14) (size 15 to 20)
#    0.000    2.750    0.000    3.375    0.000    2.500 
#    0.000    8.125    0.000    3.750    0.000    0.000 
#    0.000    0.000    0.000    0.000    0.000    0.000 
#
# Total GULP energy -356456.103677 kJ/mol
# GULP energy per Si atom -5569.626620 kJ/mol
# Density = 1.876965 g / cm^3
# Si number density = 18.812463 Si / 1000 Ang^3
#
#
#
# Elastic Constant Matrix: (Units=GPa)
#
#
# Indices 1 2 3 4 5 6 
#
# 1 8.5805 11.6838 27.6814 0.0000 0.0000 0.0000
# 2 11.6838 41.0217 25.9090 0.0000 0.0000 0.0000
# 3 27.6814 25.9090 123.9066 0.0000 0.0000 0.0000
# 4 0.0000 0.0000 0.0000 14.4749 0.0000 0.0000
# 5 0.0000 0.0000 0.0000 0.0000 23.1311 0.0000
# 6 0.0000 0.0000 0.0000 0.0000 0.0000 20.1869
#
#
#
# Elastic Compliance Matrix: (Units=1/GPa)
#
#
# Indices 1 2 3 4 5 6 
#
# 1 0.704165 -0.116602 -0.132933 0.000000 0.000000 0.000000
# 2 -0.116602 0.047395 0.016139 0.000000 0.000000 0.000000
# 3 -0.132933 0.016139 0.034394 0.000000 0.000000 0.000000
# 4 0.000000 0.000000 0.000000 0.069085 0.000000 0.000000
# 5 0.000000 0.000000 0.000000 0.000000 0.043232 0.000000
# 6 0.000000 0.000000 0.000000 0.000000 0.000000 0.049537
#
#
# Mechanical properties :
#
#
# Convention : Reuss Voigt Hill
#
# Bulk Modulus (GPa) = 3.13319 33.78412 18.45866
# Shear Modulus (GPa) = 3.28734 18.77424 11.03079
#
# Velocity S-wave (km/s) = 1.32334 3.16249 2.42410
# Velocity P-wave (km/s) = 2.00102 5.59754 4.20336
#
# Compressibility (1/GPa) = 0.31916340
#
# Stress axis : x y z
#
# Youngs Moduli (GPa) = 1.42012 21.09947 29.07507
#
# Poissons Ratio (x) = 2.46023 3.86503
# Poissons Ratio (y) = 0.16559 -0.46925
# Poissons Ratio (z) = 0.18878 -0.34053
#
# Static dielectric constant tensor:
#      x y z
#    x 1.655480 0.000000 0.000000 
#    y 0.000000 1.637530 0.000000 
#    z 0.000000 0.000000 1.762820 
# 
# From -- ./inp_files/30807.got.cif
#   From: 2010.05.17/outbox.ucp.g08.bks.cvg/sg59_16_cif.got.tgz:30807.got - 2010.06.11 16:43:56.
