data_PCOD9453122
_publ_section_title
;
Structure prediction by ZEFSAII (Michael W. Deem and Ramdas Pophale) SiO2 
 PCOD9453122
Probable space group: P M M N
;
_chemical_formula_sum "Si O2"
_cell_formula_units_Z 34
_cell_length_a 23.607911
_cell_length_b 7.618079
_cell_length_c 8.020113
_cell_angle_alpha 90.000000
_cell_angle_beta 90.000000
_cell_angle_gamma 90.000000
_cell_volume 1442.392710
_symmetry_space_group_name_H-M "P M M N"
_symmetry_group_IT_number 59
_space_group.IT_coordinate_system_code '2'
_symmetry_cell_setting 'orthorhombic'
loop_
_space_group_symop_operation_xyz
x,y,z
1/2-x,1/2-y,z
1/2+x,-y,-z
-x,1/2+y,-z
-x,-y,-z
1/2+x,1/2+y,-z
1/2-x,y,z
x,1/2-y,z
loop_
_atom_site_type_symbol
_atom_site_label
_atom_site_fract_x
_atom_site_fract_y
_atom_site_fract_z
Si Si1 0.188334 0.960315 0.442604
Si Si2 0.750000 0.750000 0.088309
Si Si3 0.940817 0.542782 0.081128
Si Si4 0.064865 0.554790 0.543589
Si Si5 0.326238 0.950450 0.051925
O O1 0.250000 0.029470 0.509605
O O2 0.188328 0.750000 0.479132
O O3 0.125997 0.031658 0.494512
O O4 0.190914 0.982904 0.242964
O O5 0.701615 0.594267 0.066843
O O6 0.935901 0.750000 0.108780
O O7 0.933844 0.449389 0.257344
O O8 0.892877 0.476065 0.958012
O O9 0.000000 0.500000 0.000000
O O10 0.068916 0.750000 0.471237
O O11 0.000000 0.500000 0.500000
O O12 0.312434 0.750000 0.007096
#
# Coordination Sequence:
#
# PCOD9453122 Si02
#       5
#     8   2   8   8   8
#     4   9  19  39  65  92 126 171 218 264 321 388
#     4  12  22  40  64 104 136 176 226 256 336 398
#     4  12  25  44  66  97 131 172 226 280 337 402
#     4  11  23  42  66  94 128 172 218 271 333 397
#     4  11  22  42  68  98 135 175 222 275 325 393
#
# _framework density 23.571946000000001
#
# number of rings (size 3 to 8) (size 9 to 14) (size 15 to 20)
#    0.000    1.176    2.353    4.588    0.000    1.882 
#    6.353    0.000    0.000    0.000    0.000    0.000 
#    0.000    0.000    0.000    0.000    0.000    0.000 
#
# Total GULP energy -189287.385980 kJ/mol
# GULP energy per Si atom -5567.276058 kJ/mol
# Density = 2.351829 g / cm^3
# Si number density = 23.571946 Si / 1000 Ang^3
#
#
#
# Elastic Constant Matrix: (Units=GPa)
#
#
# Indices 1 2 3 4 5 6 
#
# 1 290.1352 23.6831 33.9440 0.0000 0.0000 0.0000
# 2 23.6831 106.4504 -11.6298 0.0000 0.0000 0.0000
# 3 33.9440 -11.6298 40.3639 0.0000 0.0000 0.0000
# 4 0.0000 0.0000 0.0000 8.3667 0.0000 0.0000
# 5 0.0000 0.0000 0.0000 0.0000 54.1850 0.0000
# 6 0.0000 0.0000 0.0000 0.0000 0.0000 49.2858
#
#
#
# Elastic Compliance Matrix: (Units=1/GPa)
#
#
# Indices 1 2 3 4 5 6 
#
# 1 0.003988 -0.001295 -0.003727 0.000000 0.000000 0.000000
# 2 -0.001295 0.010120 0.004004 0.000000 0.000000 0.000000
# 3 -0.003727 0.004004 0.029063 0.000000 0.000000 0.000000
# 4 0.000000 0.000000 0.000000 0.119521 0.000000 0.000000
# 5 0.000000 0.000000 0.000000 0.000000 0.018455 0.000000
# 6 0.000000 0.000000 0.000000 0.000000 0.000000 0.020290
#
#
# Mechanical properties :
#
#
# Convention : Reuss Voigt Hill
#
# Bulk Modulus (GPa) = 24.30960 58.77158 41.54059
# Shear Modulus (GPa) = 23.02201 48.43098 35.72649
#
# Velocity S-wave (km/s) = 3.12856 4.53769 3.89734
# Velocity P-wave (km/s) = 4.83589 7.24163 6.15739
#
# Compressibility (1/GPa) = 0.04113601
#
# Stress axis : x y z
#
# Youngs Moduli (GPa) = 250.72883 98.81889 34.40853
#
# Poissons Ratio (x) = 0.12792 0.12824
# Poissons Ratio (y) = 0.32457 -0.13778
# Poissons Ratio (z) = 0.93447 -0.39570
#
# Static dielectric constant tensor:
#      x y z
#    x 1.955460 0.000000 0.000000 
#    y 0.000000 1.913220 0.000000 
#    z 0.000000 0.000000 1.926210 
# 
# From -- ./inp_files/10955.got.cif
#   From: 2010.05.17/outbox.cif.g08.bks.cpg/sg59_6_cif.got.tgz:10955.got - 2010.06.03 14:40:33.
