data_PCOD9453321
_publ_section_title
;
Structure prediction by ZEFSAII (Michael W. Deem and Ramdas Pophale) SiO2 
 PCOD9453321
Probable space group: P M M N
;
_chemical_formula_sum "Si O2"
_cell_formula_units_Z 64
_cell_length_a 30.000000
_cell_length_b 9.000000
_cell_length_c 15.000000
_cell_angle_alpha 90.000000
_cell_angle_beta 90.000000
_cell_angle_gamma 90.000000
_cell_volume 4050.000000
_symmetry_space_group_name_H-M "P M M N"
_symmetry_group_IT_number 59
_space_group.IT_coordinate_system_code '2'
_symmetry_cell_setting 'orthorhombic'
loop_
_space_group_symop_operation_xyz
x,y,z
1/2-x,1/2-y,z
1/2+x,-y,-z
-x,1/2+y,-z
-x,-y,-z
1/2+x,1/2+y,-z
1/2-x,y,z
x,1/2-y,z
loop_
_atom_site_type_symbol
_atom_site_label
_atom_site_fract_x
_atom_site_fract_y
_atom_site_fract_z
Si Si1 0.200717 0.431278 0.838223
Si Si2 0.802499 0.575777 0.367654
Si Si3 0.424533 0.583636 0.756343
Si Si4 0.040755 0.068165 0.055809
Si Si5 0.530604 0.920911 0.746073
Si Si6 0.382934 0.923381 0.561747
Si Si7 0.386002 0.073067 0.922049
Si Si8 0.957826 0.928571 0.550576
O O1 0.250000 0.482957 0.860383
O O2 0.201026 0.250000 0.838645
O O3 0.190475 0.471569 0.735688
O O4 0.163411 0.485947 0.905509
O O5 0.750000 0.563645 0.384818
O O6 0.815035 0.750000 0.374152
O O7 0.832509 0.478802 0.432202
O O8 0.412000 0.750000 0.787708
O O9 0.477165 0.581856 0.741922
O O10 0.401821 0.557087 0.661918
O O11 0.411690 0.467801 0.831598
O O12 0.036253 0.250000 0.055386
O O13 0.041797 0.014372 0.157611
O O14 0.085463 0.021185 0.005112
O O15 0.000000 0.000000 0.000000
O O16 0.546984 0.750000 0.747804
O O17 0.545405 0.986316 0.652170
O O18 0.386932 0.750000 0.538548
O O19 0.413424 0.023811 0.499792
O O20 0.383294 0.250000 0.929818
O O21 0.963855 0.750000 0.551928
O O22 0.000000 0.000000 0.500000
#
# Coordination Sequence:
#
# PCOD9453321 Si02
#       8
#     8   8   8   8   8   8   8   8
#     4   8  14  25  41  63  92 119 144 181 224 263
#     4   9  17  30  48  69  94 125 157 189 231 282
#     4  10  18  29  44  62  92 128 153 182 229 275
#     4  10  19  30  45  66  90 118 152 187 222 271
#     4   9  18  33  46  60  90 125 154 186 233 277
#     4  11  21  32  46  69  96 125 160 195 234 280
#     4  10  18  27  44  69  89 115 158 190 216 262
#     4  11  21  34  50  67  90 124 162 199 240 284
#
# _framework density 15.802469
#
# number of rings (size 3 to 8) (size 9 to 14) (size 15 to 20)
#    0.000    2.250    3.750    1.500    0.000    0.750 
#    0.000    1.250    0.000    0.375    0.000    0.875 
#    0.000    5.000    0.000    0.000    0.000    0.125 
#
# Total GULP energy -356310.981289 kJ/mol
# GULP energy per Si atom -5567.359083 kJ/mol
# Density = 1.576650 g / cm^3
# Si number density = 15.802469 Si / 1000 Ang^3
#
#
#
# Elastic Constant Matrix: (Units=GPa)
#
#
# Indices 1 2 3 4 5 6 
#
# 1 77.8843 18.7423 45.8184 0.0000 0.0000 0.0000
# 2 18.7423 9.3288 27.7379 0.0000 0.0000 0.0000
# 3 45.8184 27.7379 72.6330 0.0000 0.0000 0.0000
# 4 0.0000 0.0000 0.0000 12.6696 0.0000 0.0000
# 5 0.0000 0.0000 0.0000 0.0000 11.1913 0.0000
# 6 0.0000 0.0000 0.0000 0.0000 0.0000 16.7986
#
#
#
# Elastic Compliance Matrix: (Units=1/GPa)
#
#
# Indices 1 2 3 4 5 6 
#
# 1 0.019918 0.019610 -0.020054 0.000000 0.000000 0.000000
# 2 0.019610 -0.771762 0.282359 0.000000 0.000000 0.000000
# 3 -0.020054 0.282359 -0.081412 0.000000 0.000000 0.000000
# 4 0.000000 0.000000 0.000000 0.078929 0.000000 0.000000
# 5 0.000000 0.000000 0.000000 0.000000 0.089355 0.000000
# 6 0.000000 0.000000 0.000000 0.000000 0.000000 0.059529
#
#
# Mechanical properties :
#
#
# Convention : Reuss Voigt Hill
#
# Bulk Modulus (GPa) = -3.71160 38.27147 17.27994
# Shear Modulus (GPa) = -3.97115 12.63505 4.33195
#
# Velocity S-wave (km/s) = -1.58696 2.83072 1.65749
# Velocity P-wave (km/s) = 2.38993 5.91229 3.82384
#
# Compressibility (1/GPa) = -0.26942562
#
# Stress axis : x y z
#
# Youngs Moduli (GPa) = 50.20641 -1.29574 -12.28316
#
# Poissons Ratio (x) = 0.02541 -0.24632
# Poissons Ratio (y) = -0.98456 3.46826
# Poissons Ratio (z) = 1.00682 0.36586
#
# Static dielectric constant tensor:
#      x y z
#    x 1.560520 0.000000 0.000000 
#    y 0.000000 1.570010 0.000000 
#    z 0.000000 0.000000 1.517940 
# 
# From -- ./inp_files/25028.got.cif
#   From: 2010.05.17/outbox.ucp.g08.bks.cvg/sg59_13_cif.got.tgz:25028.got - 2010.06.11 16:43:56.
