data_PCOD9453562
_publ_section_title
;
Structure prediction by ZEFSAII (Michael W. Deem and Ramdas Pophale) SiO2 
 PCOD9453562
Probable space group: P M M N
;
_chemical_formula_sum "Si O2"
_cell_formula_units_Z 64
_cell_length_a 24.000000
_cell_length_b 15.000000
_cell_length_c 9.000000
_cell_angle_alpha 90.000000
_cell_angle_beta 90.000000
_cell_angle_gamma 90.000000
_cell_volume 3240.000000
_symmetry_space_group_name_H-M "P M M N"
_symmetry_group_IT_number 59
_space_group.IT_coordinate_system_code '2'
_symmetry_cell_setting 'orthorhombic'
loop_
_space_group_symop_operation_xyz
x,y,z
1/2-x,1/2-y,z
1/2+x,-y,-z
-x,1/2+y,-z
-x,-y,-z
1/2+x,1/2+y,-z
1/2-x,y,z
x,1/2-y,z
loop_
_atom_site_type_symbol
_atom_site_label
_atom_site_fract_x
_atom_site_fract_y
_atom_site_fract_z
Si Si1 0.106996 0.650339 0.707791
Si Si2 0.006518 0.978561 0.672400
Si Si3 0.313254 0.516528 0.541997
Si Si4 0.101584 0.883840 0.037596
Si Si5 0.816353 0.853255 0.639885
Si Si6 0.189986 0.654137 0.278412
Si Si7 0.903265 0.920345 0.873753
Si Si8 0.974979 0.849490 0.133541
O O1 0.110158 0.750000 0.643410
O O2 0.046477 0.606254 0.689604
O O3 0.148106 0.576918 0.641858
O O4 0.118635 0.654938 0.881613
O O5 0.030821 0.066467 0.755405
O O6 0.000000 0.000000 0.500000
O O7 0.948760 0.953154 0.752350
O O8 0.250000 0.512017 0.599181
O O9 0.332990 0.418458 0.495526
O O10 0.312798 0.571747 0.388149
O O11 0.138755 0.848148 0.169766
O O12 0.037132 0.862382 0.067549
O O13 0.111542 0.989646 0.038762
O O14 0.750000 0.867907 0.664654
O O15 0.825120 0.750000 0.604288
O O16 0.852183 0.878701 0.784332
O O17 0.250000 0.648586 0.198916
O O18 0.189570 0.750000 0.359058
O O19 0.932933 0.858761 0.995393
O O20 0.970675 0.750000 0.199642
#
# Coordination Sequence:
#
# PCOD9453562 Si02
#       8
#     8   8   8   8   8   8   8   8
#     4  12  24  39  60  87 123 162 203 248 301 364
#     4  11  24  40  58  90 126 161 205 253 303 366
#     4  10  22  41  61  87 123 161 199 249 303 357
#     4  11  21  38  60  88 124 160 202 250 300 361
#     4  10  21  39  67  96 118 153 206 257 306 362
#     4  10  20  35  58  87 118 157 204 246 291 353
#     4  11  20  40  65  89 124 161 204 253 309 366
#     4  11  22  40  63  88 122 165 203 248 309 367
#
# _framework density 19.753086
#
# number of rings (size 3 to 8) (size 9 to 14) (size 15 to 20)
#    0.000    1.250    3.750    3.375    1.750    2.250 
#    0.000    1.875    0.000    0.000    0.000    0.000 
#    0.000    0.000    0.000    0.000    0.000    0.000 
#
# Total GULP energy -357078.388538 kJ/mol
# GULP energy per Si atom -5579.349821 kJ/mol
# Density = 1.970813 g / cm^3
# Si number density = 19.753086 Si / 1000 Ang^3
#
#
#
# Elastic Constant Matrix: (Units=GPa)
#
#
# Indices 1 2 3 4 5 6 
#
# 1 58.6448 40.1847 26.0514 0.0000 0.0000 0.0000
# 2 40.1847 151.9362 31.7371 0.0000 0.0000 0.0000
# 3 26.0514 31.7371 73.1061 0.0000 0.0000 0.0000
# 4 0.0000 0.0000 0.0000 44.6945 0.0000 0.0000
# 5 0.0000 0.0000 0.0000 0.0000 34.3425 0.0000
# 6 0.0000 0.0000 0.0000 0.0000 0.0000 23.2053
#
#
#
# Elastic Compliance Matrix: (Units=1/GPa)
#
#
# Indices 1 2 3 4 5 6 
#
# 1 0.023081 -0.004824 -0.006131 0.000000 0.000000 0.000000
# 2 -0.004824 0.008246 -0.001861 0.000000 0.000000 0.000000
# 3 -0.006131 -0.001861 0.016671 0.000000 0.000000 0.000000
# 4 0.000000 0.000000 0.000000 0.022374 0.000000 0.000000
# 5 0.000000 0.000000 0.000000 0.000000 0.029118 0.000000
# 6 0.000000 0.000000 0.000000 0.000000 0.000000 0.043094
#
#
# Mechanical properties :
#
#
# Convention : Reuss Voigt Hill
#
# Bulk Modulus (GPa) = 44.70809 53.29261 49.00035
# Shear Modulus (GPa) = 28.46233 32.82940 30.64586
#
# Velocity S-wave (km/s) = 3.80004 4.08117 3.94311
# Velocity P-wave (km/s) = 6.47583 7.01754 6.75212
#
# Compressibility (1/GPa) = 0.02236732
#
# Stress axis : x y z
#
# Youngs Moduli (GPa) = 43.32641 121.26709 59.98347
#
# Poissons Ratio (x) = 0.58498 0.36774
# Poissons Ratio (y) = 0.20900 0.11162
# Poissons Ratio (z) = 0.26562 0.22567
#
# Static dielectric constant tensor:
#      x y z
#    x 1.703020 0.000000 0.000000 
#    y 0.000000 1.757270 0.000000 
#    z 0.000000 0.000000 1.723520 
# 
# From -- ./inp_files/12239.got.cif
#   From: 2010.05.17/outbox.ucp.g08.bks.cvg/sg59_7_cif.got.tgz:12239.got - 2010.06.11 16:43:56.
