data_PCOD9453688
_publ_section_title
;
Structure prediction by ZEFSAII (Michael W. Deem and Ramdas Pophale) SiO2 
 PCOD9453688
Probable space group: P M M N
;
_chemical_formula_sum "Si O2"
_cell_formula_units_Z 56
_cell_length_a 9.000000
_cell_length_b 15.000000
_cell_length_c 21.000000
_cell_angle_alpha 90.000000
_cell_angle_beta 90.000000
_cell_angle_gamma 90.000000
_cell_volume 2835.000000
_symmetry_space_group_name_H-M "P M M N"
_symmetry_group_IT_number 59
_space_group.IT_coordinate_system_code '2'
_symmetry_cell_setting 'orthorhombic'
loop_
_space_group_symop_operation_xyz
x,y,z
1/2-x,1/2-y,z
1/2+x,-y,-z
-x,1/2+y,-z
-x,-y,-z
1/2+x,1/2+y,-z
1/2-x,y,z
x,1/2-y,z
loop_
_atom_site_type_symbol
_atom_site_label
_atom_site_fract_x
_atom_site_fract_y
_atom_site_fract_z
Si Si1 0.572840 0.527142 0.150400
Si Si2 0.931413 0.850899 0.669290
Si Si3 0.572574 0.037578 0.723089
Si Si4 0.927743 0.851937 0.889597
Si Si5 0.570644 0.856119 0.391749
Si Si6 0.579839 0.641685 0.529563
Si Si7 0.069856 0.348907 0.962257
O O1 0.750000 0.531910 0.153487
O O2 0.501562 0.571061 0.212315
O O3 0.517585 0.426192 0.146761
O O4 0.518344 0.576772 0.086570
O O5 0.750000 0.847665 0.665930
O O6 0.979087 0.750000 0.685971
O O7 0.988666 0.876049 0.598335
O O8 0.968979 0.933267 0.713729
O O9 0.750000 0.043848 0.726158
O O10 0.509869 0.091125 0.663448
O O11 0.750000 0.866829 0.883088
O O12 0.956347 0.750000 0.870091
O O13 0.969972 0.861201 0.964143
O O14 0.750000 0.868432 0.389348
O O15 0.543936 0.750000 0.385455
O O16 0.515085 0.886837 0.461912
O O17 0.750000 0.608692 0.531306
O O18 0.587236 0.750000 0.526511
O O19 0.250000 0.349440 0.961269
O O20 0.021106 0.250000 0.942173
#
# Coordination Sequence:
#
# PCOD9453688 Si02
#       7
#     8   8   8   8   8   8   8
#     4  11  22  35  53  77 107 142 178 216 255 300
#     4   8  15  30  51  73  98 130 170 215 261 312
#     4  11  23  35  49  74 106 141 180 216 255 305
#     4   9  18  35  59  83 106 133 166 208 261 316
#     4   9  18  34  55  76 100 132 169 212 264 319
#     4   7  11  24  49  76  96 120 162 213 262 313
#     4   8  16  33  57  82 104 130 168 212 260 313
#
# _framework density 19.753086
#
# number of rings (size 3 to 8) (size 9 to 14) (size 15 to 20)
#    0.000    3.000    0.000    3.857    0.000    2.286 
#    0.000    3.571    0.000    5.143    0.000    4.000 
#    0.000    0.000    0.000    0.000    0.000    0.000 
#
# Total GULP energy -312043.198455 kJ/mol
# GULP energy per Si atom -5572.199972 kJ/mol
# Density = 1.970813 g / cm^3
# Si number density = 19.753086 Si / 1000 Ang^3
#
#
#
# Elastic Constant Matrix: (Units=GPa)
#
#
# Indices 1 2 3 4 5 6 
#
# 1 18.9192 20.8210 21.6072 0.0000 0.0000 0.0000
# 2 20.8210 49.5957 32.8104 0.0000 0.0000 0.0000
# 3 21.6072 32.8104 70.2064 0.0000 0.0000 0.0000
# 4 0.0000 0.0000 0.0000 177.8651 0.0000 0.0000
# 5 0.0000 0.0000 0.0000 0.0000 15.6035 0.0000
# 6 0.0000 0.0000 0.0000 0.0000 0.0000 22.8931
#
#
#
# Elastic Compliance Matrix: (Units=1/GPa)
#
#
# Indices 1 2 3 4 5 6 
#
# 1 0.112193 -0.035113 -0.018120 0.000000 0.000000 0.000000
# 2 -0.035113 0.040176 -0.007969 0.000000 0.000000 0.000000
# 3 -0.018120 -0.007969 0.023545 0.000000 0.000000 0.000000
# 4 0.000000 0.000000 0.000000 0.005622 0.000000 0.000000
# 5 0.000000 0.000000 0.000000 0.000000 0.064088 0.000000
# 6 0.000000 0.000000 0.000000 0.000000 0.000000 0.043681
#
#
# Mechanical properties :
#
#
# Convention : Reuss Voigt Hill
#
# Bulk Modulus (GPa) = 18.68806 32.13316 25.41061
# Shear Modulus (GPa) = 11.64018 47.50452 29.57235
#
# Velocity S-wave (km/s) = 2.43015 4.90931 3.87344
# Velocity P-wave (km/s) = 4.16600 6.95973 5.73557
#
# Compressibility (1/GPa) = 0.05351010
#
# Stress axis : x y z
#
# Youngs Moduli (GPa) = 8.91319 24.89039 42.47233
#
# Poissons Ratio (x) = 0.87398 0.76958
# Poissons Ratio (y) = 0.31297 0.33848
# Poissons Ratio (z) = 0.16150 0.19836
#
# Static dielectric constant tensor:
#      x y z
#    x 1.659050 0.000000 0.000000 
#    y 0.000000 1.703910 0.000000 
#    z 0.000000 0.000000 1.756580 
# 
# From -- ./inp_files/29018.got.cif
#   From: 2010.05.17/outbox.ucp.g08.bks.cvg/sg59_15_cif.got.tgz:29018.got - 2010.06.11 16:43:56.
