data_PCOD9453408
_publ_section_title
;
Structure prediction by ZEFSAII (Michael W. Deem and Ramdas Pophale) SiO2 
 PCOD9453408
Probable space group: P M M N
;
_chemical_formula_sum "Si O2"
_cell_formula_units_Z 64
_cell_length_a 21.000000
_cell_length_b 9.000000
_cell_length_c 18.000000
_cell_angle_alpha 90.000000
_cell_angle_beta 90.000000
_cell_angle_gamma 90.000000
_cell_volume 3402.000000
_symmetry_space_group_name_H-M "P M M N"
_symmetry_group_IT_number 59
_space_group.IT_coordinate_system_code '2'
_symmetry_cell_setting 'orthorhombic'
loop_
_space_group_symop_operation_xyz
x,y,z
1/2-x,1/2-y,z
1/2+x,-y,-z
-x,1/2+y,-z
-x,-y,-z
1/2+x,1/2+y,-z
1/2-x,y,z
x,1/2-y,z
loop_
_atom_site_type_symbol
_atom_site_label
_atom_site_fract_x
_atom_site_fract_y
_atom_site_fract_z
Si Si1 0.322845 0.428245 0.905402
Si Si2 0.066687 0.425893 0.018083
Si Si3 0.823739 0.071283 0.257636
Si Si4 0.817682 0.922460 0.741111
Si Si5 0.446131 0.427816 0.191036
Si Si6 0.955423 0.928281 0.292909
Si Si7 0.179100 0.078483 0.437111
Si Si8 0.957418 0.072114 0.563491
O O1 0.250000 0.452377 0.931636
O O2 0.329897 0.250000 0.892471
O O3 0.330118 0.512173 0.827113
O O4 0.375048 0.476959 0.966002
O O5 0.061419 0.250000 0.005606
O O6 0.073589 0.448728 0.105889
O O7 0.000000 0.500000 0.000000
O O8 0.750000 0.033017 0.281220
O O9 0.829104 0.250000 0.260090
O O10 0.884655 0.999407 0.299876
O O11 0.750000 0.988883 0.766708
O O12 0.818704 0.750000 0.767137
O O13 0.884592 0.988494 0.765019
O O14 0.816637 0.918866 0.652362
O O15 0.455054 0.250000 0.204745
O O16 0.509537 0.509760 0.218932
O O17 0.949199 0.750000 0.289915
O O18 0.005326 0.967311 0.359438
O O19 0.250000 0.026830 0.463575
O O20 0.170791 0.250000 0.462396
O O21 0.114623 0.986785 0.449396
O O22 0.956725 0.250000 0.559234
O O23 0.000000 0.000000 0.500000
#
# Coordination Sequence:
#
# PCOD9453408 Si02
#       8
#     8   8   8   8   8   8   8   8
#     4   9  18  34  54  76 107 146 185 228 278 328
#     4  10  21  33  47  72 103 140 183 226 273 324
#     4  10  21  37  59  85 108 137 182 231 279 335
#     4   8  14  26  48  78 107 136 173 218 265 312
#     4  10  19  32  53  78 106 143 187 232 275 322
#     4  11  23  38  57  83 112 142 179 225 279 334
#     4   9  17  33  59  87 115 149 186 222 266 323
#     4  11  24  40  60  87 118 153 190 230 278 333
#
# _framework density 18.812463000000001
#
# number of rings (size 3 to 8) (size 9 to 14) (size 15 to 20)
#    0.000    2.250    1.250    2.625    0.000    6.000 
#    0.000    3.125    0.000    1.125    0.000    1.750 
#    0.000    0.000    0.000    0.000    0.000    0.000 
#
# Total GULP energy -356556.928757 kJ/mol
# GULP energy per Si atom -5571.202012 kJ/mol
# Density = 1.876965 g / cm^3
# Si number density = 18.812463 Si / 1000 Ang^3
#
#
#
# Elastic Constant Matrix: (Units=GPa)
#
#
# Indices 1 2 3 4 5 6 
#
# 1 176.2215 45.9466 30.9811 0.0000 0.0000 0.0000
# 2 45.9466 41.4811 19.9517 0.0000 0.0000 0.0000
# 3 30.9811 19.9517 30.5394 0.0000 0.0000 0.0000
# 4 0.0000 0.0000 0.0000 20.0462 0.0000 0.0000
# 5 0.0000 0.0000 0.0000 0.0000 26.8865 0.0000
# 6 0.0000 0.0000 0.0000 0.0000 0.0000 33.1456
#
#
#
# Elastic Compliance Matrix: (Units=1/GPa)
#
#
# Indices 1 2 3 4 5 6 
#
# 1 0.008226 -0.007434 -0.003489 0.000000 0.000000 0.000000
# 2 -0.007434 0.041872 -0.019814 0.000000 0.000000 0.000000
# 3 -0.003489 -0.019814 0.049228 0.000000 0.000000 0.000000
# 4 0.000000 0.000000 0.000000 0.049885 0.000000 0.000000
# 5 0.000000 0.000000 0.000000 0.000000 0.037193 0.000000
# 6 0.000000 0.000000 0.000000 0.000000 0.000000 0.030170
#
#
# Mechanical properties :
#
#
# Convention : Reuss Voigt Hill
#
# Bulk Modulus (GPa) = 26.41760 49.11121 37.76440
# Shear Modulus (GPa) = 17.20197 26.10649 21.65423
#
# Velocity S-wave (km/s) = 3.02717 3.72926 3.39640
# Velocity P-wave (km/s) = 5.12752 6.68622 5.95806
#
# Compressibility (1/GPa) = 0.03785355
#
# Stress axis : x y z
#
# Youngs Moduli (GPa) = 121.56211 23.88256 20.31358
#
# Poissons Ratio (x) = 0.17754 0.07087
# Poissons Ratio (y) = 0.90368 0.40249
# Poissons Ratio (z) = 0.42408 0.47320
#
# Static dielectric constant tensor:
#      x y z
#    x 1.723120 0.000000 0.000000 
#    y 0.000000 1.638870 0.000000 
#    z 0.000000 0.000000 1.680760 
# 
# From -- ./inp_files/28208.got.cif
#   From: 2010.05.17/outbox.ucp.g08.bks.cvg/sg59_15_cif.got.tgz:28208.got - 2010.06.11 16:43:56.
