data_PCOD9453619
_publ_section_title
;
Structure prediction by ZEFSAII (Michael W. Deem and Ramdas Pophale) SiO2 
 PCOD9453619
Probable space group: P M M N
;
_chemical_formula_sum "Si O2"
_cell_formula_units_Z 56
_cell_length_a 15.000000
_cell_length_b 9.000000
_cell_length_c 21.000000
_cell_angle_alpha 90.000000
_cell_angle_beta 90.000000
_cell_angle_gamma 90.000000
_cell_volume 2835.000000
_symmetry_space_group_name_H-M "P M M N"
_symmetry_group_IT_number 59
_space_group.IT_coordinate_system_code '2'
_symmetry_cell_setting 'orthorhombic'
loop_
_space_group_symop_operation_xyz
x,y,z
1/2-x,1/2-y,z
1/2+x,-y,-z
-x,1/2+y,-z
-x,-y,-z
1/2+x,1/2+y,-z
1/2-x,y,z
x,1/2-y,z
loop_
_atom_site_type_symbol
_atom_site_label
_atom_site_fract_x
_atom_site_fract_y
_atom_site_fract_z
Si Si1 0.964703 0.077997 0.703345
Si Si2 0.645042 0.574716 0.595072
Si Si3 0.750000 0.579054 0.899605
Si Si4 0.423439 0.579694 0.152001
Si Si5 0.358313 0.917497 0.532941
Si Si6 0.150867 0.427844 0.664369
Si Si7 0.048274 0.923306 0.939281
Si Si8 0.750000 0.419893 0.026363
O O1 0.961652 0.250000 0.680468
O O2 0.922848 0.073898 0.772467
O O3 0.068285 0.032241 0.708694
O O4 0.911592 0.976864 0.654815
O O5 0.750000 0.537858 0.604821
O O6 0.639061 0.750000 0.584803
O O7 0.611171 0.491020 0.532268
O O8 0.750000 0.750000 0.883354
O O9 0.837126 0.501063 0.873495
O O10 0.750000 0.547557 0.974135
O O11 0.423429 0.750000 0.130441
O O12 0.508414 0.499615 0.122684
O O13 0.250000 0.912671 0.529154
O O14 0.391737 0.750000 0.540387
O O15 0.376920 0.014427 0.594829
O O16 0.250000 0.486653 0.679724
O O17 0.157167 0.250000 0.663079
O O18 0.024382 0.750000 0.941200
O O19 0.155236 0.934511 0.939402
O O20 0.000000 0.000000 0.000000
O O21 0.750000 0.250000 0.998515
#
# Coordination Sequence:
#
# PCOD9453619 Si02
#       8
#     8   8   4   8   8   8   8   4
#     4  10  23  40  58  82 112 154 197 234 287 347
#     4  10  21  36  55  82 114 148 188 238 290 341
#     4  12  24  38  64  94 120 158 203 238 287 356
#     4  11  24  42  61  88 125 161 197 245 297 352
#     4   9  17  31  54  83 112 144 184 232 290 350
#     4   9  18  36  60  82 108 143 189 242 290 341
#     4  11  22  39  64  93 125 161 201 248 296 348
#     4  10  22  40  64  92 126 160 195 244 303 348
#
# _framework density 19.753086
#
# number of rings (size 3 to 8) (size 9 to 14) (size 15 to 20)
#    0.000    1.857    1.429    2.357    1.000    5.429 
#    1.286    0.000    0.000    0.000    0.000    0.000 
#    0.000    0.000    0.000    0.000    0.000    0.000 
#
# Total GULP energy -312491.928197 kJ/mol
# GULP energy per Si atom -5580.213004 kJ/mol
# Density = 1.970813 g / cm^3
# Si number density = 19.753086 Si / 1000 Ang^3
#
#
#
# Elastic Constant Matrix: (Units=GPa)
#
#
# Indices 1 2 3 4 5 6 
#
# 1 62.5758 28.8468 -0.2831 0.0000 0.0000 0.0000
# 2 28.8468 40.3974 2.2983 0.0000 0.0000 0.0000
# 3 -0.2831 2.2983 7.5986 0.0000 0.0000 0.0000
# 4 0.0000 0.0000 0.0000 18.0501 0.0000 0.0000
# 5 0.0000 0.0000 0.0000 0.0000 32.4977 0.0000
# 6 0.0000 0.0000 0.0000 0.0000 0.0000 51.7097
#
#
#
# Elastic Compliance Matrix: (Units=1/GPa)
#
#
# Indices 1 2 3 4 5 6 
#
# 1 0.024107 -0.017568 0.006212 0.000000 0.000000 0.000000
# 2 -0.017568 0.037990 -0.012145 0.000000 0.000000 0.000000
# 3 0.006212 -0.012145 0.135508 0.000000 0.000000 0.000000
# 4 0.000000 0.000000 0.000000 0.055401 0.000000 0.000000
# 5 0.000000 0.000000 0.000000 0.000000 0.030771 0.000000
# 6 0.000000 0.000000 0.000000 0.000000 0.000000 0.019339
#
#
# Mechanical properties :
#
#
# Convention : Reuss Voigt Hill
#
# Bulk Modulus (GPa) = 6.64000 19.14398 12.89199
# Shear Modulus (GPa) = 12.49003 25.76548 19.12775
#
# Velocity S-wave (km/s) = 2.51730 3.61553 3.11520
# Velocity P-wave (km/s) = 3.43771 5.20981 4.41362
#
# Compressibility (1/GPa) = 0.15060240
#
# Stress axis : x y z
#
# Youngs Moduli (GPa) = 41.48118 26.32285 7.37966
#
# Poissons Ratio (x) = 0.46244 -0.04584
# Poissons Ratio (y) = 0.72874 0.08963
# Poissons Ratio (z) = -0.25767 0.31969
#
# Static dielectric constant tensor:
#      x y z
#    x 1.717320 0.000000 0.000000 
#    y 0.000000 1.681250 0.000000 
#    z 0.000000 0.000000 1.665120 
# 
# From -- ./inp_files/30438.got.cif
#   From: 2010.05.17/outbox.ucp.g08.bks.cvg/sg59_16_cif.got.tgz:30438.got - 2010.06.11 16:43:56.
