data_PCOD9453901
_publ_section_title
;
Structure prediction by ZEFSAII (Michael W. Deem and Ramdas Pophale) SiO2 
 PCOD9453901
Probable space group: P B C N
;
_chemical_formula_sum "Si O2"
_cell_formula_units_Z 48
_cell_length_a 22.902890
_cell_length_b 5.400452
_cell_length_c 21.359694
_cell_angle_alpha 90.000000
_cell_angle_beta 90.000000
_cell_angle_gamma 90.000000
_cell_volume 2641.894217
_symmetry_space_group_name_H-M "P B C N"
_symmetry_group_IT_number 60
_symmetry_cell_setting 'orthorhombic'
loop_
_space_group_symop_operation_xyz
x,y,z
1/2-x,1/2-y,1/2+z
1/2+x,1/2-y,-z
-x,y,1/2-z
-x,-y,-z
1/2+x,1/2+y,1/2-z
1/2-x,1/2+y,z
x,-y,1/2+z
loop_
_atom_site_type_symbol
_atom_site_label
_atom_site_fract_x
_atom_site_fract_y
_atom_site_fract_z
Si Si1 0.897393 0.273108 0.159124
Si Si2 0.902036 0.455756 0.028062
Si Si3 0.014653 0.205847 0.552659
Si Si4 0.281335 0.780622 0.944650
Si Si5 0.735573 0.241315 0.697226
Si Si6 0.966652 0.213748 0.684986
O O1 0.894888 0.256657 0.083569
O O2 0.831481 0.295999 0.181051
O O3 0.933187 0.523839 0.174842
O O4 0.923735 0.021504 0.185844
O O5 0.845665 0.632367 0.034142
O O6 0.960540 0.606503 0.044171
O O7 0.922227 0.320757 0.964745
O O8 0.009024 0.148130 0.626075
O O9 0.000000 0.000000 0.500000
O O10 0.260769 0.508144 0.965724
O O11 0.272655 0.764841 0.868501
O O12 0.742596 0.499346 0.731614
O O13 0.000000 0.230364 0.750000
#
# Coordination Sequence:
#
# PCOD9453901 Si02
#       6
#     8   8   8   8   8   8
#     4  11  20  34  57  79 118 146 183 240 284 347
#     4  10  20  33  51  86 117 149 183 236 289 348
#     4  10  21  34  57  80 116 153 191 236 293 344
#     4  10  20  29  49  79 120 142 180 225 294 340
#     4  10  18  28  48  83 113 139 175 228 299 331
#     4  11  24  39  56  80 114 153 199 237 294 347
#
# _framework density 18.168780999999999
#
# number of rings (size 3 to 8) (size 9 to 14) (size 15 to 20)
#    0.000    1.667    5.000    1.500    9.333    0.000 
#    0.000    0.000    0.000    0.000    0.000    7.000 
#    0.000    0.000    0.000    0.000    0.000    0.000 
#
# Total GULP energy -267224.587700 kJ/mol
# GULP energy per Si atom -5567.178910 kJ/mol
# Density = 1.812743 g / cm^3
# Si number density = 18.168781 Si / 1000 Ang^3
#
#
#
# Elastic Constant Matrix: (Units=GPa)
#
#
# Indices 1 2 3 4 5 6 
#
# 1 55.7666 9.6860 19.0755 0.0000 0.0000 0.0000
# 2 9.6860 98.3667 13.5353 0.0000 0.0000 0.0000
# 3 19.0755 13.5353 65.9777 0.0000 0.0000 0.0000
# 4 0.0000 0.0000 0.0000 10.3230 0.0000 0.0000
# 5 0.0000 0.0000 0.0000 0.0000 10.4988 0.0000
# 6 0.0000 0.0000 0.0000 0.0000 0.0000 27.4435
#
#
#
# Elastic Compliance Matrix: (Units=1/GPa)
#
#
# Indices 1 2 3 4 5 6 
#
# 1 0.020039 -0.001210 -0.005545 0.000000 0.000000 0.000000
# 2 -0.001210 0.010534 -0.001811 0.000000 0.000000 0.000000
# 3 -0.005545 -0.001811 0.017132 0.000000 0.000000 0.000000
# 4 0.000000 0.000000 0.000000 0.096871 0.000000 0.000000
# 5 0.000000 0.000000 0.000000 0.000000 0.095249 0.000000
# 6 0.000000 0.000000 0.000000 0.000000 0.000000 0.036439
#
#
# Mechanical properties :
#
#
# Convention : Reuss Voigt Hill
#
# Bulk Modulus (GPa) = 32.71047 33.85607 33.28327
# Shear Modulus (GPa) = 16.46969 21.50733 18.98851
#
# Velocity S-wave (km/s) = 3.01405 3.44430 3.23633
# Velocity P-wave (km/s) = 5.49140 5.87301 5.68541
#
# Compressibility (1/GPa) = 0.03057125
#
# Stress axis : x y z
#
# Youngs Moduli (GPa) = 49.90284 94.92684 58.37200
#
# Poissons Ratio (x) = 0.11488 0.32370
# Poissons Ratio (y) = 0.06039 0.10573
# Poissons Ratio (z) = 0.27673 0.17194
#
# Static dielectric constant tensor:
#      x y z
#    x 1.749630 0.000000 0.000000 
#    y 0.000000 1.753030 0.000000 
#    z 0.000000 0.000000 1.641140 
# 
# From -- ./inp_files/23158.got.cif
#   From: 2010.05.17/outbox.cif.g08.bks.cpg/sg60_12_cif.got.tgz:23158.got - 2010.06.03 14:59:27.
