data_PCOD9453421
_publ_section_title
;
Structure prediction by ZEFSAII (Michael W. Deem and Ramdas Pophale) SiO2 
 PCOD9453421
Probable space group: P M M N
;
_chemical_formula_sum "Si O2"
_cell_formula_units_Z 64
_cell_length_a 21.000000
_cell_length_b 9.000000
_cell_length_c 21.000000
_cell_angle_alpha 90.000000
_cell_angle_beta 90.000000
_cell_angle_gamma 90.000000
_cell_volume 3969.000000
_symmetry_space_group_name_H-M "P M M N"
_symmetry_group_IT_number 59
_space_group.IT_coordinate_system_code '2'
_symmetry_cell_setting 'orthorhombic'
loop_
_space_group_symop_operation_xyz
x,y,z
1/2-x,1/2-y,z
1/2+x,-y,-z
-x,1/2+y,-z
-x,-y,-z
1/2+x,1/2+y,-z
1/2-x,y,z
x,1/2-y,z
loop_
_atom_site_type_symbol
_atom_site_label
_atom_site_fract_x
_atom_site_fract_y
_atom_site_fract_z
Si Si1 0.918261 0.570844 0.833510
Si Si2 0.598024 0.570042 0.687288
Si Si3 0.324788 0.429776 0.050367
Si Si4 0.675272 0.429163 0.089324
Si Si5 0.958294 0.930615 0.331326
Si Si6 0.435700 0.569518 0.531884
Si Si7 0.825017 0.071457 0.572682
Si Si8 0.934706 0.430667 0.193962
O O1 0.917874 0.750000 0.837032
O O2 0.891300 0.533245 0.762590
O O3 0.873761 0.520717 0.893094
O O4 0.993945 0.528318 0.832731
O O5 0.592103 0.750000 0.682445
O O6 0.531060 0.491605 0.669711
O O7 0.649497 0.510692 0.636443
O O8 0.250000 0.465044 0.065463
O O9 0.329271 0.250000 0.045555
O O10 0.338628 0.498925 0.980287
O O11 0.750000 0.467006 0.105420
O O12 0.672355 0.250000 0.082918
O O13 0.622404 0.468919 0.143823
O O14 0.956631 0.750000 0.332530
O O15 0.929263 0.998496 0.397071
O O16 0.929250 0.993025 0.264139
O O17 0.500000 0.500000 0.500000
O O18 0.442205 0.750000 0.536478
O O19 0.374810 0.537856 0.485380
O O20 0.750000 0.035703 0.560007
O O21 0.828830 0.250000 0.582682
O O22 0.934144 0.250000 0.202262
#
# Coordination Sequence:
#
# PCOD9453421 Si02
#       8
#     8   8   8   8   8   8   8   8
#     4   8  16  30  48  72 100 131 168 209 253 302
#     4  10  19  33  54  77 104 139 178 217 260 313
#     4   9  17  30  48  69  97 133 170 207 250 306
#     4   9  18  33  52  73  98 130 170 214 262 315
#     4  11  21  34  54  80 107 134 171 218 263 314
#     4  11  21  35  58  82 106 140 180 219 261 314
#     4  10  22  38  54  77 110 143 176 218 266 314
#     4   9  18  34  53  73 100 133 169 213 260 311
#
# _framework density 16.124969
#
# number of rings (size 3 to 8) (size 9 to 14) (size 15 to 20)
#    0.000    2.375    1.250    2.625    0.000    2.250 
#    0.000    5.000    0.000    5.250    0.000    0.000 
#    0.000    0.000    0.000    0.000    0.000    0.000 
#
# Total GULP energy -356564.123247 kJ/mol
# GULP energy per Si atom -5571.314426 kJ/mol
# Density = 1.608827 g / cm^3
# Si number density = 16.124969 Si / 1000 Ang^3
#
#
#
# Elastic Constant Matrix: (Units=GPa)
#
#
# Indices 1 2 3 4 5 6 
#
# 1 129.2101 35.1001 92.1922 0.0000 0.0000 0.0000
# 2 35.1001 65.2532 46.3690 0.0000 0.0000 0.0000
# 3 92.1922 46.3690 170.1734 0.0000 0.0000 0.0000
# 4 0.0000 0.0000 0.0000 35.9235 0.0000 0.0000
# 5 0.0000 0.0000 0.0000 0.0000 40.0775 0.0000
# 6 0.0000 0.0000 0.0000 0.0000 0.0000 22.9975
#
#
#
# Elastic Compliance Matrix: (Units=1/GPa)
#
#
# Indices 1 2 3 4 5 6 
#
# 1 0.012925 -0.002451 -0.006334 0.000000 0.000000 0.000000
# 2 -0.002451 0.019470 -0.003977 0.000000 0.000000 0.000000
# 3 -0.006334 -0.003977 0.010392 0.000000 0.000000 0.000000
# 4 0.000000 0.000000 0.000000 0.027837 0.000000 0.000000
# 5 0.000000 0.000000 0.000000 0.000000 0.024952 0.000000
# 6 0.000000 0.000000 0.000000 0.000000 0.000000 0.043483
#
#
# Mechanical properties :
#
#
# Convention : Reuss Voigt Hill
#
# Bulk Modulus (GPa) = 57.93428 79.10656 68.52042
# Shear Modulus (GPa) = 29.35378 32.53139 30.94259
#
# Velocity S-wave (km/s) = 4.27123 4.49648 4.38530
# Velocity P-wave (km/s) = 7.76730 8.72483 8.25995
#
# Compressibility (1/GPa) = 0.01726094
#
# Stress axis : x y z
#
# Youngs Moduli (GPa) = 77.37188 51.36208 96.23213
#
# Poissons Ratio (x) = 0.12590 0.60954
# Poissons Ratio (y) = 0.18966 0.38273
# Poissons Ratio (z) = 0.49008 0.20427
#
# Static dielectric constant tensor:
#      x y z
#    x 1.550660 0.000000 0.000000 
#    y 0.000000 1.542620 0.000000 
#    z 0.000000 0.000000 1.547320 
# 
# From -- ./inp_files/30891.got.cif
#   From: 2010.05.17/outbox.ucp.g08.bks.cvg/sg59_16_cif.got.tgz:30891.got - 2010.06.11 16:43:56.
