data_PCOD9453941
_publ_section_title
;
Structure prediction by ZEFSAII (Michael W. Deem and Ramdas Pophale) SiO2 
 PCOD9453941
Probable space group: P B C N
;
_chemical_formula_sum "Si O2"
_cell_formula_units_Z 60
_cell_length_a 9.061637
_cell_length_b 25.305440
_cell_length_c 15.264294
_cell_angle_alpha 90.000000
_cell_angle_beta 90.000000
_cell_angle_gamma 90.000000
_cell_volume 3500.235588
_symmetry_space_group_name_H-M "P B C N"
_symmetry_group_IT_number 60
_symmetry_cell_setting 'orthorhombic'
loop_
_space_group_symop_operation_xyz
x,y,z
1/2-x,1/2-y,1/2+z
1/2+x,1/2-y,-z
-x,y,1/2-z
-x,-y,-z
1/2+x,1/2+y,1/2-z
1/2-x,1/2+y,z
x,-y,1/2+z
loop_
_atom_site_type_symbol
_atom_site_label
_atom_site_fract_x
_atom_site_fract_y
_atom_site_fract_z
Si Si1 0.871814 0.486785 0.068020
Si Si2 0.752065 0.915606 0.776545
Si Si3 0.000000 0.501146 0.750000
Si Si4 0.183372 0.210741 0.411039
Si Si5 0.833003 0.704844 0.269966
Si Si6 0.351823 0.408320 0.525893
Si Si7 0.835298 0.087440 0.086683
Si Si8 0.162828 0.214551 0.049748
O O1 0.944759 0.470628 0.161295
O O2 0.785371 0.542390 0.074458
O O3 0.756515 0.443411 0.032463
O O4 0.000000 0.500000 0.000000
O O5 0.670742 0.859098 0.770813
O O6 0.821589 0.918159 0.871639
O O7 0.859522 0.916186 0.692296
O O8 0.636130 0.962927 0.772753
O O9 0.230396 0.221772 0.311138
O O10 0.211705 0.148220 0.427707
O O11 0.280326 0.245224 0.476926
O O12 0.009497 0.221096 0.425613
O O13 0.763264 0.720852 0.363083
O O14 0.000000 0.722519 0.250000
O O15 0.525801 0.421561 0.522668
O O16 0.325220 0.345724 0.514301
#
# Coordination Sequence:
#
# PCOD9453941 Si02
#       8
#     8   8   4   8   8   8   8   8
#     4  11  21  33  55  78 109 140 179 222 265 323
#     4   9  16  29  52  79 106 131 173 222 269 311
#     4  10  18  32  48  80 108 132 174 218 266 302
#     4  10  20  36  54  81 110 138 183 225 276 318
#     4  10  18  30  54  81 108 137 173 223 273 317
#     4  10  19  34  53  79 107 142 178 215 277 324
#     4   9  20  33  54  79 108 138 174 230 270 320
#     4  10  21  34  56  79 108 144 180 227 269 331
#
# _framework density 17.141703
#
# number of rings (size 3 to 8) (size 9 to 14) (size 15 to 20)
#    0.000    2.133    2.000    2.000    0.000    4.267 
#    0.000    0.000    5.867    0.000    0.000    0.000 
#    0.000    0.000    0.000    0.000    0.000    0.000 
#
# Total GULP energy -334202.409646 kJ/mol
# GULP energy per Si atom -5570.040161 kJ/mol
# Density = 1.710269 g / cm^3
# Si number density = 17.141703 Si / 1000 Ang^3
#
#
#
# Elastic Constant Matrix: (Units=GPa)
#
#
# Indices 1 2 3 4 5 6 
#
# 1 71.9136 36.6989 37.7878 0.0000 0.0000 0.0000
# 2 36.6989 54.4381 43.9598 0.0000 0.0000 0.0000
# 3 37.7878 43.9598 100.5608 0.0000 0.0000 0.0000
# 4 0.0000 0.0000 0.0000 26.4974 0.0000 0.0000
# 5 0.0000 0.0000 0.0000 0.0000 34.0439 0.0000
# 6 0.0000 0.0000 0.0000 0.0000 0.0000 -24.1803
#
#
#
# Elastic Compliance Matrix: (Units=1/GPa)
#
#
# Indices 1 2 3 4 5 6 
#
# 1 0.021668 -0.012415 -0.002715 0.000000 0.000000 0.000000
# 2 -0.012415 0.035505 -0.010856 0.000000 0.000000 0.000000
# 3 -0.002715 -0.010856 0.015710 0.000000 0.000000 0.000000
# 4 0.000000 0.000000 0.000000 0.037740 0.000000 0.000000
# 5 0.000000 0.000000 0.000000 0.000000 0.029374 0.000000
# 6 0.000000 0.000000 0.000000 0.000000 0.000000 -0.041356
#
#
# Mechanical properties :
#
#
# Convention : Reuss Voigt Hill
#
# Bulk Modulus (GPa) = 47.82013 51.53398 49.67706
# Shear Modulus (GPa) = 31.72960 14.50327 23.11644
#
# Velocity S-wave (km/s) = 4.30701 2.91190 3.67624
# Velocity P-wave (km/s) = 7.25888 6.43695 6.86024
#
# Compressibility (1/GPa) = 0.02091169
#
# Stress axis : x y z
#
# Youngs Moduli (GPa) = 46.15179 28.16511 63.65339
#
# Poissons Ratio (x) = 0.34966 0.17282
# Poissons Ratio (y) = 0.57295 0.69101
# Poissons Ratio (z) = 0.12531 0.30576
#
# Static dielectric constant tensor:
#      x y z
#    x 1.607580 0.000000 0.000000 
#    y 0.000000 1.559820 0.000000 
#    z 0.000000 0.000000 1.584560 
# 
# From -- ./inp_files/15385.got.cif
#   From: 2010.05.17/outbox.cif.g08.bks.cpg/sg60_8_cif.got.tgz:15385.got - 2010.06.03 14:59:27.
