data_PCOD9453356
_publ_section_title
;
Structure prediction by ZEFSAII (Michael W. Deem and Ramdas Pophale) SiO2 
 PCOD9453356
Probable space group: P M M N
;
_chemical_formula_sum "Si O2"
_cell_formula_units_Z 64
_cell_length_a 9.000000
_cell_length_b 30.000000
_cell_length_c 15.000000
_cell_angle_alpha 90.000000
_cell_angle_beta 90.000000
_cell_angle_gamma 90.000000
_cell_volume 4050.000000
_symmetry_space_group_name_H-M "P M M N"
_symmetry_group_IT_number 59
_space_group.IT_coordinate_system_code '2'
_symmetry_cell_setting 'orthorhombic'
loop_
_space_group_symop_operation_xyz
x,y,z
1/2-x,1/2-y,z
1/2+x,-y,-z
-x,1/2+y,-z
-x,-y,-z
1/2+x,1/2+y,-z
1/2-x,y,z
x,1/2-y,z
loop_
_atom_site_type_symbol
_atom_site_label
_atom_site_fract_x
_atom_site_fract_y
_atom_site_fract_z
Si Si1 0.570295 0.196855 0.644666
Si Si2 0.929813 0.615853 0.473106
Si Si3 0.570613 0.697610 0.157965
Si Si4 0.570588 0.888122 0.034350
Si Si5 0.429305 0.428725 0.155164
Si Si6 0.927797 0.032735 0.849373
Si Si7 0.427409 0.468161 0.656942
Si Si8 0.429259 0.927761 0.647918
O O1 0.750000 0.191800 0.644747
O O2 0.538476 0.250000 0.623584
O O3 0.499180 0.159827 0.576827
O O4 0.506163 0.189103 0.745384
O O5 0.750000 0.621141 0.479209
O O6 0.960077 0.571592 0.412427
O O7 0.997981 0.603226 0.570663
O O8 0.750000 0.694920 0.169450
O O9 0.536951 0.750000 0.133232
O O10 0.529805 0.658926 0.084821
O O11 0.750000 0.890797 0.038552
O O12 0.502671 0.929940 0.088540
O O13 0.530729 0.896809 0.929317
O O14 0.250000 0.426251 0.167785
O O15 0.464894 0.480599 0.129700
O O16 0.506958 0.419506 0.251337
O O17 0.750000 0.037223 0.854344
O O18 0.984779 0.040049 0.748508
O O19 0.250000 0.466824 0.674969
O O20 0.461446 0.519373 0.627612
O O21 0.250000 0.922212 0.647891
#
# Coordination Sequence:
#
# PCOD9453356 Si02
#       8
#     8   8   8   8   8   8   8   8
#     4  10  21  36  53  75 103 131 159 196 243 293
#     4  11  21  33  52  75  99 129 165 203 244 292
#     4   9  18  33  52  74  99 126 157 194 238 288
#     4  10  19  31  49  70  95 128 163 200 243 291
#     4   9  19  34  48  66  95 131 168 204 243 285
#     4  10  19  29  45  70  99 129 162 201 241 287
#     4   9  19  33  48  70 101 134 165 199 241 291
#     4  10  20  34  51  71  98 132 168 205 245 288
#
# _framework density 15.802469
#
# number of rings (size 3 to 8) (size 9 to 14) (size 15 to 20)
#    0.000    2.250    0.000    3.000    0.000    6.750 
#    0.000    0.000    0.000    0.750    0.000    1.750 
#    0.000    0.000    0.000    0.000    0.000    0.000 
#
# Total GULP energy -356763.363321 kJ/mol
# GULP energy per Si atom -5574.427552 kJ/mol
# Density = 1.576650 g / cm^3
# Si number density = 15.802469 Si / 1000 Ang^3
#
#
#
# Elastic Constant Matrix: (Units=GPa)
#
#
# Indices 1 2 3 4 5 6 
#
# 1 58.0641 43.3327 46.2756 0.0000 0.0000 0.0000
# 2 43.3327 122.5287 83.3204 0.0000 0.0000 0.0000
# 3 46.2756 83.3204 133.9773 0.0000 0.0000 0.0000
# 4 0.0000 0.0000 0.0000 38.0550 0.0000 0.0000
# 5 0.0000 0.0000 0.0000 0.0000 30.6714 0.0000
# 6 0.0000 0.0000 0.0000 0.0000 0.0000 28.5599
#
#
#
# Elastic Compliance Matrix: (Units=1/GPa)
#
#
# Indices 1 2 3 4 5 6 
#
# 1 0.025585 -0.005266 -0.005562 0.000000 0.000000 0.000000
# 2 -0.005266 0.015226 -0.007650 0.000000 0.000000 0.000000
# 3 -0.005562 -0.007650 0.014143 0.000000 0.000000 0.000000
# 4 0.000000 0.000000 0.000000 0.026278 0.000000 0.000000
# 5 0.000000 0.000000 0.000000 0.000000 0.032604 0.000000
# 6 0.000000 0.000000 0.000000 0.000000 0.000000 0.035014
#
#
# Mechanical properties :
#
#
# Convention : Reuss Voigt Hill
#
# Bulk Modulus (GPa) = 55.56402 73.38084 64.47243
# Shear Modulus (GPa) = 26.06816 28.90000 27.48408
#
# Velocity S-wave (km/s) = 4.06597 4.28112 4.17493
# Velocity P-wave (km/s) = 7.56840 8.42463 8.00797
#
# Compressibility (1/GPa) = 0.01799726
#
# Stress axis : x y z
#
# Youngs Moduli (GPa) = 39.08503 65.67814 70.70796
#
# Poissons Ratio (x) = 0.34586 0.39329
# Poissons Ratio (y) = 0.20582 0.54092
# Poissons Ratio (z) = 0.21740 0.50244
#
# Static dielectric constant tensor:
#      x y z
#    x 1.532350 0.000000 0.000000 
#    y 0.000000 1.536520 0.000000 
#    z 0.000000 0.000000 1.525210 
# 
# From -- ./inp_files/21917.got.cif
#   From: 2010.05.17/outbox.ucp.g08.bks.cvg/sg59_11_cif.got.tgz:21917.got - 2010.06.11 16:43:56.
