data_PCOD9453985
_publ_section_title
;
Structure prediction by ZEFSAII (Michael W. Deem and Ramdas Pophale) SiO2 
 PCOD9453985
Probable space group: P B C N
;
_chemical_formula_sum "Si O2"
_cell_formula_units_Z 48
_cell_length_a 25.102081
_cell_length_b 17.055828
_cell_length_c 5.364339
_cell_angle_alpha 90.000000
_cell_angle_beta 90.000000
_cell_angle_gamma 90.000000
_cell_volume 2296.670805
_symmetry_space_group_name_H-M "P B C N"
_symmetry_group_IT_number 60
_symmetry_cell_setting 'orthorhombic'
loop_
_space_group_symop_operation_xyz
x,y,z
1/2-x,1/2-y,1/2+z
1/2+x,1/2-y,-z
-x,y,1/2-z
-x,-y,-z
1/2+x,1/2+y,1/2-z
1/2-x,1/2+y,z
x,-y,1/2+z
loop_
_atom_site_type_symbol
_atom_site_label
_atom_site_fract_x
_atom_site_fract_y
_atom_site_fract_z
Si Si1 0.485066 0.371329 0.500715
Si Si2 0.934676 0.719615 0.501380
Si Si3 0.116317 0.776005 0.500326
Si Si4 0.238279 0.795208 0.599233
Si Si5 0.307432 0.048263 0.059087
Si Si6 0.064569 0.452089 0.577270
O O1 0.500000 0.412573 0.250000
O O2 0.521243 0.289721 0.501025
O O3 0.423859 0.348663 0.503498
O O4 0.500000 0.413475 0.750000
O O5 0.896843 0.733904 0.261446
O O6 0.959570 0.633686 0.473406
O O7 0.902107 0.724992 0.760121
O O8 0.176260 0.803287 0.530785
O O9 0.258907 0.737454 0.380738
O O10 0.273515 0.873005 0.582417
O O11 0.371197 0.062007 0.067207
O O12 0.295281 0.993437 0.296592
O O13 0.052932 0.510755 0.347752
#
# Coordination Sequence:
#
# PCOD9453985 Si02
#       6
#     8   8   8   8   8   8
#     4   8  16  29  48  68  92 124 155 195 261 317
#     4  10  18  32  51  72  98 128 164 212 266 311
#     4  10  19  32  51  72  98 126 159 210 266 304
#     4  12  23  35  55  84 109 137 185 233 268 315
#     4  10  21  36  51  72 109 150 181 215 270 328
#     4  10  19  30  46  66  92 133 176 207 245 303
#
# _framework density 20.899818
#
# number of rings (size 3 to 8) (size 9 to 14) (size 15 to 20)
#    0.000    2.000    0.000    5.000    0.000    2.667 
#    0.000    0.000    0.000   27.000    0.000    0.000 
#    0.000   36.000    0.000    0.000    0.000    0.000 
#
# Total GULP energy -268220.229695 kJ/mol
# GULP energy per Si atom -5587.921452 kJ/mol
# Density = 2.085225 g / cm^3
# Si number density = 20.899818 Si / 1000 Ang^3
#
#
#
# Elastic Constant Matrix: (Units=GPa)
#
#
# Indices 1 2 3 4 5 6 
#
# 1 89.8211 11.8365 6.2218 0.0000 0.0000 0.0000
# 2 11.8365 94.4888 11.1187 0.0000 0.0000 0.0000
# 3 6.2218 11.1187 146.1114 0.0000 0.0000 0.0000
# 4 0.0000 0.0000 0.0000 -79.0143 0.0000 0.0000
# 5 0.0000 0.0000 0.0000 0.0000 22.2883 0.0000
# 6 0.0000 0.0000 0.0000 0.0000 0.0000 13.8124
#
#
#
# Elastic Compliance Matrix: (Units=1/GPa)
#
#
# Indices 1 2 3 4 5 6 
#
# 1 0.011341 -0.001376 -0.000378 0.000000 0.000000 0.000000
# 2 -0.001376 0.010846 -0.000767 0.000000 0.000000 0.000000
# 3 -0.000378 -0.000767 0.006919 0.000000 0.000000 0.000000
# 4 0.000000 0.000000 0.000000 -0.012656 0.000000 0.000000
# 5 0.000000 0.000000 0.000000 0.000000 0.044867 0.000000
# 6 0.000000 0.000000 0.000000 0.000000 0.000000 0.072399
#
#
# Mechanical properties :
#
#
# Convention : Reuss Voigt Hill
#
# Bulk Modulus (GPa) = 41.55754 43.19728 42.37741
# Shear Modulus (GPa) = 34.06507 11.50021 22.78264
#
# Velocity S-wave (km/s) = 4.04161 2.34829 3.30523
# Velocity P-wave (km/s) = 6.45808 5.29776 5.90648
#
# Compressibility (1/GPa) = 0.02406302
#
# Stress axis : x y z
#
# Youngs Moduli (GPa) = 88.17727 92.20097 144.53909
#
# Poissons Ratio (x) = 0.12688 0.05466
# Poissons Ratio (y) = 0.12135 0.11082
# Poissons Ratio (z) = 0.03335 0.07069
#
# Static dielectric constant tensor:
#      x y z
#    x 1.747360 0.000000 0.000000 
#    y 0.000000 1.729040 0.000000 
#    z 0.000000 0.000000 1.805350 
# 
# From -- ./inp_files/1329.got.cif
#   From: 2010.05.17/outbox.cif.g08.bks.cpg/sg60_1_cif.got.tgz:1329.got - 2010.06.03 14:59:27.
