data_PCOD9453344
_publ_section_title
;
Structure prediction by ZEFSAII (Michael W. Deem and Ramdas Pophale) SiO2 
 PCOD9453344
Probable space group: P M M N
;
_chemical_formula_sum "Si O2"
_cell_formula_units_Z 48
_cell_length_a 15.000000
_cell_length_b 9.000000
_cell_length_c 18.000000
_cell_angle_alpha 90.000000
_cell_angle_beta 90.000000
_cell_angle_gamma 90.000000
_cell_volume 2430.000000
_symmetry_space_group_name_H-M "P M M N"
_symmetry_group_IT_number 59
_space_group.IT_coordinate_system_code '2'
_symmetry_cell_setting 'orthorhombic'
loop_
_space_group_symop_operation_xyz
x,y,z
1/2-x,1/2-y,z
1/2+x,-y,-z
-x,1/2+y,-z
-x,-y,-z
1/2+x,1/2+y,-z
1/2-x,y,z
x,1/2-y,z
loop_
_atom_site_type_symbol
_atom_site_label
_atom_site_fract_x
_atom_site_fract_y
_atom_site_fract_z
Si Si1 0.470650 0.422317 0.607726
Si Si2 0.644312 0.924683 0.540682
Si Si3 0.907300 0.428735 0.976673
Si Si4 0.515955 0.426167 0.248245
Si Si5 0.656850 0.430233 0.132978
Si Si6 0.849996 0.428514 0.812081
O O1 0.477918 0.250000 0.628651
O O2 0.398090 0.434236 0.542070
O O3 0.569409 0.480896 0.584577
O O4 0.439772 0.521085 0.676342
O O5 0.750000 0.967173 0.544624
O O6 0.638684 0.750000 0.563088
O O7 0.915377 0.250000 0.974415
O O8 0.872049 0.476518 0.896680
O O9 0.846401 0.468151 0.046637
O O10 0.000000 0.500000 0.000000
O O11 0.509688 0.250000 0.244871
O O12 0.572644 0.484657 0.178424
O O13 0.419562 0.497375 0.241982
O O14 0.750000 0.481104 0.166570
O O15 0.654221 0.250000 0.136902
O O16 0.750000 0.470936 0.793354
O O17 0.857270 0.250000 0.809439
#
# Coordination Sequence:
#
# PCOD9453344 Si02
#       6
#     8   8   8   8   8   8
#     4  10  21  37  58  85 116 147 178 218 265 318
#     4   9  19  38  63  88 113 143 179 218 263 315
#     4  10  18  32  55  78 103 137 180 230 280 328
#     4  11  22  36  55  80 111 147 183 224 271 321
#     4   9  18  33  53  77 105 140 182 225 272 326
#     4  10  21  36  55  78 105 142 186 231 280 330
#
# _framework density 19.753086
#
# number of rings (size 3 to 8) (size 9 to 14) (size 15 to 20)
#    0.000    2.167    1.667    1.500    0.000    4.667 
#    0.000    0.000    0.000    5.000    0.000    0.000 
#    0.000    0.000    0.000    0.000    0.000    0.000 
#
# Total GULP energy -267448.917883 kJ/mol
# GULP energy per Si atom -5571.852456 kJ/mol
# Density = 1.970813 g / cm^3
# Si number density = 19.753086 Si / 1000 Ang^3
#
#
#
# Elastic Constant Matrix: (Units=GPa)
#
#
# Indices 1 2 3 4 5 6 
#
# 1 85.6367 14.8856 2.5339 0.0000 0.0000 0.0000
# 2 14.8856 2.1314 3.5277 0.0000 0.0000 0.0000
# 3 2.5339 3.5277 36.6565 0.0000 0.0000 0.0000
# 4 0.0000 0.0000 0.0000 23.9334 0.0000 0.0000
# 5 0.0000 0.0000 0.0000 0.0000 -2.3539 0.0000
# 6 0.0000 0.0000 0.0000 0.0000 0.0000 22.5326
#
#
#
# Elastic Compliance Matrix: (Units=1/GPa)
#
#
# Indices 1 2 3 4 5 6 
#
# 1 -0.029258 0.239072 -0.020985 0.000000 0.000000 0.000000
# 2 0.239072 -1.395429 0.117766 0.000000 0.000000 0.000000
# 3 -0.020985 0.117766 0.017397 0.000000 0.000000 0.000000
# 4 0.000000 0.000000 0.000000 0.041783 0.000000 0.000000
# 5 0.000000 0.000000 0.000000 0.000000 -0.424829 0.000000
# 6 0.000000 0.000000 0.000000 0.000000 0.000000 0.044380
#
#
# Mechanical properties :
#
#
# Convention : Reuss Voigt Hill
#
# Bulk Modulus (GPa) = -1.35947 18.47988 8.56021
# Shear Modulus (GPa) = -1.87768 15.72091 6.92161
#
# Velocity S-wave (km/s) = -0.97603 2.82418 1.87395
# Velocity P-wave (km/s) = 1.39997 4.47330 3.00420
#
# Compressibility (1/GPa) = -0.73558224
#
# Stress axis : x y z
#
# Youngs Moduli (GPa) = -34.17874 -0.71663 57.47993
#
# Poissons Ratio (x) = 0.17133 1.20623
# Poissons Ratio (y) = 8.17119 -6.76921
# Poissons Ratio (z) = -0.71725 0.08439
#
# Static dielectric constant tensor:
#      x y z
#    x 1.702450 0.000000 0.000000 
#    y 0.000000 1.676150 0.000000 
#    z 0.000000 0.000000 2.033570 
# 
# From -- ./inp_files/25421.got.cif
#   From: 2010.05.17/outbox.ucp.g08.bks.cvg/sg59_13_cif.got.tgz:25421.got - 2010.06.11 16:43:56.
