data_PCOD9453384
_publ_section_title
;
Structure prediction by ZEFSAII (Michael W. Deem and Ramdas Pophale) SiO2 
 PCOD9453384
Probable space group: P M M N
;
_chemical_formula_sum "Si O2"
_cell_formula_units_Z 48
_cell_length_a 18.000000
_cell_length_b 9.000000
_cell_length_c 15.000000
_cell_angle_alpha 90.000000
_cell_angle_beta 90.000000
_cell_angle_gamma 90.000000
_cell_volume 2430.000000
_symmetry_space_group_name_H-M "P M M N"
_symmetry_group_IT_number 59
_space_group.IT_coordinate_system_code '2'
_symmetry_cell_setting 'orthorhombic'
loop_
_space_group_symop_operation_xyz
x,y,z
1/2-x,1/2-y,z
1/2+x,-y,-z
-x,1/2+y,-z
-x,-y,-z
1/2+x,1/2+y,-z
1/2-x,y,z
x,1/2-y,z
loop_
_atom_site_type_symbol
_atom_site_label
_atom_site_fract_x
_atom_site_fract_y
_atom_site_fract_z
Si Si1 0.332704 0.927229 0.010203
Si Si2 0.945977 0.083890 0.433781
Si Si3 0.335245 0.580902 0.220695
Si Si4 0.467095 0.086823 0.247638
Si Si5 0.581964 0.574916 0.142607
Si Si6 0.837723 0.580103 0.321509
O O1 0.250000 0.979593 0.982170
O O2 0.335183 0.750000 0.999116
O O3 0.393735 0.999913 0.948368
O O4 0.339542 0.955330 0.115288
O O5 0.933135 0.250000 0.466221
O O6 0.986909 0.087100 0.338149
O O7 0.870263 0.004179 0.406343
O O8 0.000000 0.000000 0.500000
O O9 0.250000 0.574279 0.246735
O O10 0.361444 0.750000 0.233941
O O11 0.385243 0.464559 0.270924
O O12 0.469683 0.250000 0.207380
O O13 0.501624 0.972102 0.177737
O O14 0.588376 0.750000 0.132820
O O15 0.634697 0.522737 0.224862
O O16 0.750000 0.578024 0.322004
O O17 0.865574 0.750000 0.326480
#
# Coordination Sequence:
#
# PCOD9453384 Si02
#       6
#     8   8   8   8   8   8
#     4   9  18  32  49  71 102 138 174 214 257 297
#     4  10  21  37  57  80 105 134 168 207 254 307
#     4   9  19  36  55  74  99 134 175 216 257 300
#     4  10  21  36  54  77 102 130 167 209 256 307
#     4  10  19  31  50  76 105 138 174 210 251 301
#     4   9  18  33  53  78 108 138 168 207 254 302
#
# _framework density 19.753086
#
# number of rings (size 3 to 8) (size 9 to 14) (size 15 to 20)
#    0.000    2.500    0.000    3.000    0.000    5.667 
#    0.000    2.500    0.000    1.000    0.000    0.000 
#    0.000    0.000    0.000    0.000    0.000    0.000 
#
# Total GULP energy -267418.130362 kJ/mol
# GULP energy per Si atom -5571.211049 kJ/mol
# Density = 1.970813 g / cm^3
# Si number density = 19.753086 Si / 1000 Ang^3
#
#
#
# Elastic Constant Matrix: (Units=GPa)
#
#
# Indices 1 2 3 4 5 6 
#
# 1 45.8409 16.4650 -1.5870 0.0000 0.0000 0.0000
# 2 16.4650 4.2856 10.7093 0.0000 0.0000 0.0000
# 3 -1.5870 10.7093 -20.4876 0.0000 0.0000 0.0000
# 4 0.0000 0.0000 0.0000 23.1074 0.0000 0.0000
# 5 0.0000 0.0000 0.0000 0.0000 11.2481 0.0000
# 6 0.0000 0.0000 0.0000 0.0000 0.0000 23.4449
#
#
#
# Elastic Compliance Matrix: (Units=1/GPa)
#
#
# Indices 1 2 3 4 5 6 
#
# 1 0.047105 -0.074518 -0.042601 0.000000 0.000000 0.000000
# 2 -0.074518 0.219063 0.120281 0.000000 0.000000 0.000000
# 3 -0.042601 0.120281 0.017363 0.000000 0.000000 0.000000
# 4 0.000000 0.000000 0.000000 0.043276 0.000000 0.000000
# 5 0.000000 0.000000 0.000000 0.000000 0.088904 0.000000
# 6 0.000000 0.000000 0.000000 0.000000 0.000000 0.042653
#
#
# Mechanical properties :
#
#
# Convention : Reuss Voigt Hill
#
# Bulk Modulus (GPa) = 3.45001 8.97928 6.21464
# Shear Modulus (GPa) = 9.11311 11.83017 10.47164
#
# Velocity S-wave (km/s) = 2.15024 2.44990 2.30495
# Velocity P-wave (km/s) = 2.81337 3.54377 3.19948
#
# Compressibility (1/GPa) = 0.28985439
#
# Stress axis : x y z
#
# Youngs Moduli (GPa) = 21.22914 4.56490 57.59262
#
# Poissons Ratio (x) = 0.34017 2.45351
# Poissons Ratio (y) = 1.58196 -6.92730
# Poissons Ratio (z) = 0.90438 -0.54907
#
# Static dielectric constant tensor:
#      x y z
#    x 1.684610 0.000000 0.000000 
#    y 0.000000 1.722310 0.000000 
#    z 0.000000 0.000000 1.676180 
# 
# From -- ./inp_files/20309.got.cif
#   From: 2010.05.17/outbox.ucp.g08.bks.cvg/sg59_11_cif.got.tgz:20309.got - 2010.06.11 16:43:56.
