data_PCOD9453033
_publ_section_title
;
Structure prediction by ZEFSAII (Michael W. Deem and Ramdas Pophale) SiO2 
 PCOD9453033
Probable space group: P M M N
;
_chemical_formula_sum "Si O2"
_cell_formula_units_Z 40
_cell_length_a 14.780315
_cell_length_b 7.937308
_cell_length_c 17.883229
_cell_angle_alpha 90.000000
_cell_angle_beta 90.000000
_cell_angle_gamma 90.000000
_cell_volume 2097.987328
_symmetry_space_group_name_H-M "P M M N"
_symmetry_group_IT_number 59
_space_group.IT_coordinate_system_code '2'
_symmetry_cell_setting 'orthorhombic'
loop_
_space_group_symop_operation_xyz
x,y,z
1/2-x,1/2-y,z
1/2+x,-y,-z
-x,1/2+y,-z
-x,-y,-z
1/2+x,1/2+y,-z
1/2-x,y,z
x,1/2-y,z
loop_
_atom_site_type_symbol
_atom_site_label
_atom_site_fract_x
_atom_site_fract_y
_atom_site_fract_z
Si Si1 0.443602 0.543304 0.284715
Si Si2 0.513016 0.453331 0.881801
Si Si3 0.055997 0.050180 0.573449
Si Si4 0.250000 0.949878 0.518919
Si Si5 0.250000 0.955879 0.347229
Si Si6 0.353059 0.453183 0.988229
O O1 0.444704 0.750000 0.284117
O O2 0.473543 0.486246 0.202678
O O3 0.509138 0.483475 0.351285
O O4 0.341629 0.492035 0.305890
O O5 0.508759 0.250000 0.879933
O O6 0.421553 0.514044 0.923168
O O7 0.597369 0.501167 0.934393
O O8 0.051210 0.250000 0.578407
O O9 0.159344 0.000707 0.561260
O O10 0.000000 0.000000 0.500000
O O11 0.250000 0.750000 0.512172
O O12 0.250000 0.016331 0.433375
O O13 0.250000 0.750000 0.348791
O O14 0.250000 0.515958 0.983437
O O15 0.350026 0.250000 0.983514
#
# Coordination Sequence:
#
# PCOD9453033 Si02
#       6
#     8   8   8   4   4   8
#     4   9  18  32  52  79 106 133 173 221 262 304
#     4   9  18  33  54  78 100 131 175 214 252 308
#     4  11  21  36  56  80 108 142 182 225 270 322
#     4  11  21  37  57  77 106 145 182 224 275 321
#     4   9  16  29  51  77 104 131 164 216 267 303
#     4   9  18  33  51  74 106 137 164 205 262 312
#
# _framework density 19.065892999999999
#
# number of rings (size 3 to 8) (size 9 to 14) (size 15 to 20)
#    0.000    2.400    2.000    0.900    1.400    0.400 
#    1.800    2.000    0.000    0.000    0.000    0.000 
#    0.000    0.000    0.000    0.000    0.000    0.000 
#
# Total GULP energy -223205.077036 kJ/mol
# GULP energy per Si atom -5580.126926 kJ/mol
# Density = 1.902250 g / cm^3
# Si number density = 19.065893 Si / 1000 Ang^3
#
#
#
# Elastic Constant Matrix: (Units=GPa)
#
#
# Indices 1 2 3 4 5 6 
#
# 1 208.2740 8.7199 123.6540 0.0000 0.0000 0.0000
# 2 8.7199 18.5575 9.2867 0.0000 0.0000 0.0000
# 3 123.6540 9.2867 206.3318 0.0000 0.0000 0.0000
# 4 0.0000 0.0000 0.0000 17.9498 0.0000 0.0000
# 5 0.0000 0.0000 0.0000 0.0000 14.0986 0.0000
# 6 0.0000 0.0000 0.0000 0.0000 0.0000 24.1785
#
#
#
# Elastic Compliance Matrix: (Units=1/GPa)
#
#
# Indices 1 2 3 4 5 6 
#
# 1 0.007484 -0.001301 -0.004427 0.000000 0.000000 0.000000
# 2 -0.001301 0.055355 -0.001711 0.000000 0.000000 0.000000
# 3 -0.004427 -0.001711 0.007576 0.000000 0.000000 0.000000
# 4 0.000000 0.000000 0.000000 0.055711 0.000000 0.000000
# 5 0.000000 0.000000 0.000000 0.000000 0.070929 0.000000
# 6 0.000000 0.000000 0.000000 0.000000 0.000000 0.041359
#
#
# Mechanical properties :
#
#
# Convention : Reuss Voigt Hill
#
# Bulk Modulus (GPa) = 18.00630 79.60939 48.80784
# Shear Modulus (GPa) = 18.39555 30.67890 24.53722
#
# Velocity S-wave (km/s) = 3.10956 4.01571 3.59133
# Velocity P-wave (km/s) = 4.72834 7.95907 6.54614
#
# Compressibility (1/GPa) = 0.05553612
#
# Stress axis : x y z
#
# Youngs Moduli (GPa) = 133.62004 18.06531 131.98908
#
# Poissons Ratio (x) = 0.02351 0.58425
# Poissons Ratio (y) = 0.17390 0.22590
# Poissons Ratio (z) = 0.59147 0.03092
#
# Static dielectric constant tensor:
#      x y z
#    x 1.644560 0.000000 0.000000 
#    y 0.000000 1.696880 0.000000 
#    z 0.000000 0.000000 1.653310 
# 
# From -- ./inp_files/23015.got.cif
#   From: 2010.05.17/outbox.cif.g08.bks.cpg/sg59_12_cif.got.tgz:23015.got - 2010.06.03 14:40:33.
