data_PCOD9453413
_publ_section_title
;
Structure prediction by ZEFSAII (Michael W. Deem and Ramdas Pophale) SiO2 
 PCOD9453413
Probable space group: P M M N
;
_chemical_formula_sum "Si O2"
_cell_formula_units_Z 40
_cell_length_a 9.000000
_cell_length_b 15.000000
_cell_length_c 15.000000
_cell_angle_alpha 90.000000
_cell_angle_beta 90.000000
_cell_angle_gamma 90.000000
_cell_volume 2025.000000
_symmetry_space_group_name_H-M "P M M N"
_symmetry_group_IT_number 59
_space_group.IT_coordinate_system_code '2'
_symmetry_cell_setting 'orthorhombic'
loop_
_space_group_symop_operation_xyz
x,y,z
1/2-x,1/2-y,z
1/2+x,-y,-z
-x,1/2+y,-z
-x,-y,-z
1/2+x,1/2+y,-z
1/2-x,y,z
x,1/2-y,z
loop_
_atom_site_type_symbol
_atom_site_label
_atom_site_fract_x
_atom_site_fract_y
_atom_site_fract_z
Si Si1 0.419686 0.108410 0.090395
Si Si2 0.427004 0.004359 0.595925
Si Si3 0.428283 0.652365 0.725432
Si Si4 0.921572 0.147319 0.713015
Si Si5 0.078785 0.892632 0.088560
O O1 0.250000 0.136521 0.098643
O O2 0.509976 0.139790 0.175702
O O3 0.424761 0.000359 0.090359
O O4 0.487272 0.138275 0.996549
O O5 0.250000 0.999090 0.587704
O O6 0.477180 0.092248 0.647315
O O7 0.500000 0.000000 0.500000
O O8 0.481066 0.923777 0.658959
O O9 0.250000 0.646656 0.730212
O O10 0.469915 0.750000 0.691720
O O11 0.750000 0.113429 0.711282
O O12 0.919140 0.250000 0.687768
O O13 0.974883 0.138696 0.815072
O O14 0.250000 0.864258 0.078505
#
# Coordination Sequence:
#
# PCOD9453413 Si02
#       5
#     8   8   8   8   8
#     4  10  19  32  55  86 120 156 197 242 287 338
#     4  11  24  42  65  89 117 151 193 245 303 358
#     4  10  22  40  61  85 115 154 197 239 290 353
#     4  10  21  39  63  89 119 157 199 242 292 351
#     4   9  18  33  54  83 121 161 198 234 283 346
#
# _framework density 19.753086
#
# number of rings (size 3 to 8) (size 9 to 14) (size 15 to 20)
#    0.000    2.000    2.000    1.200    0.000    4.800 
#    0.000    4.000    0.000    0.000    0.000    0.000 
#    0.000    0.000    0.000    0.000    0.000    0.000 
#
# Total GULP energy -223362.482668 kJ/mol
# GULP energy per Si atom -5584.062067 kJ/mol
# Density = 1.970813 g / cm^3
# Si number density = 19.753086 Si / 1000 Ang^3
#
#
#
# Elastic Constant Matrix: (Units=GPa)
#
#
# Indices 1 2 3 4 5 6 
#
# 1 23.5343 31.2069 40.5456 0.0000 0.0000 0.0000
# 2 31.2069 78.5184 51.0632 0.0000 0.0000 0.0000
# 3 40.5456 51.0632 133.6129 0.0000 0.0000 0.0000
# 4 0.0000 0.0000 0.0000 -93.6148 0.0000 0.0000
# 5 0.0000 0.0000 0.0000 0.0000 34.8764 0.0000
# 6 0.0000 0.0000 0.0000 0.0000 0.0000 16.9987
#
#
#
# Elastic Compliance Matrix: (Units=1/GPa)
#
#
# Indices 1 2 3 4 5 6 
#
# 1 0.141907 -0.037787 -0.028621 0.000000 0.000000 0.000000
# 2 -0.037787 0.027010 0.001144 0.000000 0.000000 0.000000
# 3 -0.028621 0.001144 0.015732 0.000000 0.000000 0.000000
# 4 0.000000 0.000000 0.000000 -0.010682 0.000000 0.000000
# 5 0.000000 0.000000 0.000000 0.000000 0.028673 0.000000
# 6 0.000000 0.000000 0.000000 0.000000 0.000000 0.058828
#
#
# Mechanical properties :
#
#
# Convention : Reuss Voigt Hill
#
# Bulk Modulus (GPa) = 18.47713 53.47746 35.97729
# Shear Modulus (GPa) = 12.19405 -0.82461 5.68472
#
# Velocity S-wave (km/s) = 2.48730 -0.64681 1.69827
# Velocity P-wave (km/s) = 4.19800 5.15499 4.70091
#
# Compressibility (1/GPa) = 0.05412097
#
# Stress axis : x y z
#
# Youngs Moduli (GPa) = 7.04689 37.02326 63.56328
#
# Poissons Ratio (x) = 1.39899 1.81926
# Poissons Ratio (y) = 0.26628 -0.07273
# Poissons Ratio (z) = 0.20169 -0.04236
#
# Static dielectric constant tensor:
#      x y z
#    x 1.677490 0.000000 0.000000 
#    y 0.000000 1.742410 0.000000 
#    z 0.000000 0.000000 1.642370 
# 
# From -- ./inp_files/19846.got.cif
#   From: 2010.05.17/outbox.ucp.g08.bks.cvg/sg59_10_cif.got.tgz:19846.got - 2010.06.11 16:43:56.
