data_PCOD9453185
_publ_section_title
;
Structure prediction by ZEFSAII (Michael W. Deem and Ramdas Pophale) SiO2 
 PCOD9453185
Probable space group: P M M N
;
_chemical_formula_sum "Si O2"
_cell_formula_units_Z 38
_cell_length_a 15.078622
_cell_length_b 9.598606
_cell_length_c 12.583097
_cell_angle_alpha 90.000000
_cell_angle_beta 90.000000
_cell_angle_gamma 90.000000
_cell_volume 1821.198836
_symmetry_space_group_name_H-M "P M M N"
_symmetry_group_IT_number 59
_space_group.IT_coordinate_system_code '2'
_symmetry_cell_setting 'orthorhombic'
loop_
_space_group_symop_operation_xyz
x,y,z
1/2-x,1/2-y,z
1/2+x,-y,-z
-x,1/2+y,-z
-x,-y,-z
1/2+x,1/2+y,-z
1/2-x,y,z
x,1/2-y,z
loop_
_atom_site_type_symbol
_atom_site_label
_atom_site_fract_x
_atom_site_fract_y
_atom_site_fract_z
Si Si1 0.750000 0.471482 0.566457
Si Si2 0.941634 0.750000 0.318344
Si Si3 0.387292 0.405211 0.069868
Si Si4 0.400549 0.750000 0.486772
Si Si5 0.072972 0.999989 0.841710
Si Si6 0.750000 0.750000 0.428257
Si Si7 0.149577 0.750000 0.714513
Si Si8 0.250000 0.583510 0.191756
O O1 0.837955 0.382376 0.538746
O O2 0.750000 0.613009 0.501256
O O3 0.750000 0.486716 0.692967
O O4 0.954893 0.614865 0.244473
O O5 0.840257 0.750000 0.359644
O O6 0.011900 0.750000 0.414880
O O7 0.355586 0.250000 0.097284
O O8 0.487839 0.421427 0.109946
O O9 0.333332 0.526993 0.126508
O O10 0.382807 0.426786 0.943323
O O11 0.415799 0.750000 0.613322
O O12 0.133701 0.886211 0.784708
O O13 0.250000 0.750000 0.672197
O O14 0.250000 0.750000 0.204594
#
# Coordination Sequence:
#
# PCOD9453185 Si02
#       8
#     4   4   8   4   8   2   4   4
#     4  11  24  49  68 102 140 182 228 307 340 424
#     4  12  27  47  72 106 138 196 229 300 352 422
#     4  11  25  46  68 108 140 185 236 295 344 428
#     4  11  24  48  75  98 142 182 247 285 355 418
#     4  11  26  45  73 100 147 181 236 287 361 418
#     4  12  30  44  72 106 146 178 246 288 354 420
#     4  12  26  45  74 108 138 186 231 293 354 430
#     4  12  27  42  76 102 140 187 241 289 365 414
#
# _framework density 20.865376999999999
#
# number of rings (size 3 to 8) (size 9 to 14) (size 15 to 20)
#    0.000    0.632    4.211    2.842    7.368    5.053 
#    0.000    0.000    0.000    0.000    0.000    0.000 
#    0.000    0.000    0.000    0.000    0.000    0.000 
#
# Total GULP energy -212621.568620 kJ/mol
# GULP energy per Si atom -5595.304437 kJ/mol
# Density = 2.081789 g / cm^3
# Si number density = 20.865377 Si / 1000 Ang^3
#
#
#
# Elastic Constant Matrix: (Units=GPa)
#
#
# Indices 1 2 3 4 5 6 
#
# 1 66.2726 13.0179 34.1099 0.0000 0.0000 0.0000
# 2 13.0179 106.8354 38.7108 0.0000 0.0000 0.0000
# 3 34.1099 38.7108 132.5897 0.0000 0.0000 0.0000
# 4 0.0000 0.0000 0.0000 33.6861 0.0000 0.0000
# 5 0.0000 0.0000 0.0000 0.0000 27.7165 0.0000
# 6 0.0000 0.0000 0.0000 0.0000 0.0000 21.5740
#
#
#
# Elastic Compliance Matrix: (Units=1/GPa)
#
#
# Indices 1 2 3 4 5 6 
#
# 1 0.017422 -0.000558 -0.004319 0.000000 0.000000 0.000000
# 2 -0.000558 0.010485 -0.002918 0.000000 0.000000 0.000000
# 3 -0.004319 -0.002918 0.009505 0.000000 0.000000 0.000000
# 4 0.000000 0.000000 0.000000 0.029686 0.000000 0.000000
# 5 0.000000 0.000000 0.000000 0.000000 0.036080 0.000000
# 6 0.000000 0.000000 0.000000 0.000000 0.000000 0.046352
#
#
# Mechanical properties :
#
#
# Convention : Reuss Voigt Hill
#
# Bulk Modulus (GPa) = 45.82363 53.04165 49.43264
# Shear Modulus (GPa) = 29.00342 31.25258 30.12800
#
# Velocity S-wave (km/s) = 3.73235 3.87437 3.80402
# Velocity P-wave (km/s) = 6.37049 6.74465 6.56024
#
# Compressibility (1/GPa) = 0.02182280
#
# Stress axis : x y z
#
# Youngs Moduli (GPa) = 57.39958 95.37059 105.20717
#
# Poissons Ratio (x) = 0.05320 0.45439
# Poissons Ratio (y) = 0.03202 0.30697
# Poissons Ratio (z) = 0.24791 0.27827
#
# Static dielectric constant tensor:
#      x y z
#    x 1.753000 0.000000 0.000000 
#    y 0.000000 1.723180 0.000000 
#    z 0.000000 0.000000 1.724550 
# 
# From -- ./inp_files/17520.got.cif
#   From: 2010.05.17/outbox.cif.g08.bks.cpg/sg59_9_cif.got.tgz:17520.got - 2010.06.03 14:40:33.
