data_PCOD9453361
_publ_section_title
;
Structure prediction by ZEFSAII (Michael W. Deem and Ramdas Pophale) SiO2 
 PCOD9453361
Probable space group: P M M N
;
_chemical_formula_sum "Si O2"
_cell_formula_units_Z 64
_cell_length_a 9.000000
_cell_length_b 30.000000
_cell_length_c 15.000000
_cell_angle_alpha 90.000000
_cell_angle_beta 90.000000
_cell_angle_gamma 90.000000
_cell_volume 4050.000000
_symmetry_space_group_name_H-M "P M M N"
_symmetry_group_IT_number 59
_space_group.IT_coordinate_system_code '2'
_symmetry_cell_setting 'orthorhombic'
loop_
_space_group_symop_operation_xyz
x,y,z
1/2-x,1/2-y,z
1/2+x,-y,-z
-x,1/2+y,-z
-x,-y,-z
1/2+x,1/2+y,-z
1/2-x,y,z
x,1/2-y,z
loop_
_atom_site_type_symbol
_atom_site_label
_atom_site_fract_x
_atom_site_fract_y
_atom_site_fract_z
Si Si1 0.070766 0.446471 0.910262
Si Si2 0.074763 0.801095 0.321378
Si Si3 0.428702 0.199692 0.008600
Si Si4 0.425949 0.697901 0.675431
Si Si5 0.571456 0.043611 0.104732
Si Si6 0.428290 0.352356 0.833772
Si Si7 0.584328 0.696121 0.498319
Si Si8 0.927219 0.138332 0.155033
O O1 0.250000 0.444232 0.918502
O O2 0.030590 0.493737 0.865000
O O3 0.021269 0.401707 0.861472
O O4 0.001253 0.448347 0.008421
O O5 0.250000 0.801345 0.309683
O O6 0.021049 0.750000 0.305969
O O7 0.997646 0.834896 0.255762
O O8 0.029741 0.814266 0.420735
O O9 0.250000 0.199769 0.015158
O O10 0.482171 0.250000 0.027009
O O11 0.492199 0.162963 0.074591
O O12 0.469140 0.183141 0.910236
O O13 0.250000 0.695384 0.654687
O O14 0.458365 0.750000 0.694869
O O15 0.522087 0.681875 0.592752
O O16 0.459318 0.667220 0.758671
O O17 0.750000 0.043751 0.094686
O O18 0.529815 0.086547 0.162592
O O19 0.250000 0.352956 0.827365
O O20 0.750000 0.679817 0.479037
O O21 0.590011 0.750000 0.502628
O O22 0.750000 0.140268 0.139302
#
# Coordination Sequence:
#
# PCOD9453361 Si02
#       8
#     8   8   8   8   8   8   8   8
#     4   9  17  30  47  65  87 117 152 192 234 270
#     4  10  20  32  47  68  93 120 150 185 225 270
#     4  10  20  31  42  59  88 125 160 190 220 260
#     4   9  17  29  44  63  90 122 152 182 219 264
#     4   9  17  29  46  67  89 115 151 193 233 271
#     4  10  19  31  46  64  89 122 157 189 225 269
#     4   9  17  30  48  68  89 115 148 186 225 264
#     4  10  19  30  45  66  92 122 154 188 227 271
#
# _framework density 15.802469
#
# number of rings (size 3 to 8) (size 9 to 14) (size 15 to 20)
#    0.000    2.500    1.250    1.500    0.000    5.000 
#    0.000    1.250    0.000    0.000    0.000    0.875 
#    0.000    0.000    0.000    0.000    0.000    0.000 
#
# Total GULP energy -356336.611736 kJ/mol
# GULP energy per Si atom -5567.759558 kJ/mol
# Density = 1.576650 g / cm^3
# Si number density = 15.802469 Si / 1000 Ang^3
#
#
#
# Elastic Constant Matrix: (Units=GPa)
#
#
# Indices 1 2 3 4 5 6 
#
# 1 -12.4660 12.1686 13.9884 0.0000 0.0000 0.0000
# 2 12.1686 54.8978 34.8475 0.0000 0.0000 0.0000
# 3 13.9884 34.8475 -17.8305 0.0000 0.0000 0.0000
# 4 0.0000 0.0000 0.0000 -27.4947 0.0000 0.0000
# 5 0.0000 0.0000 0.0000 0.0000 18.1740 0.0000
# 6 0.0000 0.0000 0.0000 0.0000 0.0000 15.7447
#
#
#
# Elastic Compliance Matrix: (Units=1/GPa)
#
#
# Indices 1 2 3 4 5 6 
#
# 1 -0.070517 0.022649 -0.011057 0.000000 0.000000 0.000000
# 2 0.022649 0.000855 0.019440 0.000000 0.000000 0.000000
# 3 -0.011057 0.019440 -0.026765 0.000000 0.000000 0.000000
# 4 0.000000 0.000000 0.000000 -0.036371 0.000000 0.000000
# 5 0.000000 0.000000 0.000000 0.000000 0.055024 0.000000
# 6 0.000000 0.000000 0.000000 0.000000 0.000000 0.063513
#
#
# Mechanical properties :
#
#
# Convention : Reuss Voigt Hill
#
# Bulk Modulus (GPa) = -29.10291 16.29004 -6.40644
# Shear Modulus (GPa) = -56.96168 -1.14208 -29.05188
#
# Velocity S-wave (km/s) = -6.01035 -0.85105 -4.29235
# Velocity P-wave (km/s) = 8.16226 3.06026 5.35057
#
# Compressibility (1/GPa) = -0.03436083
#
# Stress axis : x y z
#
# Youngs Moduli (GPa) = -14.18105 1169.30046 -37.36282
#
# Poissons Ratio (x) = -26.48373 -0.41311
# Poissons Ratio (y) = 0.32119 0.72634
# Poissons Ratio (z) = -0.15680 -22.73142
#
# Static dielectric constant tensor:
#      x y z
#    x 1.536070 0.000000 0.000000 
#    y 0.000000 1.537050 0.000000 
#    z 0.000000 0.000000 1.510070 
# 
# From -- ./inp_files/21820.got.cif
#   From: 2010.05.17/outbox.ucp.g08.bks.cvg/sg59_11_cif.got.tgz:21820.got - 2010.06.11 16:43:56.
