data_PCOD9453516
_publ_section_title
;
Structure prediction by ZEFSAII (Michael W. Deem and Ramdas Pophale) SiO2 
 PCOD9453516
Probable space group: P M M N
;
_chemical_formula_sum "Si O2"
_cell_formula_units_Z 64
_cell_length_a 9.000000
_cell_length_b 15.000000
_cell_length_c 24.000000
_cell_angle_alpha 90.000000
_cell_angle_beta 90.000000
_cell_angle_gamma 90.000000
_cell_volume 3240.000000
_symmetry_space_group_name_H-M "P M M N"
_symmetry_group_IT_number 59
_space_group.IT_coordinate_system_code '2'
_symmetry_cell_setting 'orthorhombic'
loop_
_space_group_symop_operation_xyz
x,y,z
1/2-x,1/2-y,z
1/2+x,-y,-z
-x,1/2+y,-z
-x,-y,-z
1/2+x,1/2+y,-z
1/2-x,y,z
x,1/2-y,z
loop_
_atom_site_type_symbol
_atom_site_label
_atom_site_fract_x
_atom_site_fract_y
_atom_site_fract_z
Si Si1 0.572028 0.146418 0.355271
Si Si2 0.418322 0.858356 0.981950
Si Si3 0.920875 0.533515 0.286808
Si Si4 0.423784 0.144195 0.907866
Si Si5 0.571682 0.148940 0.142892
Si Si6 0.083000 0.473405 0.444939
Si Si7 0.417253 0.852023 0.368644
Si Si8 0.078762 0.980531 0.180524
O O1 0.750000 0.148357 0.361839
O O2 0.526135 0.250000 0.342946
O O3 0.497453 0.104354 0.410034
O O4 0.543649 0.065756 0.311004
O O5 0.250000 0.889949 0.992697
O O6 0.411872 0.750000 0.981140
O O7 0.465670 0.882055 0.919886
O O8 0.529521 0.884392 0.030099
O O9 0.750000 0.532529 0.267587
O O10 0.948908 0.611821 0.330903
O O11 0.036897 0.558637 0.239566
O O12 0.250000 0.131114 0.899085
O O13 0.456872 0.250000 0.902063
O O14 0.513573 0.084695 0.865484
O O15 0.750000 0.149291 0.146839
O O16 0.520148 0.250000 0.152130
O O17 0.502465 0.075625 0.181357
O O18 0.250000 0.443452 0.455973
O O19 0.088737 0.567522 0.412485
O O20 0.000000 0.500000 0.500000
O O21 0.250000 0.853166 0.342431
O O22 0.440437 0.750000 0.387874
O O23 0.250000 0.994088 0.171075
#
# Coordination Sequence:
#
# PCOD9453516 Si02
#       8
#     8   8   8   8   8   8   8   8
#     4   9  19  37  60  83 108 144 187 227 273 327
#     4   8  15  31  55  80 106 137 172 213 266 326
#     4  10  21  38  58  80 107 138 178 230 280 327
#     4  10  21  37  57  80 106 138 178 224 272 325
#     4   9  19  37  59  81 108 142 178 219 268 323
#     4  10  20  34  54  84 121 156 189 228 271 314
#     4   9  19  37  59  81 108 146 188 227 273 327
#     4  12  25  38  55  80 110 144 181 224 274 328
#
# _framework density 19.753086
#
# number of rings (size 3 to 8) (size 9 to 14) (size 15 to 20)
#    0.000    2.375    0.000    3.000    0.000    5.000 
#    0.000    3.750    0.000    0.000    0.000    0.000 
#    0.000    0.000    0.000    0.000    0.000    0.000 
#
# Total GULP energy -356413.785920 kJ/mol
# GULP energy per Si atom -5568.965405 kJ/mol
# Density = 1.970813 g / cm^3
# Si number density = 19.753086 Si / 1000 Ang^3
#
#
#
# Elastic Constant Matrix: (Units=GPa)
#
#
# Indices 1 2 3 4 5 6 
#
# 1 -0.7329 9.0731 29.1986 0.0000 0.0000 0.0000
# 2 9.0731 16.9541 3.1385 0.0000 0.0000 0.0000
# 3 29.1986 3.1385 32.8554 0.0000 0.0000 0.0000
# 4 0.0000 0.0000 0.0000 13.2221 0.0000 0.0000
# 5 0.0000 0.0000 0.0000 0.0000 27.1763 0.0000
# 6 0.0000 0.0000 0.0000 0.0000 0.0000 16.0702
#
#
#
# Elastic Compliance Matrix: (Units=1/GPa)
#
#
# Indices 1 2 3 4 5 6 
#
# 1 -0.034420 0.012987 0.029349 0.000000 0.000000 0.000000
# 2 0.012987 0.055144 -0.016809 0.000000 0.000000 0.000000
# 3 0.029349 -0.016809 0.005960 0.000000 0.000000 0.000000
# 4 0.000000 0.000000 0.000000 0.075631 0.000000 0.000000
# 5 0.000000 0.000000 0.000000 0.000000 0.036797 0.000000
# 6 0.000000 0.000000 0.000000 0.000000 0.000000 0.062227
#
#
# Mechanical properties :
#
#
# Convention : Reuss Voigt Hill
#
# Bulk Modulus (GPa) = 12.86386 14.65521 13.75954
# Shear Modulus (GPa) = 28.37712 11.80482 20.09097
#
# Velocity S-wave (km/s) = 3.79435 2.44728 3.19267
# Velocity P-wave (km/s) = 5.07175 3.92694 4.53561
#
# Compressibility (1/GPa) = 0.07773715
#
# Stress axis : x y z
#
# Youngs Moduli (GPa) = -29.05272 18.13420 167.78539
#
# Poissons Ratio (x) = -0.23551 -4.92427
# Poissons Ratio (y) = 0.37732 2.82038
# Poissons Ratio (z) = 0.85266 0.30483
#
# Static dielectric constant tensor:
#      x y z
#    x 1.685170 0.000000 0.000000 
#    y 0.000000 1.679580 0.000000 
#    z 0.000000 0.000000 1.897890 
# 
# From -- ./inp_files/31686.got.cif
#   From: 2010.05.17/outbox.ucp.g08.bks.cvg/sg59_16_cif.got.tgz:31686.got - 2010.06.11 16:43:56.
