data_PCOD9453727
_publ_section_title
;
Structure prediction by ZEFSAII (Michael W. Deem and Ramdas Pophale) SiO2 
 PCOD9453727
Probable space group: P B C N
;
_chemical_formula_sum "Si O2"
_cell_formula_units_Z 64
_cell_length_a 21.410751
_cell_length_b 31.894079
_cell_length_c 5.414309
_cell_angle_alpha 90.000000
_cell_angle_beta 90.000000
_cell_angle_gamma 90.000000
_cell_volume 3697.302668
_symmetry_space_group_name_H-M "P B C N"
_symmetry_group_IT_number 60
_symmetry_cell_setting 'orthorhombic'
loop_
_space_group_symop_operation_xyz
x,y,z
1/2-x,1/2-y,1/2+z
1/2+x,1/2-y,-z
-x,y,1/2-z
-x,-y,-z
1/2+x,1/2+y,1/2-z
1/2-x,1/2+y,z
x,-y,1/2+z
loop_
_atom_site_type_symbol
_atom_site_label
_atom_site_fract_x
_atom_site_fract_y
_atom_site_fract_z
Si Si1 0.653928 0.610473 0.500034
Si Si2 0.733080 0.382413 0.500031
Si Si3 0.333678 0.753524 0.500002
Si Si4 0.702690 0.203508 0.999999
Si Si5 0.887049 0.012930 0.500062
Si Si6 0.747117 0.021902 0.000062
Si Si7 0.965229 0.790735 0.500001
Si Si8 0.015280 0.882592 0.500000
O O1 0.691779 0.620554 0.250779
O O2 0.635253 0.561149 0.500045
O O3 0.586662 0.632480 0.500007
O O4 0.691773 0.620556 0.749300
O O5 0.783674 0.345732 0.500016
O O6 0.762764 0.428670 0.500027
O O7 0.330579 0.780895 0.750190
O O8 0.271446 0.725034 0.500000
O O9 0.394759 0.724847 0.499997
O O10 0.330577 0.780897 0.249821
O O11 0.920165 0.999998 0.250065
O O12 0.822503 0.985371 0.500067
O O13 0.723886 0.000004 0.250073
O O14 0.000000 0.776502 0.250000
O O15 0.971580 0.841415 0.500002
O O16 0.000000 0.776502 0.750000
O O17 0.000000 0.906480 0.750000
O O18 0.000000 0.906480 0.250000
#
# Coordination Sequence:
#
# PCOD9453727 Si02
#       8
#     8   8   8   8   8   8   8   8
#     4  12  21  31  54  73 103 127 167 238 248 316
#     4  12  21  31  53  82  99 135 178 214 259 312
#     4  10  21  41  52  73 111 132 175 216 274 342
#     4  10  23  35  55  78 101 147 164 214 279 321
#     4  10  16  30  46  70  92 135 169 200 268 305
#     4  10  16  30  45  73 101 129 175 207 245 312
#     4  10  21  35  58  78  95 133 173 220 270 311
#     4  10  23  37  47  74  94 121 165 222 289 294
#
# _framework density 17.309916000000001
#
# number of rings (size 3 to 8) (size 9 to 14) (size 15 to 20)
#    0.000    1.500    5.000    2.250    7.000    0.000 
#    0.000    0.000    0.000    2.250    0.000    0.000 
#    0.000    0.000    0.000    0.000    0.000   43.750 
#
# Total GULP energy -357304.326117 kJ/mol
# GULP energy per Si atom -5582.880096 kJ/mol
# Density = 1.727052 g / cm^3
# Si number density = 17.309916 Si / 1000 Ang^3
#
#
#
# Elastic Constant Matrix: (Units=GPa)
#
#
# Indices 1 2 3 4 5 6 
#
# 1 32.7917 18.9962 19.9353 0.0000 0.0000 0.0000
# 2 18.9962 98.9745 27.1173 0.0000 0.0000 0.0000
# 3 19.9353 27.1173 183.2732 0.0000 0.0000 0.0000
# 4 0.0000 0.0000 0.0000 14.4948 0.0000 0.0000
# 5 0.0000 0.0000 0.0000 0.0000 13.3380 0.0000
# 6 0.0000 0.0000 0.0000 0.0000 0.0000 19.6328
#
#
#
# Elastic Compliance Matrix: (Units=1/GPa)
#
#
# Indices 1 2 3 4 5 6 
#
# 1 0.035827 -0.006054 -0.003001 0.000000 0.000000 0.000000
# 2 -0.006054 0.011553 -0.001051 0.000000 0.000000 0.000000
# 3 -0.003001 -0.001051 0.005938 0.000000 0.000000 0.000000
# 4 0.000000 0.000000 0.000000 0.068990 0.000000 0.000000
# 5 0.000000 0.000000 0.000000 0.000000 0.074974 0.000000
# 6 0.000000 0.000000 0.000000 0.000000 0.000000 0.050935
#
#
# Mechanical properties :
#
#
# Convention : Reuss Voigt Hill
#
# Bulk Modulus (GPa) = 30.20560 49.68189 39.94374
# Shear Modulus (GPa) = 17.89127 26.09251 21.99189
#
# Velocity S-wave (km/s) = 3.21843 3.88670 3.56824
# Velocity P-wave (km/s) = 5.59453 6.99326 6.33263
#
# Compressibility (1/GPa) = 0.03310645
#
# Stress axis : x y z
#
# Youngs Moduli (GPa) = 27.91179 86.55393 168.39838
#
# Poissons Ratio (x) = 0.52400 0.50542
# Poissons Ratio (y) = 0.16898 0.17698
# Poissons Ratio (z) = 0.08377 0.09096
#
# Static dielectric constant tensor:
#      x y z
#    x 1.549940 0.000000 0.000000 
#    y 0.000000 1.595190 0.000000 
#    z 0.000000 0.000000 1.702430 
# 
# From -- ./inp_files/1910.got.cif
#   From: 2010.05.17/outbox.cif.g08.bks.cpg/sg60_1_cif.got.tgz:1910.got - 2010.06.03 14:59:27.
