data_PCOD9453081
_publ_section_title
;
Structure prediction by ZEFSAII (Michael W. Deem and Ramdas Pophale) SiO2 
 PCOD9453081
Probable space group: P M M N
;
_chemical_formula_sum "Si O2"
_cell_formula_units_Z 28
_cell_length_a 14.233785
_cell_length_b 14.578476
_cell_length_c 6.607305
_cell_angle_alpha 90.000000
_cell_angle_beta 90.000000
_cell_angle_gamma 90.000000
_cell_volume 1371.061332
_symmetry_space_group_name_H-M "P M M N"
_symmetry_group_IT_number 59
_space_group.IT_coordinate_system_code '2'
_symmetry_cell_setting 'orthorhombic'
loop_
_space_group_symop_operation_xyz
x,y,z
1/2-x,1/2-y,z
1/2+x,-y,-z
-x,1/2+y,-z
-x,-y,-z
1/2+x,1/2+y,-z
1/2-x,y,z
x,1/2-y,z
loop_
_atom_site_type_symbol
_atom_site_label
_atom_site_fract_x
_atom_site_fract_y
_atom_site_fract_z
Si Si1 0.146078 0.439232 0.057389
Si Si2 0.949095 0.250000 0.837234
Si Si3 0.357180 0.750000 0.559837
Si Si4 0.052041 0.595664 0.819759
Si Si5 0.151078 0.250000 0.813679
O O1 0.250000 0.461733 0.139734
O O2 0.116713 0.510349 0.881152
O O3 0.151615 0.339123 0.956380
O O4 0.056000 0.436880 0.206119
O O5 0.865545 0.250000 0.680315
O O6 0.048267 0.250000 0.714581
O O7 0.946663 0.162193 0.983075
O O8 0.250000 0.750000 0.631591
O O9 0.408442 0.840763 0.643649
O O10 0.250000 0.250000 0.693978
#
# Coordination Sequence:
#
# PCOD9453081 Si02
#       5
#     8   4   4   8   4
#     4   9  16  31  56  79 103 138 172 207 256 305
#     4   9  19  35  53  76 104 134 171 211 253 305
#     4  11  22  35  53  77 105 136 170 211 259 306
#     4   9  19  35  54  78 107 135 169 213 255 303
#     4   8  15  30  52  75 101 134 169 208 256 305
#
# _framework density 20.422135999999998
#
# number of rings (size 3 to 8) (size 9 to 14) (size 15 to 20)
#    0.000    2.857    0.000    1.714    0.000    3.429 
#    0.000   14.286    0.000    6.857    0.000    0.000 
#    0.000    0.000    0.000    0.000    0.000    0.000 
#
# Total GULP energy -155955.184166 kJ/mol
# GULP energy per Si atom -5569.828006 kJ/mol
# Density = 2.037565 g / cm^3
# Si number density = 20.422136 Si / 1000 Ang^3
#
#
#
# Elastic Constant Matrix: (Units=GPa)
#
#
# Indices 1 2 3 4 5 6 
#
# 1 125.5770 6.5826 10.4260 0.0000 0.0000 0.0000
# 2 6.5826 78.3661 -6.5609 0.0000 0.0000 0.0000
# 3 10.4260 -6.5609 26.3508 0.0000 0.0000 0.0000
# 4 0.0000 0.0000 0.0000 -6.6310 0.0000 0.0000
# 5 0.0000 0.0000 0.0000 0.0000 13.3887 0.0000
# 6 0.0000 0.0000 0.0000 0.0000 0.0000 44.7171
#
#
#
# Elastic Compliance Matrix: (Units=1/GPa)
#
#
# Indices 1 2 3 4 5 6 
#
# 1 0.008309 -0.000994 -0.003535 0.000000 0.000000 0.000000
# 2 -0.000994 0.013151 0.003668 0.000000 0.000000 0.000000
# 3 -0.003535 0.003668 0.040261 0.000000 0.000000 0.000000
# 4 0.000000 0.000000 0.000000 -0.150808 0.000000 0.000000
# 5 0.000000 0.000000 0.000000 0.000000 0.074690 0.000000
# 6 0.000000 0.000000 0.000000 0.000000 0.000000 0.022363
#
#
# Mechanical properties :
#
#
# Convention : Reuss Voigt Hill
#
# Bulk Modulus (GPa) = 16.66694 27.90992 22.28843
# Shear Modulus (GPa) = 168.41410 24.95136 96.68273
#
# Velocity S-wave (km/s) = 9.09096 3.49919 6.88803
# Velocity P-wave (km/s) = 10.87993 5.47923 8.61379
#
# Compressibility (1/GPa) = 0.05999902
#
# Stress axis : x y z
#
# Youngs Moduli (GPa) = 120.35388 76.03886 24.83771
#
# Poissons Ratio (x) = 0.07557 0.08780
# Poissons Ratio (y) = 0.11962 -0.09110
# Poissons Ratio (z) = 0.42545 -0.27888
#
# Static dielectric constant tensor:
#      x y z
#    x 1.822300 0.000000 0.000000 
#    y 0.000000 1.738360 0.000000 
#    z 0.000000 0.000000 1.679260 
# 
# From -- ./inp_files/2476.got.cif
#   From: 2010.05.17/outbox.cif.g08.bks.cpg/sg59_2_cif.got.tgz:2476.got - 2010.06.03 14:40:33.
