data_PCOD9453047
_publ_section_title
;
Structure prediction by ZEFSAII (Michael W. Deem and Ramdas Pophale) SiO2 
 PCOD9453047
Probable space group: P M M N
;
_chemical_formula_sum "Si O2"
_cell_formula_units_Z 48
_cell_length_a 17.506692
_cell_length_b 7.842084
_cell_length_c 17.541169
_cell_angle_alpha 90.000000
_cell_angle_beta 90.000000
_cell_angle_gamma 90.000000
_cell_volume 2408.208660
_symmetry_space_group_name_H-M "P M M N"
_symmetry_group_IT_number 59
_space_group.IT_coordinate_system_code '2'
_symmetry_cell_setting 'orthorhombic'
loop_
_space_group_symop_operation_xyz
x,y,z
1/2-x,1/2-y,z
1/2+x,-y,-z
-x,1/2+y,-z
-x,-y,-z
1/2+x,1/2+y,-z
1/2-x,y,z
x,1/2-y,z
loop_
_atom_site_type_symbol
_atom_site_label
_atom_site_fract_x
_atom_site_fract_y
_atom_site_fract_z
Si Si1 0.656676 0.750000 0.397350
Si Si2 0.662256 0.042204 0.676839
Si Si3 0.577998 0.452035 0.828073
Si Si4 0.343210 0.554342 0.493699
Si Si5 0.088593 0.938103 0.869602
Si Si6 0.158731 0.250000 0.777317
Si Si7 0.162389 0.454744 0.022515
O O1 0.750000 0.750000 0.397058
O O2 0.632052 0.581512 0.443343
O O3 0.630842 0.750000 0.310043
O O4 0.750000 0.984004 0.686891
O O5 0.664092 0.250000 0.678157
O O6 0.610376 0.986566 0.747064
O O7 0.634982 0.997022 0.591871
O O8 0.561636 0.250000 0.822352
O O9 0.501089 0.543731 0.853924
O O10 0.639926 0.481025 0.894090
O O11 0.250000 0.556665 0.493297
O O12 0.368008 0.750000 0.507074
O O13 0.115178 0.750000 0.847525
O O14 0.129725 0.084474 0.821643
O O15 0.107720 0.968567 0.958180
O O16 0.250000 0.250000 0.777370
O O17 0.250000 0.499520 0.004334
O O18 0.155393 0.250000 0.020604
#
# Coordination Sequence:
#
# PCOD9453047 Si02
#       7
#     4   8   8   8   8   4   8
#     4   9  18  32  56  87 115 146 189 245 301 354
#     4   8  15  29  53  86 123 162 202 245 296 351
#     4  11  21  37  60  89 124 167 205 247 294 358
#     4   8  14  28  50  81 119 152 187 239 297 351
#     4  12  25  43  64  87 120 163 203 248 303 361
#     4  11  24  44  66  91 118 148 199 257 306 358
#     4  11  23  40  61  89 126 158 201 257 299 347
#
# _framework density 19.931826999999998
#
# number of rings (size 3 to 8) (size 9 to 14) (size 15 to 20)
#    0.000    2.000    1.667    3.500    0.000    3.667 
#    3.000    1.667    0.000    1.000    0.000    0.000 
#    0.000    0.000    0.000    0.000    0.000    0.000 
#
# Total GULP energy -268152.617083 kJ/mol
# GULP energy per Si atom -5586.512856 kJ/mol
# Density = 1.988646 g / cm^3
# Si number density = 19.931827 Si / 1000 Ang^3
#
#
#
# Elastic Constant Matrix: (Units=GPa)
#
#
# Indices 1 2 3 4 5 6 
#
# 1 17.5910 3.5150 -11.1149 0.0000 0.0000 0.0000
# 2 3.5150 100.4355 36.3373 0.0000 0.0000 0.0000
# 3 -11.1149 36.3373 94.8914 0.0000 0.0000 0.0000
# 4 0.0000 0.0000 0.0000 0.8903 0.0000 0.0000
# 5 0.0000 0.0000 0.0000 0.0000 -21.9137 0.0000
# 6 0.0000 0.0000 0.0000 0.0000 0.0000 4.9216
#
#
#
# Elastic Compliance Matrix: (Units=1/GPa)
#
#
# Indices 1 2 3 4 5 6 
#
# 1 0.064139 -0.005761 0.009719 0.000000 0.000000 0.000000
# 2 -0.005761 0.012075 -0.005299 0.000000 0.000000 0.000000
# 3 0.009719 -0.005299 0.013706 0.000000 0.000000 0.000000
# 4 0.000000 0.000000 0.000000 1.123211 0.000000 0.000000
# 5 0.000000 0.000000 0.000000 0.000000 -0.045634 0.000000
# 6 0.000000 0.000000 0.000000 0.000000 0.000000 0.203184
#
#
# Mechanical properties :
#
#
# Convention : Reuss Voigt Hill
#
# Bulk Modulus (GPa) = 11.46280 30.04364 20.75322
# Shear Modulus (GPa) = 3.56521 9.05835 6.31178
#
# Velocity S-wave (km/s) = 1.33887 2.13414 1.78145
# Velocity P-wave (km/s) = 2.85545 4.60202 3.82964
#
# Compressibility (1/GPa) = 0.08723874
#
# Stress axis : x y z
#
# Youngs Moduli (GPa) = 15.59103 82.81303 72.96126
#
# Poissons Ratio (x) = 0.47709 -0.70911
# Poissons Ratio (y) = 0.08982 0.38661
# Poissons Ratio (z) = -0.15153 0.43882
#
# Static dielectric constant tensor:
#      x y z
#    x 1.697270 0.000000 0.000000 
#    y 0.000000 1.702060 0.000000 
#    z 0.000000 0.000000 1.681720 
# 
# From -- ./inp_files/23704.got.cif
#   From: 2010.05.17/outbox.cif.g08.bks.cpg/sg59_12_cif.got.tgz:23704.got - 2010.06.03 14:40:33.
