data_PCOD9453943
_publ_section_title
;
Structure prediction by ZEFSAII (Michael W. Deem and Ramdas Pophale) SiO2 
 PCOD9453943
Probable space group: P B C N
;
_chemical_formula_sum "Si O2"
_cell_formula_units_Z 60
_cell_length_a 14.169346
_cell_length_b 17.599760
_cell_length_c 11.089103
_cell_angle_alpha 90.000000
_cell_angle_beta 90.000000
_cell_angle_gamma 90.000000
_cell_volume 2765.368225
_symmetry_space_group_name_H-M "P B C N"
_symmetry_group_IT_number 60
_symmetry_cell_setting 'orthorhombic'
loop_
_space_group_symop_operation_xyz
x,y,z
1/2-x,1/2-y,1/2+z
1/2+x,1/2-y,-z
-x,y,1/2-z
-x,-y,-z
1/2+x,1/2+y,1/2-z
1/2-x,1/2+y,z
x,-y,1/2+z
loop_
_atom_site_type_symbol
_atom_site_label
_atom_site_fract_x
_atom_site_fract_y
_atom_site_fract_z
Si Si1 0.230605 0.579266 0.964731
Si Si2 0.654816 0.352873 0.576727
Si Si3 0.880589 0.322025 0.837819
Si Si4 0.820826 0.027493 0.875303
Si Si5 0.809651 0.547056 0.200793
Si Si6 0.000000 0.079205 0.750000
Si Si7 0.291655 0.722132 0.866497
Si Si8 0.982095 0.797600 0.039991
O O1 0.178982 0.633715 0.060116
O O2 0.322023 0.540229 0.025817
O O3 0.171358 0.508703 0.911080
O O4 0.261297 0.635216 0.858100
O O5 0.677030 0.394804 0.450459
O O6 0.712992 0.405329 0.670683
O O7 0.705899 0.273036 0.589940
O O8 0.543667 0.332502 0.569344
O O9 0.887559 0.391549 0.739942
O O10 0.829111 0.257375 0.757963
O O11 0.964425 0.275585 0.901672
O O12 0.910366 0.029695 0.788374
O O13 0.723493 0.007506 0.808736
O O14 0.979182 0.135900 0.639929
O O15 0.373372 0.725841 0.968836
#
# Coordination Sequence:
#
# PCOD9453943 Si02
#       8
#     8   8   8   8   8   4   8   8
#     4  10  20  34  55  86 114 151 190 228 289 342
#     4   9  20  34  51  83 110 142 191 230 275 338
#     4  10  20  36  54  83 115 144 193 232 270 342
#     4   9  19  34  52  80 117 146 183 230 284 347
#     4   9  19  34  55  77 111 156 176 227 290 332
#     4  10  18  30  54  82 110 142 180 230 282 332
#     4  11  20  33  59  83 110 151 186 236 286 323
#     4  11  19  33  55  83 109 142 196 231 269 339
#
# _framework density 21.696928
#
# number of rings (size 3 to 8) (size 9 to 14) (size 15 to 20)
#    0.000    2.133    2.667    0.800    1.867    1.067 
#    0.000    4.000    0.000   21.600    0.000    0.000 
#    0.000    0.000    0.000    0.000    0.000    0.000 
#
# Total GULP energy -334146.692024 kJ/mol
# GULP energy per Si atom -5569.111534 kJ/mol
# Density = 2.164755 g / cm^3
# Si number density = 21.696928 Si / 1000 Ang^3
#
#
#
# Elastic Constant Matrix: (Units=GPa)
#
#
# Indices 1 2 3 4 5 6 
#
# 1 19.7636 8.3239 -5.3758 0.0000 0.0000 0.0000
# 2 8.3239 117.5803 20.8469 0.0000 0.0000 0.0000
# 3 -5.3758 20.8469 33.4336 0.0000 0.0000 0.0000
# 4 0.0000 0.0000 0.0000 25.6335 0.0000 0.0000
# 5 0.0000 0.0000 0.0000 0.0000 20.7029 0.0000
# 6 0.0000 0.0000 0.0000 0.0000 0.0000 27.4377
#
#
#
# Elastic Compliance Matrix: (Units=1/GPa)
#
#
# Indices 1 2 3 4 5 6 
#
# 1 0.056832 -0.006345 0.013094 0.000000 0.000000 0.000000
# 2 -0.006345 0.010270 -0.007424 0.000000 0.000000 0.000000
# 3 0.013094 -0.007424 0.036645 0.000000 0.000000 0.000000
# 4 0.000000 0.000000 0.000000 0.039011 0.000000 0.000000
# 5 0.000000 0.000000 0.000000 0.000000 0.048302 0.000000
# 6 0.000000 0.000000 0.000000 0.000000 0.000000 0.036446
#
#
# Mechanical properties :
#
#
# Convention : Reuss Voigt Hill
#
# Bulk Modulus (GPa) = 9.76583 24.26304 17.01443
# Shear Modulus (GPa) = 19.01219 24.55365 21.78292
#
# Velocity S-wave (km/s) = 2.96338 3.36767 3.17198
# Velocity P-wave (km/s) = 4.02736 5.13114 4.61239
#
# Compressibility (1/GPa) = 0.10239789
#
# Stress axis : x y z
#
# Youngs Moduli (GPa) = 17.59564 97.36824 27.28916
#
# Poissons Ratio (x) = 0.61780 -0.35733
# Poissons Ratio (y) = 0.11164 0.20260
# Poissons Ratio (z) = -0.23040 0.72287
#
# Static dielectric constant tensor:
#      x y z
#    x 1.812760 0.000000 0.000000 
#    y 0.000000 1.811610 0.000000 
#    z 0.000000 0.000000 1.904530 
# 
# From -- ./inp_files/12109.got.cif
#   From: 2010.05.17/outbox.cif.g08.bks.cpg/sg60_7_cif.got.tgz:12109.got - 2010.06.03 14:59:27.
