data_PCOD9453071
_publ_section_title
;
Structure prediction by ZEFSAII (Michael W. Deem and Ramdas Pophale) SiO2 
 PCOD9453071
Probable space group: P M M N
;
_chemical_formula_sum "Si O2"
_cell_formula_units_Z 56
_cell_length_a 8.985609
_cell_length_b 18.782024
_cell_length_c 20.061121
_cell_angle_alpha 90.000000
_cell_angle_beta 90.000000
_cell_angle_gamma 90.000000
_cell_volume 3385.673742
_symmetry_space_group_name_H-M "P M M N"
_symmetry_group_IT_number 59
_space_group.IT_coordinate_system_code '2'
_symmetry_cell_setting 'orthorhombic'
loop_
_space_group_symop_operation_xyz
x,y,z
1/2-x,1/2-y,z
1/2+x,-y,-z
-x,1/2+y,-z
-x,-y,-z
1/2+x,1/2+y,-z
1/2-x,y,z
x,1/2-y,z
loop_
_atom_site_type_symbol
_atom_site_label
_atom_site_fract_x
_atom_site_fract_y
_atom_site_fract_z
Si Si1 0.581496 0.833176 0.134987
Si Si2 0.430266 0.166883 0.569573
Si Si3 0.428516 0.063028 0.457085
Si Si4 0.069964 0.538122 0.343846
Si Si5 0.424509 0.540462 0.191110
Si Si6 0.420540 0.166915 0.024597
Si Si7 0.575790 0.466304 0.065838
O O1 0.750000 0.857394 0.151846
O O2 0.571918 0.750000 0.149826
O O3 0.459685 0.877973 0.172995
O O4 0.563663 0.841733 0.055342
O O5 0.250000 0.164855 0.576069
O O6 0.475781 0.250000 0.578509
O O7 0.470284 0.135955 0.495385
O O8 0.498258 0.108016 0.620623
O O9 0.250000 0.059768 0.461229
O O10 0.500000 0.000000 0.500000
O O11 0.468120 0.035302 0.383222
O O12 0.250000 0.547241 0.346532
O O13 0.025542 0.529947 0.267010
O O14 0.250000 0.524710 0.186248
O O15 0.510011 0.497768 0.133727
O O16 0.250000 0.146334 0.041188
O O17 0.439144 0.250000 0.039367
O O18 0.535375 0.116605 0.061123
O O19 0.750000 0.479877 0.062313
O O20 0.500000 0.500000 0.000000
#
# Coordination Sequence:
#
# PCOD9453071 Si02
#       7
#     8   8   8   8   8   8   8
#     4   9  18  32  49  69  95 127 161 200 250 305
#     4   9  17  29  49  77 103 128 161 201 244 291
#     4   8  14  28  48  68  93 125 160 198 235 278
#     4   9  19  33  48  68  98 135 170 203 243 293
#     4  11  22  34  49  71  99 134 173 212 254 302
#     4   9  18  34  55  76  98 124 157 203 257 308
#     4  12  23  35  53  76 101 130 170 218 262 305
#
# _framework density 16.540282000000001
#
# number of rings (size 3 to 8) (size 9 to 14) (size 15 to 20)
#    0.000    2.429    1.429    2.571    0.000    2.571 
#    0.000    4.286    0.000    0.857    0.000    4.000 
#    0.000    0.000    0.000    0.000    0.000    0.000 
#
# Total GULP energy -311782.559350 kJ/mol
# GULP energy per Si atom -5567.545703 kJ/mol
# Density = 1.650264 g / cm^3
# Si number density = 16.540282 Si / 1000 Ang^3
#
#
#
# Elastic Constant Matrix: (Units=GPa)
#
#
# Indices 1 2 3 4 5 6 
#
# 1 48.0244 28.0658 46.8334 0.0000 0.0000 0.0000
# 2 28.0658 49.9961 50.8290 0.0000 0.0000 0.0000
# 3 46.8334 50.8290 114.6546 0.0000 0.0000 0.0000
# 4 0.0000 0.0000 0.0000 18.0435 0.0000 0.0000
# 5 0.0000 0.0000 0.0000 0.0000 19.7411 0.0000
# 6 0.0000 0.0000 0.0000 0.0000 0.0000 26.0590
#
#
#
# Elastic Compliance Matrix: (Units=1/GPa)
#
#
# Indices 1 2 3 4 5 6 
#
# 1 0.037103 -0.009867 -0.010781 0.000000 0.000000 0.000000
# 2 -0.009867 0.039038 -0.013276 0.000000 0.000000 0.000000
# 3 -0.010781 -0.013276 0.019011 0.000000 0.000000 0.000000
# 4 0.000000 0.000000 0.000000 0.055422 0.000000 0.000000
# 5 0.000000 0.000000 0.000000 0.000000 0.050656 0.000000
# 6 0.000000 0.000000 0.000000 0.000000 0.000000 0.038374
#
#
# Mechanical properties :
#
#
# Convention : Reuss Voigt Hill
#
# Bulk Modulus (GPa) = 36.62566 51.57018 44.09792
# Shear Modulus (GPa) = 15.79510 18.56517 17.18013
#
# Velocity S-wave (km/s) = 3.09357 3.35389 3.22636
# Velocity P-wave (km/s) = 5.91199 6.80032 6.37166
#
# Compressibility (1/GPa) = 0.02730326
#
# Stress axis : x y z
#
# Youngs Moduli (GPa) = 26.95178 25.61629 52.60074
#
# Poissons Ratio (x) = 0.25277 0.56710
# Poissons Ratio (y) = 0.26595 0.69831
# Poissons Ratio (z) = 0.29057 0.34007
#
# Static dielectric constant tensor:
#      x y z
#    x 1.566390 0.000000 0.000000 
#    y 0.000000 1.582630 0.000000 
#    z 0.000000 0.000000 1.571390 
# 
# From -- ./inp_files/29337.got.cif
#   From: 2010.05.17/outbox.cif.g08.bks.cpg/sg59_15_cif.got.tgz:29337.got - 2010.06.03 14:40:33.
