data_PCOD9453718
_publ_section_title
;
Structure prediction by ZEFSAII (Michael W. Deem and Ramdas Pophale) SiO2 
 PCOD9453718
Probable space group: P B C N
;
_chemical_formula_sum "Si O2"
_cell_formula_units_Z 52
_cell_length_a 9.884476
_cell_length_b 33.153161
_cell_length_c 9.146553
_cell_angle_alpha 90.000000
_cell_angle_beta 90.000000
_cell_angle_gamma 90.000000
_cell_volume 2997.340274
_symmetry_space_group_name_H-M "P B C N"
_symmetry_group_IT_number 60
_symmetry_cell_setting 'orthorhombic'
loop_
_space_group_symop_operation_xyz
x,y,z
1/2-x,1/2-y,1/2+z
1/2+x,1/2-y,-z
-x,y,1/2-z
-x,-y,-z
1/2+x,1/2+y,1/2-z
1/2-x,1/2+y,z
x,-y,1/2+z
loop_
_atom_site_type_symbol
_atom_site_label
_atom_site_fract_x
_atom_site_fract_y
_atom_site_fract_z
Si Si1 0.332247 0.446677 0.241886
Si Si2 0.521347 0.349654 0.999104
Si Si3 0.360555 0.480653 0.937189
Si Si4 0.787294 0.141824 0.760957
Si Si5 0.578297 0.263018 0.560415
Si Si6 0.324784 0.777747 0.146098
Si Si7 0.000000 0.914309 0.750000
O O1 0.500000 0.441170 0.250000
O O2 0.295039 0.481829 0.354585
O O3 0.258807 0.404675 0.272435
O O4 0.295548 0.461578 0.080079
O O5 0.642503 0.342037 0.112829
O O6 0.396797 0.360922 0.106664
O O7 0.480594 0.308032 0.923110
O O8 0.546767 0.385055 0.882195
O O9 0.392813 0.445141 0.821998
O O10 0.500000 0.500000 0.000000
O O11 0.680769 0.175011 0.812874
O O12 0.651394 0.247444 0.706283
O O13 0.684574 0.265517 0.429274
O O14 0.450052 0.233638 0.541983
#
# Coordination Sequence:
#
# PCOD9453718 Si02
#       7
#     8   8   8   8   8   8   4
#     4  10  16  27  39  63  92 133 175 207 259 320
#     4  10  19  28  46  67  97 135 171 212 258 317
#     4  10  17  23  37  59  93 132 168 210 257 316
#     4  10  18  31  46  66  95 137 174 208 257 314
#     4  10  21  38  53  80 105 140 180 219 265 316
#     4  10  21  35  55  75 106 140 178 223 262 315
#     4  12  16  24  40  64  94 134 174 212 258 320
#
# _framework density 17.348714999999999
#
# number of rings (size 3 to 8) (size 9 to 14) (size 15 to 20)
#    0.000    1.846    5.385    2.769    0.000    1.846 
#    0.000    0.000    0.000    0.000    0.000    0.000 
#    0.000    4.923    0.000    0.000    0.615    0.154 
#
# Total GULP energy -289582.766296 kJ/mol
# GULP energy per Si atom -5568.899352 kJ/mol
# Density = 1.730923 g / cm^3
# Si number density = 17.348715 Si / 1000 Ang^3
#
#
#
# Elastic Constant Matrix: (Units=GPa)
#
#
# Indices 1 2 3 4 5 6 
#
# 1 30.1727 44.7899 14.9272 0.0000 0.0000 0.0000
# 2 44.7899 146.6927 54.1867 0.0000 0.0000 0.0000
# 3 14.9272 54.1867 81.7023 0.0000 0.0000 0.0000
# 4 0.0000 0.0000 0.0000 37.5127 0.0000 0.0000
# 5 0.0000 0.0000 0.0000 0.0000 20.4229 0.0000
# 6 0.0000 0.0000 0.0000 0.0000 0.0000 2.8491
#
#
#
# Elastic Compliance Matrix: (Units=1/GPa)
#
#
# Indices 1 2 3 4 5 6 
#
# 1 0.060774 -0.019145 0.001594 0.000000 0.000000 0.000000
# 2 -0.019145 0.015060 -0.006490 0.000000 0.000000 0.000000
# 3 0.001594 -0.006490 0.016253 0.000000 0.000000 0.000000
# 4 0.000000 0.000000 0.000000 0.026658 0.000000 0.000000
# 5 0.000000 0.000000 0.000000 0.000000 0.048965 0.000000
# 6 0.000000 0.000000 0.000000 0.000000 0.000000 0.350992
#
#
# Mechanical properties :
#
#
# Convention : Reuss Voigt Hill
#
# Bulk Modulus (GPa) = 22.72532 54.04172 38.38352
# Shear Modulus (GPa) = 8.59917 21.80118 15.20017
#
# Velocity S-wave (km/s) = 2.22877 3.54876 2.96320
# Velocity P-wave (km/s) = 4.44419 6.92889 5.82067
#
# Compressibility (1/GPa) = 0.04400377
#
# Stress axis : x y z
#
# Youngs Moduli (GPa) = 16.45449 66.40139 61.52769
#
# Poissons Ratio (x) = 1.27124 -0.09806
# Poissons Ratio (y) = 0.31502 0.39933
# Poissons Ratio (z) = -0.02622 0.43096
#
# Static dielectric constant tensor:
#      x y z
#    x 1.602360 0.000000 0.000000 
#    y 0.000000 1.626400 0.000000 
#    z 0.000000 0.000000 1.616740 
# 
# From -- ./inp_files/5281.got.cif
#   From: 2010.05.17/outbox.cif.g08.bks.cpg/sg60_3_cif.got.tgz:5281.got - 2010.06.03 14:59:27.
