data_PCOD9453748
_publ_section_title
;
Structure prediction by ZEFSAII (Michael W. Deem and Ramdas Pophale) SiO2 
 PCOD9453748
Probable space group: P B C N
;
_chemical_formula_sum "Si O2"
_cell_formula_units_Z 52
_cell_length_a 18.004772
_cell_length_b 8.297305
_cell_length_c 14.747380
_cell_angle_alpha 90.000000
_cell_angle_beta 90.000000
_cell_angle_gamma 90.000000
_cell_volume 2203.127095
_symmetry_space_group_name_H-M "P B C N"
_symmetry_group_IT_number 60
_symmetry_cell_setting 'orthorhombic'
loop_
_space_group_symop_operation_xyz
x,y,z
1/2-x,1/2-y,1/2+z
1/2+x,1/2-y,-z
-x,y,1/2-z
-x,-y,-z
1/2+x,1/2+y,1/2-z
1/2-x,1/2+y,z
x,-y,1/2+z
loop_
_atom_site_type_symbol
_atom_site_label
_atom_site_fract_x
_atom_site_fract_y
_atom_site_fract_z
Si Si1 0.520614 0.736294 0.061592
Si Si2 0.000000 0.677641 0.750000
Si Si3 0.290842 0.652606 0.665221
Si Si4 0.137583 0.531327 0.965816
Si Si5 0.384144 0.533410 0.036605
Si Si6 0.355024 0.982673 0.686266
Si Si7 0.266111 0.262877 0.465281
O O1 0.523825 0.707017 0.168142
O O2 0.554210 0.915607 0.055756
O O3 0.436111 0.690988 0.037941
O O4 0.568456 0.616694 0.999252
O O5 0.929877 0.565012 0.777749
O O6 0.347822 0.514181 0.632472
O O7 0.336247 0.797247 0.710442
O O8 0.218795 0.581928 0.713824
O O9 0.255951 0.718230 0.569659
O O10 0.140622 0.521693 0.075628
O O11 0.179706 0.374757 0.929050
O O12 0.187526 0.680105 0.927665
O O13 0.315899 0.576122 0.971764
#
# Coordination Sequence:
#
# PCOD9453748 Si02
#       7
#     8   4   8   8   8   8   8
#     4  11  24  41  63  96 141 173 222 281 349 402
#     4  12  28  44  60 100 152 188 204 286 368 424
#     4  10  17  37  70  98 114 176 234 275 328 405
#     4  10  18  36  65  97 123 173 230 278 324 400
#     4  11  20  38  69 100 123 174 240 284 326 401
#     4  10  21  39  70  91 133 171 232 270 343 409
#     4  10  16  31  64 100 123 151 220 300 318 368
#
# _framework density 23.602813000000001
#
# number of rings (size 3 to 8) (size 9 to 14) (size 15 to 20)
#    0.000    1.538    7.692    1.846    0.000    2.462 
#    0.000    3.846    0.000    0.000    0.000    0.000 
#    0.000    0.000    0.000    0.000    0.000    0.000 
#
# Total GULP energy -289950.363290 kJ/mol
# GULP energy per Si atom -5575.968525 kJ/mol
# Density = 2.354909 g / cm^3
# Si number density = 23.602813 Si / 1000 Ang^3
#
#
#
# Elastic Constant Matrix: (Units=GPa)
#
#
# Indices 1 2 3 4 5 6 
#
# 1 143.4110 37.8464 16.2670 0.0000 0.0000 0.0000
# 2 37.8464 69.4239 -8.0161 0.0000 0.0000 0.0000
# 3 16.2670 -8.0161 51.8727 0.0000 0.0000 0.0000
# 4 0.0000 0.0000 0.0000 6.8757 0.0000 0.0000
# 5 0.0000 0.0000 0.0000 0.0000 21.4294 0.0000
# 6 0.0000 0.0000 0.0000 0.0000 0.0000 48.3204
#
#
#
# Elastic Compliance Matrix: (Units=1/GPa)
#
#
# Indices 1 2 3 4 5 6 
#
# 1 0.008740 -0.005173 -0.003540 0.000000 0.000000 0.000000
# 2 -0.005173 0.017728 0.004362 0.000000 0.000000 0.000000
# 3 -0.003540 0.004362 0.021062 0.000000 0.000000 0.000000
# 4 0.000000 0.000000 0.000000 0.145439 0.000000 0.000000
# 5 0.000000 0.000000 0.000000 0.000000 0.046665 0.000000
# 6 0.000000 0.000000 0.000000 0.000000 0.000000 0.020695
#
#
# Mechanical properties :
#
#
# Convention : Reuss Voigt Hill
#
# Bulk Modulus (GPa) = 25.75528 39.65580 32.70554
# Shear Modulus (GPa) = 17.73211 29.89913 23.81562
#
# Velocity S-wave (km/s) = 2.74391 3.56302 3.17995
# Velocity P-wave (km/s) = 4.57977 5.81073 5.23158
#
# Compressibility (1/GPa) = 0.03882699
#
# Stress axis : x y z
#
# Youngs Moduli (GPa) = 114.41975 56.40761 47.47841
#
# Poissons Ratio (x) = 0.29181 0.16808
# Poissons Ratio (y) = 0.59192 -0.20710
# Poissons Ratio (z) = 0.40507 -0.24604
#
# Static dielectric constant tensor:
#      x y z
#    x 1.959890 0.000000 0.000000 
#    y 0.000000 1.962210 0.000000 
#    z 0.000000 0.000000 1.922270 
# 
# From -- ./inp_files/20847.got.cif
#   From: 2010.05.17/outbox.cif.g08.bks.cpg/sg60_11_cif.got.tgz:20847.got - 2010.06.03 14:59:27.
