data_PCOD9453035
_publ_section_title
;
Structure prediction by ZEFSAII (Michael W. Deem and Ramdas Pophale) SiO2 
 PCOD9453035
Probable space group: P M M N
;
_chemical_formula_sum "Si O2"
_cell_formula_units_Z 32
_cell_length_a 10.529596
_cell_length_b 8.707350
_cell_length_c 19.578307
_cell_angle_alpha 90.000000
_cell_angle_beta 90.000000
_cell_angle_gamma 90.000000
_cell_volume 1795.034683
_symmetry_space_group_name_H-M "P M M N"
_symmetry_group_IT_number 59
_space_group.IT_coordinate_system_code '2'
_symmetry_cell_setting 'orthorhombic'
loop_
_space_group_symop_operation_xyz
x,y,z
1/2-x,1/2-y,z
1/2+x,-y,-z
-x,1/2+y,-z
-x,-y,-z
1/2+x,1/2+y,-z
1/2-x,y,z
x,1/2-y,z
loop_
_atom_site_type_symbol
_atom_site_label
_atom_site_fract_x
_atom_site_fract_y
_atom_site_fract_z
Si Si1 0.601208 0.434372 0.208293
Si Si2 0.750000 0.063171 0.580690
Si Si3 0.103939 0.935416 0.948501
Si Si4 0.750000 0.065435 0.422542
Si Si5 0.493400 0.066063 0.655710
O O1 0.750000 0.470332 0.221557
O O2 0.588015 0.250000 0.213468
O O3 0.574401 0.479739 0.130066
O O4 0.517880 0.513643 0.265942
O O5 0.750000 0.250000 0.580720
O O6 0.750000 0.015115 0.501682
O O7 0.623350 0.013534 0.619948
O O8 0.250000 0.983704 0.963567
O O9 0.102054 0.750000 0.951076
O O10 0.000000 0.000000 0.000000
O O11 0.750000 0.250000 0.419657
O O12 0.874370 0.003926 0.384601
O O13 0.486598 0.250000 0.652182
#
# Coordination Sequence:
#
# PCOD9453035 Si02
#       5
#     8   4   8   4   8
#     4   9  18  35  57  79 108 144 182 222 268 320
#     4   9  22  39  53  77 114 145 174 225 281 322
#     4   9  19  36  57  82 112 145 181 222 268 320
#     4  11  21  37  59  79 106 145 182 221 273 328
#     4  11  21  36  57  82 109 140 183 228 270 320
#
# _framework density 17.826953
#
# number of rings (size 3 to 8) (size 9 to 14) (size 15 to 20)
#    0.000    2.250    1.250    3.375    0.000    1.500 
#    2.250    8.750    0.000    0.000    0.000    0.000 
#    0.000    0.000    0.000    0.000    0.000    0.000 
#
# Total GULP energy -178601.746053 kJ/mol
# GULP energy per Si atom -5581.304564 kJ/mol
# Density = 1.778638 g / cm^3
# Si number density = 17.826953 Si / 1000 Ang^3
#
#
#
# Elastic Constant Matrix: (Units=GPa)
#
#
# Indices 1 2 3 4 5 6 
#
# 1 149.3008 34.5253 103.6212 0.0000 0.0000 0.0000
# 2 34.5253 30.7352 38.8870 0.0000 0.0000 0.0000
# 3 103.6212 38.8870 162.5511 0.0000 0.0000 0.0000
# 4 0.0000 0.0000 0.0000 33.4979 0.0000 0.0000
# 5 0.0000 0.0000 0.0000 0.0000 33.2760 0.0000
# 6 0.0000 0.0000 0.0000 0.0000 0.0000 12.2654
#
#
#
# Elastic Compliance Matrix: (Units=1/GPa)
#
#
# Indices 1 2 3 4 5 6 
#
# 1 0.012687 -0.005763 -0.006709 0.000000 0.000000 0.000000
# 2 -0.005763 0.049277 -0.008115 0.000000 0.000000 0.000000
# 3 -0.006709 -0.008115 0.012370 0.000000 0.000000 0.000000
# 4 0.000000 0.000000 0.000000 0.029853 0.000000 0.000000
# 5 0.000000 0.000000 0.000000 0.000000 0.030052 0.000000
# 6 0.000000 0.000000 0.000000 0.000000 0.000000 0.081530
#
#
# Mechanical properties :
#
#
# Convention : Reuss Voigt Hill
#
# Bulk Modulus (GPa) = 30.15665 77.40601 53.78133
# Shear Modulus (GPa) = 18.65718 26.84479 22.75098
#
# Velocity S-wave (km/s) = 3.23859 3.88474 3.57629
# Velocity P-wave (km/s) = 5.56216 7.97726 6.87657
#
# Compressibility (1/GPa) = 0.03316019
#
# Stress axis : x y z
#
# Youngs Moduli (GPa) = 78.82277 20.29363 80.84267
#
# Poissons Ratio (x) = 0.11696 0.54234
# Poissons Ratio (y) = 0.45427 0.65600
# Poissons Ratio (z) = 0.52879 0.16467
#
# Static dielectric constant tensor:
#      x y z
#    x 1.584030 0.000000 0.000000 
#    y 0.000000 1.604390 0.000000 
#    z 0.000000 0.000000 1.605490 
# 
# From -- ./inp_files/26721.got.cif
#   From: 2010.05.17/outbox.cif.g08.bks.cpg/sg59_14_cif.got.tgz:26721.got - 2010.06.03 14:40:33.
