data_PCOD9453716
_publ_section_title
;
Structure prediction by ZEFSAII (Michael W. Deem and Ramdas Pophale) SiO2 
 PCOD9453716
Probable space group: P B C N
;
_chemical_formula_sum "Si O2"
_cell_formula_units_Z 48
_cell_length_a 29.255054
_cell_length_b 12.581226
_cell_length_c 5.340921
_cell_angle_alpha 90.000000
_cell_angle_beta 90.000000
_cell_angle_gamma 90.000000
_cell_volume 1965.803129
_symmetry_space_group_name_H-M "P B C N"
_symmetry_group_IT_number 60
_symmetry_cell_setting 'orthorhombic'
loop_
_space_group_symop_operation_xyz
x,y,z
1/2-x,1/2-y,1/2+z
1/2+x,1/2-y,-z
-x,y,1/2-z
-x,-y,-z
1/2+x,1/2+y,1/2-z
1/2-x,1/2+y,z
x,-y,1/2+z
loop_
_atom_site_type_symbol
_atom_site_label
_atom_site_fract_x
_atom_site_fract_y
_atom_site_fract_z
Si Si1 0.145167 0.431125 0.646712
Si Si2 0.550982 0.067383 0.215073
Si Si3 0.165213 0.113068 0.976604
Si Si4 0.019464 0.121641 0.499603
Si Si5 0.127579 0.874349 0.971087
Si Si6 0.758124 0.316783 0.860893
O O1 0.144093 0.480113 0.367473
O O2 0.097153 0.369842 0.706605
O O3 0.193499 0.373107 0.666822
O O4 0.500000 0.111125 0.250000
O O5 0.553228 0.973298 0.427918
O O6 0.155424 0.165909 0.710102
O O7 0.217715 0.103047 0.054291
O O8 0.142913 0.997583 0.945360
O O9 0.141154 0.175073 0.204841
O O10 0.073683 0.123338 0.504699
O O11 0.000000 0.173766 0.250000
O O12 0.000000 0.000000 0.500000
O O13 0.000000 0.169374 0.750000
O O14 0.755913 0.234125 0.093895
#
# Coordination Sequence:
#
# PCOD9453716 Si02
#       6
#     8   8   8   8   8   8
#     4  10  21  36  62  89 116 153 202 245 285 355
#     4   8  14  27  49  84 119 140 171 231 294 342
#     4  10  20  33  52  70 105 137 188 230 271 335
#     4  10  16  25  43  72 111 134 160 224 300 335
#     4  10  19  32  52  83 100 138 189 232 279 324
#     4  12  26  41  56  82 119 160 194 242 304 349
#
# _framework density 24.417501000000001
#
# number of rings (size 3 to 8) (size 9 to 14) (size 15 to 20)
#    0.000    2.000    0.000    7.000    4.667    0.000 
#    0.000    0.000    0.000    0.000    0.000   22.167 
#    0.000    1.333    0.000    0.000    0.000    0.000 
#
# Total GULP energy -268094.579396 kJ/mol
# GULP energy per Si atom -5585.303737 kJ/mol
# Density = 2.436193 g / cm^3
# Si number density = 24.417501 Si / 1000 Ang^3
#
#
#
# Elastic Constant Matrix: (Units=GPa)
#
#
# Indices 1 2 3 4 5 6 
#
# 1 208.8956 31.1127 27.1431 0.0000 0.0000 0.0000
# 2 31.1127 42.4626 13.6637 0.0000 0.0000 0.0000
# 3 27.1431 13.6637 210.9063 0.0000 0.0000 0.0000
# 4 0.0000 0.0000 0.0000 7.8679 0.0000 0.0000
# 5 0.0000 0.0000 0.0000 0.0000 45.9219 0.0000
# 6 0.0000 0.0000 0.0000 0.0000 0.0000 1.8582
#
#
#
# Elastic Compliance Matrix: (Units=1/GPa)
#
#
# Indices 1 2 3 4 5 6 
#
# 1 0.005415 -0.003823 -0.000449 0.000000 0.000000 0.000000
# 2 -0.003823 0.026751 -0.001241 0.000000 0.000000 0.000000
# 3 -0.000449 -0.001241 0.004880 0.000000 0.000000 0.000000
# 4 0.000000 0.000000 0.000000 0.127099 0.000000 0.000000
# 5 0.000000 0.000000 0.000000 0.000000 0.021776 0.000000
# 6 0.000000 0.000000 0.000000 0.000000 0.000000 0.538158
#
#
# Mechanical properties :
#
#
# Convention : Reuss Voigt Hill
#
# Bulk Modulus (GPa) = 38.43392 67.34484 52.88938
# Shear Modulus (GPa) = 6.72244 37.15259 21.93751
#
# Velocity S-wave (km/s) = 1.66105 3.90494 3.00064
# Velocity P-wave (km/s) = 4.41059 6.92617 5.80625
#
# Compressibility (1/GPa) = 0.02601868
#
# Stress axis : x y z
#
# Youngs Moduli (GPa) = 184.67791 37.38233 204.93242
#
# Poissons Ratio (x) = 0.14291 0.09206
# Poissons Ratio (y) = 0.70601 0.25433
# Poissons Ratio (z) = 0.08296 0.04639
#
# Static dielectric constant tensor:
#      x y z
#    x 1.936740 0.000000 0.000000 
#    y 0.000000 1.993960 0.000000 
#    z 0.000000 0.000000 12.842540 
# 
# From -- ./inp_files/2548.got.cif
#   From: 2010.05.17/outbox.cif.g08.bks.cpg/sg60_2_cif.got.tgz:2548.got - 2010.06.03 14:59:27.
