data_PCOD9453084
_publ_section_title
;
Structure prediction by ZEFSAII (Michael W. Deem and Ramdas Pophale) SiO2 
 PCOD9453084
Probable space group: P M M N
;
_chemical_formula_sum "Si O2"
_cell_formula_units_Z 48
_cell_length_a 8.649943
_cell_length_b 14.898407
_cell_length_c 20.124249
_cell_angle_alpha 90.000000
_cell_angle_beta 90.000000
_cell_angle_gamma 90.000000
_cell_volume 2593.419442
_symmetry_space_group_name_H-M "P M M N"
_symmetry_group_IT_number 59
_space_group.IT_coordinate_system_code '2'
_symmetry_cell_setting 'orthorhombic'
loop_
_space_group_symop_operation_xyz
x,y,z
1/2-x,1/2-y,z
1/2+x,-y,-z
-x,1/2+y,-z
-x,-y,-z
1/2+x,1/2+y,-z
1/2-x,y,z
x,1/2-y,z
loop_
_atom_site_type_symbol
_atom_site_label
_atom_site_fract_x
_atom_site_fract_y
_atom_site_fract_z
Si Si1 0.565929 0.482985 0.174546
Si Si2 0.065720 0.068880 0.316473
Si Si3 0.567315 0.642458 0.936964
Si Si4 0.566872 0.250000 0.376399
Si Si5 0.438357 0.352206 0.913272
Si Si6 0.064869 0.558644 0.438880
Si Si7 0.433985 0.250000 0.525205
O O1 0.750000 0.486186 0.185117
O O2 0.484035 0.460944 0.243427
O O3 0.525688 0.408617 0.119366
O O4 0.513109 0.577022 0.141951
O O5 0.250000 0.082813 0.319305
O O6 0.983864 0.161218 0.337185
O O7 0.024853 0.993377 0.371086
O O8 0.750000 0.620366 0.930743
O O9 0.553423 0.750000 0.930281
O O10 0.514472 0.619816 0.012059
O O11 0.750000 0.250000 0.386778
O O12 0.485084 0.250000 0.448092
O O13 0.250000 0.351493 0.914484
O O14 0.489175 0.250000 0.901084
O O15 0.250000 0.562463 0.444742
O O16 0.000000 0.500000 0.500000
O O17 0.998765 0.658849 0.442773
O O18 0.250000 0.250000 0.528908
#
# Coordination Sequence:
#
# PCOD9453084 Si02
#       7
#     8   8   8   4   8   8   4
#     4  11  22  35  56  85 118 152 193 245 296 350
#     4  11  25  43  62  86 123 162 197 240 299 362
#     4   9  18  34  57  82 111 151 195 239 293 354
#     4  12  24  40  66  94 122 153 196 247 296 352
#     4   8  16  34  58  82 110 148 195 245 297 351
#     4  11  23  41  66  92 122 159 205 254 299 353
#     4  12  24  40  66  96 126 159 198 245 302 362
#
# _framework density 18.508382000000001
#
# number of rings (size 3 to 8) (size 9 to 14) (size 15 to 20)
#    0.000    1.667    1.667    4.500    1.167    2.333 
#    1.500    0.833    0.000    3.500    0.000    0.000 
#    0.000    0.000    0.000    0.000    0.000    0.000 
#
# Total GULP energy -268221.201579 kJ/mol
# GULP energy per Si atom -5587.941700 kJ/mol
# Density = 1.846626 g / cm^3
# Si number density = 18.508382 Si / 1000 Ang^3
#
#
#
# Elastic Constant Matrix: (Units=GPa)
#
#
# Indices 1 2 3 4 5 6 
#
# 1 53.4604 42.0858 31.6839 0.0000 0.0000 0.0000
# 2 42.0858 134.1036 74.1598 0.0000 0.0000 0.0000
# 3 31.6839 74.1598 115.1773 0.0000 0.0000 0.0000
# 4 0.0000 0.0000 0.0000 -34.6905 0.0000 0.0000
# 5 0.0000 0.0000 0.0000 0.0000 23.1994 0.0000
# 6 0.0000 0.0000 0.0000 0.0000 0.0000 22.7853
#
#
#
# Elastic Compliance Matrix: (Units=1/GPa)
#
#
# Indices 1 2 3 4 5 6 
#
# 1 0.025446 -0.006390 -0.002885 0.000000 0.000000 0.000000
# 2 -0.006390 0.013185 -0.006732 0.000000 0.000000 0.000000
# 3 -0.002885 -0.006732 0.013810 0.000000 0.000000 0.000000
# 4 0.000000 0.000000 0.000000 -0.028826 0.000000 0.000000
# 5 0.000000 0.000000 0.000000 0.000000 0.043105 0.000000
# 6 0.000000 0.000000 0.000000 0.000000 0.000000 0.043888
#
#
# Mechanical properties :
#
#
# Convention : Reuss Voigt Hill
#
# Bulk Modulus (GPa) = 48.95489 66.51112 57.73300
# Shear Modulus (GPa) = 33.46034 12.57964 23.01999
#
# Velocity S-wave (km/s) = 4.25649 2.60988 3.53052
# Velocity P-wave (km/s) = 7.11790 6.71533 6.91954
#
# Compressibility (1/GPa) = 0.02042697
#
# Stress axis : x y z
#
# Youngs Moduli (GPa) = 39.29891 75.84420 72.40938
#
# Poissons Ratio (x) = 0.48465 0.20894
# Poissons Ratio (y) = 0.25112 0.48743
# Poissons Ratio (z) = 0.11340 0.51055
#
# Static dielectric constant tensor:
#      x y z
#    x 1.631660 0.000000 0.000000 
#    y 0.000000 1.631640 0.000000 
#    z 0.000000 0.000000 1.608840 
# 
# From -- ./inp_files/25593.got.cif
#   From: 2010.05.17/outbox.cif.g08.bks.cpg/sg59_13_cif.got.tgz:25593.got - 2010.06.03 14:40:33.
