data_PCOD9453612
_publ_section_title
;
Structure prediction by ZEFSAII (Michael W. Deem and Ramdas Pophale) SiO2 
 PCOD9453612
Probable space group: P M M N
;
_chemical_formula_sum "Si O2"
_cell_formula_units_Z 48
_cell_length_a 9.000000
_cell_length_b 15.000000
_cell_length_c 18.000000
_cell_angle_alpha 90.000000
_cell_angle_beta 90.000000
_cell_angle_gamma 90.000000
_cell_volume 2430.000000
_symmetry_space_group_name_H-M "P M M N"
_symmetry_group_IT_number 59
_space_group.IT_coordinate_system_code '2'
_symmetry_cell_setting 'orthorhombic'
loop_
_space_group_symop_operation_xyz
x,y,z
1/2-x,1/2-y,z
1/2+x,-y,-z
-x,1/2+y,-z
-x,-y,-z
1/2+x,1/2+y,-z
1/2-x,y,z
x,1/2-y,z
loop_
_atom_site_type_symbol
_atom_site_label
_atom_site_fract_x
_atom_site_fract_y
_atom_site_fract_z
Si Si1 0.928630 0.148124 0.963481
Si Si2 0.425947 0.147081 0.696994
Si Si3 0.075406 0.453281 0.092768
Si Si4 0.429231 0.853331 0.618173
Si Si5 0.922627 0.975443 0.740367
Si Si6 0.419474 0.858052 0.455134
O O1 0.750000 0.151338 0.959696
O O2 0.981017 0.250000 0.944741
O O3 0.984287 0.117295 0.044536
O O4 0.973865 0.057264 0.919018
O O5 0.250000 0.140013 0.706430
O O6 0.470372 0.250000 0.710735
O O7 0.472652 0.122955 0.612699
O O8 0.511771 0.074862 0.744725
O O9 0.250000 0.449173 0.070922
O O10 0.062911 0.432396 0.179033
O O11 0.250000 0.853854 0.619134
O O12 0.477184 0.750000 0.627978
O O13 0.492266 0.917147 0.680357
O O14 0.473268 0.887168 0.536043
O O15 0.750000 0.981288 0.720744
O O16 0.250000 0.889122 0.440788
O O17 0.411464 0.750000 0.460378
#
# Coordination Sequence:
#
# PCOD9453612 Si02
#       6
#     8   8   8   8   8   8
#     4   9  18  35  60  84 104 133 172 211 255 306
#     4  10  21  36  54  77 105 138 178 225 273 318
#     4   9  20  37  54  78 111 140 171 212 253 302
#     4   9  19  36  56  77 104 140 181 226 273 317
#     4  11  23  36  53  78 109 146 180 213 259 314
#     4   8  15  31  54  76  99 132 177 226 272 318
#
# _framework density 19.753086
#
# number of rings (size 3 to 8) (size 9 to 14) (size 15 to 20)
#    0.000    2.667    0.000    2.000    0.000    5.667 
#    0.000    6.667    0.000    0.000    0.000    0.000 
#    0.000    0.000    0.000    0.000    0.000    0.000 
#
# Total GULP energy -267558.827605 kJ/mol
# GULP energy per Si atom -5574.142242 kJ/mol
# Density = 1.970813 g / cm^3
# Si number density = 19.753086 Si / 1000 Ang^3
#
#
#
# Elastic Constant Matrix: (Units=GPa)
#
#
# Indices 1 2 3 4 5 6 
#
# 1 3.9912 -4.5629 2.3392 0.0000 0.0000 0.0000
# 2 -4.5629 43.2425 -5.1497 0.0000 0.0000 0.0000
# 3 2.3392 -5.1497 38.9775 0.0000 0.0000 0.0000
# 4 0.0000 0.0000 0.0000 2.7258 0.0000 0.0000
# 5 0.0000 0.0000 0.0000 0.0000 22.5662 0.0000
# 6 0.0000 0.0000 0.0000 0.0000 0.0000 27.7471
#
#
#
# Elastic Compliance Matrix: (Units=1/GPa)
#
#
# Indices 1 2 3 4 5 6 
#
# 1 0.291916 0.029175 -0.013664 0.000000 0.000000 0.000000
# 2 0.029175 0.026411 0.001738 0.000000 0.000000 0.000000
# 3 -0.013664 0.001738 0.026706 0.000000 0.000000 0.000000
# 4 0.000000 0.000000 0.000000 0.366860 0.000000 0.000000
# 5 0.000000 0.000000 0.000000 0.000000 0.044314 0.000000
# 6 0.000000 0.000000 0.000000 0.000000 0.000000 0.036040
#
#
# Mechanical properties :
#
#
# Convention : Reuss Voigt Hill
#
# Bulk Modulus (GPa) = 2.63483 7.94048 5.28765
# Shear Modulus (GPa) = 5.65446 16.84678 11.25062
#
# Velocity S-wave (km/s) = 1.69375 2.92356 2.38914
# Velocity P-wave (km/s) = 2.27196 3.92745 3.20832
#
# Compressibility (1/GPa) = 0.37953174
#
# Stress axis : x y z
#
# Youngs Moduli (GPa) = 3.42564 37.86299 37.44536
#
# Poissons Ratio (x) = -1.10467 0.51167
# Poissons Ratio (y) = -0.09994 -0.06510
# Poissons Ratio (z) = 0.04681 -0.06582
#
# Static dielectric constant tensor:
#      x y z
#    x 1.662220 0.000000 0.000000 
#    y 0.000000 1.705030 0.000000 
#    z 0.000000 0.000000 1.726750 
# 
# From -- ./inp_files/25440.got.cif
#   From: 2010.05.17/outbox.ucp.g08.bks.cvg/sg59_13_cif.got.tgz:25440.got - 2010.06.11 16:43:56.
