data_PCOD9453259
_publ_section_title
;
Structure prediction by ZEFSAII (Michael W. Deem and Ramdas Pophale) SiO2 
 PCOD9453259
Probable space group: P M M N
;
_chemical_formula_sum "Si O2"
_cell_formula_units_Z 48
_cell_length_a 7.463501
_cell_length_b 14.267215
_cell_length_c 21.599114
_cell_angle_alpha 90.000000
_cell_angle_beta 90.000000
_cell_angle_gamma 90.000000
_cell_volume 2299.946522
_symmetry_space_group_name_H-M "P M M N"
_symmetry_group_IT_number 59
_space_group.IT_coordinate_system_code '2'
_symmetry_cell_setting 'orthorhombic'
loop_
_space_group_symop_operation_xyz
x,y,z
1/2-x,1/2-y,z
1/2+x,-y,-z
-x,1/2+y,-z
-x,-y,-z
1/2+x,1/2+y,-z
1/2-x,y,z
x,1/2-y,z
loop_
_atom_site_type_symbol
_atom_site_label
_atom_site_fract_x
_atom_site_fract_y
_atom_site_fract_z
Si Si1 0.534687 0.644271 0.529033
Si Si2 0.036775 0.107022 0.982111
Si Si3 0.966721 0.650409 0.883679
Si Si4 0.969300 0.858549 0.280825
Si Si5 0.038118 0.062966 0.849618
Si Si6 0.036576 0.457923 0.595296
O O1 0.750000 0.648746 0.524737
O O2 0.469108 0.750000 0.539315
O O3 0.466800 0.600611 0.464006
O O4 0.494229 0.567176 0.581181
O O5 0.250000 0.126193 0.979291
O O6 0.965574 0.113598 0.912012
O O7 0.969384 0.154191 0.044756
O O8 0.000000 0.000000 0.000000
O O9 0.750000 0.648098 0.884527
O O10 0.021182 0.750000 0.853728
O O11 0.020184 0.549931 0.855872
O O12 0.750000 0.861972 0.280170
O O13 0.019438 0.750000 0.287885
O O14 0.032945 0.899323 0.215228
O O15 0.031296 0.918866 0.339656
O O16 0.250000 0.082685 0.850024
O O17 0.250000 0.443570 0.595811
#
# Coordination Sequence:
#
# PCOD9453259 Si02
#       6
#     8   8   8   8   8   8
#     4   9  17  30  49  72  97 124 153 186 225 266
#     4   8  14  25  41  61  84 109 141 182 223 261
#     4   9  17  29  45  64  88 120 153 184 224 272
#     4   9  17  30  49  71  93 118 149 185 227 274
#     4   9  17  29  46  68  91 115 147 188 228 266
#     4   9  17  30  49  72  96 122 153 188 224 265
#
# _framework density 20.870049999999999
#
# number of rings (size 3 to 8) (size 9 to 14) (size 15 to 20)
#    0.000    3.167    0.000    0.500    0.000    3.333 
#    0.000    5.000    0.000    8.000    0.000    4.667 
#    0.000    0.000    0.000    0.000    0.000    0.000 
#
# Total GULP energy -267357.629551 kJ/mol
# GULP energy per Si atom -5569.950616 kJ/mol
# Density = 2.082255 g / cm^3
# Si number density = 20.870050 Si / 1000 Ang^3
#
#
#
# Elastic Constant Matrix: (Units=GPa)
#
#
# Indices 1 2 3 4 5 6 
#
# 1 61.5381 -7.8398 7.2110 0.0000 0.0000 0.0000
# 2 -7.8398 138.9887 78.0352 0.0000 0.0000 0.0000
# 3 7.2110 78.0352 155.2778 0.0000 0.0000 0.0000
# 4 0.0000 0.0000 0.0000 20.0310 0.0000 0.0000
# 5 0.0000 0.0000 0.0000 0.0000 -1.2539 0.0000
# 6 0.0000 0.0000 0.0000 0.0000 0.0000 7.4290
#
#
#
# Elastic Compliance Matrix: (Units=1/GPa)
#
#
# Indices 1 2 3 4 5 6 
#
# 1 0.016698 0.001919 -0.001740 0.000000 0.000000 0.000000
# 2 0.001919 0.010243 -0.005237 0.000000 0.000000 0.000000
# 3 -0.001740 -0.005237 0.009153 0.000000 0.000000 0.000000
# 4 0.000000 0.000000 0.000000 0.049923 0.000000 0.000000
# 5 0.000000 0.000000 0.000000 0.000000 -0.797534 0.000000
# 6 0.000000 0.000000 0.000000 0.000000 0.000000 0.134607
#
#
# Mechanical properties :
#
#
# Convention : Reuss Voigt Hill
#
# Bulk Modulus (GPa) = 38.49337 56.73524 47.61431
# Shear Modulus (GPa) = -8.95841 23.80112 7.42135
#
# Velocity S-wave (km/s) = -2.07408 3.38071 1.88778
# Velocity P-wave (km/s) = 3.57052 6.51789 5.25507
#
# Compressibility (1/GPa) = 0.02597850
#
# Stress axis : x y z
#
# Youngs Moduli (GPa) = 59.88603 97.62472 109.25770
#
# Poissons Ratio (x) = -0.18731 0.19007
# Poissons Ratio (y) = -0.11490 0.57217
# Poissons Ratio (z) = 0.10418 0.51125
#
# Static dielectric constant tensor:
#      x y z
#    x 1.917230 0.000000 0.000000 
#    y 0.000000 1.755690 0.000000 
#    z 0.000000 0.000000 1.750650 
# 
# From -- ./inp_files/26918.got.cif
#   From: 2010.05.17/outbox.cif.g08.bks.cpg/sg59_14_cif.got.tgz:26918.got - 2010.06.03 14:40:33.
