data_PCOD9453275
_publ_section_title
;
Structure prediction by ZEFSAII (Michael W. Deem and Ramdas Pophale) SiO2 
 PCOD9453275
Probable space group: P M M N
;
_chemical_formula_sum "Si O2"
_cell_formula_units_Z 56
_cell_length_a 9.620496
_cell_length_b 14.890712
_cell_length_c 18.873532
_cell_angle_alpha 90.000000
_cell_angle_beta 90.000000
_cell_angle_gamma 90.000000
_cell_volume 2703.747365
_symmetry_space_group_name_H-M "P M M N"
_symmetry_group_IT_number 59
_space_group.IT_coordinate_system_code '2'
_symmetry_cell_setting 'orthorhombic'
loop_
_space_group_symop_operation_xyz
x,y,z
1/2-x,1/2-y,z
1/2+x,-y,-z
-x,1/2+y,-z
-x,-y,-z
1/2+x,1/2+y,-z
1/2-x,y,z
x,1/2-y,z
loop_
_atom_site_type_symbol
_atom_site_label
_atom_site_fract_x
_atom_site_fract_y
_atom_site_fract_z
Si Si1 0.418386 0.095308 0.997528
Si Si2 0.908428 0.639862 0.422403
Si Si3 0.908070 0.358198 0.286532
Si Si4 0.405836 0.101116 0.151972
Si Si5 0.590681 0.386186 0.865930
Si Si6 0.411460 0.640607 0.556314
Si Si7 0.905848 0.144875 0.705933
O O1 0.250000 0.084809 0.991101
O O2 0.486844 0.140712 0.928703
O O3 0.445996 0.139233 0.074511
O O4 0.500000 0.000000 0.000000
O O5 0.750000 0.609143 0.423081
O O6 0.905853 0.750000 0.422280
O O7 0.991825 0.610848 0.492151
O O8 0.988721 0.608312 0.352051
O O9 0.750000 0.391002 0.277920
O O10 0.904011 0.250000 0.288624
O O11 0.958015 0.387254 0.364718
O O12 0.997313 0.382932 0.218608
O O13 0.250000 0.132171 0.168684
O O14 0.402732 0.994227 0.138831
O O15 0.750000 0.355065 0.878239
O O16 0.545839 0.358928 0.787094
O O17 0.250000 0.614801 0.546165
O O18 0.413386 0.750000 0.555055
O O19 0.750000 0.104294 0.702760
O O20 0.891765 0.250000 0.688459
#
# Coordination Sequence:
#
# PCOD9453275 Si02
#       7
#     8   8   8   8   8   8   8
#     4   9  17  30  48  69  91 118 154 191 226 266
#     4   9  16  25  40  65  93 118 148 186 224 264
#     4   9  18  31  47  69  94 119 151 190 227 266
#     4   9  18  31  47  68  93 120 149 184 228 273
#     4   9  18  32  49  70  94 119 152 191 227 268
#     4   8  14  26  43  62  86 116 149 184 222 264
#     4   9  17  30  48  68  92 123 154 185 226 272
#
# _framework density 20.711995000000002
#
# number of rings (size 3 to 8) (size 9 to 14) (size 15 to 20)
#    0.000    3.143    0.000    2.571    0.000    6.000 
#    0.000    2.143    0.000    3.429    0.000    0.000 
#    0.000    0.000    0.000    0.000    0.000    0.000 
#
# Total GULP energy -312120.442040 kJ/mol
# GULP energy per Si atom -5573.579322 kJ/mol
# Density = 2.066485 g / cm^3
# Si number density = 20.711995 Si / 1000 Ang^3
#
#
#
# Elastic Constant Matrix: (Units=GPa)
#
#
# Indices 1 2 3 4 5 6 
#
# 1 123.7282 4.8367 141.3076 0.0000 0.0000 0.0000
# 2 4.8367 42.5337 1.7556 0.0000 0.0000 0.0000
# 3 141.3076 1.7556 233.3329 0.0000 0.0000 0.0000
# 4 0.0000 0.0000 0.0000 22.6538 0.0000 0.0000
# 5 0.0000 0.0000 0.0000 0.0000 28.3621 0.0000
# 6 0.0000 0.0000 0.0000 0.0000 0.0000 0.2708
#
#
#
# Elastic Compliance Matrix: (Units=1/GPa)
#
#
# Indices 1 2 3 4 5 6 
#
# 1 0.026443 -0.002347 -0.015997 0.000000 0.000000 0.000000
# 2 -0.002347 0.023726 0.001243 0.000000 0.000000 0.000000
# 3 -0.015997 0.001243 0.013964 0.000000 0.000000 0.000000
# 4 0.000000 0.000000 0.000000 0.044143 0.000000 0.000000
# 5 0.000000 0.000000 0.000000 0.000000 0.035258 0.000000
# 6 0.000000 0.000000 0.000000 0.000000 0.000000 3.692800
#
#
# Mechanical properties :
#
#
# Convention : Reuss Voigt Hill
#
# Bulk Modulus (GPa) = 33.40860 77.26605 55.33733
# Shear Modulus (GPa) = 1.28849 27.03701 14.16275
#
# Velocity S-wave (km/s) = 0.78959 3.61692 2.61778
# Velocity P-wave (km/s) = 4.12266 7.40465 5.99271
#
# Compressibility (1/GPa) = 0.02993241
#
# Stress axis : x y z
#
# Youngs Moduli (GPa) = 37.81671 42.14727 71.61285
#
# Poissons Ratio (x) = 0.09891 1.14556
# Poissons Ratio (y) = 0.08875 -0.08899
# Poissons Ratio (z) = 0.60494 -0.05238
#
# Static dielectric constant tensor:
#      x y z
#    x 1.729160 0.000000 0.000000 
#    y 0.000000 1.834530 0.000000 
#    z 0.000000 0.000000 1.758270 
# 
# From -- ./inp_files/26078.got.cif
#   From: 2010.05.17/outbox.cif.g08.bks.cpg/sg59_14_cif.got.tgz:26078.got - 2010.06.03 14:40:33.
