data_PCOD9453162
_publ_section_title
;
Structure prediction by ZEFSAII (Michael W. Deem and Ramdas Pophale) SiO2 
 PCOD9453162
Probable space group: P M M N
;
_chemical_formula_sum "Si O2"
_cell_formula_units_Z 48
_cell_length_a 15.729167
_cell_length_b 8.834282
_cell_length_c 17.796326
_cell_angle_alpha 90.000000
_cell_angle_beta 90.000000
_cell_angle_gamma 90.000000
_cell_volume 2472.904441
_symmetry_space_group_name_H-M "P M M N"
_symmetry_group_IT_number 59
_space_group.IT_coordinate_system_code '2'
_symmetry_cell_setting 'orthorhombic'
loop_
_space_group_symop_operation_xyz
x,y,z
1/2-x,1/2-y,z
1/2+x,-y,-z
-x,1/2+y,-z
-x,-y,-z
1/2+x,1/2+y,-z
1/2-x,y,z
x,1/2-y,z
loop_
_atom_site_type_symbol
_atom_site_label
_atom_site_fract_x
_atom_site_fract_y
_atom_site_fract_z
Si Si1 0.095002 0.931190 0.999646
Si Si2 0.153079 0.070236 0.319617
Si Si3 0.896520 0.928888 0.153466
Si Si4 0.343267 0.065585 0.682406
Si Si5 0.101821 0.928723 0.164139
Si Si6 0.503171 0.068232 0.582821
O O1 0.089180 0.750000 0.998518
O O2 0.133752 0.973154 0.080774
O O3 0.134123 0.989725 0.922134
O O4 0.000000 0.000000 0.000000
O O5 0.250000 0.033668 0.340724
O O6 0.140667 0.250000 0.326696
O O7 0.138185 0.021070 0.233403
O O8 0.085643 0.985536 0.371673
O O9 0.879936 0.750000 0.145121
O O10 0.856611 0.983516 0.231415
O O11 0.998942 0.946354 0.162489
O O12 0.250000 0.019633 0.655278
O O13 0.346049 0.250000 0.683970
O O14 0.420539 0.016439 0.630169
O O15 0.119341 0.750000 0.175734
O O16 0.502108 0.250000 0.578990
O O17 0.500000 0.000000 0.500000
#
# Coordination Sequence:
#
# PCOD9453162 Si02
#       6
#     8   8   8   8   8   8
#     4   9  17  28  46  76 111 150 194 238 287 338
#     4  11  24  40  60  88 119 154 199 247 295 347
#     4   9  16  30  52  80 112 148 193 236 283 343
#     4   9  18  35  60  87 116 151 189 231 281 343
#     4   9  17  32  53  79 112 153 197 240 290 347
#     4  11  23  42  66  92 120 152 190 234 292 356
#
# _framework density 19.410374000000001
#
# number of rings (size 3 to 8) (size 9 to 14) (size 15 to 20)
#    0.000    2.333    1.667    2.500    0.000    5.333 
#    0.000    2.500    0.000    7.000    0.000    0.000 
#    0.000    0.000    0.000    0.000    0.000    0.000 
#
# Total GULP energy -267877.812761 kJ/mol
# GULP energy per Si atom -5580.787766 kJ/mol
# Density = 1.936620 g / cm^3
# Si number density = 19.410374 Si / 1000 Ang^3
#
#
#
# Elastic Constant Matrix: (Units=GPa)
#
#
# Indices 1 2 3 4 5 6 
#
# 1 97.9974 40.3235 74.0316 0.0000 0.0000 0.0000
# 2 40.3235 42.8565 48.2448 0.0000 0.0000 0.0000
# 3 74.0316 48.2448 169.7500 0.0000 0.0000 0.0000
# 4 0.0000 0.0000 0.0000 38.8807 0.0000 0.0000
# 5 0.0000 0.0000 0.0000 0.0000 -9.1143 0.0000
# 6 0.0000 0.0000 0.0000 0.0000 0.0000 17.2157
#
#
#
# Elastic Compliance Matrix: (Units=1/GPa)
#
#
# Indices 1 2 3 4 5 6 
#
# 1 0.018885 -0.012495 -0.004685 0.000000 0.000000 0.000000
# 2 -0.012495 0.042578 -0.006652 0.000000 0.000000 0.000000
# 3 -0.004685 -0.006652 0.009825 0.000000 0.000000 0.000000
# 4 0.000000 0.000000 0.000000 0.025720 0.000000 0.000000
# 5 0.000000 0.000000 0.000000 0.000000 -0.109717 0.000000
# 6 0.000000 0.000000 0.000000 0.000000 0.000000 0.058087
#
#
# Mechanical properties :
#
#
# Convention : Reuss Voigt Hill
#
# Bulk Modulus (GPa) = 42.32881 70.64487 56.48684
# Shear Modulus (GPa) = 49.54677 19.26333 34.40505
#
# Velocity S-wave (km/s) = 5.05780 3.15369 4.21468
# Velocity P-wave (km/s) = 7.48085 7.05234 7.26975
#
# Compressibility (1/GPa) = 0.02362457
#
# Stress axis : x y z
#
# Youngs Moduli (GPa) = 52.95256 23.48623 101.78314
#
# Poissons Ratio (x) = 0.29345 0.47685
# Poissons Ratio (y) = 0.66162 0.67706
# Poissons Ratio (z) = 0.24808 0.15623
#
# Static dielectric constant tensor:
#      x y z
#    x 1.709340 0.000000 0.000000 
#    y 0.000000 1.650060 0.000000 
#    z 0.000000 0.000000 1.683290 
# 
# From -- ./inp_files/27385.got.cif
#   From: 2010.05.17/outbox.cif.g08.bks.cpg/sg59_14_cif.got.tgz:27385.got - 2010.06.03 14:40:33.
