data_PCOD9453699
_publ_section_title
;
Structure prediction by ZEFSAII (Michael W. Deem and Ramdas Pophale) SiO2 
 PCOD9453699
Probable space group: P B C N
;
_chemical_formula_sum "Si O2"
_cell_formula_units_Z 48
_cell_length_a 6.985837
_cell_length_b 20.347615
_cell_length_c 13.868172
_cell_angle_alpha 90.000000
_cell_angle_beta 90.000000
_cell_angle_gamma 90.000000
_cell_volume 1971.292997
_symmetry_space_group_name_H-M "P B C N"
_symmetry_group_IT_number 60
_symmetry_cell_setting 'orthorhombic'
loop_
_space_group_symop_operation_xyz
x,y,z
1/2-x,1/2-y,1/2+z
1/2+x,1/2-y,-z
-x,y,1/2-z
-x,-y,-z
1/2+x,1/2+y,1/2-z
1/2-x,1/2+y,z
x,-y,1/2+z
loop_
_atom_site_type_symbol
_atom_site_label
_atom_site_fract_x
_atom_site_fract_y
_atom_site_fract_z
Si Si1 0.858043 0.354303 0.460049
Si Si2 0.311340 0.160206 0.317118
Si Si3 0.230016 0.499886 0.529085
Si Si4 0.230764 0.099129 0.872968
Si Si5 0.713224 0.797001 0.263673
Si Si6 0.272222 0.024820 0.244448
O O1 0.856853 0.329126 0.570028
O O2 0.740375 0.422342 0.462767
O O3 0.763042 0.307991 0.378227
O O4 0.073995 0.373816 0.426099
O O5 0.500000 0.156757 0.250000
O O6 0.207571 0.222565 0.271745
O O7 0.210545 0.089124 0.303699
O O8 0.336017 0.452954 0.454092
O O9 0.271105 0.469571 0.632828
O O10 0.000000 0.500000 0.500000
O O11 0.161048 0.163958 0.816186
O O12 0.226227 0.046673 0.784976
O O13 0.500000 0.826530 0.250000
O O14 0.500000 0.023839 0.250000
#
# Coordination Sequence:
#
# PCOD9453699 Si02
#       6
#     8   8   8   8   8   8
#     4  10  18  31  54  79 111 137 177 229 283 311
#     4  11  23  34  52  85 114 137 177 234 276 315
#     4  10  15  23  47  79 103 128 167 234 277 301
#     4  10  16  30  52  78 105 138 181 226 269 319
#     4  10  22  37  54  75 111 154 182 208 269 348
#     4  11  15  26  48  78 106 126 176 229 273 301
#
# _framework density 24.349499000000002
#
# number of rings (size 3 to 8) (size 9 to 14) (size 15 to 20)
#    0.000    1.667    6.667    3.500    0.000    4.000 
#    0.000    0.000    0.000    1.000    0.000    2.333 
#    0.000    0.000    0.000    0.000    0.000    0.000 
#
# Total GULP energy -267272.566061 kJ/mol
# GULP energy per Si atom -5568.178460 kJ/mol
# Density = 2.429408 g / cm^3
# Si number density = 24.349499 Si / 1000 Ang^3
#
#
#
# Elastic Constant Matrix: (Units=GPa)
#
#
# Indices 1 2 3 4 5 6 
#
# 1 62.1396 -1.0377 29.7268 0.0000 0.0000 0.0000
# 2 -1.0377 112.1308 29.6676 0.0000 0.0000 0.0000
# 3 29.7268 29.6676 166.0402 0.0000 0.0000 0.0000
# 4 0.0000 0.0000 0.0000 53.8910 0.0000 0.0000
# 5 0.0000 0.0000 0.0000 0.0000 11.6932 0.0000
# 6 0.0000 0.0000 0.0000 0.0000 0.0000 1.5203
#
#
#
# Elastic Compliance Matrix: (Units=1/GPa)
#
#
# Indices 1 2 3 4 5 6 
#
# 1 0.017718 0.001053 -0.003360 0.000000 0.000000 0.000000
# 2 0.001053 0.009423 -0.001872 0.000000 0.000000 0.000000
# 3 -0.003360 -0.001872 0.006959 0.000000 0.000000 0.000000
# 4 0.000000 0.000000 0.000000 0.018556 0.000000 0.000000
# 5 0.000000 0.000000 0.000000 0.000000 0.085520 0.000000
# 6 0.000000 0.000000 0.000000 0.000000 0.000000 0.657749
#
#
# Mechanical properties :
#
#
# Convention : Reuss Voigt Hill
#
# Bulk Modulus (GPa) = 38.84860 50.78045 44.81453
# Shear Modulus (GPa) = 6.15109 32.21783 19.18446
#
# Velocity S-wave (km/s) = 1.59112 3.64145 2.80996
# Velocity P-wave (km/s) = 4.40054 6.21130 5.38261
#
# Compressibility (1/GPa) = 0.02574095
#
# Stress axis : x y z
#
# Youngs Moduli (GPa) = 56.44013 106.12037 143.70363
#
# Poissons Ratio (x) = -0.11175 0.48288
# Poissons Ratio (y) = -0.05943 0.26905
# Poissons Ratio (z) = 0.18965 0.19868
#
# Static dielectric constant tensor:
#      x y z
#    x 2.116950 0.000000 0.000000 
#    y 0.000000 1.997180 0.000000 
#    z 0.000000 0.000000 2.053500 
# 
# From -- ./inp_files/15142.got.cif
#   From: 2010.05.17/outbox.cif.g08.bks.cpg/sg60_8_cif.got.tgz:15142.got - 2010.06.03 14:59:27.
