data_PCOD9453987
_publ_section_title
;
Structure prediction by ZEFSAII (Michael W. Deem and Ramdas Pophale) SiO2 
 PCOD9453987
Probable space group: P B C N
;
_chemical_formula_sum "Si O2"
_cell_formula_units_Z 64
_cell_length_a 21.236958
_cell_length_b 8.848232
_cell_length_c 18.675026
_cell_angle_alpha 90.000000
_cell_angle_beta 90.000000
_cell_angle_gamma 90.000000
_cell_volume 3509.215384
_symmetry_space_group_name_H-M "P B C N"
_symmetry_group_IT_number 60
_symmetry_cell_setting 'orthorhombic'
loop_
_space_group_symop_operation_xyz
x,y,z
1/2-x,1/2-y,1/2+z
1/2+x,1/2-y,-z
-x,y,1/2-z
-x,-y,-z
1/2+x,1/2+y,1/2-z
1/2-x,1/2+y,z
x,-y,1/2+z
loop_
_atom_site_type_symbol
_atom_site_label
_atom_site_fract_x
_atom_site_fract_y
_atom_site_fract_z
Si Si1 0.867774 0.028380 0.983930
Si Si2 0.809574 0.851596 0.674203
Si Si3 0.249369 0.505410 0.580970
Si Si4 0.136459 0.564607 0.469452
Si Si5 0.931346 0.240594 0.409560
Si Si6 0.199875 0.829005 0.395972
Si Si7 0.691994 0.758528 0.330710
Si Si8 0.077584 0.736404 0.905754
O O1 0.813263 0.100471 0.935583
O O2 0.916319 0.925523 0.940912
O O3 0.905203 0.144614 0.031812
O O4 0.822659 0.920811 0.033255
O O5 0.766420 0.754542 0.618284
O O6 0.790576 0.804102 0.753632
O O7 0.880368 0.796188 0.659680
O O8 0.804535 0.032019 0.660384
O O9 0.198935 0.517629 0.515889
O O10 0.216243 0.576149 0.650399
O O11 0.277449 0.345672 0.606812
O O12 0.091578 0.645888 0.527523
O O13 0.155071 0.682666 0.406484
O O14 0.102882 0.423267 0.433697
O O15 0.882771 0.257752 0.344305
O O16 0.003643 0.264382 0.391939
#
# Coordination Sequence:
#
# PCOD9453987 Si02
#       8
#     8   8   8   8   8   8   8   8
#     4   9  18  32  52  78 102 126 166 217 266 309
#     4  11  21  33  51  73 102 138 172 208 251 308
#     4  10  18  32  52  73 101 128 162 213 263 305
#     4  10  19  33  53  79 105 127 166 218 267 310
#     4   9  20  34  49  74 105 134 168 211 252 305
#     4  10  20  33  51  79 104 126 166 220 267 304
#     4  10  21  34  49  73 102 137 171 204 247 304
#     4  11  19  31  53  75 100 139 170 206 258 305
#
# _framework density 18.237694999999999
#
# number of rings (size 3 to 8) (size 9 to 14) (size 15 to 20)
#    0.000    2.000    0.000    6.000    0.000    0.500 
#    0.000    0.000    0.000    0.000    0.000    8.750 
#    0.000    0.000    0.000    0.000    0.000    0.000 
#
# Total GULP energy -356303.023664 kJ/mol
# GULP energy per Si atom -5567.234745 kJ/mol
# Density = 1.819618 g / cm^3
# Si number density = 18.237695 Si / 1000 Ang^3
#
#
#
# Elastic Constant Matrix: (Units=GPa)
#
#
# Indices 1 2 3 4 5 6 
#
# 1 113.8954 48.1033 11.5100 0.0000 0.0000 0.0000
# 2 48.1033 78.6733 18.8968 0.0000 0.0000 0.0000
# 3 11.5100 18.8968 32.9731 0.0000 0.0000 0.0000
# 4 0.0000 0.0000 0.0000 9.7362 0.0000 0.0000
# 5 0.0000 0.0000 0.0000 0.0000 9.9132 0.0000
# 6 0.0000 0.0000 0.0000 0.0000 0.0000 18.1175
#
#
#
# Elastic Compliance Matrix: (Units=1/GPa)
#
#
# Indices 1 2 3 4 5 6 
#
# 1 0.011837 -0.007242 0.000018 0.000000 0.000000 0.000000
# 2 -0.007242 0.019170 -0.008459 0.000000 0.000000 0.000000
# 3 0.000018 -0.008459 0.035169 0.000000 0.000000 0.000000
# 4 0.000000 0.000000 0.000000 0.102709 0.000000 0.000000
# 5 0.000000 0.000000 0.000000 0.000000 0.100876 0.000000
# 6 0.000000 0.000000 0.000000 0.000000 0.000000 0.055195
#
#
# Mechanical properties :
#
#
# Convention : Reuss Voigt Hill
#
# Bulk Modulus (GPa) = 28.72570 42.50689 35.61629
# Shear Modulus (GPa) = 13.58976 17.35549 15.47262
#
# Velocity S-wave (km/s) = 2.73270 3.08819 2.91587
# Velocity P-wave (km/s) = 5.07364 6.00614 5.55947
#
# Compressibility (1/GPa) = 0.03481203
#
# Stress axis : x y z
#
# Youngs Moduli (GPa) = 84.48339 52.16399 28.43419
#
# Poissons Ratio (x) = 0.37776 -0.00052
# Poissons Ratio (y) = 0.61180 0.24051
# Poissons Ratio (z) = -0.00155 0.44123
#
# Static dielectric constant tensor:
#      x y z
#    x 1.634750 0.000000 0.000000 
#    y 0.000000 1.653270 0.000000 
#    z 0.000000 0.000000 1.648820 
# 
# From -- ./inp_files/23085.got.cif
#   From: 2010.05.17/outbox.cif.g08.bks.cpg/sg60_12_cif.got.tgz:23085.got - 2010.06.03 14:59:27.
