data_PCOD9453371
_publ_section_title
;
Structure prediction by ZEFSAII (Michael W. Deem and Ramdas Pophale) SiO2 
 PCOD9453371
Probable space group: P M M N
;
_chemical_formula_sum "Si O2"
_cell_formula_units_Z 64
_cell_length_a 9.000000
_cell_length_b 30.000000
_cell_length_c 15.000000
_cell_angle_alpha 90.000000
_cell_angle_beta 90.000000
_cell_angle_gamma 90.000000
_cell_volume 4050.000000
_symmetry_space_group_name_H-M "P M M N"
_symmetry_group_IT_number 59
_space_group.IT_coordinate_system_code '2'
_symmetry_cell_setting 'orthorhombic'
loop_
_space_group_symop_operation_xyz
x,y,z
1/2-x,1/2-y,z
1/2+x,-y,-z
-x,1/2+y,-z
-x,-y,-z
1/2+x,1/2+y,-z
1/2-x,y,z
x,1/2-y,z
loop_
_atom_site_type_symbol
_atom_site_label
_atom_site_fract_x
_atom_site_fract_y
_atom_site_fract_z
Si Si1 0.572381 0.300971 0.331979
Si Si2 0.921669 0.364930 0.853129
Si Si3 0.429001 0.851393 0.841134
Si Si4 0.579787 0.198719 0.684269
Si Si5 0.927919 0.698720 0.003302
Si Si6 0.583598 0.804084 0.490184
Si Si7 0.071751 0.552007 0.913811
Si Si8 0.926729 0.953028 0.108427
O O1 0.750000 0.299142 0.331012
O O2 0.518028 0.250000 0.316084
O O3 0.523887 0.334510 0.255518
O O4 0.518784 0.316657 0.427886
O O5 0.750000 0.369531 0.882148
O O6 0.927507 0.334425 0.766156
O O7 0.991091 0.413613 0.839711
O O8 0.011174 0.336850 0.926151
O O9 0.250000 0.847149 0.849396
O O10 0.504591 0.818227 0.910896
O O11 0.465507 0.902815 0.861694
O O12 0.750000 0.200021 0.651461
O O13 0.540817 0.250000 0.709697
O O14 0.476798 0.182171 0.605136
O O15 0.750000 0.697293 0.001394
O O16 0.973450 0.750000 0.022784
O O17 0.750000 0.819327 0.505749
O O18 0.582033 0.750000 0.487342
O O19 0.250000 0.552277 0.931982
O O20 0.039364 0.504506 0.867120
O O21 0.983767 0.552386 0.006753
O O22 0.750000 0.946615 0.112769
#
# Coordination Sequence:
#
# PCOD9453371 Si02
#       8
#     8   8   8   8   8   8   8   8
#     4   9  17  29  46  68  94 124 157 191 227 272
#     4  11  21  33  49  69  93 125 163 196 233 282
#     4  10  19  32  50  70  92 124 164 198 231 276
#     4   9  18  32  49  68  91 121 157 195 232 275
#     4  11  23  34  44  64  96 130 161 194 233 276
#     4   9  17  29  46  68  93 121 152 189 233 277
#     4   9  18  32  49  69  92 122 159 200 241 283
#     4  10  19  31  48  69  94 122 156 199 246 284
#
# _framework density 15.802469
#
# number of rings (size 3 to 8) (size 9 to 14) (size 15 to 20)
#    0.000    2.250    1.250    2.250    0.000    5.500 
#    0.000    2.500    0.000    0.000    0.000    0.875 
#    0.000    0.000    0.000    0.000    0.000    0.000 
#
# Total GULP energy -356583.599266 kJ/mol
# GULP energy per Si atom -5571.618739 kJ/mol
# Density = 1.576650 g / cm^3
# Si number density = 15.802469 Si / 1000 Ang^3
#
#
#
# Elastic Constant Matrix: (Units=GPa)
#
#
# Indices 1 2 3 4 5 6 
#
# 1 17.0495 27.1424 10.9785 0.0000 0.0000 0.0000
# 2 27.1424 72.2647 11.6544 0.0000 0.0000 0.0000
# 3 10.9785 11.6544 33.2268 0.0000 0.0000 0.0000
# 4 0.0000 0.0000 0.0000 -27.7360 0.0000 0.0000
# 5 0.0000 0.0000 0.0000 0.0000 57.1911 0.0000
# 6 0.0000 0.0000 0.0000 0.0000 0.0000 21.9053
#
#
#
# Elastic Compliance Matrix: (Units=1/GPa)
#
#
# Indices 1 2 3 4 5 6 
#
# 1 0.182989 -0.062515 -0.038534 0.000000 0.000000 0.000000
# 2 -0.062515 0.036025 0.008020 0.000000 0.000000 0.000000
# 3 -0.038534 0.008020 0.040015 0.000000 0.000000 0.000000
# 4 0.000000 0.000000 0.000000 -0.036054 0.000000 0.000000
# 5 0.000000 0.000000 0.000000 0.000000 0.017485 0.000000
# 6 0.000000 0.000000 0.000000 0.000000 0.000000 0.045651
#
#
# Mechanical properties :
#
#
# Convention : Reuss Voigt Hill
#
# Bulk Modulus (GPa) = 13.70428 24.67684 19.19056
# Shear Modulus (GPa) = 10.07061 15.12311 12.59686
#
# Velocity S-wave (km/s) = 2.52718 3.09691 2.82644
# Velocity P-wave (km/s) = 4.14808 5.33269 4.77724
#
# Compressibility (1/GPa) = 0.07296992
#
# Stress axis : x y z
#
# Youngs Moduli (GPa) = 5.46481 27.75840 24.99040
#
# Poissons Ratio (x) = 1.73533 0.96299
# Poissons Ratio (y) = 0.34163 -0.20042
# Poissons Ratio (z) = 0.21058 -0.22262
#
# Static dielectric constant tensor:
#      x y z
#    x 1.531820 0.000000 0.000000 
#    y 0.000000 1.526900 0.000000 
#    z 0.000000 0.000000 1.518080 
# 
# From -- ./inp_files/21961.got.cif
#   From: 2010.05.17/outbox.ucp.g08.bks.cvg/sg59_11_cif.got.tgz:21961.got - 2010.06.11 16:43:56.
