data_PCOD9453770
_publ_section_title
;
Structure prediction by ZEFSAII (Michael W. Deem and Ramdas Pophale) SiO2 
 PCOD9453770
Probable space group: P B C N
;
_chemical_formula_sum "Si O2"
_cell_formula_units_Z 60
_cell_length_a 12.420998
_cell_length_b 13.909570
_cell_length_c 17.878228
_cell_angle_alpha 90.000000
_cell_angle_beta 90.000000
_cell_angle_gamma 90.000000
_cell_volume 3088.834702
_symmetry_space_group_name_H-M "P B C N"
_symmetry_group_IT_number 60
_symmetry_cell_setting 'orthorhombic'
loop_
_space_group_symop_operation_xyz
x,y,z
1/2-x,1/2-y,1/2+z
1/2+x,1/2-y,-z
-x,y,1/2-z
-x,-y,-z
1/2+x,1/2+y,1/2-z
1/2-x,1/2+y,z
x,-y,1/2+z
loop_
_atom_site_type_symbol
_atom_site_label
_atom_site_fract_x
_atom_site_fract_y
_atom_site_fract_z
Si Si1 0.125179 0.166396 0.727116
Si Si2 0.688076 0.164299 0.553849
Si Si3 0.805788 0.987234 0.153289
Si Si4 0.228031 0.813523 0.809292
Si Si5 0.215627 0.182770 0.561135
Si Si6 0.452459 0.413103 0.953271
Si Si7 0.458825 0.203678 0.587074
Si Si8 0.000000 0.763971 0.750000
O O1 0.175125 0.077293 0.773856
O O2 0.186382 0.259023 0.759211
O O3 0.153433 0.166027 0.639226
O O4 0.000000 0.169449 0.750000
O O5 0.757136 0.077145 0.586522
O O6 0.709387 0.248252 0.616617
O O7 0.713508 0.208815 0.473071
O O8 0.560352 0.146632 0.554518
O O9 0.734386 0.079951 0.171117
O O10 0.915014 0.036639 0.123204
O O11 0.112311 0.817591 0.767258
O O12 0.151629 0.121427 0.499866
O O13 0.342279 0.163261 0.567984
O O14 0.522608 0.316207 0.939125
O O15 0.500000 0.500000 0.000000
O O16 0.474113 0.203585 0.676208
#
# Coordination Sequence:
#
# PCOD9453770 Si02
#       8
#     8   8   8   8   8   8   8   4
#     4  11  25  40  62  96 133 167 204 268 333 376
#     4   9  21  39  62  89 124 170 208 267 318 373
#     4  11  21  41  63  90 126 170 215 253 327 381
#     4  10  20  39  62  89 125 166 209 264 313 377
#     4  11  21  41  62  97 128 163 216 267 317 390
#     4  11  22  38  62  95 126 159 211 271 312 384
#     4  10  20  37  65  87 120 169 213 255 317 376
#     4  10  16  34  62  84 116 158 218 252 298 368
#
# _framework density 19.424800999999999
#
# number of rings (size 3 to 8) (size 9 to 14) (size 15 to 20)
#    0.000    1.600    5.333    1.600    0.933    4.267 
#    2.400    2.000    0.000    0.000    0.000    0.000 
#    0.000    0.000    0.000    0.000    0.000    0.000 
#
# Total GULP energy -334322.569856 kJ/mol
# GULP energy per Si atom -5572.042831 kJ/mol
# Density = 1.938059 g / cm^3
# Si number density = 19.424801 Si / 1000 Ang^3
#
#
#
# Elastic Constant Matrix: (Units=GPa)
#
#
# Indices 1 2 3 4 5 6 
#
# 1 94.3511 13.5377 7.4206 0.0000 0.0000 0.0000
# 2 13.5377 83.7032 5.4034 0.0000 0.0000 0.0000
# 3 7.4206 5.4034 68.0429 0.0000 0.0000 0.0000
# 4 0.0000 0.0000 0.0000 15.9011 0.0000 0.0000
# 5 0.0000 0.0000 0.0000 0.0000 20.3855 0.0000
# 6 0.0000 0.0000 0.0000 0.0000 0.0000 15.5842
#
#
#
# Elastic Compliance Matrix: (Units=1/GPa)
#
#
# Indices 1 2 3 4 5 6 
#
# 1 0.010926 -0.001699 -0.001057 0.000000 0.000000 0.000000
# 2 -0.001699 0.012273 -0.000789 0.000000 0.000000 0.000000
# 3 -0.001057 -0.000789 0.014875 0.000000 0.000000 0.000000
# 4 0.000000 0.000000 0.000000 0.062889 0.000000 0.000000
# 5 0.000000 0.000000 0.000000 0.000000 0.049055 0.000000
# 6 0.000000 0.000000 0.000000 0.000000 0.000000 0.064167
#
#
# Mechanical properties :
#
#
# Convention : Reuss Voigt Hill
#
# Bulk Modulus (GPa) = 32.27552 33.20230 32.73891
# Shear Modulus (GPa) = 21.58887 25.02319 23.30603
#
# Velocity S-wave (km/s) = 3.33739 3.59306 3.46758
# Velocity P-wave (km/s) = 5.61272 5.86031 5.73785
#
# Compressibility (1/GPa) = 0.03098324
#
# Stress axis : x y z
#
# Youngs Moduli (GPa) = 91.52851 81.48172 67.22902
#
# Poissons Ratio (x) = 0.13842 0.07103
# Poissons Ratio (y) = 0.15549 0.05307
# Poissons Ratio (z) = 0.09671 0.06432
#
# Static dielectric constant tensor:
#      x y z
#    x 1.715370 0.000000 0.000000 
#    y 0.000000 1.714690 0.000000 
#    z 0.000000 0.000000 1.789460 
# 
# From -- ./inp_files/20154.got.cif
#   From: 2010.05.17/outbox.cif.g08.bks.cpg/sg60_11_cif.got.tgz:20154.got - 2010.06.03 14:59:27.
