data_PCOD9453075
_publ_section_title
;
Structure prediction by ZEFSAII (Michael W. Deem and Ramdas Pophale) SiO2 
 PCOD9453075
Probable space group: P M M N
;
_chemical_formula_sum "Si O2"
_cell_formula_units_Z 64
_cell_length_a 14.940755
_cell_length_b 8.727401
_cell_length_c 24.931388
_cell_angle_alpha 90.000000
_cell_angle_beta 90.000000
_cell_angle_gamma 90.000000
_cell_volume 3250.902413
_symmetry_space_group_name_H-M "P M M N"
_symmetry_group_IT_number 59
_space_group.IT_coordinate_system_code '2'
_symmetry_cell_setting 'orthorhombic'
loop_
_space_group_symop_operation_xyz
x,y,z
1/2-x,1/2-y,z
1/2+x,-y,-z
-x,1/2+y,-z
-x,-y,-z
1/2+x,1/2+y,-z
1/2-x,y,z
x,1/2-y,z
loop_
_atom_site_type_symbol
_atom_site_label
_atom_site_fract_x
_atom_site_fract_y
_atom_site_fract_z
Si Si1 0.850132 0.075146 0.610884
Si Si2 0.353219 0.434859 0.089346
Si Si3 0.971143 0.932879 0.132466
Si Si4 0.150789 0.927339 0.259947
Si Si5 0.647661 0.936249 0.033398
Si Si6 0.853749 0.437289 0.349669
Si Si7 0.984790 0.071052 0.441915
Si Si8 0.540266 0.068300 0.242759
O O1 0.750000 0.039857 0.591185
O O2 0.872609 0.250000 0.594127
O O3 0.847242 0.074235 0.675231
O O4 0.924223 0.960205 0.590472
O O5 0.250000 0.476242 0.100819
O O6 0.359749 0.250000 0.092520
O O7 0.427081 0.509972 0.126655
O O8 0.373346 0.483005 0.027610
O O9 0.969558 0.750000 0.132753
O O10 0.918166 0.990377 0.079837
O O11 0.928183 0.993372 0.187306
O O12 0.250000 0.979502 0.241690
O O13 0.138239 0.750000 0.242397
O O14 0.064622 0.026237 0.246280
O O15 0.750000 0.981756 0.044858
O O16 0.645371 0.750000 0.033242
O O17 0.750000 0.483852 0.348182
O O18 0.856111 0.250000 0.349922
O O19 0.905433 0.490228 0.403366
O O20 0.907950 0.486321 0.296257
O O21 0.968509 0.250000 0.449052
O O22 0.000000 0.000000 0.500000
O O23 0.550951 0.250000 0.239561
#
# Coordination Sequence:
#
# PCOD9453075 Si02
#       8
#     8   8   8   8   8   8   8   8
#     4   9  18  34  57  83 112 145 177 218 277 337
#     4   9  18  35  58  81 108 146 188 230 278 334
#     4  11  22  34  53  82 114 147 182 229 285 336
#     4   9  18  34  57  82 108 139 175 220 277 336
#     4   8  16  33  56  80 108 143 184 230 282 338
#     4   9  20  40  62  82 109 149 193 233 278 330
#     4  11  22  37  59  88 118 151 190 235 283 333
#     4  11  22  37  57  81 109 146 192 237 277 326
#
# _framework density 19.686841000000001
#
# number of rings (size 3 to 8) (size 9 to 14) (size 15 to 20)
#    0.000    2.375    1.250    3.000    0.000    2.250 
#    0.000    3.125    0.000    7.875    0.000    0.000 
#    0.000    0.000    0.000    0.000    0.000    0.000 
#
# Total GULP energy -357058.221167 kJ/mol
# GULP energy per Si atom -5579.034706 kJ/mol
# Density = 1.964203 g / cm^3
# Si number density = 19.686841 Si / 1000 Ang^3
#
#
#
# Elastic Constant Matrix: (Units=GPa)
#
#
# Indices 1 2 3 4 5 6 
#
# 1 96.8504 17.3142 61.1590 0.0000 0.0000 0.0000
# 2 17.3142 21.4961 25.7830 0.0000 0.0000 0.0000
# 3 61.1590 25.7830 123.2710 0.0000 0.0000 0.0000
# 4 0.0000 0.0000 0.0000 29.2250 0.0000 0.0000
# 5 0.0000 0.0000 0.0000 0.0000 3.4214 0.0000
# 6 0.0000 0.0000 0.0000 0.0000 0.0000 19.5799
#
#
#
# Elastic Compliance Matrix: (Units=1/GPa)
#
#
# Indices 1 2 3 4 5 6 
#
# 1 0.015329 -0.004305 -0.006705 0.000000 0.000000 0.000000
# 2 -0.004305 0.063308 -0.011105 0.000000 0.000000 0.000000
# 3 -0.006705 -0.011105 0.013761 0.000000 0.000000 0.000000
# 4 0.000000 0.000000 0.000000 0.034217 0.000000 0.000000
# 5 0.000000 0.000000 0.000000 0.000000 0.292281 0.000000
# 6 0.000000 0.000000 0.000000 0.000000 0.000000 0.051073
#
#
# Mechanical properties :
#
#
# Convention : Reuss Voigt Hill
#
# Bulk Modulus (GPa) = 20.76076 50.01444 35.38760
# Shear Modulus (GPa) = 9.42943 19.60266 14.51604
#
# Velocity S-wave (km/s) = 2.19092 3.15893 2.71836
# Velocity P-wave (km/s) = 4.11929 6.22618 5.27891
#
# Compressibility (1/GPa) = 0.04816779
#
# Stress axis : x y z
#
# Youngs Moduli (GPa) = 65.23722 15.79587 72.66687
#
# Poissons Ratio (x) = 0.06800 0.48721
# Poissons Ratio (y) = 0.28083 0.80700
# Poissons Ratio (z) = 0.43740 0.17542
#
# Static dielectric constant tensor:
#      x y z
#    x 1.692700 0.000000 0.000000 
#    y 0.000000 1.679250 0.000000 
#    z 0.000000 0.000000 1.717200 
# 
# From -- ./inp_files/32119.got.cif
#   From: 2010.05.17/outbox.cif.g08.bks.cpg/sg59_17_cif.got.tgz:32119.got - 2010.06.03 14:40:33.
