data_PCOD9453504
_publ_section_title
;
Structure prediction by ZEFSAII (Michael W. Deem and Ramdas Pophale) SiO2 
 PCOD9453504
Probable space group: P M M N
;
_chemical_formula_sum "Si O2"
_cell_formula_units_Z 56
_cell_length_a 9.000000
_cell_length_b 21.000000
_cell_length_c 15.000000
_cell_angle_alpha 90.000000
_cell_angle_beta 90.000000
_cell_angle_gamma 90.000000
_cell_volume 2835.000000
_symmetry_space_group_name_H-M "P M M N"
_symmetry_group_IT_number 59
_space_group.IT_coordinate_system_code '2'
_symmetry_cell_setting 'orthorhombic'
loop_
_space_group_symop_operation_xyz
x,y,z
1/2-x,1/2-y,z
1/2+x,-y,-z
-x,1/2+y,-z
-x,-y,-z
1/2+x,1/2+y,-z
1/2-x,y,z
x,1/2-y,z
loop_
_atom_site_type_symbol
_atom_site_label
_atom_site_fract_x
_atom_site_fract_y
_atom_site_fract_z
Si Si1 0.079007 0.382171 0.180530
Si Si2 0.420960 0.750000 0.604855
Si Si3 0.917525 0.960270 0.642051
Si Si4 0.426392 0.878564 0.511359
Si Si5 0.074672 0.323172 0.654769
Si Si6 0.576739 0.499917 0.093216
Si Si7 0.923076 0.250000 0.182251
Si Si8 0.076092 0.917700 0.232215
O O1 0.250000 0.387701 0.150173
O O2 0.079592 0.403660 0.284183
O O3 0.974248 0.435028 0.139005
O O4 0.011880 0.313692 0.158916
O O5 0.250000 0.750000 0.575567
O O6 0.478291 0.816209 0.567153
O O7 0.423653 0.750000 0.710307
O O8 0.750000 0.963484 0.605296
O O9 0.033438 0.940599 0.567349
O O10 0.946092 0.025859 0.694284
O O11 0.250000 0.876781 0.492744
O O12 0.521374 0.869218 0.423562
O O13 0.250000 0.328046 0.669314
O O14 0.037967 0.250000 0.633098
O O15 0.982398 0.349887 0.736933
O O16 0.750000 0.503023 0.085953
O O17 0.515916 0.558484 0.149223
O O18 0.500000 0.500000 0.000000
O O19 0.750000 0.250000 0.153183
O O20 0.250000 0.917043 0.213286
#
# Coordination Sequence:
#
# PCOD9453504 Si02
#       8
#     8   4   8   8   8   8   4   8
#     4  10  20  34  53  83 119 156 194 233 282 342
#     4   9  18  29  45  75 110 147 198 243 281 329
#     4   9  19  34  52  79 114 149 190 238 287 340
#     4  11  20  33  53  78 110 153 201 247 288 334
#     4  11  24  40  58  82 112 151 199 247 293 344
#     4  11  22  40  67  94 119 148 184 230 283 346
#     4  11  19  31  51  81 118 157 196 239 289 345
#     4  10  22  41  63  88 116 149 189 236 291 349
#
# _framework density 19.753086
#
# number of rings (size 3 to 8) (size 9 to 14) (size 15 to 20)
#    0.000    1.714    2.143    4.071    0.000    4.286 
#    0.000    0.000    1.571    0.000    0.000    0.000 
#    0.000    0.000    0.000    0.000    0.000    0.000 
#
# Total GULP energy -312196.818668 kJ/mol
# GULP energy per Si atom -5574.943191 kJ/mol
# Density = 1.970813 g / cm^3
# Si number density = 19.753086 Si / 1000 Ang^3
#
#
#
# Elastic Constant Matrix: (Units=GPa)
#
#
# Indices 1 2 3 4 5 6 
#
# 1 118.0382 29.6876 58.9186 0.0000 0.0000 0.0000
# 2 29.6876 -20.0206 21.1362 0.0000 0.0000 0.0000
# 3 58.9186 21.1362 2.5302 0.0000 0.0000 0.0000
# 4 0.0000 0.0000 0.0000 44.6282 0.0000 0.0000
# 5 0.0000 0.0000 0.0000 0.0000 23.9763 0.0000
# 6 0.0000 0.0000 0.0000 0.0000 0.0000 26.0679
#
#
#
# Elastic Compliance Matrix: (Units=1/GPa)
#
#
# Indices 1 2 3 4 5 6 
#
# 1 -0.006029 0.014184 0.021904 0.000000 0.000000 0.000000
# 2 0.014184 -0.038458 -0.009039 0.000000 0.000000 0.000000
# 3 0.021904 -0.009039 -0.039329 0.000000 0.000000 0.000000
# 4 0.000000 0.000000 0.000000 0.022407 0.000000 0.000000
# 5 0.000000 0.000000 0.000000 0.000000 0.041708 0.000000
# 6 0.000000 0.000000 0.000000 0.000000 0.000000 0.038361
#
#
# Mechanical properties :
#
#
# Convention : Reuss Voigt Hill
#
# Bulk Modulus (GPa) = -33.65090 35.55916 0.95413
# Shear Modulus (GPa) = -110.26921 18.32152 -45.97384
#
# Velocity S-wave (km/s) = -7.47964 3.04884 -4.82957
# Velocity P-wave (km/s) = 9.57424 5.51677 5.53314
#
# Compressibility (1/GPa) = -0.02971688
#
# Stress axis : x y z
#
# Youngs Moduli (GPa) = -165.86152 -26.00237 -25.42685
#
# Poissons Ratio (x) = 0.36883 0.55696
# Poissons Ratio (y) = 2.35265 -0.22984
# Poissons Ratio (z) = 3.63307 -0.23504
#
# Static dielectric constant tensor:
#      x y z
#    x 1.641700 0.000000 0.000000 
#    y 0.000000 1.720950 0.000000 
#    z 0.000000 0.000000 1.701530 
# 
# From -- ./inp_files/21144.got.cif
#   From: 2010.05.17/outbox.ucp.g08.bks.cvg/sg59_11_cif.got.tgz:21144.got - 2010.06.11 16:43:56.
