data_PCOD9453007
_publ_section_title
;
Structure prediction by ZEFSAII (Michael W. Deem and Ramdas Pophale) SiO2 
 PCOD9453007
Probable space group: P M M N
;
_chemical_formula_sum "Si O2"
_cell_formula_units_Z 48
_cell_length_a 13.922611
_cell_length_b 17.127820
_cell_length_c 8.672301
_cell_angle_alpha 90.000000
_cell_angle_beta 90.000000
_cell_angle_gamma 90.000000
_cell_volume 2068.031370
_symmetry_space_group_name_H-M "P M M N"
_symmetry_group_IT_number 59
_space_group.IT_coordinate_system_code '2'
_symmetry_cell_setting 'orthorhombic'
loop_
_space_group_symop_operation_xyz
x,y,z
1/2-x,1/2-y,z
1/2+x,-y,-z
-x,1/2+y,-z
-x,-y,-z
1/2+x,1/2+y,-z
1/2-x,y,z
x,1/2-y,z
loop_
_atom_site_type_symbol
_atom_site_label
_atom_site_fract_x
_atom_site_fract_y
_atom_site_fract_z
Si Si1 0.365198 0.663148 0.236907
Si Si2 0.964530 0.333114 0.437128
Si Si3 0.359694 0.134636 0.644191
Si Si4 0.355754 0.958547 0.728856
Si Si5 0.139000 0.502838 0.090334
Si Si6 0.367103 0.335805 0.001579
O O1 0.250000 0.661601 0.215094
O O2 0.397126 0.750000 0.177396
O O3 0.393475 0.661812 0.415692
O O4 0.403973 0.580493 0.169446
O O5 0.949632 0.250000 0.359062
O O6 0.938356 0.403164 0.328013
O O7 0.068693 0.336725 0.514598
O O8 0.250000 0.159823 0.621531
O O9 0.389773 0.158753 0.818198
O O10 0.361639 0.040968 0.643334
O O11 0.250000 0.923488 0.697799
O O12 0.360013 0.976757 0.909363
O O13 0.250000 0.497078 0.145749
O O14 0.099169 0.414052 0.090142
O O15 0.250000 0.339226 0.006603
O O16 0.396657 0.250000 0.059205
#
# Coordination Sequence:
#
# PCOD9453007 Si02
#       6
#     8   8   8   8   8   8
#     4   9  18  32  48  70 105 144 177 211 256 312
#     4  11  21  31  49  79 109 136 171 218 268 313
#     4   9  18  33  52  73  99 133 174 218 262 311
#     4   9  18  33  52  75 104 136 173 216 261 314
#     4   8  15  29  49  73 101 137 176 211 257 314
#     4   8  13  24  45  71  95 121 163 218 261 296
#
# _framework density 23.21048
#
# number of rings (size 3 to 8) (size 9 to 14) (size 15 to 20)
#    0.000    3.000    0.000    3.500    0.000    2.667 
#    0.000    5.000    0.000    0.000    0.000   10.500 
#    0.000   48.000    0.000    0.000    0.000    0.000 
#
# Total GULP energy -267988.413016 kJ/mol
# GULP energy per Si atom -5583.091938 kJ/mol
# Density = 2.315765 g / cm^3
# Si number density = 23.210480 Si / 1000 Ang^3
#
#
#
# Elastic Constant Matrix: (Units=GPa)
#
#
# Indices 1 2 3 4 5 6 
#
# 1 67.2110 49.0269 24.3391 0.0000 0.0000 0.0000
# 2 49.0269 207.7293 42.1707 0.0000 0.0000 0.0000
# 3 24.3391 42.1707 17.4248 0.0000 0.0000 0.0000
# 4 0.0000 0.0000 0.0000 284.7613 0.0000 0.0000
# 5 0.0000 0.0000 0.0000 0.0000 31.3004 0.0000
# 6 0.0000 0.0000 0.0000 0.0000 0.0000 -18.7740
#
#
#
# Elastic Compliance Matrix: (Units=1/GPa)
#
#
# Indices 1 2 3 4 5 6 
#
# 1 0.030969 0.002895 -0.050263 0.000000 0.000000 0.000000
# 2 0.002895 0.009734 -0.027601 0.000000 0.000000 0.000000
# 3 -0.050263 -0.027601 0.194398 0.000000 0.000000 0.000000
# 4 0.000000 0.000000 0.000000 0.003512 0.000000 0.000000
# 5 0.000000 0.000000 0.000000 0.000000 0.031948 0.000000
# 6 0.000000 0.000000 0.000000 0.000000 0.000000 -0.053265
#
#
# Mechanical properties :
#
#
# Convention : Reuss Voigt Hill
#
# Bulk Modulus (GPa) = 11.74255 58.15982 34.95119
# Shear Modulus (GPa) = 12.63832 71.24611 41.94222
#
# Velocity S-wave (km/s) = 2.33600 5.54638 4.25554
# Velocity P-wave (km/s) = 3.51369 8.13194 6.26396
#
# Compressibility (1/GPa) = 0.08516035
#
# Stress axis : x y z
#
# Youngs Moduli (GPa) = 32.29053 102.73233 5.14410
#
# Poissons Ratio (x) = -0.29739 0.25856
# Poissons Ratio (y) = -0.09348 0.14198
# Poissons Ratio (z) = 1.62303 2.83555
#
# Static dielectric constant tensor:
#      x y z
#    x 1.887940 0.000000 0.000000 
#    y 0.000000 1.894980 0.000000 
#    z 0.000000 0.000000 1.802740 
# 
# From -- ./inp_files/9051.got.cif
#   From: 2010.05.17/outbox.cif.g08.bks.cpg/sg59_5_cif.got.tgz:9051.got - 2010.06.03 14:40:33.
