data_PCOD9453367
_publ_section_title
;
Structure prediction by ZEFSAII (Michael W. Deem and Ramdas Pophale) SiO2 
 PCOD9453367
Probable space group: P M M N
;
_chemical_formula_sum "Si O2"
_cell_formula_units_Z 64
_cell_length_a 9.000000
_cell_length_b 30.000000
_cell_length_c 15.000000
_cell_angle_alpha 90.000000
_cell_angle_beta 90.000000
_cell_angle_gamma 90.000000
_cell_volume 4050.000000
_symmetry_space_group_name_H-M "P M M N"
_symmetry_group_IT_number 59
_space_group.IT_coordinate_system_code '2'
_symmetry_cell_setting 'orthorhombic'
loop_
_space_group_symop_operation_xyz
x,y,z
1/2-x,1/2-y,z
1/2+x,-y,-z
-x,1/2+y,-z
-x,-y,-z
1/2+x,1/2+y,-z
1/2-x,y,z
x,1/2-y,z
loop_
_atom_site_type_symbol
_atom_site_label
_atom_site_fract_x
_atom_site_fract_y
_atom_site_fract_z
Si Si1 0.073755 0.066292 0.957077
Si Si2 0.430388 0.298691 0.505548
Si Si3 0.426615 0.530467 0.874006
Si Si4 0.072258 0.563821 0.366989
Si Si5 0.422352 0.302059 0.713861
Si Si6 0.070535 0.392913 0.460491
Si Si7 0.071094 0.464502 0.317070
Si Si8 0.925418 0.379839 0.808728
O O1 0.250000 0.068626 0.967899
O O2 0.012747 0.105366 0.895834
O O3 0.037184 0.019936 0.905916
O O4 0.995031 0.062755 0.051940
O O5 0.250000 0.297238 0.502082
O O6 0.485792 0.250000 0.477809
O O7 0.466598 0.306001 0.609864
O O8 0.480052 0.341827 0.452048
O O9 0.250000 0.534695 0.871264
O O10 0.497423 0.538281 0.778651
O O11 0.250000 0.567850 0.379531
O O12 0.032526 0.511903 0.361248
O O13 0.035167 0.587005 0.273054
O O14 0.989427 0.587653 0.447196
O O15 0.250000 0.316930 0.721235
O O16 0.428408 0.250000 0.736206
O O17 0.525917 0.331693 0.774712
O O18 0.250000 0.393582 0.463584
O O19 0.022660 0.424608 0.380717
O O20 0.250000 0.463628 0.307310
O O21 0.750000 0.383132 0.823877
#
# Coordination Sequence:
#
# PCOD9453367 Si02
#       8
#     8   8   8   8   8   8   8   8
#     4  10  20  33  51  71  93 122 157 196 236 284
#     4   8  14  26  44  66  90 116 153 200 240 273
#     4  10  20  33  50  71  93 122 157 196 241 284
#     4  10  20  31  42  62  97 132 159 194 233 274
#     4   9  17  30  48  68  93 126 162 201 241 283
#     4  10  19  30  48  68  89 125 166 199 234 281
#     4  10  20  33  46  65  95 128 162 199 238 281
#     4  11  20  30  47  70  98 130 160 194 238 288
#
# _framework density 15.802469
#
# number of rings (size 3 to 8) (size 9 to 14) (size 15 to 20)
#    0.000    2.250    2.500    2.250    0.000    2.750 
#    0.000    0.000    0.000    0.375    0.000    0.875 
#    0.000    5.000    0.000    0.000    0.000    0.000 
#
# Total GULP energy -356824.924999 kJ/mol
# GULP energy per Si atom -5575.389453 kJ/mol
# Density = 1.576650 g / cm^3
# Si number density = 15.802469 Si / 1000 Ang^3
#
#
#
# Elastic Constant Matrix: (Units=GPa)
#
#
# Indices 1 2 3 4 5 6 
#
# 1 -2.3821 16.9455 13.0308 0.0000 0.0000 0.0000
# 2 16.9455 89.2543 43.5608 0.0000 0.0000 0.0000
# 3 13.0308 43.5608 42.3824 0.0000 0.0000 0.0000
# 4 0.0000 0.0000 0.0000 10.5097 0.0000 0.0000
# 5 0.0000 0.0000 0.0000 0.0000 23.1409 0.0000
# 6 0.0000 0.0000 0.0000 0.0000 0.0000 17.2544
#
#
#
# Elastic Compliance Matrix: (Units=1/GPa)
#
#
# Indices 1 2 3 4 5 6 
#
# 1 -0.149876 0.011969 0.033779 0.000000 0.000000 0.000000
# 2 0.011969 0.021525 -0.025803 0.000000 0.000000 0.000000
# 3 0.033779 -0.025803 0.039730 0.000000 0.000000 0.000000
# 4 0.000000 0.000000 0.000000 0.095150 0.000000 0.000000
# 5 0.000000 0.000000 0.000000 0.000000 0.043214 0.000000
# 6 0.000000 0.000000 0.000000 0.000000 0.000000 0.057956
#
#
# Mechanical properties :
#
#
# Convention : Reuss Voigt Hill
#
# Bulk Modulus (GPa) = -20.52033 30.70320 5.09143
# Shear Modulus (GPa) = 96.96091 13.89550 55.42820
#
# Velocity S-wave (km/s) = 7.84164 2.96856 5.92890
# Velocity P-wave (km/s) = 8.30510 5.58760 7.07799
#
# Compressibility (1/GPa) = -0.04873215
#
# Stress axis : x y z
#
# Youngs Moduli (GPa) = -6.67220 46.45763 25.16987
#
# Poissons Ratio (x) = -0.55605 -0.85020
# Poissons Ratio (y) = 0.07986 0.64947
# Poissons Ratio (z) = 0.22538 1.19877
#
# Static dielectric constant tensor:
#      x y z
#    x 1.511190 0.000000 0.000000 
#    y 0.000000 1.548930 0.000000 
#    z 0.000000 0.000000 1.496610 
# 
# From -- ./inp_files/21851.got.cif
#   From: 2010.05.17/outbox.ucp.g08.bks.cvg/sg59_11_cif.got.tgz:21851.got - 2010.06.11 16:43:56.
