data_PCOD9453547
_publ_section_title
;
Structure prediction by ZEFSAII (Michael W. Deem and Ramdas Pophale) SiO2 
 PCOD9453547
Probable space group: P M M N
;
_chemical_formula_sum "Si O2"
_cell_formula_units_Z 56
_cell_length_a 21.000000
_cell_length_b 9.000000
_cell_length_c 15.000000
_cell_angle_alpha 90.000000
_cell_angle_beta 90.000000
_cell_angle_gamma 90.000000
_cell_volume 2835.000000
_symmetry_space_group_name_H-M "P M M N"
_symmetry_group_IT_number 59
_space_group.IT_coordinate_system_code '2'
_symmetry_cell_setting 'orthorhombic'
loop_
_space_group_symop_operation_xyz
x,y,z
1/2-x,1/2-y,z
1/2+x,-y,-z
-x,1/2+y,-z
-x,-y,-z
1/2+x,1/2+y,-z
1/2-x,y,z
x,1/2-y,z
loop_
_atom_site_type_symbol
_atom_site_label
_atom_site_fract_x
_atom_site_fract_y
_atom_site_fract_z
Si Si1 0.819444 0.426964 0.844083
Si Si2 0.030699 0.084348 0.381453
Si Si3 0.175111 0.071813 0.680132
Si Si4 0.821819 0.923833 0.033986
Si Si5 0.105552 0.919170 0.519580
Si Si6 0.587690 0.074791 0.166774
Si Si7 0.037775 0.578009 0.207643
O O1 0.750000 0.450759 0.798155
O O2 0.821115 0.250000 0.866539
O O3 0.887416 0.460004 0.799652
O O4 0.818988 0.527690 0.931782
O O5 0.040803 0.250000 0.343047
O O6 0.964409 0.091524 0.434744
O O7 0.090498 0.032843 0.440124
O O8 0.020878 0.957092 0.309262
O O9 0.250000 0.043434 0.700219
O O10 0.166850 0.250000 0.672955
O O11 0.154541 0.988772 0.589563
O O12 0.126881 0.008946 0.754908
O O13 0.750000 0.943919 0.071247
O O14 0.838367 0.750000 0.044856
O O15 0.872215 0.029815 0.080544
O O16 0.123100 0.750000 0.493036
O O17 0.588161 0.250000 0.184520
O O18 0.515227 0.018166 0.156781
O O19 0.029459 0.750000 0.184348
#
# Coordination Sequence:
#
# PCOD9453547 Si02
#       7
#     8   8   8   8   8   8   8
#     4   9  20  40  63  86 112 146 189 235 288 347
#     4  10  20  35  57  84 114 148 189 236 283 337
#     4  11  23  38  57  83 118 156 193 239 292 344
#     4  10  21  38  60  85 114 151 193 236 285 341
#     4  10  20  35  57  83 111 150 193 234 281 336
#     4  12  24  37  56  84 117 154 194 237 285 341
#     4  11  22  37  60  87 117 151 189 239 292 343
#
# _framework density 19.753086
#
# number of rings (size 3 to 8) (size 9 to 14) (size 15 to 20)
#    0.000    1.571    1.429    3.857    0.000    6.571 
#    0.000    0.714    0.000    2.571    0.000    0.000 
#    0.000    0.000    0.000    0.000    0.000    0.000 
#
# Total GULP energy -312222.288390 kJ/mol
# GULP energy per Si atom -5575.398007 kJ/mol
# Density = 1.970813 g / cm^3
# Si number density = 19.753086 Si / 1000 Ang^3
#
#
#
# Elastic Constant Matrix: (Units=GPa)
#
#
# Indices 1 2 3 4 5 6 
#
# 1 104.5443 49.3810 -1.2095 0.0000 0.0000 0.0000
# 2 49.3810 85.9223 -0.5294 0.0000 0.0000 0.0000
# 3 -1.2095 -0.5294 3.5435 0.0000 0.0000 0.0000
# 4 0.0000 0.0000 0.0000 19.6114 0.0000 0.0000
# 5 0.0000 0.0000 0.0000 0.0000 29.8193 0.0000
# 6 0.0000 0.0000 0.0000 0.0000 0.0000 19.0191
#
#
#
# Elastic Compliance Matrix: (Units=1/GPa)
#
#
# Indices 1 2 3 4 5 6 
#
# 1 0.013170 -0.007548 0.003367 0.000000 0.000000 0.000000
# 2 -0.007548 0.015975 -0.000190 0.000000 0.000000 0.000000
# 3 0.003367 -0.000190 0.283331 0.000000 0.000000 0.000000
# 4 0.000000 0.000000 0.000000 0.050991 0.000000 0.000000
# 5 0.000000 0.000000 0.000000 0.000000 0.033535 0.000000
# 6 0.000000 0.000000 0.000000 0.000000 0.000000 0.052579
#
#
# Mechanical properties :
#
#
# Convention : Reuss Voigt Hill
#
# Bulk Modulus (GPa) = 3.29234 32.14379 17.71806
# Shear Modulus (GPa) = 8.93549 23.44783 16.19166
#
# Velocity S-wave (km/s) = 2.12918 3.44909 2.86615
# Velocity P-wave (km/s) = 2.77757 5.67184 4.46568
#
# Compressibility (1/GPa) = 0.30373579
#
# Stress axis : x y z
#
# Youngs Moduli (GPa) = 75.93276 62.59693 3.52944
#
# Poissons Ratio (x) = 0.47248 -0.01189
# Poissons Ratio (y) = 0.57314 0.00067
# Poissons Ratio (z) = -0.25570 0.01186
#
# Static dielectric constant tensor:
#      x y z
#    x 1.716090 0.000000 0.000000 
#    y 0.000000 1.660230 0.000000 
#    z 0.000000 0.000000 1.750720 
# 
# From -- ./inp_files/24292.got.cif
#   From: 2010.05.17/outbox.ucp.g08.bks.cvg/sg59_13_cif.got.tgz:24292.got - 2010.06.11 16:43:56.
