data_PCOD9453725
_publ_section_title
;
Structure prediction by ZEFSAII (Michael W. Deem and Ramdas Pophale) SiO2 
 PCOD9453725
Probable space group: P B C N
;
_chemical_formula_sum "Si O2"
_cell_formula_units_Z 52
_cell_length_a 13.564543
_cell_length_b 8.032751
_cell_length_c 21.069396
_cell_angle_alpha 90.000000
_cell_angle_beta 90.000000
_cell_angle_gamma 90.000000
_cell_volume 2295.733953
_symmetry_space_group_name_H-M "P B C N"
_symmetry_group_IT_number 60
_symmetry_cell_setting 'orthorhombic'
loop_
_space_group_symop_operation_xyz
x,y,z
1/2-x,1/2-y,1/2+z
1/2+x,1/2-y,-z
-x,y,1/2-z
-x,-y,-z
1/2+x,1/2+y,1/2-z
1/2-x,1/2+y,z
x,-y,1/2+z
loop_
_atom_site_type_symbol
_atom_site_label
_atom_site_fract_x
_atom_site_fract_y
_atom_site_fract_z
Si Si1 0.500000 0.319459 0.250000
Si Si2 0.221246 0.969810 0.034425
Si Si3 0.405412 0.788248 0.071507
Si Si4 0.032203 0.765378 0.052144
Si Si5 0.773997 0.940295 0.113066
Si Si6 0.395349 0.123693 0.350083
Si Si7 0.475548 0.441632 0.860412
O O1 0.419857 0.198067 0.281407
O O2 0.472714 0.445305 0.193128
O O3 0.325620 0.933303 0.067344
O O4 0.145814 0.812763 0.041327
O O5 0.164323 0.125798 0.063413
O O6 0.236318 0.008189 0.960217
O O7 0.473540 0.735162 0.130441
O O8 0.478980 0.794205 0.011532
O O9 0.994135 0.639513 0.107237
O O10 0.987482 0.944721 0.075576
O O11 0.668212 0.958810 0.145834
O O12 0.858258 0.051146 0.148146
O O13 0.820031 0.756902 0.117925
#
# Coordination Sequence:
#
# PCOD9453725 Si02
#       7
#     4   8   8   8   8   8   8
#     4   8  18  34  50  70  94 134 178 200 232 296
#     4  11  17  29  47  76 100 132 164 198 253 300
#     4  11  18  30  48  71 104 127 161 206 248 297
#     4   9  16  29  48  68  98 129 160 196 243 298
#     4  10  16  29  52  77  94 126 169 204 241 297
#     4  10  19  32  53  75  98 128 171 208 240 288
#     4   9  17  32  51  70  96 135 169 198 242 297
#
# _framework density 22.650708000000002
#
# number of rings (size 3 to 8) (size 9 to 14) (size 15 to 20)
#    0.000    2.462    6.154    0.923    0.000    0.000 
#    0.000   11.538    0.000    3.692    0.000    0.000 
#    0.000    0.000    0.000    0.000    0.000    0.000 
#
# Total GULP energy -289990.872665 kJ/mol
# GULP energy per Si atom -5576.747551 kJ/mol
# Density = 2.259915 g / cm^3
# Si number density = 22.650708 Si / 1000 Ang^3
#
#
#
# Elastic Constant Matrix: (Units=GPa)
#
#
# Indices 1 2 3 4 5 6 
#
# 1 107.0325 18.8891 17.8550 0.0000 0.0000 0.0000
# 2 18.8891 49.0192 -1.4093 0.0000 0.0000 0.0000
# 3 17.8550 -1.4093 47.5510 0.0000 0.0000 0.0000
# 4 0.0000 0.0000 0.0000 11.8727 0.0000 0.0000
# 5 0.0000 0.0000 0.0000 0.0000 14.1001 0.0000
# 6 0.0000 0.0000 0.0000 0.0000 0.0000 45.8230
#
#
#
# Elastic Compliance Matrix: (Units=1/GPa)
#
#
# Indices 1 2 3 4 5 6 
#
# 1 0.010796 -0.004280 -0.004181 0.000000 0.000000 0.000000
# 2 -0.004280 0.022115 0.002263 0.000000 0.000000 0.000000
# 3 -0.004181 0.002263 0.022667 0.000000 0.000000 0.000000
# 4 0.000000 0.000000 0.000000 0.084227 0.000000 0.000000
# 5 0.000000 0.000000 0.000000 0.000000 0.070922 0.000000
# 6 0.000000 0.000000 0.000000 0.000000 0.000000 0.021823
#
#
# Mechanical properties :
#
#
# Convention : Reuss Voigt Hill
#
# Bulk Modulus (GPa) = 23.15843 30.47471 26.81657
# Shear Modulus (GPa) = 19.27981 25.57701 22.42841
#
# Velocity S-wave (km/s) = 2.92066 3.36399 3.15014
# Velocity P-wave (km/s) = 4.64974 5.34528 5.00959
#
# Compressibility (1/GPa) = 0.04318083
#
# Stress axis : x y z
#
# Youngs Moduli (GPa) = 92.62923 45.21907 44.11724
#
# Poissons Ratio (x) = 0.19355 0.18444
# Poissons Ratio (y) = 0.39647 -0.09982
# Poissons Ratio (z) = 0.38724 -0.10231
#
# Static dielectric constant tensor:
#      x y z
#    x 1.911310 0.000000 0.000000 
#    y 0.000000 1.991140 0.000000 
#    z 0.000000 0.000000 1.842370 
# 
# From -- ./inp_files/22878.got.cif
#   From: 2010.05.17/outbox.cif.g08.bks.cpg/sg60_12_cif.got.tgz:22878.got - 2010.06.03 14:59:27.
