data_PCOD9453499
_publ_section_title
;
Structure prediction by ZEFSAII (Michael W. Deem and Ramdas Pophale) SiO2 
 PCOD9453499
Probable space group: P M M N
;
_chemical_formula_sum "Si O2"
_cell_formula_units_Z 56
_cell_length_a 9.000000
_cell_length_b 21.000000
_cell_length_c 18.000000
_cell_angle_alpha 90.000000
_cell_angle_beta 90.000000
_cell_angle_gamma 90.000000
_cell_volume 3402.000000
_symmetry_space_group_name_H-M "P M M N"
_symmetry_group_IT_number 59
_space_group.IT_coordinate_system_code '2'
_symmetry_cell_setting 'orthorhombic'
loop_
_space_group_symop_operation_xyz
x,y,z
1/2-x,1/2-y,z
1/2+x,-y,-z
-x,1/2+y,-z
-x,-y,-z
1/2+x,1/2+y,-z
1/2-x,y,z
x,1/2-y,z
loop_
_atom_site_type_symbol
_atom_site_label
_atom_site_fract_x
_atom_site_fract_y
_atom_site_fract_z
Si Si1 0.928845 0.958037 0.110233
Si Si2 0.929796 0.441824 0.728379
Si Si3 0.929374 0.324707 0.615375
Si Si4 0.071021 0.825504 0.824416
Si Si5 0.570327 0.590091 0.691237
Si Si6 0.071142 0.175851 0.452351
Si Si7 0.428546 0.090065 0.052430
O O1 0.750000 0.964944 0.116779
O O2 0.996112 0.936296 0.189561
O O3 0.957895 0.914170 0.036751
O O4 0.002794 0.025798 0.088597
O O5 0.750000 0.440006 0.736262
O O6 0.971122 0.382029 0.673481
O O7 0.966850 0.513934 0.697560
O O8 0.750000 0.326452 0.610000
O O9 0.969194 0.250000 0.635767
O O10 0.997554 0.336688 0.533058
O O11 0.250000 0.832588 0.825798
O O12 0.037188 0.750000 0.814003
O O13 0.004188 0.869384 0.758080
O O14 0.001480 0.852325 0.901356
O O15 0.750000 0.594583 0.698779
O O16 0.529981 0.625766 0.613217
O O17 0.250000 0.172477 0.460666
O O18 0.034472 0.250000 0.431683
O O19 0.250000 0.090173 0.062594
#
# Coordination Sequence:
#
# PCOD9453499 Si02
#       7
#     8   8   8   8   8   8   8
#     4  10  20  34  55  81 107 135 174 222 268 314
#     4  10  20  34  54  80 108 140 180 223 270 325
#     4   9  19  36  55  75 103 140 180 223 273 326
#     4  11  23  36  52  79 113 146 183 227 270 316
#     4  10  20  34  53  78 107 141 182 223 269 324
#     4   9  18  33  52  74 102 138 179 221 268 324
#     4  10  20  35  55  78 105 142 181 217 263 320
#
# _framework density 16.460905
#
# number of rings (size 3 to 8) (size 9 to 14) (size 15 to 20)
#    0.000    2.143    1.429    1.714    0.000    5.143 
#    0.000    2.143    0.000    2.571    0.000    0.000 
#    0.000    0.000    0.000    0.000    0.000    0.000 
#
# Total GULP energy -312188.778317 kJ/mol
# GULP energy per Si atom -5574.799613 kJ/mol
# Density = 1.642344 g / cm^3
# Si number density = 16.460905 Si / 1000 Ang^3
#
#
#
# Elastic Constant Matrix: (Units=GPa)
#
#
# Indices 1 2 3 4 5 6 
#
# 1 51.8522 38.9094 43.7268 0.0000 0.0000 0.0000
# 2 38.9094 141.3320 86.6166 0.0000 0.0000 0.0000
# 3 43.7268 86.6166 156.8530 0.0000 0.0000 0.0000
# 4 0.0000 0.0000 0.0000 39.2261 0.0000 0.0000
# 5 0.0000 0.0000 0.0000 0.0000 37.5970 0.0000
# 6 0.0000 0.0000 0.0000 0.0000 0.0000 25.6862
#
#
#
# Elastic Compliance Matrix: (Units=1/GPa)
#
#
# Indices 1 2 3 4 5 6 
#
# 1 0.026787 -0.004229 -0.005132 0.000000 0.000000 0.000000
# 2 -0.004229 0.011363 -0.005096 0.000000 0.000000 0.000000
# 3 -0.005132 -0.005096 0.010620 0.000000 0.000000 0.000000
# 4 0.000000 0.000000 0.000000 0.025493 0.000000 0.000000
# 5 0.000000 0.000000 0.000000 0.000000 0.026598 0.000000
# 6 0.000000 0.000000 0.000000 0.000000 0.000000 0.038931
#
#
# Mechanical properties :
#
#
# Convention : Reuss Voigt Hill
#
# Bulk Modulus (GPa) = 50.36341 76.50476 63.43409
# Shear Modulus (GPa) = 28.51842 32.55416 30.53629
#
# Velocity S-wave (km/s) = 4.16684 4.45192 4.31174
# Velocity P-wave (km/s) = 7.33568 8.54422 7.96291
#
# Compressibility (1/GPa) = 0.01985568
#
# Stress axis : x y z
#
# Youngs Moduli (GPa) = 37.33138 88.00616 94.16198
#
# Poissons Ratio (x) = 0.37221 0.48325
# Poissons Ratio (y) = 0.15789 0.47982
# Poissons Ratio (z) = 0.19159 0.44845
#
# Static dielectric constant tensor:
#      x y z
#    x 1.551460 0.000000 0.000000 
#    y 0.000000 1.561980 0.000000 
#    z 0.000000 0.000000 1.554120 
# 
# From -- ./inp_files/26071.got.cif
#   From: 2010.05.17/outbox.ucp.g08.bks.cvg/sg59_14_cif.got.tgz:26071.got - 2010.06.11 16:43:56.
