data_PCOD9453681
_publ_section_title
;
Structure prediction by ZEFSAII (Michael W. Deem and Ramdas Pophale) SiO2 
 PCOD9453681
Probable space group: P M M N
;
_chemical_formula_sum "Si O2"
_cell_formula_units_Z 56
_cell_length_a 15.000000
_cell_length_b 15.000000
_cell_length_c 12.000000
_cell_angle_alpha 90.000000
_cell_angle_beta 90.000000
_cell_angle_gamma 90.000000
_cell_volume 2700.000000
_symmetry_space_group_name_H-M "P M M N"
_symmetry_group_IT_number 59
_space_group.IT_coordinate_system_code '2'
_symmetry_cell_setting 'orthorhombic'
loop_
_space_group_symop_operation_xyz
x,y,z
1/2-x,1/2-y,z
1/2+x,-y,-z
-x,1/2+y,-z
-x,-y,-z
1/2+x,1/2+y,-z
1/2-x,y,z
x,1/2-y,z
loop_
_atom_site_type_symbol
_atom_site_label
_atom_site_fract_x
_atom_site_fract_y
_atom_site_fract_z
Si Si1 0.349617 0.357516 0.535997
Si Si2 0.852913 0.022965 0.070943
Si Si3 0.852088 0.983010 0.810509
Si Si4 0.642937 0.353038 0.654343
Si Si5 0.531613 0.357906 0.439104
Si Si6 0.482543 0.856259 0.803608
Si Si7 0.142248 0.349687 0.796447
O O1 0.250000 0.393333 0.513964
O O2 0.344770 0.250000 0.519710
O O3 0.432122 0.392947 0.465076
O O4 0.373617 0.368974 0.666172
O O5 0.750000 0.039178 0.108146
O O6 0.919481 0.101140 0.104129
O O7 0.887545 0.931509 0.128051
O O8 0.850975 0.008970 0.939780
O O9 0.750000 0.959702 0.777182
O O10 0.920615 0.901826 0.800482
O O11 0.881375 0.070963 0.742765
O O12 0.750000 0.352186 0.645367
O O13 0.615276 0.250000 0.681272
O O14 0.598491 0.379720 0.537677
O O15 0.525134 0.250000 0.439707
O O16 0.560836 0.382366 0.315710
O O17 0.489372 0.750000 0.813454
O O18 0.250000 0.345536 0.808715
O O19 0.107822 0.250000 0.823322
#
# Coordination Sequence:
#
# PCOD9453681 Si02
#       7
#     8   8   8   8   8   8   8
#     4   8  14  27  49  80 116 149 186 234 289 352
#     4  10  22  41  63  89 122 157 200 252 301 356
#     4  10  23  43  64  88 120 158 204 256 302 353
#     4   9  19  38  63  89 116 151 200 255 308 359
#     4   9  19  35  57  85 118 158 197 241 298 357
#     4  11  25  42  60  88 126 166 205 243 294 362
#     4   8  15  30  54  85 117 148 189 243 301 356
#
# _framework density 20.740741
#
# number of rings (size 3 to 8) (size 9 to 14) (size 15 to 20)
#    0.000    2.714    0.000    1.286    2.000    3.429 
#    0.000    5.714    0.000    0.000    0.000    0.000 
#    0.000    0.000    0.000    0.000    0.000    0.000 
#
# Total GULP energy -312627.728968 kJ/mol
# GULP energy per Si atom -5582.638017 kJ/mol
# Density = 2.069353 g / cm^3
# Si number density = 20.740741 Si / 1000 Ang^3
#
#
#
# Elastic Constant Matrix: (Units=GPa)
#
#
# Indices 1 2 3 4 5 6 
#
# 1 34.8135 33.5871 16.3535 0.0000 0.0000 0.0000
# 2 33.5871 99.4702 32.8284 0.0000 0.0000 0.0000
# 3 16.3535 32.8284 57.3526 0.0000 0.0000 0.0000
# 4 0.0000 0.0000 0.0000 22.7317 0.0000 0.0000
# 5 0.0000 0.0000 0.0000 0.0000 27.8250 0.0000
# 6 0.0000 0.0000 0.0000 0.0000 0.0000 9.3391
#
#
#
# Elastic Compliance Matrix: (Units=1/GPa)
#
#
# Indices 1 2 3 4 5 6 
#
# 1 0.043714 -0.013127 -0.004951 0.000000 0.000000 0.000000
# 2 -0.013127 0.016336 -0.005608 0.000000 0.000000 0.000000
# 3 -0.004951 -0.005608 0.022058 0.000000 0.000000 0.000000
# 4 0.000000 0.000000 0.000000 0.043991 0.000000 0.000000
# 5 0.000000 0.000000 0.000000 0.000000 0.035939 0.000000
# 6 0.000000 0.000000 0.000000 0.000000 0.000000 0.107077
#
#
# Mechanical properties :
#
#
# Convention : Reuss Voigt Hill
#
# Bulk Modulus (GPa) = 28.78757 39.68604 34.23681
# Shear Modulus (GPa) = 15.24083 19.23699 17.23891
#
# Velocity S-wave (km/s) = 2.71371 3.04879 2.88612
# Velocity P-wave (km/s) = 4.87122 5.61866 5.25824
#
# Compressibility (1/GPa) = 0.03473721
#
# Stress axis : x y z
#
# Youngs Moduli (GPa) = 22.87581 61.21302 45.33551
#
# Poissons Ratio (x) = 0.80352 0.22446
# Poissons Ratio (y) = 0.30028 0.25424
# Poissons Ratio (z) = 0.11326 0.34328
#
# Static dielectric constant tensor:
#      x y z
#    x 1.754080 0.000000 0.000000 
#    y 0.000000 1.741170 0.000000 
#    z 0.000000 0.000000 1.745370 
# 
# From -- ./inp_files/16923.got.cif
#   From: 2010.05.17/outbox.ucp.g08.bks.cvg/sg59_9_cif.got.tgz:16923.got - 2010.06.11 16:43:56.
