data_PCOD9453830
_publ_section_title
;
Structure prediction by ZEFSAII (Michael W. Deem and Ramdas Pophale) SiO2 
 PCOD9453830
Probable space group: P B C N
;
_chemical_formula_sum "Si O2"
_cell_formula_units_Z 64
_cell_length_a 8.934687
_cell_length_b 20.499448
_cell_length_c 17.024666
_cell_angle_alpha 90.000000
_cell_angle_beta 90.000000
_cell_angle_gamma 90.000000
_cell_volume 3118.172306
_symmetry_space_group_name_H-M "P B C N"
_symmetry_group_IT_number 60
_symmetry_cell_setting 'orthorhombic'
loop_
_space_group_symop_operation_xyz
x,y,z
1/2-x,1/2-y,1/2+z
1/2+x,1/2-y,-z
-x,y,1/2-z
-x,-y,-z
1/2+x,1/2+y,1/2-z
1/2-x,1/2+y,z
x,-y,1/2+z
loop_
_atom_site_type_symbol
_atom_site_label
_atom_site_fract_x
_atom_site_fract_y
_atom_site_fract_z
Si Si1 0.261099 0.876133 0.538866
Si Si2 0.682611 0.029476 0.255086
Si Si3 0.240304 0.523846 0.570149
Si Si4 0.667363 0.833126 0.783763
Si Si5 0.263302 0.302669 0.164095
Si Si6 0.506741 0.366524 0.436252
Si Si7 0.999360 0.633858 0.586246
Si Si8 0.263628 0.400853 0.305932
O O1 0.313981 0.856980 0.625854
O O2 0.094491 0.854454 0.513138
O O3 0.384326 0.846826 0.480802
O O4 0.261792 0.955064 0.524678
O O5 0.500000 0.027142 0.250000
O O6 0.730930 0.103641 0.239248
O O7 0.729920 0.002342 0.340365
O O8 0.761026 0.978595 0.198677
O O9 0.382696 0.570885 0.555036
O O10 0.097645 0.571345 0.559155
O O11 0.500000 0.825328 0.750000
O O12 0.737631 0.761910 0.783894
O O13 0.394258 0.307707 0.099192
O O14 0.113808 0.311846 0.114688
O O15 0.283862 0.364046 0.223118
O O16 0.387703 0.379860 0.367389
O O17 0.899391 0.616604 0.661359
#
# Coordination Sequence:
#
# PCOD9453830 Si02
#       8
#     8   8   8   8   8   8   8   8
#     4  10  22  37  55  87 120 152 196 242 300 359
#     4  10  17  32  57  85 115 149 194 246 294 347
#     4  10  18  33  55  84 118 149 188 239 301 341
#     4  10  23  39  59  81 120 158 194 245 307 360
#     4  11  21  37  60  87 116 156 201 241 297 355
#     4  10  21  32  58  88 116 157 191 248 294 351
#     4  10  20  34  62  89 110 154 198 254 282 347
#     4  11  18  34  61  89 115 147 205 245 289 349
#
# _framework density 20.524844000000002
#
# number of rings (size 3 to 8) (size 9 to 14) (size 15 to 20)
#    0.000    1.750    3.750    2.250    0.000    1.000 
#    0.000    0.000   11.000    0.000    0.000    0.000 
#    0.000    0.000    0.000    0.000    0.000    0.000 
#
# Total GULP energy -356777.025784 kJ/mol
# GULP energy per Si atom -5574.641028 kJ/mol
# Density = 2.047813 g / cm^3
# Si number density = 20.524844 Si / 1000 Ang^3
#
#
#
# Elastic Constant Matrix: (Units=GPa)
#
#
# Indices 1 2 3 4 5 6 
#
# 1 99.0868 17.2905 27.0448 0.0000 0.0000 0.0000
# 2 17.2905 100.8319 -5.3055 0.0000 0.0000 0.0000
# 3 27.0448 -5.3055 47.8704 0.0000 0.0000 0.0000
# 4 0.0000 0.0000 0.0000 -16.3278 0.0000 0.0000
# 5 0.0000 0.0000 0.0000 0.0000 31.2457 0.0000
# 6 0.0000 0.0000 0.0000 0.0000 0.0000 8.8788
#
#
#
# Elastic Compliance Matrix: (Units=1/GPa)
#
#
# Indices 1 2 3 4 5 6 
#
# 1 0.012547 -0.002539 -0.007370 0.000000 0.000000 0.000000
# 2 -0.002539 0.010490 0.002597 0.000000 0.000000 0.000000
# 3 -0.007370 0.002597 0.025341 0.000000 0.000000 0.000000
# 4 0.000000 0.000000 0.000000 -0.061245 0.000000 0.000000
# 5 0.000000 0.000000 0.000000 0.000000 0.032004 0.000000
# 6 0.000000 0.000000 0.000000 0.000000 0.000000 0.112628
#
#
# Mechanical properties :
#
#
# Convention : Reuss Voigt Hill
#
# Bulk Modulus (GPa) = 29.62643 36.20542 32.91593
# Shear Modulus (GPa) = 31.71788 18.67663 25.19725
#
# Velocity S-wave (km/s) = 3.93535 3.01981 3.50758
# Velocity P-wave (km/s) = 5.92579 5.46234 5.69878
#
# Compressibility (1/GPa) = 0.03375364
#
# Stress axis : x y z
#
# Youngs Moduli (GPa) = 79.70167 95.33265 39.46139
#
# Poissons Ratio (x) = 0.24208 0.29082
# Poissons Ratio (y) = 0.20239 -0.10249
# Poissons Ratio (z) = 0.58739 -0.24759
#
# Static dielectric constant tensor:
#      x y z
#    x 1.743940 0.000000 0.000000 
#    y 0.000000 1.785990 0.000000 
#    z 0.000000 0.000000 1.758340 
# 
# From -- ./inp_files/19669.got.cif
#   From: 2010.05.17/outbox.cif.g08.bks.cpg/sg60_10_cif.got.tgz:19669.got - 2010.06.03 14:59:27.
