data_PCOD9453717
_publ_section_title
;
Structure prediction by ZEFSAII (Michael W. Deem and Ramdas Pophale) SiO2 
 PCOD9453717
Probable space group: P B C N
;
_chemical_formula_sum "Si O2"
_cell_formula_units_Z 44
_cell_length_a 31.473430
_cell_length_b 8.899648
_cell_length_c 8.373599
_cell_angle_alpha 90.000000
_cell_angle_beta 90.000000
_cell_angle_gamma 90.000000
_cell_volume 2345.465581
_symmetry_space_group_name_H-M "P B C N"
_symmetry_group_IT_number 60
_symmetry_cell_setting 'orthorhombic'
loop_
_space_group_symop_operation_xyz
x,y,z
1/2-x,1/2-y,1/2+z
1/2+x,1/2-y,-z
-x,y,1/2-z
-x,-y,-z
1/2+x,1/2+y,1/2-z
1/2-x,1/2+y,z
x,-y,1/2+z
loop_
_atom_site_type_symbol
_atom_site_label
_atom_site_fract_x
_atom_site_fract_y
_atom_site_fract_z
Si Si1 0.500000 0.540288 0.250000
Si Si2 0.710004 0.227532 0.567157
Si Si3 0.717089 0.920484 0.716031
Si Si4 0.061857 0.115265 0.992536
Si Si5 0.642305 0.434105 0.433718
Si Si6 0.853822 0.782519 0.090061
O O1 0.469564 0.433444 0.353363
O O2 0.531473 0.638237 0.357758
O O3 0.743593 0.354768 0.615728
O O4 0.718539 0.146350 0.395482
O O5 0.664949 0.310737 0.543549
O O6 0.714381 0.099115 0.700873
O O7 0.675223 0.857315 0.626213
O O8 0.096858 0.242163 0.955275
O O9 0.093569 0.973190 0.025040
O O10 0.663912 0.597868 0.460841
O O11 0.645670 0.378335 0.253969
#
# Coordination Sequence:
#
# PCOD9453717 Si02
#       6
#     4   8   8   8   8   8
#     4  10  16  26  52  82 110 130 170 220 282 318
#     4  11  23  38  55  79 107 148 186 228 269 322
#     4  11  23  38  55  79 107 148 186 228 269 322
#     4   9  16  30  48  82 110 134 172 222 268 323
#     4   9  18  33  51  76 109 140 173 218 268 312
#     4   9  18  33  51  76 109 140 173 218 268 312
#
# _framework density 18.759602999999998
#
# number of rings (size 3 to 8) (size 9 to 14) (size 15 to 20)
#    1.091    1.091    1.818    2.182    0.000    5.818 
#    0.000    0.000    0.000    0.000    0.000    7.636 
#    0.000    0.000    0.000    0.000    0.000    0.000 
#
# Total GULP energy -245005.615161 kJ/mol
# GULP energy per Si atom -5568.309435 kJ/mol
# Density = 1.871691 g / cm^3
# Si number density = 18.759603 Si / 1000 Ang^3
#
#
#
# Elastic Constant Matrix: (Units=GPa)
#
#
# Indices 1 2 3 4 5 6 
#
# 1 88.4058 13.9324 12.3537 0.0000 0.0000 0.0000
# 2 13.9324 44.1228 -6.3309 0.0000 0.0000 0.0000
# 3 12.3537 -6.3309 42.2491 0.0000 0.0000 0.0000
# 4 0.0000 0.0000 0.0000 27.0887 0.0000 0.0000
# 5 0.0000 0.0000 0.0000 0.0000 26.7868 0.0000
# 6 0.0000 0.0000 0.0000 0.0000 0.0000 17.9857
#
#
#
# Elastic Compliance Matrix: (Units=1/GPa)
#
#
# Indices 1 2 3 4 5 6 
#
# 1 0.012654 -0.004626 -0.004393 0.000000 0.000000 0.000000
# 2 -0.004626 0.024853 0.005077 0.000000 0.000000 0.000000
# 3 -0.004393 0.005077 0.025715 0.000000 0.000000 0.000000
# 4 0.000000 0.000000 0.000000 0.036916 0.000000 0.000000
# 5 0.000000 0.000000 0.000000 0.000000 0.037332 0.000000
# 6 0.000000 0.000000 0.000000 0.000000 0.000000 0.055600
#
#
# Mechanical properties :
#
#
# Convention : Reuss Voigt Hill
#
# Bulk Modulus (GPa) = 18.07114 23.85422 20.96268
# Shear Modulus (GPa) = 22.78937 24.69375 23.74156
#
# Velocity S-wave (km/s) = 3.48919 3.63206 3.56134
# Velocity P-wave (km/s) = 5.08788 5.50749 5.30184
#
# Compressibility (1/GPa) = 0.05533685
#
# Stress axis : x y z
#
# Youngs Moduli (GPa) = 79.02341 40.23614 38.88853
#
# Poissons Ratio (x) = 0.18614 0.17085
# Poissons Ratio (y) = 0.36558 -0.19743
# Poissons Ratio (z) = 0.34718 -0.20427
#
# Static dielectric constant tensor:
#      x y z
#    x 1.655920 0.000000 0.000000 
#    y 0.000000 1.625230 0.000000 
#    z 0.000000 0.000000 1.717930 
# 
# From -- ./inp_files/8358.got.cif
#   From: 2010.05.17/outbox.cif.g08.bks.cpg/sg60_5_cif.got.tgz:8358.got - 2010.06.03 14:59:27.
