data_PCOD9453280
_publ_section_title
;
Structure prediction by ZEFSAII (Michael W. Deem and Ramdas Pophale) SiO2 
 PCOD9453280
Probable space group: P M M N
;
_chemical_formula_sum "Si O2"
_cell_formula_units_Z 64
_cell_length_a 7.610389
_cell_length_b 14.084751
_cell_length_c 24.535286
_cell_angle_alpha 90.000000
_cell_angle_beta 90.000000
_cell_angle_gamma 90.000000
_cell_volume 2629.947957
_symmetry_space_group_name_H-M "P M M N"
_symmetry_group_IT_number 59
_space_group.IT_coordinate_system_code '2'
_symmetry_cell_setting 'orthorhombic'
loop_
_space_group_symop_operation_xyz
x,y,z
1/2-x,1/2-y,z
1/2+x,-y,-z
-x,1/2+y,-z
-x,-y,-z
1/2+x,1/2+y,-z
1/2-x,y,z
x,1/2-y,z
loop_
_atom_site_type_symbol
_atom_site_label
_atom_site_fract_x
_atom_site_fract_y
_atom_site_fract_z
Si Si1 0.456583 0.930011 0.629836
Si Si2 0.540138 0.108742 0.486428
Si Si3 0.533049 0.454312 0.254146
Si Si4 0.541941 0.858929 0.974182
Si Si5 0.960340 0.357660 0.143405
Si Si6 0.545713 0.644223 0.210665
Si Si7 0.536631 0.148545 0.605776
Si Si8 0.543670 0.359997 0.908154
O O1 0.250000 0.906937 0.630000
O O2 0.526988 0.907054 0.689726
O O3 0.471269 0.045461 0.625174
O O4 0.530508 0.880529 0.575187
O O5 0.750000 0.125704 0.484038
O O6 0.478656 0.155306 0.542294
O O7 0.500000 0.000000 0.500000
O O8 0.750000 0.454159 0.254476
O O9 0.474320 0.405150 0.198506
O O10 0.471042 0.563431 0.249369
O O11 0.750000 0.853507 0.977592
O O12 0.467218 0.750000 0.972511
O O13 0.499608 0.903052 0.915451
O O14 0.482285 0.902150 0.031648
O O15 0.750000 0.354415 0.147453
O O16 0.029532 0.250000 0.141228
O O17 0.750000 0.652964 0.224638
O O18 0.466833 0.750000 0.212164
O O19 0.539642 0.605647 0.148197
O O20 0.750000 0.143594 0.607294
O O21 0.484617 0.250000 0.632602
O O22 0.750000 0.359798 0.897685
O O23 0.479349 0.250000 0.912851
#
# Coordination Sequence:
#
# PCOD9453280 Si02
#       8
#     8   8   8   8   8   8   8   8
#     4   9  17  30  48  68  91 122 160 197 230 271
#     4   8  14  26  44  64  87 116 148 182 222 266
#     4   9  18  32  49  70  95 123 159 199 235 275
#     4   9  16  27  46  71  95 119 151 192 237 286
#     4   9  17  31  50  69  91 120 152 190 238 286
#     4   9  17  30  47  65  89 123 157 189 229 277
#     4   9  17  29  45  68  98 127 154 189 235 282
#     4   9  16  27  45  69  95 121 151 190 236 285
#
# _framework density 24.335082
#
# number of rings (size 3 to 8) (size 9 to 14) (size 15 to 20)
#    0.000    3.125    0.000    0.750    0.000    3.750 
#    0.000    4.375    0.000    5.250    0.000    0.000 
#    0.000    3.000    0.000    0.000    0.000    0.000 
#
# Total GULP energy -356781.689391 kJ/mol
# GULP energy per Si atom -5574.713897 kJ/mol
# Density = 2.427969 g / cm^3
# Si number density = 24.335082 Si / 1000 Ang^3
#
#
#
# Elastic Constant Matrix: (Units=GPa)
#
#
# Indices 1 2 3 4 5 6 
#
# 1 58.8075 -6.5468 -5.5122 0.0000 0.0000 0.0000
# 2 -6.5468 36.9291 4.6745 0.0000 0.0000 0.0000
# 3 -5.5122 4.6745 139.3735 0.0000 0.0000 0.0000
# 4 0.0000 0.0000 0.0000 16.1941 0.0000 0.0000
# 5 0.0000 0.0000 0.0000 0.0000 -1.5136 0.0000
# 6 0.0000 0.0000 0.0000 0.0000 0.0000 -2.3868
#
#
#
# Elastic Compliance Matrix: (Units=1/GPa)
#
#
# Indices 1 2 3 4 5 6 
#
# 1 0.017395 0.003009 0.000587 0.000000 0.000000 0.000000
# 2 0.003009 0.027715 -0.000811 0.000000 0.000000 0.000000
# 3 0.000587 -0.000811 0.007225 0.000000 0.000000 0.000000
# 4 0.000000 0.000000 0.000000 0.061751 0.000000 0.000000
# 5 0.000000 0.000000 0.000000 0.000000 -0.660679 0.000000
# 6 0.000000 0.000000 0.000000 0.000000 0.000000 -0.418978
#
#
# Mechanical properties :
#
#
# Convention : Reuss Voigt Hill
#
# Bulk Modulus (GPa) = 17.26909 24.48235 20.87572
# Shear Modulus (GPa) = -5.25298 18.62506 6.68604
#
# Velocity S-wave (km/s) = -1.47081 2.76951 1.65935
# Velocity P-wave (km/s) = 2.05606 4.50658 3.50262
#
# Compressibility (1/GPa) = 0.05790692
#
# Stress axis : x y z
#
# Youngs Moduli (GPa) = 57.48879 36.08149 138.40134
#
# Poissons Ratio (x) = -0.10858 -0.08124
# Poissons Ratio (y) = -0.17301 0.11218
# Poissons Ratio (z) = -0.03375 0.02924
#
# Static dielectric constant tensor:
#      x y z
#    x 1.874200 0.000000 0.000000 
#    y 0.000000 2.009050 0.000000 
#    z 0.000000 0.000000 1.980590 
# 
# From -- ./inp_files/29416.got.cif
#   From: 2010.05.17/outbox.cif.g08.bks.cpg/sg59_15_cif.got.tgz:29416.got - 2010.06.03 14:40:33.
