data_PCOD9453470
_publ_section_title
;
Structure prediction by ZEFSAII (Michael W. Deem and Ramdas Pophale) SiO2 
 PCOD9453470
Probable space group: P M M N
;
_chemical_formula_sum "Si O2"
_cell_formula_units_Z 64
_cell_length_a 18.000000
_cell_length_b 9.000000
_cell_length_c 21.000000
_cell_angle_alpha 90.000000
_cell_angle_beta 90.000000
_cell_angle_gamma 90.000000
_cell_volume 3402.000000
_symmetry_space_group_name_H-M "P M M N"
_symmetry_group_IT_number 59
_space_group.IT_coordinate_system_code '2'
_symmetry_cell_setting 'orthorhombic'
loop_
_space_group_symop_operation_xyz
x,y,z
1/2-x,1/2-y,z
1/2+x,-y,-z
-x,1/2+y,-z
-x,-y,-z
1/2+x,1/2+y,-z
1/2-x,y,z
x,1/2-y,z
loop_
_atom_site_type_symbol
_atom_site_label
_atom_site_fract_x
_atom_site_fract_y
_atom_site_fract_z
Si Si1 0.082805 0.571778 0.294224
Si Si2 0.659535 0.077613 0.082972
Si Si3 0.161332 0.418524 0.405012
Si Si4 0.835721 0.931513 0.456500
Si Si5 0.340602 0.417656 0.042141
Si Si6 0.164396 0.928425 0.170480
Si Si7 0.839092 0.421670 0.223393
Si Si8 0.922153 0.928122 0.334474
O O1 0.078979 0.750000 0.290276
O O2 0.139613 0.523840 0.348196
O O3 0.112007 0.515618 0.226657
O O4 0.003065 0.514110 0.316183
O O5 0.750000 0.071109 0.082965
O O6 0.640220 0.250000 0.073534
O O7 0.634759 0.030667 0.153135
O O8 0.632098 0.980540 0.024747
O O9 0.250000 0.410365 0.410399
O O10 0.133939 0.250000 0.393869
O O11 0.135676 0.475367 0.473907
O O12 0.750000 0.978823 0.446573
O O13 0.834542 0.750000 0.456784
O O14 0.888105 0.984895 0.400253
O O15 0.250000 0.419669 0.039650
O O16 0.364705 0.250000 0.052294
O O17 0.361325 0.517210 0.101908
O O18 0.250000 0.978280 0.180928
O O19 0.165217 0.750000 0.171290
O O20 0.750000 0.423439 0.223199
O O21 0.861936 0.250000 0.233667
O O22 0.868469 0.526336 0.277792
O O23 0.926048 0.750000 0.339404
#
# Coordination Sequence:
#
# PCOD9453470 Si02
#       8
#     8   8   8   8   8   8   8   8
#     4  10  21  34  48  71 101 130 163 203 244 288
#     4   8  14  26  44  66  94 126 155 187 236 293
#     4   9  18  33  53  74  95 124 163 202 241 291
#     4   8  15  30  51  73  97 126 160 197 240 291
#     4   9  16  25  41  69  98 118 147 197 244 281
#     4   9  17  30  47  64  88 126 162 192 237 293
#     4   9  18  32  50  73 100 129 163 202 241 285
#     4  10  20  33  50  72  99 132 167 201 239 287
#
# _framework density 18.812463000000001
#
# number of rings (size 3 to 8) (size 9 to 14) (size 15 to 20)
#    0.000    3.000    0.000    2.625    0.000    5.000 
#    0.000    3.125    0.000    1.500    0.000    0.000 
#    0.000    0.000    0.000    0.000    0.000    0.000 
#
# Total GULP energy -356353.152507 kJ/mol
# GULP energy per Si atom -5568.018008 kJ/mol
# Density = 1.876965 g / cm^3
# Si number density = 18.812463 Si / 1000 Ang^3
#
#
#
# Elastic Constant Matrix: (Units=GPa)
#
#
# Indices 1 2 3 4 5 6 
#
# 1 -5.4911 -3.8161 -6.3475 0.0000 0.0000 0.0000
# 2 -3.8161 -21.9976 -12.1674 0.0000 0.0000 0.0000
# 3 -6.3475 -12.1674 48.6401 0.0000 0.0000 0.0000
# 4 0.0000 0.0000 0.0000 11.1009 0.0000 0.0000
# 5 0.0000 0.0000 0.0000 0.0000 -99.0373 0.0000
# 6 0.0000 0.0000 0.0000 0.0000 0.0000 11.8872
#
#
#
# Elastic Compliance Matrix: (Units=1/GPa)
#
#
# Indices 1 2 3 4 5 6 
#
# 1 -0.194052 0.041877 -0.014848 0.000000 0.000000 0.000000
# 2 0.041877 -0.048971 -0.006785 0.000000 0.000000 0.000000
# 3 -0.014848 -0.006785 0.016924 0.000000 0.000000 0.000000
# 4 0.000000 0.000000 0.000000 0.090083 0.000000 0.000000
# 5 0.000000 0.000000 0.000000 0.000000 -0.010097 0.000000
# 6 0.000000 0.000000 0.000000 0.000000 0.000000 0.084124
#
#
# Mechanical properties :
#
#
# Convention : Reuss Voigt Hill
#
# Bulk Modulus (GPa) = -5.38758 -2.61232 -3.99995
# Shear Modulus (GPa) = -30.42332 -12.31101 -21.36717
#
# Velocity S-wave (km/s) = -4.02579 -2.56091 -3.37382
# Velocity P-wave (km/s) = 4.94767 3.18371 4.16025
#
# Compressibility (1/GPa) = -0.18561221
#
# Stress axis : x y z
#
# Youngs Moduli (GPa) = -5.15325 -20.42019 59.08724
#
# Poissons Ratio (x) = 0.85514 0.87734
# Poissons Ratio (y) = 0.21580 0.40092
# Poissons Ratio (z) = -0.07652 -0.13856
#
# Static dielectric constant tensor:
#      x y z
#    x 1.648940 0.000000 0.000000 
#    y 0.000000 1.628830 0.000000 
#    z 0.000000 0.000000 1.665830 
# 
# From -- ./inp_files/30688.got.cif
#   From: 2010.05.17/outbox.ucp.g08.bks.cvg/sg59_16_cif.got.tgz:30688.got - 2010.06.11 16:43:56.
