data_PCOD9453099
_publ_section_title
;
Structure prediction by ZEFSAII (Michael W. Deem and Ramdas Pophale) SiO2 
 PCOD9453099
Probable space group: P M M N
;
_chemical_formula_sum "Si O2"
_cell_formula_units_Z 32
_cell_length_a 15.431098
_cell_length_b 11.112102
_cell_length_c 8.718879
_cell_angle_alpha 90.000000
_cell_angle_beta 90.000000
_cell_angle_gamma 90.000000
_cell_volume 1495.043053
_symmetry_space_group_name_H-M "P M M N"
_symmetry_group_IT_number 59
_space_group.IT_coordinate_system_code '2'
_symmetry_cell_setting 'orthorhombic'
loop_
_space_group_symop_operation_xyz
x,y,z
1/2-x,1/2-y,z
1/2+x,-y,-z
-x,1/2+y,-z
-x,-y,-z
1/2+x,1/2+y,-z
1/2-x,y,z
x,1/2-y,z
loop_
_atom_site_type_symbol
_atom_site_label
_atom_site_fract_x
_atom_site_fract_y
_atom_site_fract_z
Si Si1 0.097129 0.250000 0.445594
Si Si2 0.596045 0.494783 0.930162
Si Si3 0.393026 0.250000 0.085063
Si Si4 0.394619 0.750000 0.928056
Si Si5 0.390366 0.750000 0.571942
Si Si6 0.151344 0.501759 0.407675
O O1 0.126364 0.250000 0.266796
O O2 0.128890 0.380489 0.503000
O O3 0.993932 0.250000 0.449468
O O4 0.638610 0.622083 0.976752
O O5 0.592426 0.492943 0.745057
O O6 0.500000 0.500000 0.000000
O O7 0.636098 0.371143 0.989184
O O8 0.498758 0.250000 0.068619
O O9 0.369542 0.750000 0.751277
O O10 0.357693 0.626384 0.497338
O O11 0.250000 0.490237 0.353317
#
# Coordination Sequence:
#
# PCOD9453099 Si02
#       6
#     4   8   4   4   4   8
#     4   9  19  36  59  81 110 153 202 246 291 357
#     4   9  17  33  56  82 110 145 191 242 294 357
#     4   7  14  28  51  80 104 133 182 239 284 332
#     4   9  17  31  51  77 109 145 190 236 279 334
#     4  11  22  37  57  88 123 163 206 243 290 363
#     4  11  22  38  59  87 120 157 200 253 308 356
#
# _framework density 21.404064999999999
#
# number of rings (size 3 to 8) (size 9 to 14) (size 15 to 20)
#    0.000    2.500    0.000    3.750    0.000    0.000 
#    0.000    3.750    0.000    0.000    0.000    7.000 
#    0.000    0.000    0.000    0.000    0.000    0.000 
#
# Total GULP energy -178406.423462 kJ/mol
# GULP energy per Si atom -5575.200733 kJ/mol
# Density = 2.135535 g / cm^3
# Si number density = 21.404065 Si / 1000 Ang^3
#
#
#
# Elastic Constant Matrix: (Units=GPa)
#
#
# Indices 1 2 3 4 5 6 
#
# 1 54.3640 8.2395 -1.8107 0.0000 0.0000 0.0000
# 2 8.2395 272.1675 49.5630 0.0000 0.0000 0.0000
# 3 -1.8107 49.5630 39.1059 0.0000 0.0000 0.0000
# 4 0.0000 0.0000 0.0000 13.1244 0.0000 0.0000
# 5 0.0000 0.0000 0.0000 0.0000 5.6172 0.0000
# 6 0.0000 0.0000 0.0000 0.0000 0.0000 14.6426
#
#
#
# Elastic Compliance Matrix: (Units=1/GPa)
#
#
# Indices 1 2 3 4 5 6 
#
# 1 0.018605 -0.000936 0.002048 0.000000 0.000000 0.000000
# 2 -0.000936 0.004824 -0.006157 0.000000 0.000000 0.000000
# 3 0.002048 -0.006157 0.033470 0.000000 0.000000 0.000000
# 4 0.000000 0.000000 0.000000 0.076194 0.000000 0.000000
# 5 0.000000 0.000000 0.000000 0.000000 0.178025 0.000000
# 6 0.000000 0.000000 0.000000 0.000000 0.000000 0.068294
#
#
# Mechanical properties :
#
#
# Convention : Reuss Voigt Hill
#
# Bulk Modulus (GPa) = 21.36400 53.06899 37.21650
# Shear Modulus (GPa) = 12.34253 27.31990 19.83121
#
# Velocity S-wave (km/s) = 2.40395 3.57653 3.04718
# Velocity P-wave (km/s) = 4.20812 6.47327 5.45946
#
# Compressibility (1/GPa) = 0.04680771
#
# Stress axis : x y z
#
# Youngs Moduli (GPa) = 53.75007 207.30676 29.87766
#
# Poissons Ratio (x) = 0.19407 -0.06119
# Poissons Ratio (y) = 0.05032 0.18396
# Poissons Ratio (z) = -0.11008 1.27639
#
# Static dielectric constant tensor:
#      x y z
#    x 1.218410 0.000000 0.000000 
#    y 0.000000 1.870350 0.000000 
#    z 0.000000 0.000000 1.735590 
# 
# From -- ./inp_files/9967.got.cif
#   From: 2010.05.17/outbox.cif.g08.bks.cpg/sg59_5_cif.got.tgz:9967.got - 2010.06.03 14:40:33.
