data_PCOD9453451
_publ_section_title
;
Structure prediction by ZEFSAII (Michael W. Deem and Ramdas Pophale) SiO2 
 PCOD9453451
Probable space group: P M M N
;
_chemical_formula_sum "Si O2"
_cell_formula_units_Z 56
_cell_length_a 21.000000
_cell_length_b 9.000000
_cell_length_c 15.000000
_cell_angle_alpha 90.000000
_cell_angle_beta 90.000000
_cell_angle_gamma 90.000000
_cell_volume 2835.000000
_symmetry_space_group_name_H-M "P M M N"
_symmetry_group_IT_number 59
_space_group.IT_coordinate_system_code '2'
_symmetry_cell_setting 'orthorhombic'
loop_
_space_group_symop_operation_xyz
x,y,z
1/2-x,1/2-y,z
1/2+x,-y,-z
-x,1/2+y,-z
-x,-y,-z
1/2+x,1/2+y,-z
1/2-x,y,z
x,1/2-y,z
loop_
_atom_site_type_symbol
_atom_site_label
_atom_site_fract_x
_atom_site_fract_y
_atom_site_fract_z
Si Si1 0.250000 0.590716 0.678659
Si Si2 0.397341 0.927786 0.282298
Si Si3 0.878044 0.570456 0.044159
Si Si4 0.177175 0.426885 0.137958
Si Si5 0.971807 0.569598 0.195640
Si Si6 0.061163 0.417725 0.461268
Si Si7 0.250000 0.583142 0.890320
Si Si8 0.624774 0.583917 0.349101
O O1 0.250000 0.750000 0.635445
O O2 0.250000 0.599540 0.784784
O O3 0.187120 0.508957 0.653187
O O4 0.397148 0.750000 0.288012
O O5 0.457744 0.978448 0.221961
O O6 0.337224 0.988509 0.228844
O O7 0.407597 0.995515 0.379677
O O8 0.875912 0.750000 0.047547
O O9 0.937980 0.519816 0.104043
O O10 0.813763 0.505157 0.086068
O O11 0.871291 0.526702 0.940758
O O12 0.250000 0.454198 0.107853
O O13 0.170616 0.250000 0.151748
O O14 0.973648 0.750000 0.192790
O O15 0.928017 0.525390 0.280118
O O16 0.045523 0.250000 0.432064
O O17 0.103431 0.409363 0.549420
O O18 0.000000 0.500000 0.500000
O O19 0.250000 0.750000 0.930519
O O20 0.638987 0.750000 0.316506
#
# Coordination Sequence:
#
# PCOD9453451 Si02
#       8
#     4   8   8   8   8   8   4   8
#     4  11  23  35  51  86 127 156 191 245 302 352
#     4  11  23  41  62  89 121 155 196 247 302 356
#     4  10  19  36  62  85 112 157 202 236 282 351
#     4  10  22  41  63  88 115 154 207 251 290 346
#     4   9  18  34  59  90 120 151 194 238 284 356
#     4  11  22  39  64  91 117 154 200 247 299 359
#     4  11  21  31  49  84 123 152 189 239 290 340
#     4  10  20  37  60  84 116 158 200 239 292 357
#
# _framework density 19.753086
#
# number of rings (size 3 to 8) (size 9 to 14) (size 15 to 20)
#    0.000    1.714    3.571    1.286    0.000    3.143 
#    1.286    1.429    0.000    0.000    0.000    0.000 
#    0.000    0.000    0.000    0.000    0.000    0.000 
#
# Total GULP energy -312149.000936 kJ/mol
# GULP energy per Si atom -5574.089302 kJ/mol
# Density = 1.970813 g / cm^3
# Si number density = 19.753086 Si / 1000 Ang^3
#
#
#
# Elastic Constant Matrix: (Units=GPa)
#
#
# Indices 1 2 3 4 5 6 
#
# 1 43.0593 24.0193 15.3210 0.0000 0.0000 0.0000
# 2 24.0193 40.2391 34.3759 0.0000 0.0000 0.0000
# 3 15.3210 34.3759 101.6404 0.0000 0.0000 0.0000
# 4 0.0000 0.0000 0.0000 24.4127 0.0000 0.0000
# 5 0.0000 0.0000 0.0000 0.0000 36.9339 0.0000
# 6 0.0000 0.0000 0.0000 0.0000 0.0000 10.0204
#
#
#
# Elastic Compliance Matrix: (Units=1/GPa)
#
#
# Indices 1 2 3 4 5 6 
#
# 1 0.035276 -0.023224 0.002537 0.000000 0.000000 0.000000
# 2 -0.023224 0.050239 -0.013491 0.000000 0.000000 0.000000
# 3 0.002537 -0.013491 0.014019 0.000000 0.000000 0.000000
# 4 0.000000 0.000000 0.000000 0.040962 0.000000 0.000000
# 5 0.000000 0.000000 0.000000 0.000000 0.027075 0.000000
# 6 0.000000 0.000000 0.000000 0.000000 0.000000 0.099796
#
#
# Mechanical properties :
#
#
# Convention : Reuss Voigt Hill
#
# Bulk Modulus (GPa) = 32.07316 36.93011 34.50163
# Shear Modulus (GPa) = 14.44600 21.68824 18.06712
#
# Velocity S-wave (km/s) = 2.70724 3.31715 3.02760
# Velocity P-wave (km/s) = 5.10338 5.77995 5.45217
#
# Compressibility (1/GPa) = 0.03117872
#
# Stress axis : x y z
#
# Youngs Moduli (GPa) = 28.34792 19.90467 71.33249
#
# Poissons Ratio (x) = 0.46227 -0.18099
# Poissons Ratio (y) = 0.65836 0.96233
# Poissons Ratio (z) = -0.07193 0.26853
#
# Static dielectric constant tensor:
#      x y z
#    x 1.763140 0.000000 0.000000 
#    y 0.000000 1.753470 0.000000 
#    z 0.000000 0.000000 1.522430 
# 
# From -- ./inp_files/24358.got.cif
#   From: 2010.05.17/outbox.ucp.g08.bks.cvg/sg59_13_cif.got.tgz:24358.got - 2010.06.11 16:43:56.
