data_PCOD9453447
_publ_section_title
;
Structure prediction by ZEFSAII (Michael W. Deem and Ramdas Pophale) SiO2 
 PCOD9453447
Probable space group: P M M N
;
_chemical_formula_sum "Si O2"
_cell_formula_units_Z 48
_cell_length_a 15.000000
_cell_length_b 9.000000
_cell_length_c 18.000000
_cell_angle_alpha 90.000000
_cell_angle_beta 90.000000
_cell_angle_gamma 90.000000
_cell_volume 2430.000000
_symmetry_space_group_name_H-M "P M M N"
_symmetry_group_IT_number 59
_space_group.IT_coordinate_system_code '2'
_symmetry_cell_setting 'orthorhombic'
loop_
_space_group_symop_operation_xyz
x,y,z
1/2-x,1/2-y,z
1/2+x,-y,-z
-x,1/2+y,-z
-x,-y,-z
1/2+x,1/2+y,-z
1/2-x,y,z
x,1/2-y,z
loop_
_atom_site_type_symbol
_atom_site_label
_atom_site_fract_x
_atom_site_fract_y
_atom_site_fract_z
Si Si1 0.750000 0.919327 0.209717
Si Si2 0.611370 0.923681 0.829924
Si Si3 0.147022 0.074286 0.004281
Si Si4 0.750000 0.910624 0.596202
Si Si5 0.912964 0.077767 0.135064
Si Si6 0.250000 0.582455 0.266573
Si Si7 0.908855 0.580452 0.479268
Si Si8 0.250000 0.425283 0.615045
O O1 0.750000 0.750000 0.184231
O O2 0.750000 0.927423 0.297718
O O3 0.836913 0.996765 0.179354
O O4 0.634922 0.750000 0.827900
O O5 0.506387 0.939729 0.824571
O O6 0.663873 0.005532 0.767059
O O7 0.638546 0.979538 0.911561
O O8 0.250000 0.054543 0.980704
O O9 0.126737 0.250000 0.003834
O O10 0.085055 0.991021 0.946771
O O11 0.750000 0.750000 0.637073
O O12 0.660765 0.914179 0.547440
O O13 0.750000 0.052747 0.647134
O O14 0.892140 0.250000 0.127810
O O15 0.250000 0.750000 0.244207
O O16 0.932017 0.750000 0.457891
O O17 0.843024 0.511776 0.416592
O O18 0.000000 0.500000 0.500000
O O19 0.250000 0.250000 0.590552
#
# Coordination Sequence:
#
# PCOD9453447 Si02
#       8
#     4   8   8   4   8   4   8   4
#     4  11  22  38  58  79 114 156 186 227 280 330
#     4  10  22  41  60  79 111 152 189 232 290 350
#     4  10  19  35  60  82 105 144 190 236 289 344
#     4   9  20  39  60  82 118 161 188 217 278 348
#     4  11  23  37  57  83 111 146 190 239 285 336
#     4  12  25  38  58  87 116 148 191 242 282 328
#     4   9  18  36  62  89 114 145 185 225 270 326
#     4   8  18  37  58  80 110 149 185 216 262 326
#
# _framework density 19.753086
#
# number of rings (size 3 to 8) (size 9 to 14) (size 15 to 20)
#    0.000    2.000    1.667    3.000    0.000    4.000 
#    0.000    6.250    0.000    0.000    0.000    0.000 
#    0.000    0.000    0.000    0.000    0.000    0.000 
#
# Total GULP energy -267606.846254 kJ/mol
# GULP energy per Si atom -5575.142630 kJ/mol
# Density = 1.970813 g / cm^3
# Si number density = 19.753086 Si / 1000 Ang^3
#
#
#
# Elastic Constant Matrix: (Units=GPa)
#
#
# Indices 1 2 3 4 5 6 
#
# 1 66.0711 67.7373 37.2418 0.0000 0.0000 0.0000
# 2 67.7373 40.5903 18.8081 0.0000 0.0000 0.0000
# 3 37.2418 18.8081 49.7773 0.0000 0.0000 0.0000
# 4 0.0000 0.0000 0.0000 3.7391 0.0000 0.0000
# 5 0.0000 0.0000 0.0000 0.0000 2.1710 0.0000
# 6 0.0000 0.0000 0.0000 0.0000 0.0000 -9.3635
#
#
#
# Elastic Compliance Matrix: (Units=1/GPa)
#
#
# Indices 1 2 3 4 5 6 
#
# 1 -0.020919 0.033527 0.002983 0.000000 0.000000 0.000000
# 2 0.033527 -0.023870 -0.016065 0.000000 0.000000 0.000000
# 3 0.002983 -0.016065 0.023928 0.000000 0.000000 0.000000
# 4 0.000000 0.000000 0.000000 0.267446 0.000000 0.000000
# 5 0.000000 0.000000 0.000000 0.000000 0.460618 0.000000
# 6 0.000000 0.000000 0.000000 0.000000 0.000000 -0.106798
#
#
# Mechanical properties :
#
#
# Convention : Reuss Voigt Hill
#
# Bulk Modulus (GPa) = 49.92701 44.89036 47.40868
# Shear Modulus (GPa) = 8.83092 1.48607 5.15850
#
# Velocity S-wave (km/s) = 2.11669 0.86831 1.61776
# Velocity P-wave (km/s) = 5.59502 4.87651 5.24808
#
# Compressibility (1/GPa) = 0.02002924
#
# Stress axis : x y z
#
# Youngs Moduli (GPa) = -47.80423 -41.89352 41.79204
#
# Poissons Ratio (x) = 1.40457 -0.12465
# Poissons Ratio (y) = 1.60274 0.67138
# Poissons Ratio (z) = 0.14258 -0.67301
#
# Static dielectric constant tensor:
#      x y z
#    x 1.678070 0.000000 0.000000 
#    y 0.000000 1.602000 0.000000 
#    z 0.000000 0.000000 1.720410 
# 
# From -- ./inp_files/27541.got.cif
#   From: 2010.05.17/outbox.ucp.g08.bks.cvg/sg59_14_cif.got.tgz:27541.got - 2010.06.11 16:43:56.
