data_PCOD9453412
_publ_section_title
;
Structure prediction by ZEFSAII (Michael W. Deem and Ramdas Pophale) SiO2 
 PCOD9453412
Probable space group: P M M N
;
_chemical_formula_sum "Si O2"
_cell_formula_units_Z 64
_cell_length_a 18.000000
_cell_length_b 15.000000
_cell_length_c 12.000000
_cell_angle_alpha 90.000000
_cell_angle_beta 90.000000
_cell_angle_gamma 90.000000
_cell_volume 3240.000000
_symmetry_space_group_name_H-M "P M M N"
_symmetry_group_IT_number 59
_space_group.IT_coordinate_system_code '2'
_symmetry_cell_setting 'orthorhombic'
loop_
_space_group_symop_operation_xyz
x,y,z
1/2-x,1/2-y,z
1/2+x,-y,-z
-x,1/2+y,-z
-x,-y,-z
1/2+x,1/2+y,-z
1/2-x,y,z
x,1/2-y,z
loop_
_atom_site_type_symbol
_atom_site_label
_atom_site_fract_x
_atom_site_fract_y
_atom_site_fract_z
Si Si1 0.840708 0.650530 0.466774
Si Si2 0.666791 0.357032 0.961793
Si Si3 0.165097 0.350515 0.911437
Si Si4 0.662726 0.508344 0.285310
Si Si5 0.338797 0.460574 0.329482
Si Si6 0.079295 0.854093 0.819778
Si Si7 0.094954 0.148654 0.143616
Si Si8 0.659459 0.150355 0.705700
O O1 0.750000 0.653461 0.462304
O O2 0.867143 0.750000 0.441154
O O3 0.863201 0.572516 0.383805
O O4 0.865081 0.616216 0.587244
O O5 0.750000 0.395487 0.975811
O O6 0.673119 0.250000 0.972151
O O7 0.640878 0.368927 0.835320
O O8 0.613213 0.384392 0.060907
O O9 0.250000 0.354651 0.955495
O O10 0.156646 0.250000 0.862686
O O11 0.156850 0.427400 0.821824
O O12 0.108780 0.360600 0.012514
O O13 0.750000 0.485917 0.300716
O O14 0.615620 0.419732 0.269130
O O15 0.250000 0.463969 0.338364
O O16 0.360270 0.426369 0.208285
O O17 0.365755 0.560825 0.356496
O O18 0.098908 0.750000 0.801391
O O19 0.991040 0.860277 0.826054
O O20 0.119937 0.250000 0.172470
O O21 0.750000 0.153823 0.701165
O O22 0.633096 0.250000 0.674610
#
# Coordination Sequence:
#
# PCOD9453412 Si02
#       8
#     8   8   8   8   8   8   8   8
#     4   9  18  34  56  81 105 132 173 223 267 308
#     4   8  14  27  47  69  97 137 178 210 244 297
#     4   9  18  33  53  77 106 137 169 211 262 315
#     4  10  20  34  55  78 101 134 178 221 264 308
#     4  10  19  32  55  81 104 134 176 217 259 314
#     4  10  21  35  50  73 107 145 178 213 259 312
#     4  10  21  35  50  75 109 142 172 211 267 317
#     4   8  15  28  47  73 104 135 168 208 255 305
#
# _framework density 19.753086
#
# number of rings (size 3 to 8) (size 9 to 14) (size 15 to 20)
#    0.000    2.750    0.000    2.250    1.750    4.000 
#    0.000    1.250    0.000    3.000    0.000    0.000 
#    0.000    0.000    0.000    0.000    0.000    0.000 
#
# Total GULP energy -356567.296196 kJ/mol
# GULP energy per Si atom -5571.364003 kJ/mol
# Density = 1.970813 g / cm^3
# Si number density = 19.753086 Si / 1000 Ang^3
#
#
#
# Elastic Constant Matrix: (Units=GPa)
#
#
# Indices 1 2 3 4 5 6 
#
# 1 -21.5383 22.3443 8.3098 0.0000 0.0000 0.0000
# 2 22.3443 59.2419 5.5625 0.0000 0.0000 0.0000
# 3 8.3098 5.5625 12.9908 0.0000 0.0000 0.0000
# 4 0.0000 0.0000 0.0000 16.9863 0.0000 0.0000
# 5 0.0000 0.0000 0.0000 0.0000 -26.5320 0.0000
# 6 0.0000 0.0000 0.0000 0.0000 0.0000 12.7833
#
#
#
# Elastic Compliance Matrix: (Units=1/GPa)
#
#
# Indices 1 2 3 4 5 6 
#
# 1 -0.030247 0.009994 0.015069 0.000000 0.000000 0.000000
# 2 0.009994 0.014285 -0.012509 0.000000 0.000000 0.000000
# 3 0.015069 -0.012509 0.072695 0.000000 0.000000 0.000000
# 4 0.000000 0.000000 0.000000 0.058871 0.000000 0.000000
# 5 0.000000 0.000000 0.000000 0.000000 -0.037690 0.000000
# 6 0.000000 0.000000 0.000000 0.000000 0.000000 0.078227
#
#
# Mechanical properties :
#
#
# Convention : Reuss Voigt Hill
#
# Bulk Modulus (GPa) = 12.21906 13.68086 12.94996
# Shear Modulus (GPa) = 31.58298 1.61270 16.59784
#
# Velocity S-wave (km/s) = 4.00295 0.90455 2.90188
# Velocity P-wave (km/s) = 5.25015 2.83406 4.21877
#
# Compressibility (1/GPa) = 0.08183937
#
# Stress axis : x y z
#
# Youngs Moduli (GPa) = -33.06059 70.00220 13.75616
#
# Poissons Ratio (x) = -0.69957 -0.20730
# Poissons Ratio (y) = 0.33039 0.17208
# Poissons Ratio (z) = 0.49820 0.87569
#
# Static dielectric constant tensor:
#      x y z
#    x 1.659960 0.000000 0.000000 
#    y 0.000000 1.725890 0.000000 
#    z 0.000000 0.000000 1.727360 
# 
# From -- ./inp_files/17874.got.cif
#   From: 2010.05.17/outbox.ucp.g08.bks.cvg/sg59_9_cif.got.tgz:17874.got - 2010.06.11 16:43:56.
