data_PCOD9453020
_publ_section_title
;
Structure prediction by ZEFSAII (Michael W. Deem and Ramdas Pophale) SiO2 
 PCOD9453020
Probable space group: P M M N
;
_chemical_formula_sum "Si O2"
_cell_formula_units_Z 56
_cell_length_a 14.856177
_cell_length_b 7.753834
_cell_length_c 23.019138
_cell_angle_alpha 90.000000
_cell_angle_beta 90.000000
_cell_angle_gamma 90.000000
_cell_volume 2651.628148
_symmetry_space_group_name_H-M "P M M N"
_symmetry_group_IT_number 59
_space_group.IT_coordinate_system_code '2'
_symmetry_cell_setting 'orthorhombic'
loop_
_space_group_symop_operation_xyz
x,y,z
1/2-x,1/2-y,z
1/2+x,-y,-z
-x,1/2+y,-z
-x,-y,-z
1/2+x,1/2+y,-z
1/2-x,y,z
x,1/2-y,z
loop_
_atom_site_type_symbol
_atom_site_label
_atom_site_fract_x
_atom_site_fract_y
_atom_site_fract_z
Si Si1 0.346075 0.549234 0.611399
Si Si2 0.645887 0.458045 0.963654
Si Si3 0.351576 0.950571 0.254514
Si Si4 0.532966 0.949565 0.853727
Si Si5 0.954838 0.952329 0.632024
Si Si6 0.396162 0.455309 0.487037
Si Si7 0.351570 0.539015 0.902893
O O1 0.250000 0.472846 0.631355
O O2 0.345945 0.750000 0.629388
O O3 0.443156 0.472994 0.630562
O O4 0.346804 0.540084 0.541181
O O5 0.750000 0.500255 0.949822
O O6 0.637216 0.250000 0.961048
O O7 0.580168 0.537056 0.916468
O O8 0.629567 0.512347 0.030213
O O9 0.250000 0.021221 0.249600
O O10 0.345416 0.750000 0.269384
O O11 0.404072 0.965115 0.193973
O O12 0.408472 0.033071 0.306176
O O13 0.525840 0.750000 0.836699
O O14 0.432192 0.020987 0.861908
O O15 0.966573 0.750000 0.617690
O O16 0.889688 0.016713 0.579827
O O17 0.500000 0.500000 0.500000
O O18 0.378093 0.250000 0.490861
O O19 0.250000 0.485223 0.887837
O O20 0.352596 0.750000 0.902647
#
# Coordination Sequence:
#
# PCOD9453020 Si02
#       7
#     8   8   8   8   8   8   8
#     4   9  18  33  54  82 115 146 174 207 254 315
#     4   9  17  31  52  77 108 143 172 203 250 306
#     4  11  25  42  57  73  97 134 176 216 263 317
#     4  11  21  33  54  80 104 134 173 217 259 299
#     4   9  19  36  56  78 105 138 176 219 261 300
#     4   9  17  30  50  77 108 140 174 213 259 307
#     4   8  16  32  53  78 107 138 171 205 248 307
#
# _framework density 21.119101000000001
#
# number of rings (size 3 to 8) (size 9 to 14) (size 15 to 20)
#    0.000    2.571    0.000    3.857    0.000    6.857 
#    0.000    4.286    0.000    7.714    0.000    0.000 
#    0.000    0.000    0.000    0.000    0.000    0.000 
#
# Total GULP energy -312202.805105 kJ/mol
# GULP energy per Si atom -5575.050091 kJ/mol
# Density = 2.107103 g / cm^3
# Si number density = 21.119101 Si / 1000 Ang^3
#
#
#
# Elastic Constant Matrix: (Units=GPa)
#
#
# Indices 1 2 3 4 5 6 
#
# 1 133.2282 -5.1795 65.3558 0.0000 0.0000 0.0000
# 2 -5.1795 32.1727 -5.6182 0.0000 0.0000 0.0000
# 3 65.3558 -5.6182 54.8092 0.0000 0.0000 0.0000
# 4 0.0000 0.0000 0.0000 20.2863 0.0000 0.0000
# 5 0.0000 0.0000 0.0000 0.0000 21.2036 0.0000
# 6 0.0000 0.0000 0.0000 0.0000 0.0000 9.5217
#
#
#
# Elastic Compliance Matrix: (Units=1/GPa)
#
#
# Indices 1 2 3 4 5 6 
#
# 1 0.018108 -0.000871 -0.021682 0.000000 0.000000 0.000000
# 2 -0.000871 0.031691 0.004287 0.000000 0.000000 0.000000
# 3 -0.021682 0.004287 0.044539 0.000000 0.000000 0.000000
# 4 0.000000 0.000000 0.000000 0.049294 0.000000 0.000000
# 5 0.000000 0.000000 0.000000 0.000000 0.047162 0.000000
# 6 0.000000 0.000000 0.000000 0.000000 0.000000 0.105024
#
#
# Mechanical properties :
#
#
# Convention : Reuss Voigt Hill
#
# Bulk Modulus (GPa) = 17.29934 36.59179 26.94556
# Shear Modulus (GPa) = 14.21999 21.24580 17.73289
#
# Velocity S-wave (km/s) = 2.59766 3.17519 2.90083
# Velocity P-wave (km/s) = 4.14804 5.55036 4.89963
#
# Compressibility (1/GPa) = 0.05780566
#
# Stress axis : x y z
#
# Youngs Moduli (GPa) = 55.22338 31.55508 22.45241
#
# Poissons Ratio (x) = 0.02748 0.48681
# Poissons Ratio (y) = 0.04810 -0.09625
# Poissons Ratio (z) = 1.19735 -0.13528
#
# Static dielectric constant tensor:
#      x y z
#    x 1.807100 0.000000 0.000000 
#    y 0.000000 1.797370 0.000000 
#    z 0.000000 0.000000 1.743440 
# 
# From -- ./inp_files/30371.got.cif
#   From: 2010.05.17/outbox.cif.g08.bks.cpg/sg59_16_cif.got.tgz:30371.got - 2010.06.03 14:40:33.
