data_PCOD9453739
_publ_section_title
;
Structure prediction by ZEFSAII (Michael W. Deem and Ramdas Pophale) SiO2 
 PCOD9453739
Probable space group: P B C N
;
_chemical_formula_sum "Si O2"
_cell_formula_units_Z 40
_cell_length_a 23.691804
_cell_length_b 12.095529
_cell_length_c 5.232229
_cell_angle_alpha 90.000000
_cell_angle_beta 90.000000
_cell_angle_gamma 90.000000
_cell_volume 1499.373192
_symmetry_space_group_name_H-M "P B C N"
_symmetry_group_IT_number 60
_symmetry_cell_setting 'orthorhombic'
loop_
_space_group_symop_operation_xyz
x,y,z
1/2-x,1/2-y,1/2+z
1/2+x,1/2-y,-z
-x,y,1/2-z
-x,-y,-z
1/2+x,1/2+y,1/2-z
1/2-x,1/2+y,z
x,-y,1/2+z
loop_
_atom_site_type_symbol
_atom_site_label
_atom_site_fract_x
_atom_site_fract_y
_atom_site_fract_z
Si Si1 0.500000 0.872927 0.250000
Si Si2 0.285569 0.431234 0.009723
Si Si3 0.917918 0.933180 0.515432
Si Si4 0.169722 0.360655 0.942796
Si Si5 0.500000 0.260624 0.250000
Si Si6 0.621562 0.107518 0.564679
O O1 0.521656 0.810586 0.507291
O O2 0.442860 0.925198 0.368844
O O3 0.275770 0.527863 0.799060
O O4 0.236689 0.344732 0.937091
O O5 0.351532 0.407588 0.994421
O O6 0.955233 0.836144 0.399944
O O7 0.929743 0.968095 0.808581
O O8 0.135445 0.328904 0.694363
O O9 0.155961 0.492944 0.964819
O O10 0.144518 0.318318 0.205363
#
# Coordination Sequence:
#
# PCOD9453739 Si02
#       6
#     4   8   8   8   4   8
#     4  12  26  39  55  78 120 178 208 228 288 364
#     4  10  16  30  54  94 114 136 170 246 322 350
#     4  10  21  36  65  93 113 139 193 254 318 356
#     4  10  17  32  57  85 117 142 191 264 297 330
#     4  12  24  43  57  80 126 162 202 246 288 364
#     4  10  20  33  54  82 115 157 199 241 291 344
#
# _framework density 26.677810999999998
#
# number of rings (size 3 to 8) (size 9 to 14) (size 15 to 20)
#    0.000    1.600    4.000    3.000    0.000    3.200 
#    0.000    0.000    0.000    4.800    0.000    0.000 
#    0.000    0.000    0.000    0.000    0.000    0.000 
#
# Total GULP energy -223589.876942 kJ/mol
# GULP energy per Si atom -5589.746924 kJ/mol
# Density = 2.661709 g / cm^3
# Si number density = 26.677811 Si / 1000 Ang^3
#
#
#
# Elastic Constant Matrix: (Units=GPa)
#
#
# Indices 1 2 3 4 5 6 
#
# 1 154.1950 10.3275 25.2381 0.0000 0.0000 0.0000
# 2 10.3275 48.1475 20.1347 0.0000 0.0000 0.0000
# 3 25.2381 20.1347 207.6278 0.0000 0.0000 0.0000
# 4 0.0000 0.0000 0.0000 22.5505 0.0000 0.0000
# 5 0.0000 0.0000 0.0000 0.0000 44.6111 0.0000
# 6 0.0000 0.0000 0.0000 0.0000 0.0000 -54.7248
#
#
#
# Elastic Compliance Matrix: (Units=1/GPa)
#
#
# Indices 1 2 3 4 5 6 
#
# 1 0.006676 -0.001139 -0.000701 0.000000 0.000000 0.000000
# 2 -0.001139 0.021842 -0.001980 0.000000 0.000000 0.000000
# 3 -0.000701 -0.001980 0.005094 0.000000 0.000000 0.000000
# 4 0.000000 0.000000 0.000000 0.044345 0.000000 0.000000
# 5 0.000000 0.000000 0.000000 0.000000 0.022416 0.000000
# 6 0.000000 0.000000 0.000000 0.000000 0.000000 -0.018273
#
#
# Mechanical properties :
#
#
# Convention : Reuss Voigt Hill
#
# Bulk Modulus (GPa) = 38.50265 57.93011 48.21638
# Shear Modulus (GPa) = 50.81514 26.10534 38.46024
#
# Velocity S-wave (km/s) = 4.36910 3.13156 3.80103
# Velocity P-wave (km/s) = 6.31790 5.90232 6.11364
#
# Compressibility (1/GPa) = 0.02597224
#
# Stress axis : x y z
#
# Youngs Moduli (GPa) = 149.78294 45.78408 196.32823
#
# Poissons Ratio (x) = 0.05214 0.13764
# Poissons Ratio (y) = 0.17058 0.38866
# Poissons Ratio (z) = 0.10501 0.09064
#
# Static dielectric constant tensor:
#      x y z
#    x 2.081080 0.000000 0.000000 
#    y 0.000000 2.151700 0.000000 
#    z 0.000000 0.000000 2.177720 
# 
# From -- ./inp_files/2310.got.cif
#   From: 2010.05.17/outbox.cif.g08.bks.cpg/sg60_2_cif.got.tgz:2310.got - 2010.06.03 14:59:27.
