data_PCOD9453368
_publ_section_title
;
Structure prediction by ZEFSAII (Michael W. Deem and Ramdas Pophale) SiO2 
 PCOD9453368
Probable space group: P M M N
;
_chemical_formula_sum "Si O2"
_cell_formula_units_Z 48
_cell_length_a 9.000000
_cell_length_b 18.000000
_cell_length_c 15.000000
_cell_angle_alpha 90.000000
_cell_angle_beta 90.000000
_cell_angle_gamma 90.000000
_cell_volume 2430.000000
_symmetry_space_group_name_H-M "P M M N"
_symmetry_group_IT_number 59
_space_group.IT_coordinate_system_code '2'
_symmetry_cell_setting 'orthorhombic'
loop_
_space_group_symop_operation_xyz
x,y,z
1/2-x,1/2-y,z
1/2+x,-y,-z
-x,1/2+y,-z
-x,-y,-z
1/2+x,1/2+y,-z
1/2-x,y,z
x,1/2-y,z
loop_
_atom_site_type_symbol
_atom_site_label
_atom_site_fract_x
_atom_site_fract_y
_atom_site_fract_z
Si Si1 0.417854 0.331927 0.220763
Si Si2 0.929024 0.433457 0.880657
Si Si3 0.069243 0.602207 0.311585
Si Si4 0.076048 0.056681 0.384006
Si Si5 0.928802 0.329840 0.512704
Si Si6 0.424738 0.590139 0.924120
O O1 0.250000 0.340136 0.184936
O O2 0.432661 0.250000 0.259270
O O3 0.437045 0.392008 0.297074
O O4 0.531413 0.344909 0.141752
O O5 0.750000 0.438257 0.876309
O O6 0.982476 0.394913 0.790137
O O7 0.991463 0.516678 0.889370
O O8 0.969346 0.395140 0.973806
O O9 0.250000 0.601455 0.308602
O O10 0.021615 0.523818 0.354422
O O11 0.027142 0.663101 0.383726
O O12 0.250000 0.050746 0.408289
O O13 0.989943 0.099854 0.460217
O O14 0.750000 0.331753 0.507329
O O15 0.980541 0.250000 0.476980
O O16 0.250000 0.575374 0.922108
#
# Coordination Sequence:
#
# PCOD9453368 Si02
#       6
#     8   8   8   8   8   8
#     4  10  20  34  52  73 102 142 178 209 256 315
#     4   9  17  33  54  74 100 134 172 209 249 303
#     4   9  17  33  56  77  99 133 175 213 248 301
#     4  10  19  34  56  76  96 132 179 217 251 304
#     4  10  21  35  51  75 106 135 164 208 266 312
#     4  10  19  30  50  79 106 132 165 212 263 302
#
# _framework density 19.753086
#
# number of rings (size 3 to 8) (size 9 to 14) (size 15 to 20)
#    0.000    2.333    1.667    1.500    0.000    2.667 
#    0.000    1.667    0.000    3.000    0.000    0.000 
#    0.000    0.000    0.000    0.000    0.000    0.000 
#
# Total GULP energy -267428.711147 kJ/mol
# GULP energy per Si atom -5571.431482 kJ/mol
# Density = 1.970813 g / cm^3
# Si number density = 19.753086 Si / 1000 Ang^3
#
#
#
# Elastic Constant Matrix: (Units=GPa)
#
#
# Indices 1 2 3 4 5 6 
#
# 1 0.6035 7.0801 26.6365 0.0000 0.0000 0.0000
# 2 7.0801 27.4460 -11.1092 0.0000 0.0000 0.0000
# 3 26.6365 -11.1092 73.2284 0.0000 0.0000 0.0000
# 4 0.0000 0.0000 0.0000 45.1505 0.0000 0.0000
# 5 0.0000 0.0000 0.0000 0.0000 20.3569 0.0000
# 6 0.0000 0.0000 0.0000 0.0000 0.0000 8.8133
#
#
#
# Elastic Compliance Matrix: (Units=1/GPa)
#
#
# Indices 1 2 3 4 5 6 
#
# 1 -0.072013 0.031088 0.030911 0.000000 0.000000 0.000000
# 2 0.031088 0.025398 -0.007455 0.000000 0.000000 0.000000
# 3 0.030911 -0.007455 0.001281 0.000000 0.000000 0.000000
# 4 0.000000 0.000000 0.000000 0.022148 0.000000 0.000000
# 5 0.000000 0.000000 0.000000 0.000000 0.049123 0.000000
# 6 0.000000 0.000000 0.000000 0.000000 0.000000 0.113465
#
#
# Mechanical properties :
#
#
# Convention : Reuss Voigt Hill
#
# Bulk Modulus (GPa) = 15.68536 16.27698 15.98117
# Shear Modulus (GPa) = 96.96316 20.10884 58.53600
#
# Velocity S-wave (km/s) = 7.01386 3.19409 5.44960
# Velocity P-wave (km/s) = 8.57614 4.67558 6.90692
#
# Compressibility (1/GPa) = 0.06375373
#
# Stress axis : x y z
#
# Youngs Moduli (GPa) = -13.88639 39.37339 780.48518
#
# Poissons Ratio (x) = -1.22405 -24.12534
# Poissons Ratio (y) = 0.43170 5.81871
# Poissons Ratio (z) = 0.42924 0.29354
#
# Static dielectric constant tensor:
#      x y z
#    x 1.679440 0.000000 0.000000 
#    y 0.000000 1.689800 0.000000 
#    z 0.000000 0.000000 1.739490 
# 
# From -- ./inp_files/20375.got.cif
#   From: 2010.05.17/outbox.ucp.g08.bks.cvg/sg59_11_cif.got.tgz:20375.got - 2010.06.11 16:43:56.
