data_PCOD9453873
_publ_section_title
;
Structure prediction by ZEFSAII (Michael W. Deem and Ramdas Pophale) SiO2 
 PCOD9453873
Probable space group: P B C N
;
_chemical_formula_sum "Si O2"
_cell_formula_units_Z 48
_cell_length_a 9.773449
_cell_length_b 17.421099
_cell_length_c 11.404017
_cell_angle_alpha 90.000000
_cell_angle_beta 90.000000
_cell_angle_gamma 90.000000
_cell_volume 1941.696089
_symmetry_space_group_name_H-M "P B C N"
_symmetry_group_IT_number 60
_symmetry_cell_setting 'orthorhombic'
loop_
_space_group_symop_operation_xyz
x,y,z
1/2-x,1/2-y,1/2+z
1/2+x,1/2-y,-z
-x,y,1/2-z
-x,-y,-z
1/2+x,1/2+y,1/2-z
1/2-x,1/2+y,z
x,-y,1/2+z
loop_
_atom_site_type_symbol
_atom_site_label
_atom_site_fract_x
_atom_site_fract_y
_atom_site_fract_z
Si Si1 0.000000 0.002954 0.250000
Si Si2 0.904898 0.085289 0.974896
Si Si3 0.110010 0.145606 0.164330
Si Si4 0.000000 0.606555 0.750000
Si Si5 0.676319 0.024184 0.555927
Si Si6 0.007316 0.621854 0.108028
Si Si7 0.666053 0.203105 0.939087
O O1 0.957730 0.945166 0.351900
O O2 0.126608 0.066745 0.240035
O O3 0.802129 0.156446 0.966143
O O4 0.027554 0.114852 0.053593
O O5 0.823822 0.013170 0.032862
O O6 0.000000 0.187500 0.250000
O O7 0.202084 0.214589 0.117190
O O8 0.882182 0.561246 0.676220
O O9 0.918007 0.655609 0.843285
O O10 0.645827 0.086545 0.451823
O O11 0.588460 0.946003 0.556206
O O12 0.000000 0.623127 0.250000
O O13 0.937237 0.697823 0.051697
#
# Coordination Sequence:
#
# PCOD9453873 Si02
#       7
#     4   8   8   4   8   8   8
#     4  10  25  48  74  95 142 180 242 300 329 450
#     4  11  24  44  69 105 127 190 243 277 359 423
#     4  10  24  49  67  93 143 177 227 289 354 427
#     4  10  17  36  68 103 140 168 236 294 343 402
#     4   9  19  31  62 101 136 173 227 293 345 406
#     4   9  17  33  57  98 141 169 221 289 344 397
#     4  10  22  42  67  98 141 181 227 285 355 428
#
# _framework density 24.720654
#
# number of rings (size 3 to 8) (size 9 to 14) (size 15 to 20)
#    0.500    1.667    1.667    1.500    2.333    1.333 
#   10.500    0.000    0.000    0.000    0.000    0.000 
#    0.000    0.000    0.000    0.000    0.000    0.000 
#
# Total GULP energy -267254.207212 kJ/mol
# GULP energy per Si atom -5567.795984 kJ/mol
# Density = 2.466439 g / cm^3
# Si number density = 24.720654 Si / 1000 Ang^3
#
#
#
# Elastic Constant Matrix: (Units=GPa)
#
#
# Indices 1 2 3 4 5 6 
#
# 1 57.0440 26.0555 23.4887 0.0000 0.0000 0.0000
# 2 26.0555 102.9874 53.6440 0.0000 0.0000 0.0000
# 3 23.4887 53.6440 154.9726 0.0000 0.0000 0.0000
# 4 0.0000 0.0000 0.0000 19.3148 0.0000 0.0000
# 5 0.0000 0.0000 0.0000 0.0000 29.4022 0.0000
# 6 0.0000 0.0000 0.0000 0.0000 0.0000 379.4318
#
#
#
# Elastic Compliance Matrix: (Units=1/GPa)
#
#
# Indices 1 2 3 4 5 6 
#
# 1 0.020130 -0.004274 -0.001571 0.000000 0.000000 0.000000
# 2 -0.004274 0.012753 -0.003767 0.000000 0.000000 0.000000
# 3 -0.001571 -0.003767 0.007995 0.000000 0.000000 0.000000
# 4 0.000000 0.000000 0.000000 0.051774 0.000000 0.000000
# 5 0.000000 0.000000 0.000000 0.000000 0.034011 0.000000
# 6 0.000000 0.000000 0.000000 0.000000 0.000000 0.002636
#
#
# Mechanical properties :
#
#
# Convention : Reuss Voigt Hill
#
# Bulk Modulus (GPa) = 46.18306 57.93116 52.05711
# Shear Modulus (GPa) = 32.10464 99.75082 65.92773
#
# Velocity S-wave (km/s) = 3.60765 6.35915 5.16981
# Velocity P-wave (km/s) = 6.00634 8.79793 7.53259
#
# Compressibility (1/GPa) = 0.02165296
#
# Stress axis : x y z
#
# Youngs Moduli (GPa) = 49.67780 78.41108 125.08131
#
# Poissons Ratio (x) = 0.33515 0.19656
# Poissons Ratio (y) = 0.21233 0.47115
# Poissons Ratio (z) = 0.07807 0.29535
#
# Static dielectric constant tensor:
#      x y z
#    x 2.328480 0.000000 0.000000 
#    y 0.000000 1.974840 0.000000 
#    z 0.000000 0.000000 2.097020 
# 
# From -- ./inp_files/11050.got.cif
#   From: 2010.05.17/outbox.cif.g08.bks.cpg/sg60_6_cif.got.tgz:11050.got - 2010.06.03 14:59:27.
