data_PCOD9453936
_publ_section_title
;
Structure prediction by ZEFSAII (Michael W. Deem and Ramdas Pophale) SiO2 
 PCOD9453936
Probable space group: P B C N
;
_chemical_formula_sum "Si O2"
_cell_formula_units_Z 64
_cell_length_a 22.871739
_cell_length_b 18.456953
_cell_length_c 8.011540
_cell_angle_alpha 90.000000
_cell_angle_beta 90.000000
_cell_angle_gamma 90.000000
_cell_volume 3382.012420
_symmetry_space_group_name_H-M "P B C N"
_symmetry_group_IT_number 60
_symmetry_cell_setting 'orthorhombic'
loop_
_space_group_symop_operation_xyz
x,y,z
1/2-x,1/2-y,1/2+z
1/2+x,1/2-y,-z
-x,y,1/2-z
-x,-y,-z
1/2+x,1/2+y,1/2-z
1/2-x,1/2+y,z
x,-y,1/2+z
loop_
_atom_site_type_symbol
_atom_site_label
_atom_site_fract_x
_atom_site_fract_y
_atom_site_fract_z
Si Si1 0.641936 0.146839 0.273432
Si Si2 0.225838 0.533724 0.370817
Si Si3 0.060673 0.804595 0.810510
Si Si4 0.587541 0.832404 0.414014
Si Si5 0.240452 0.754856 0.096130
Si Si6 0.810939 0.847923 0.713658
Si Si7 0.472053 0.816535 0.569501
Si Si8 0.299501 0.106053 0.722811
O O1 0.674706 0.072145 0.236716
O O2 0.684586 0.207836 0.348231
O O3 0.586115 0.138899 0.391245
O O4 0.621144 0.173067 0.089991
O O5 0.283791 0.572056 0.298482
O O6 0.218794 0.447985 0.367340
O O7 0.218034 0.562139 0.557304
O O8 0.076425 0.744111 0.672103
O O9 0.120343 0.848904 0.823736
O O10 0.000000 0.840722 0.750000
O O11 0.046818 0.756717 0.974616
O O12 0.521864 0.857238 0.461480
O O13 0.631627 0.876092 0.294569
O O14 0.292457 0.695029 0.116788
O O15 0.263400 0.819813 0.215405
O O16 0.222359 0.799268 0.929468
O O17 0.500000 0.799476 0.750000
#
# Coordination Sequence:
#
# PCOD9453936 Si02
#       8
#     8   8   8   8   8   8   8   8
#     4   9  17  33  49  74  99 133 168 214 260 310
#     4   9  21  32  48  68 105 136 176 210 261 305
#     4  10  18  30  50  78 105 133 168 216 265 307
#     4   9  18  31  49  72 105 129 169 213 253 311
#     4  10  19  30  52  73 104 131 168 216 267 314
#     4  10  19  33  49  79 102 133 172 219 264 320
#     4   9  17  30  51  74 101 134 167 213 261 307
#     4  10  19  35  46  72 102 141 171 215 257 317
#
# _framework density 18.923643999999999
#
# number of rings (size 3 to 8) (size 9 to 14) (size 15 to 20)
#    0.000    2.500    2.500    0.750    0.000    3.000 
#    0.000    0.625    0.000    5.250    0.000    6.125 
#    0.000    0.000    0.000    0.000    0.000    0.000 
#
# Total GULP energy -356415.043720 kJ/mol
# GULP energy per Si atom -5568.985058 kJ/mol
# Density = 1.888057 g / cm^3
# Si number density = 18.923644 Si / 1000 Ang^3
#
#
#
# Elastic Constant Matrix: (Units=GPa)
#
#
# Indices 1 2 3 4 5 6 
#
# 1 120.9517 16.5170 8.9995 0.0000 0.0000 0.0000
# 2 16.5170 41.1773 -0.7421 0.0000 0.0000 0.0000
# 3 8.9995 -0.7421 33.1888 0.0000 0.0000 0.0000
# 4 0.0000 0.0000 0.0000 16.4178 0.0000 0.0000
# 5 0.0000 0.0000 0.0000 0.0000 19.9913 0.0000
# 6 0.0000 0.0000 0.0000 0.0000 0.0000 13.2230
#
#
#
# Elastic Compliance Matrix: (Units=1/GPa)
#
#
# Indices 1 2 3 4 5 6 
#
# 1 0.008951 -0.003636 -0.002508 0.000000 0.000000 0.000000
# 2 -0.003636 0.025772 0.001562 0.000000 0.000000 0.000000
# 3 -0.002508 0.001562 0.030846 0.000000 0.000000 0.000000
# 4 0.000000 0.000000 0.000000 0.060909 0.000000 0.000000
# 5 0.000000 0.000000 0.000000 0.000000 0.050022 0.000000
# 6 0.000000 0.000000 0.000000 0.000000 0.000000 0.075626
#
#
# Mechanical properties :
#
#
# Convention : Reuss Voigt Hill
#
# Bulk Modulus (GPa) = 17.72911 27.20740 22.46825
# Shear Modulus (GPa) = 17.85139 21.29600 19.57369
#
# Velocity S-wave (km/s) = 3.07471 3.35828 3.21962
# Velocity P-wave (km/s) = 4.68980 5.42643 5.07151
#
# Compressibility (1/GPa) = 0.05640442
#
# Stress axis : x y z
#
# Youngs Moduli (GPa) = 111.72101 38.80227 32.41942
#
# Poissons Ratio (x) = 0.14107 0.08132
# Poissons Ratio (y) = 0.40617 -0.05064
# Poissons Ratio (z) = 0.28024 -0.06061
#
# Static dielectric constant tensor:
#      x y z
#    x 1.714810 0.000000 0.000000 
#    y 0.000000 1.624210 0.000000 
#    z 0.000000 0.000000 1.753400 
# 
# From -- ./inp_files/8048.got.cif
#   From: 2010.05.17/outbox.cif.g08.bks.cpg/sg60_5_cif.got.tgz:8048.got - 2010.06.03 14:59:27.
