data_PCOD9453171
_publ_section_title
;
Structure prediction by ZEFSAII (Michael W. Deem and Ramdas Pophale) SiO2 
 PCOD9453171
Probable space group: P M M N
;
_chemical_formula_sum "Si O2"
_cell_formula_units_Z 48
_cell_length_a 8.817475
_cell_length_b 18.507364
_cell_length_c 16.900430
_cell_angle_alpha 90.000000
_cell_angle_beta 90.000000
_cell_angle_gamma 90.000000
_cell_volume 2757.951079
_symmetry_space_group_name_H-M "P M M N"
_symmetry_group_IT_number 59
_space_group.IT_coordinate_system_code '2'
_symmetry_cell_setting 'orthorhombic'
loop_
_space_group_symop_operation_xyz
x,y,z
1/2-x,1/2-y,z
1/2+x,-y,-z
-x,1/2+y,-z
-x,-y,-z
1/2+x,1/2+y,-z
1/2-x,y,z
x,1/2-y,z
loop_
_atom_site_type_symbol
_atom_site_label
_atom_site_fract_x
_atom_site_fract_y
_atom_site_fract_z
Si Si1 0.930158 0.419671 0.004740
Si Si2 0.933296 0.523636 0.583199
Si Si3 0.430834 0.946790 0.255788
Si Si4 0.565369 0.669870 0.665974
Si Si5 0.068980 0.165970 0.857513
Si Si6 0.930973 0.599331 0.830030
O O1 0.750000 0.425014 0.998948
O O2 0.980948 0.388007 0.089267
O O3 0.000000 0.500000 0.000000
O O4 0.993087 0.371620 0.933337
O O5 0.750000 0.523961 0.579347
O O6 0.975435 0.470357 0.655633
O O7 0.983700 0.604032 0.610016
O O8 0.000000 0.500000 0.500000
O O9 0.250000 0.933667 0.254806
O O10 0.516341 0.879412 0.218650
O O11 0.457426 0.017400 0.200763
O O12 0.750000 0.669409 0.664207
O O13 0.512987 0.750000 0.644271
O O14 0.524744 0.649896 0.756348
O O15 0.250000 0.161079 0.865642
O O16 0.026035 0.250000 0.852040
O O17 0.750000 0.607025 0.843563
#
# Coordination Sequence:
#
# PCOD9453171 Si02
#       6
#     8   8   8   8   8   8
#     4  12  23  35  54  79 109 146 186 226 269 319
#     4   9  18  33  55  83 109 139 178 216 262 322
#     4   9  18  34  55  76 103 140 179 219 265 322
#     4   8  15  30  53  79 107 138 173 216 266 318
#     4  11  24  39  55  78 107 141 185 233 278 323
#     4   9  17  31  53  79 103 135 179 221 264 317
#
# _framework density 17.404223999999999
#
# number of rings (size 3 to 8) (size 9 to 14) (size 15 to 20)
#    0.000    2.333    1.667    4.000    0.000    2.667 
#    0.000    5.000    0.000    4.500    0.000    0.000 
#    0.000    0.000    0.000    0.000    0.000    0.000 
#
# Total GULP energy -267823.273314 kJ/mol
# GULP energy per Si atom -5579.651527 kJ/mol
# Density = 1.736461 g / cm^3
# Si number density = 17.404224 Si / 1000 Ang^3
#
#
#
# Elastic Constant Matrix: (Units=GPa)
#
#
# Indices 1 2 3 4 5 6 
#
# 1 46.4290 51.6373 45.7881 0.0000 0.0000 0.0000
# 2 51.6373 139.5806 85.0527 0.0000 0.0000 0.0000
# 3 45.7881 85.0527 150.3502 0.0000 0.0000 0.0000
# 4 0.0000 0.0000 0.0000 18.3327 0.0000 0.0000
# 5 0.0000 0.0000 0.0000 0.0000 33.5419 0.0000
# 6 0.0000 0.0000 0.0000 0.0000 0.0000 20.9739
#
#
#
# Elastic Compliance Matrix: (Units=1/GPa)
#
#
# Indices 1 2 3 4 5 6 
#
# 1 0.039614 -0.011146 -0.005759 0.000000 0.000000 0.000000
# 2 -0.011146 0.014069 -0.004564 0.000000 0.000000 0.000000
# 3 -0.005759 -0.004564 0.010987 0.000000 0.000000 0.000000
# 4 0.000000 0.000000 0.000000 0.054547 0.000000 0.000000
# 5 0.000000 0.000000 0.000000 0.000000 0.029813 0.000000
# 6 0.000000 0.000000 0.000000 0.000000 0.000000 0.047678
#
#
# Mechanical properties :
#
#
# Convention : Reuss Voigt Hill
#
# Bulk Modulus (GPa) = 46.01605 77.92399 61.97002
# Shear Modulus (GPa) = 20.25183 24.82847 22.54015
#
# Velocity S-wave (km/s) = 3.41488 3.78110 3.60265
# Velocity P-wave (km/s) = 6.48425 7.99578 7.27936
#
# Compressibility (1/GPa) = 0.02173155
#
# Stress axis : x y z
#
# Youngs Moduli (GPa) = 25.24368 71.07852 91.01615
#
# Poissons Ratio (x) = 0.79223 0.52416
# Poissons Ratio (y) = 0.28136 0.41543
# Poissons Ratio (z) = 0.14538 0.32443
#
# Static dielectric constant tensor:
#      x y z
#    x 1.584810 0.000000 0.000000 
#    y 0.000000 1.594440 0.000000 
#    z 0.000000 0.000000 1.577080 
# 
# From -- ./inp_files/25765.got.cif
#   From: 2010.05.17/outbox.cif.g08.bks.cpg/sg59_13_cif.got.tgz:25765.got - 2010.06.03 14:40:33.
