data_PCOD9453856
_publ_section_title
;
Structure prediction by ZEFSAII (Michael W. Deem and Ramdas Pophale) SiO2 
 PCOD9453856
Probable space group: P B C N
;
_chemical_formula_sum "Si O2"
_cell_formula_units_Z 64
_cell_length_a 8.898086
_cell_length_b 16.143872
_cell_length_c 21.345998
_cell_angle_alpha 90.000000
_cell_angle_beta 90.000000
_cell_angle_gamma 90.000000
_cell_volume 3066.343251
_symmetry_space_group_name_H-M "P B C N"
_symmetry_group_IT_number 60
_symmetry_cell_setting 'orthorhombic'
loop_
_space_group_symop_operation_xyz
x,y,z
1/2-x,1/2-y,1/2+z
1/2+x,1/2-y,-z
-x,y,1/2-z
-x,-y,-z
1/2+x,1/2+y,1/2-z
1/2-x,1/2+y,z
x,-y,1/2+z
loop_
_atom_site_type_symbol
_atom_site_label
_atom_site_fract_x
_atom_site_fract_y
_atom_site_fract_z
Si Si1 0.249200 0.249885 0.528529
Si Si2 0.656388 0.391524 0.390481
Si Si3 0.512043 0.470429 0.822844
Si Si4 0.558109 0.192435 0.577803
Si Si5 0.183896 0.622878 0.135117
Si Si6 0.155629 0.777501 0.223197
Si Si7 0.608469 0.695575 0.190595
Si Si8 0.041703 0.481229 0.071666
O O1 0.135679 0.182496 0.559930
O O2 0.413070 0.209352 0.534035
O O3 0.200824 0.274578 0.459554
O O4 0.239901 0.331103 0.572117
O O5 0.520795 0.450759 0.368920
O O6 0.714799 0.345946 0.326496
O O7 0.787533 0.447520 0.420323
O O8 0.500000 0.495394 0.750000
O O9 0.674279 0.425332 0.834477
O O10 0.386415 0.399114 0.834073
O O11 0.534201 0.247925 0.638246
O O12 0.561095 0.095474 0.592766
O O13 0.133741 0.694421 0.182250
O O14 0.049288 0.562129 0.114945
O O15 0.252887 0.746664 0.281911
O O16 0.000000 0.808938 0.250000
O O17 0.500000 0.688595 0.250000
O O18 0.000000 0.500000 0.000000
#
# Coordination Sequence:
#
# PCOD9453856 Si02
#       8
#     8   8   8   8   8   8   8   8
#     4  10  20  37  58  86 122 164 208 253 317 375
#     4   9  21  36  60  90 122 169 204 254 318 384
#     4  10  17  34  65  89 117 161 215 252 310 375
#     4  11  22  37  63  92 123 164 212 259 314 382
#     4  10  18  36  61  86 122 160 206 258 315 371
#     4  11  22  39  62  93 130 166 205 262 320 378
#     4  11  20  39  66  91 117 167 219 258 310 385
#     4  10  19  35  62  93 119 161 209 261 316 371
#
# _framework density 20.871766000000001
#
# number of rings (size 3 to 8) (size 9 to 14) (size 15 to 20)
#    0.000    1.750    5.000    1.875    0.000    2.000 
#    0.000    3.750    2.750    0.000    0.000    0.000 
#    0.000    0.000    0.000    0.000    0.000    0.000 
#
# Total GULP energy -356720.136560 kJ/mol
# GULP energy per Si atom -5573.752134 kJ/mol
# Density = 2.082426 g / cm^3
# Si number density = 20.871766 Si / 1000 Ang^3
#
#
#
# Elastic Constant Matrix: (Units=GPa)
#
#
# Indices 1 2 3 4 5 6 
#
# 1 40.5016 13.7059 12.5618 0.0000 0.0000 0.0000
# 2 13.7059 98.8192 24.5691 0.0000 0.0000 0.0000
# 3 12.5618 24.5691 54.5326 0.0000 0.0000 0.0000
# 4 0.0000 0.0000 0.0000 7.8231 0.0000 0.0000
# 5 0.0000 0.0000 0.0000 0.0000 32.7096 0.0000
# 6 0.0000 0.0000 0.0000 0.0000 0.0000 5.8640
#
#
#
# Elastic Compliance Matrix: (Units=1/GPa)
#
#
# Indices 1 2 3 4 5 6 
#
# 1 0.027122 -0.002487 -0.005127 0.000000 0.000000 0.000000
# 2 -0.002487 0.011624 -0.004664 0.000000 0.000000 0.000000
# 3 -0.005127 -0.004664 0.021620 0.000000 0.000000 0.000000
# 4 0.000000 0.000000 0.000000 0.127826 0.000000 0.000000
# 5 0.000000 0.000000 0.000000 0.000000 0.030572 0.000000
# 6 0.000000 0.000000 0.000000 0.000000 0.000000 0.170533
#
#
# Mechanical properties :
#
#
# Convention : Reuss Voigt Hill
#
# Bulk Modulus (GPa) = 27.92546 32.83631 30.38089
# Shear Modulus (GPa) = 11.74284 18.81378 15.27831
#
# Velocity S-wave (km/s) = 2.37453 3.00559 2.70850
# Velocity P-wave (km/s) = 4.57454 5.27364 4.93648
#
# Compressibility (1/GPa) = 0.03580961
#
# Stress axis : x y z
#
# Youngs Moduli (GPa) = 36.87009 86.02835 46.25319
#
# Poissons Ratio (x) = 0.21395 0.23715
# Poissons Ratio (y) = 0.09170 0.21573
# Poissons Ratio (z) = 0.18904 0.40125
#
# Static dielectric constant tensor:
#      x y z
#    x 1.773580 0.000000 0.000000 
#    y 0.000000 1.813250 0.000000 
#    z 0.000000 0.000000 1.751890 
# 
# From -- ./inp_files/22350.got.cif
#   From: 2010.05.17/outbox.cif.g08.bks.cpg/sg60_12_cif.got.tgz:22350.got - 2010.06.03 14:59:27.
