data_PCOD9453434
_publ_section_title
;
Structure prediction by ZEFSAII (Michael W. Deem and Ramdas Pophale) SiO2 
 PCOD9453434
Probable space group: P M M N
;
_chemical_formula_sum "Si O2"
_cell_formula_units_Z 56
_cell_length_a 21.000000
_cell_length_b 9.000000
_cell_length_c 15.000000
_cell_angle_alpha 90.000000
_cell_angle_beta 90.000000
_cell_angle_gamma 90.000000
_cell_volume 2835.000000
_symmetry_space_group_name_H-M "P M M N"
_symmetry_group_IT_number 59
_space_group.IT_coordinate_system_code '2'
_symmetry_cell_setting 'orthorhombic'
loop_
_space_group_symop_operation_xyz
x,y,z
1/2-x,1/2-y,z
1/2+x,-y,-z
-x,1/2+y,-z
-x,-y,-z
1/2+x,1/2+y,-z
1/2-x,y,z
x,1/2-y,z
loop_
_atom_site_type_symbol
_atom_site_label
_atom_site_fract_x
_atom_site_fract_y
_atom_site_fract_z
Si Si1 0.322732 0.421193 0.707909
Si Si2 0.817388 0.429748 0.946892
Si Si3 0.062712 0.571129 0.393574
Si Si4 0.429548 0.926332 0.596846
Si Si5 0.883492 0.429060 0.783563
Si Si6 0.868831 0.078180 0.126380
Si Si7 0.510122 0.576515 0.904054
O O1 0.250000 0.436904 0.679203
O O2 0.342129 0.250000 0.698531
O O3 0.369394 0.524630 0.652745
O O4 0.329976 0.473357 0.809494
O O5 0.750000 0.477047 0.982894
O O6 0.819568 0.250000 0.942467
O O7 0.826806 0.482183 0.846680
O O8 0.865523 0.472151 0.023629
O O9 0.059365 0.750000 0.392158
O O10 0.079788 0.527150 0.493704
O O11 0.110565 0.518340 0.317041
O O12 0.993560 0.506557 0.371697
O O13 0.438630 0.750000 0.600986
O O14 0.883012 0.250000 0.780241
O O15 0.942425 0.483448 0.842970
O O16 0.846156 0.250000 0.132744
O O17 0.943042 0.076786 0.147977
O O18 0.529183 0.750000 0.915093
O O19 0.500000 0.500000 0.000000
#
# Coordination Sequence:
#
# PCOD9453434 Si02
#       7
#     8   8   8   8   8   8   8
#     4  11  24  39  55  79 111 148 187 228 278 328
#     4   9  17  31  51  73 100 136 175 213 253 304
#     4   9  19  35  58  85 112 140 172 221 281 330
#     4  10  20  36  58  84 110 140 180 224 273 331
#     4  10  19  34  53  78 109 138 173 216 264 317
#     4  10  20  35  55  78 104 139 183 222 265 322
#     4  11  21  33  51  78 108 140 177 218 266 317
#
# _framework density 19.753086
#
# number of rings (size 3 to 8) (size 9 to 14) (size 15 to 20)
#    0.000    2.000    1.429    2.571    0.000    6.286 
#    0.000    0.714    0.000    3.000    0.000    0.000 
#    0.000    0.000    0.000    0.000    0.000    0.000 
#
# Total GULP energy -311809.329878 kJ/mol
# GULP energy per Si atom -5568.023748 kJ/mol
# Density = 1.970813 g / cm^3
# Si number density = 19.753086 Si / 1000 Ang^3
#
#
#
# Elastic Constant Matrix: (Units=GPa)
#
#
# Indices 1 2 3 4 5 6 
#
# 1 46.0440 -9.4544 19.4800 0.0000 0.0000 0.0000
# 2 -9.4544 -18.1356 -5.8120 0.0000 0.0000 0.0000
# 3 19.4800 -5.8120 68.6846 0.0000 0.0000 0.0000
# 4 0.0000 0.0000 0.0000 18.2065 0.0000 0.0000
# 5 0.0000 0.0000 0.0000 0.0000 12.1599 0.0000
# 6 0.0000 0.0000 0.0000 0.0000 0.0000 2.6048
#
#
#
# Elastic Compliance Matrix: (Units=1/GPa)
#
#
# Indices 1 2 3 4 5 6 
#
# 1 0.022836 -0.009570 -0.007286 0.000000 0.000000 0.000000
# 2 -0.009570 -0.049674 -0.001489 0.000000 0.000000 0.000000
# 3 -0.007286 -0.001489 0.016500 0.000000 0.000000 0.000000
# 4 0.000000 0.000000 0.000000 0.054925 0.000000 0.000000
# 5 0.000000 0.000000 0.000000 0.000000 0.082237 0.000000
# 6 0.000000 0.000000 0.000000 0.000000 0.000000 0.383910
#
#
# Mechanical properties :
#
#
# Convention : Reuss Voigt Hill
#
# Bulk Modulus (GPa) = -21.26350 11.66893 -4.79729
# Shear Modulus (GPa) = 9.40294 12.75287 11.07791
#
# Velocity S-wave (km/s) = 2.18416 2.54365 2.37073
# Velocity P-wave (km/s) = 2.10410 3.81407 2.24943
#
# Compressibility (1/GPa) = -0.04702894
#
# Stress axis : x y z
#
# Youngs Moduli (GPa) = 43.79035 -20.13121 60.60669
#
# Poissons Ratio (x) = -0.19265 0.44161
# Poissons Ratio (y) = 0.41906 0.09026
# Poissons Ratio (z) = 0.31908 -0.02998
#
# Static dielectric constant tensor:
#      x y z
#    x 1.849980 0.000000 0.000000 
#    y 0.000000 1.665600 0.000000 
#    z 0.000000 0.000000 1.744730 
# 
# From -- ./inp_files/24202.got.cif
#   From: 2010.05.17/outbox.ucp.g08.bks.cvg/sg59_13_cif.got.tgz:24202.got - 2010.06.11 16:43:56.
