data_PCOD9453173
_publ_section_title
;
Structure prediction by ZEFSAII (Michael W. Deem and Ramdas Pophale) SiO2 
 PCOD9453173
Probable space group: P M M N
;
_chemical_formula_sum "Si O2"
_cell_formula_units_Z 40
_cell_length_a 9.545486
_cell_length_b 14.598258
_cell_length_c 15.005618
_cell_angle_alpha 90.000000
_cell_angle_beta 90.000000
_cell_angle_gamma 90.000000
_cell_volume 2090.994865
_symmetry_space_group_name_H-M "P M M N"
_symmetry_group_IT_number 59
_space_group.IT_coordinate_system_code '2'
_symmetry_cell_setting 'orthorhombic'
loop_
_space_group_symop_operation_xyz
x,y,z
1/2-x,1/2-y,z
1/2+x,-y,-z
-x,1/2+y,-z
-x,-y,-z
1/2+x,1/2+y,-z
1/2-x,y,z
x,1/2-y,z
loop_
_atom_site_type_symbol
_atom_site_label
_atom_site_fract_x
_atom_site_fract_y
_atom_site_fract_z
Si Si1 0.410290 0.138584 0.577962
Si Si2 0.083518 0.509621 0.091706
Si Si3 0.414354 0.139994 0.781058
Si Si4 0.413693 0.357045 0.238473
Si Si5 0.409685 0.638319 0.589628
O O1 0.250000 0.111048 0.559812
O O2 0.411251 0.250000 0.577299
O O3 0.448268 0.112438 0.678923
O O4 0.513061 0.107773 0.500188
O O5 0.250000 0.522803 0.077597
O O6 0.064105 0.418875 0.152096
O O7 0.015033 0.590553 0.149810
O O8 0.000000 0.500000 0.000000
O O9 0.250000 0.117028 0.796940
O O10 0.426629 0.250000 0.787320
O O11 0.250000 0.364056 0.264094
O O12 0.443385 0.250000 0.220162
O O13 0.507110 0.387941 0.321626
O O14 0.250000 0.607391 0.592948
O O15 0.410178 0.750000 0.588263
#
# Coordination Sequence:
#
# PCOD9453173 Si02
#       5
#     8   8   8   8   8
#     4   8  14  27  49  76 107 145 183 215 256 317
#     4  11  24  40  59  83 109 140 182 233 286 335
#     4   9  19  37  60  84 112 148 186 224 271 327
#     4   9  19  37  58  78 105 144 185 222 266 325
#     4   9  16  26  46  79 113 142 175 219 268 315
#
# _framework density 19.129652
#
# number of rings (size 3 to 8) (size 9 to 14) (size 15 to 20)
#    0.000    2.800    0.000    2.400    0.000    6.000 
#    0.000    5.000    0.000    0.000    0.000    0.000 
#    0.000    0.000    0.000    0.000    0.000    0.000 
#
# Total GULP energy -223329.754728 kJ/mol
# GULP energy per Si atom -5583.243868 kJ/mol
# Density = 1.908611 g / cm^3
# Si number density = 19.129652 Si / 1000 Ang^3
#
#
#
# Elastic Constant Matrix: (Units=GPa)
#
#
# Indices 1 2 3 4 5 6 
#
# 1 144.9569 51.5694 135.4423 0.0000 0.0000 0.0000
# 2 51.5694 74.6876 43.4207 0.0000 0.0000 0.0000
# 3 135.4423 43.4207 176.0112 0.0000 0.0000 0.0000
# 4 0.0000 0.0000 0.0000 29.5875 0.0000 0.0000
# 5 0.0000 0.0000 0.0000 0.0000 40.1484 0.0000
# 6 0.0000 0.0000 0.0000 0.0000 0.0000 16.9746
#
#
#
# Elastic Compliance Matrix: (Units=1/GPa)
#
#
# Indices 1 2 3 4 5 6 
#
# 1 0.028106 -0.007977 -0.019660 0.000000 0.000000 0.000000
# 2 -0.007977 0.017895 0.001724 0.000000 0.000000 0.000000
# 3 -0.019660 0.001724 0.020385 0.000000 0.000000 0.000000
# 4 0.000000 0.000000 0.000000 0.033798 0.000000 0.000000
# 5 0.000000 0.000000 0.000000 0.000000 0.024908 0.000000
# 6 0.000000 0.000000 0.000000 0.000000 0.000000 0.058911
#
#
# Mechanical properties :
#
#
# Convention : Reuss Voigt Hill
#
# Bulk Modulus (GPa) = 68.68431 95.16893 81.92662
# Shear Modulus (GPa) = 20.77435 28.35701 24.56568
#
# Velocity S-wave (km/s) = 3.29899 3.85432 3.58742
# Velocity P-wave (km/s) = 7.10589 8.34656 7.75109
#
# Compressibility (1/GPa) = 0.01455937
#
# Stress axis : x y z
#
# Youngs Moduli (GPa) = 35.57975 55.88257 49.05619
#
# Poissons Ratio (x) = 0.44575 0.96444
# Poissons Ratio (y) = 0.28381 -0.08455
# Poissons Ratio (z) = 0.69950 -0.09632
#
# Static dielectric constant tensor:
#      x y z
#    x 1.638920 0.000000 0.000000 
#    y 0.000000 1.708120 0.000000 
#    z 0.000000 0.000000 1.625570 
# 
# From -- ./inp_files/13877.got.cif
#   From: 2010.05.17/outbox.cif.g08.bks.cpg/sg59_7_cif.got.tgz:13877.got - 2010.06.03 14:40:33.
