data_PCOD9453781
_publ_section_title
;
Structure prediction by ZEFSAII (Michael W. Deem and Ramdas Pophale) SiO2 
 PCOD9453781
Probable space group: P B C N
;
_chemical_formula_sum "Si O2"
_cell_formula_units_Z 32
_cell_length_a 7.296778
_cell_length_b 33.440034
_cell_length_c 5.381135
_cell_angle_alpha 90.000000
_cell_angle_beta 90.000000
_cell_angle_gamma 90.000000
_cell_volume 1313.021179
_symmetry_space_group_name_H-M "P B C N"
_symmetry_group_IT_number 60
_symmetry_cell_setting 'orthorhombic'
loop_
_space_group_symop_operation_xyz
x,y,z
1/2-x,1/2-y,1/2+z
1/2+x,1/2-y,-z
-x,y,1/2-z
-x,-y,-z
1/2+x,1/2+y,1/2-z
1/2-x,1/2+y,z
x,-y,1/2+z
loop_
_atom_site_type_symbol
_atom_site_label
_atom_site_fract_x
_atom_site_fract_y
_atom_site_fract_z
Si Si1 0.713138 0.606980 0.794544
Si Si2 0.710094 0.484235 0.468974
Si Si3 0.706683 0.773111 0.838773
Si Si4 0.792718 0.862408 0.794183
O O1 0.500000 0.619130 0.750000
O O2 0.715904 0.561376 0.882466
O O3 0.795253 0.613410 0.521433
O O4 0.791900 0.633048 0.020327
O O5 0.500000 0.500000 0.500000
O O6 0.791120 0.490485 0.741572
O O7 0.792171 0.749351 0.603820
O O8 0.500000 0.780178 0.750000
O O9 0.799386 0.816223 0.869964
O O10 0.000000 0.878339 0.750000
#
# Coordination Sequence:
#
# PCOD9453781 Si02
#       4
#     8   8   8   8
#     4  10  18  29  46  73 113 158 187 242 298 367
#     4  10  17  24  41  66 107 155 195 233 299 356
#     4  12  25  44  69  94 124 162 212 260 315 386
#     4  10  21  34  53  81 117 154 193 242 314 359
#
# _framework density 24.371276000000002
#
# number of rings (size 3 to 8) (size 9 to 14) (size 15 to 20)
#    0.000    1.500    2.500    5.250    7.000    2.000 
#    0.000    0.000    0.000    0.000    0.000    0.000 
#    0.000   20.000    0.000    0.000    0.000    0.000 
#
# Total GULP energy -178824.822952 kJ/mol
# GULP energy per Si atom -5588.275717 kJ/mol
# Density = 2.431581 g / cm^3
# Si number density = 24.371276 Si / 1000 Ang^3
#
#
#
# Elastic Constant Matrix: (Units=GPa)
#
#
# Indices 1 2 3 4 5 6 
#
# 1 68.9465 -22.1682 -6.1708 0.0000 0.0000 0.0000
# 2 -22.1682 131.3379 69.8699 0.0000 0.0000 0.0000
# 3 -6.1708 69.8699 248.2406 0.0000 0.0000 0.0000
# 4 0.0000 0.0000 0.0000 56.8547 0.0000 0.0000
# 5 0.0000 0.0000 0.0000 0.0000 0.2467 0.0000
# 6 0.0000 0.0000 0.0000 0.0000 0.0000 -4.0839
#
#
#
# Elastic Compliance Matrix: (Units=1/GPa)
#
#
# Indices 1 2 3 4 5 6 
#
# 1 0.015372 0.002812 -0.000409 0.000000 0.000000 0.000000
# 2 0.002812 0.009469 -0.002595 0.000000 0.000000 0.000000
# 3 -0.000409 -0.002595 0.004749 0.000000 0.000000 0.000000
# 4 0.000000 0.000000 0.000000 0.017589 0.000000 0.000000
# 5 0.000000 0.000000 0.000000 0.000000 4.053241 0.000000
# 6 0.000000 0.000000 0.000000 0.000000 0.000000 -0.244865
#
#
# Mechanical properties :
#
#
# Convention : Reuss Voigt Hill
#
# Bulk Modulus (GPa) = 34.24103 59.06520 46.65311
# Shear Modulus (GPa) = 1.29344 37.73643 19.51493
#
# Velocity S-wave (km/s) = 0.72930 3.93924 2.83280
# Velocity P-wave (km/s) = 3.84570 6.70659 5.46661
#
# Compressibility (1/GPa) = 0.02920473
#
# Stress axis : x y z
#
# Youngs Moduli (GPa) = 65.05500 105.60419 210.58592
#
# Poissons Ratio (x) = -0.29700 0.08623
# Poissons Ratio (y) = -0.18296 0.54654
# Poissons Ratio (z) = 0.02664 0.27408
#
# Static dielectric constant tensor:
#      x y z
#    x 1.911720 0.000000 0.000000 
#    y 0.000000 1.878250 0.000000 
#    z 0.000000 0.000000 2.015080 
# 
# From -- ./inp_files/356.got.cif
#   From: 2010.05.17/outbox.cif.g08.bks.cpg/sg60_1_cif.got.tgz:356.got - 2010.06.03 14:59:27.
