data_PCOD9453239
_publ_section_title
;
Structure prediction by ZEFSAII (Michael W. Deem and Ramdas Pophale) SiO2 
 PCOD9453239
Probable space group: P M M N
;
_chemical_formula_sum "Si O2"
_cell_formula_units_Z 48
_cell_length_a 7.419139
_cell_length_b 19.294502
_cell_length_c 16.888242
_cell_angle_alpha 90.000000
_cell_angle_beta 90.000000
_cell_angle_gamma 90.000000
_cell_volume 2417.528068
_symmetry_space_group_name_H-M "P M M N"
_symmetry_group_IT_number 59
_space_group.IT_coordinate_system_code '2'
_symmetry_cell_setting 'orthorhombic'
loop_
_space_group_symop_operation_xyz
x,y,z
1/2-x,1/2-y,z
1/2+x,-y,-z
-x,1/2+y,-z
-x,-y,-z
1/2+x,1/2+y,-z
1/2-x,y,z
x,1/2-y,z
loop_
_atom_site_type_symbol
_atom_site_label
_atom_site_fract_x
_atom_site_fract_y
_atom_site_fract_z
Si Si1 0.965051 0.531118 0.585824
Si Si2 0.463333 0.828149 0.162210
Si Si3 0.029598 0.958173 0.256135
Si Si4 0.969271 0.901069 0.824726
Si Si5 0.969804 0.672040 0.662428
Si Si6 0.466993 0.329496 0.016612
O O1 0.750000 0.534691 0.594749
O O2 0.029842 0.480702 0.656241
O O3 0.029902 0.609407 0.604825
O O4 0.000000 0.500000 0.500000
O O5 0.250000 0.823043 0.176667
O O6 0.538501 0.750000 0.167788
O O7 0.535448 0.885131 0.222702
O O8 0.484968 0.853129 0.071631
O O9 0.250000 0.956368 0.256306
O O10 0.976264 0.021401 0.198689
O O11 0.750000 0.900390 0.825865
O O12 0.021268 0.851262 0.751549
O O13 0.032523 0.874572 0.909667
O O14 0.750000 0.673340 0.660649
O O15 0.031142 0.750000 0.644276
O O16 0.250000 0.328371 0.020580
O O17 0.530378 0.250000 0.024858
#
# Coordination Sequence:
#
# PCOD9453239 Si02
#       6
#     8   8   8   8   8   8
#     4   9  17  30  48  67  87 110 136 171 213 255
#     4   9  17  29  43  57  78 112 148 174 196 230
#     4   8  15  28  44  61  80 105 139 172 201 240
#     4   8  13  22  39  62  84 106 134 170 208 244
#     4   8  13  23  42  66  87 108 138 173 207 248
#     4   9  16  25  39  61  86 108 133 169 209 241
#
# _framework density 19.854990999999998
#
# number of rings (size 3 to 8) (size 9 to 14) (size 15 to 20)
#    0.000    3.500    0.000    2.500    0.000    2.667 
#    0.000    1.667    0.000    5.500    0.000    0.000 
#    0.000    0.000    0.000    0.000    0.000    0.000 
#
# Total GULP energy -267554.389413 kJ/mol
# GULP energy per Si atom -5574.049779 kJ/mol
# Density = 1.980980 g / cm^3
# Si number density = 19.854991 Si / 1000 Ang^3
#
#
#
# Elastic Constant Matrix: (Units=GPa)
#
#
# Indices 1 2 3 4 5 6 
#
# 1 62.5806 6.4938 1.0375 0.0000 0.0000 0.0000
# 2 6.4938 158.2276 121.2071 0.0000 0.0000 0.0000
# 3 1.0375 121.2071 147.3830 0.0000 0.0000 0.0000
# 4 0.0000 0.0000 0.0000 24.3332 0.0000 0.0000
# 5 0.0000 0.0000 0.0000 0.0000 17.4444 0.0000
# 6 0.0000 0.0000 0.0000 0.0000 0.0000 -3.2389
#
#
#
# Elastic Compliance Matrix: (Units=1/GPa)
#
#
# Indices 1 2 3 4 5 6 
#
# 1 0.016121 -0.001553 0.001164 0.000000 0.000000 0.000000
# 2 -0.001553 0.017230 -0.014159 0.000000 0.000000 0.000000
# 3 0.001164 -0.014159 0.018421 0.000000 0.000000 0.000000
# 4 0.000000 0.000000 0.000000 0.041096 0.000000 0.000000
# 5 0.000000 0.000000 0.000000 0.000000 0.057325 0.000000
# 6 0.000000 0.000000 0.000000 0.000000 0.000000 -0.308750
#
#
# Mechanical properties :
#
#
# Convention : Reuss Voigt Hill
#
# Bulk Modulus (GPa) = 44.09987 69.51866 56.80927
# Shear Modulus (GPa) = -41.01654 23.67128 -8.67263
#
# Velocity S-wave (km/s) = -4.55004 3.45658 -2.09224
# Velocity P-wave (km/s) = 2.31185 7.14282 4.77887
#
# Compressibility (1/GPa) = 0.02267581
#
# Stress axis : x y z
#
# Youngs Moduli (GPa) = 62.02991 58.03898 54.28597
#
# Poissons Ratio (x) = 0.09014 -0.06318
# Poissons Ratio (y) = 0.09634 0.76862
# Poissons Ratio (z) = -0.07219 0.82176
#
# Static dielectric constant tensor:
#      x y z
#    x 1.772680 0.000000 0.000000 
#    y 0.000000 1.705380 0.000000 
#    z 0.000000 0.000000 1.671210 
# 
# From -- ./inp_files/23822.got.cif
#   From: 2010.05.17/outbox.cif.g08.bks.cpg/sg59_12_cif.got.tgz:23822.got - 2010.06.03 14:40:33.
