data_PCOD9453108
_publ_section_title
;
Structure prediction by ZEFSAII (Michael W. Deem and Ramdas Pophale) SiO2 
 PCOD9453108
Probable space group: P M M N
;
_chemical_formula_sum "Si O2"
_cell_formula_units_Z 48
_cell_length_a 8.760911
_cell_length_b 28.937459
_cell_length_c 10.189562
_cell_angle_alpha 90.000000
_cell_angle_beta 90.000000
_cell_angle_gamma 90.000000
_cell_volume 2583.242503
_symmetry_space_group_name_H-M "P M M N"
_symmetry_group_IT_number 59
_space_group.IT_coordinate_system_code '2'
_symmetry_cell_setting 'orthorhombic'
loop_
_space_group_symop_operation_xyz
x,y,z
1/2-x,1/2-y,z
1/2+x,-y,-z
-x,1/2+y,-z
-x,-y,-z
1/2+x,1/2+y,-z
1/2-x,y,z
x,1/2-y,z
loop_
_atom_site_type_symbol
_atom_site_label
_atom_site_fract_x
_atom_site_fract_y
_atom_site_fract_z
Si Si1 0.433065 0.881568 0.711387
Si Si2 0.570316 0.631028 0.996928
Si Si3 0.572405 0.305415 0.790047
Si Si4 0.064003 0.803092 0.505009
Si Si5 0.931867 0.969108 0.116148
Si Si6 0.432231 0.481373 0.364512
O O1 0.250000 0.885910 0.703683
O O2 0.482352 0.840228 0.613684
O O3 0.506695 0.930126 0.668934
O O4 0.481091 0.870111 0.859932
O O5 0.750000 0.632995 0.967530
O O6 0.520691 0.671763 0.093427
O O7 0.540290 0.583672 0.075976
O O8 0.750000 0.319841 0.801664
O O9 0.567750 0.250000 0.798111
O O10 0.516814 0.317275 0.642661
O O11 0.250000 0.802135 0.503023
O O12 0.014532 0.750000 0.530698
O O13 0.750000 0.976584 0.126430
O O14 0.011585 0.984844 0.249189
O O15 0.000000 0.000000 0.000000
O O16 0.500000 0.500000 0.500000
O O17 0.250000 0.480518 0.369594
#
# Coordination Sequence:
#
# PCOD9453108 Si02
#       6
#     8   8   8   8   8   8
#     4  11  22  38  62  91 121 157 202 249 301 358
#     4  11  24  39  58  88 123 159 197 246 303 360
#     4   9  19  38  63  89 117 153 199 248 298 357
#     4   8  17  36  61  89 118 149 192 245 297 352
#     4  11  23  41  63  88 121 162 202 245 300 357
#     4  12  26  43  62  88 123 160 203 252 302 361
#
# _framework density 18.581299000000001
#
# number of rings (size 3 to 8) (size 9 to 14) (size 15 to 20)
#    0.000    1.667    1.667    4.000    2.333    3.000 
#    0.000    2.500    0.000    3.500    0.000    0.000 
#    0.000    0.000    0.000    0.000    0.000    0.000 
#
# Total GULP energy -268167.034914 kJ/mol
# GULP energy per Si atom -5586.813227 kJ/mol
# Density = 1.853901 g / cm^3
# Si number density = 18.581299 Si / 1000 Ang^3
#
#
#
# Elastic Constant Matrix: (Units=GPa)
#
#
# Indices 1 2 3 4 5 6 
#
# 1 62.5268 36.1333 54.3111 0.0000 0.0000 0.0000
# 2 36.1333 55.8972 59.9425 0.0000 0.0000 0.0000
# 3 54.3111 59.9425 166.2652 0.0000 0.0000 0.0000
# 4 0.0000 0.0000 0.0000 35.8723 0.0000 0.0000
# 5 0.0000 0.0000 0.0000 0.0000 26.8031 0.0000
# 6 0.0000 0.0000 0.0000 0.0000 0.0000 27.4348
#
#
#
# Elastic Compliance Matrix: (Units=1/GPa)
#
#
# Indices 1 2 3 4 5 6 
#
# 1 0.027178 -0.013121 -0.004147 0.000000 0.000000 0.000000
# 2 -0.013121 0.035501 -0.008513 0.000000 0.000000 0.000000
# 3 -0.004147 -0.008513 0.010438 0.000000 0.000000 0.000000
# 4 0.000000 0.000000 0.000000 0.027877 0.000000 0.000000
# 5 0.000000 0.000000 0.000000 0.000000 0.037309 0.000000
# 6 0.000000 0.000000 0.000000 0.000000 0.000000 0.036450
#
#
# Mechanical properties :
#
#
# Convention : Reuss Voigt Hill
#
# Bulk Modulus (GPa) = 46.39384 65.05147 55.72266
# Shear Modulus (GPa) = 21.41328 26.97552 24.19440
#
# Velocity S-wave (km/s) = 3.39840 3.81433 3.61235
# Velocity P-wave (km/s) = 6.35776 7.38132 6.88858
#
# Compressibility (1/GPa) = 0.02155458
#
# Stress axis : x y z
#
# Youngs Moduli (GPa) = 36.79444 28.16855 95.80114
#
# Poissons Ratio (x) = 0.36960 0.39732
# Poissons Ratio (y) = 0.48278 0.81553
# Poissons Ratio (z) = 0.15260 0.23979
#
# Static dielectric constant tensor:
#      x y z
#    x 1.635670 0.000000 0.000000 
#    y 0.000000 1.626640 0.000000 
#    z 0.000000 0.000000 1.603200 
# 
# From -- ./inp_files/6275.got.cif
#   From: 2010.05.17/outbox.cif.g08.bks.cpg/sg59_4_cif.got.tgz:6275.got - 2010.06.03 14:40:33.
