data_PCOD9453938
_publ_section_title
;
Structure prediction by ZEFSAII (Michael W. Deem and Ramdas Pophale) SiO2 
 PCOD9453938
Probable space group: P B C N
;
_chemical_formula_sum "Si O2"
_cell_formula_units_Z 56
_cell_length_a 20.346973
_cell_length_b 14.797198
_cell_length_c 9.844909
_cell_angle_alpha 90.000000
_cell_angle_beta 90.000000
_cell_angle_gamma 90.000000
_cell_volume 2964.087365
_symmetry_space_group_name_H-M "P B C N"
_symmetry_group_IT_number 60
_symmetry_cell_setting 'orthorhombic'
loop_
_space_group_symop_operation_xyz
x,y,z
1/2-x,1/2-y,1/2+z
1/2+x,1/2-y,-z
-x,y,1/2-z
-x,-y,-z
1/2+x,1/2+y,1/2-z
1/2-x,1/2+y,z
x,-y,1/2+z
loop_
_atom_site_type_symbol
_atom_site_label
_atom_site_fract_x
_atom_site_fract_y
_atom_site_fract_z
Si Si1 0.056688 0.067966 0.633979
Si Si2 0.131097 0.718059 0.639344
Si Si3 0.525019 0.366742 0.902847
Si Si4 0.815792 0.611923 0.631152
Si Si5 0.193614 0.404298 0.923772
Si Si6 0.293297 0.563963 0.654180
Si Si7 0.251831 0.144447 0.150258
O O1 0.130990 0.087752 0.677300
O O2 0.000000 0.072320 0.750000
O O3 0.032840 0.132147 0.512553
O O4 0.059517 0.964689 0.576812
O O5 0.072028 0.781434 0.593376
O O6 0.129884 0.667947 0.785513
O O7 0.144255 0.642871 0.526464
O O8 0.194302 0.783381 0.645876
O O9 0.500000 0.370127 0.750000
O O10 0.830135 0.505676 0.609243
O O11 0.752048 0.608691 0.730432
O O12 0.794996 0.650558 0.485787
O O13 0.205161 0.349563 0.786216
O O14 0.262757 0.409320 0.007654
O O15 0.280395 0.455971 0.659603
#
# Coordination Sequence:
#
# PCOD9453938 Si02
#       7
#     8   8   8   8   8   8   8
#     4  10  21  36  55  78 113 160 189 210 264 333
#     4  11  20  35  53  79 113 141 184 241 278 327
#     4  10  23  36  55  81 112 151 190 227 268 326
#     4   9  20  34  54  79 110 145 182 224 291 338
#     4   9  20  34  54  80 111 148 183 227 291 343
#     4   9  18  33  53  78 116 153 180 215 273 344
#     4  10  18  30  52  83 111 145 180 225 274 333
#
# _framework density 18.892831000000001
#
# number of rings (size 3 to 8) (size 9 to 14) (size 15 to 20)
#    0.000    2.286    1.429    1.714    4.000    3.429 
#    0.000    0.000    0.000    0.857    0.000    0.000 
#    0.000    0.000    0.000    0.000    0.000    0.000 
#
# Total GULP energy -312381.550637 kJ/mol
# GULP energy per Si atom -5578.241976 kJ/mol
# Density = 1.884983 g / cm^3
# Si number density = 18.892831 Si / 1000 Ang^3
#
#
#
# Elastic Constant Matrix: (Units=GPa)
#
#
# Indices 1 2 3 4 5 6 
#
# 1 47.3893 31.5361 15.3057 0.0000 0.0000 0.0000
# 2 31.5361 59.8066 20.7088 0.0000 0.0000 0.0000
# 3 15.3057 20.7088 109.5437 0.0000 0.0000 0.0000
# 4 0.0000 0.0000 0.0000 41.1532 0.0000 0.0000
# 5 0.0000 0.0000 0.0000 0.0000 11.6719 0.0000
# 6 0.0000 0.0000 0.0000 0.0000 0.0000 29.8927
#
#
#
# Elastic Compliance Matrix: (Units=1/GPa)
#
#
# Indices 1 2 3 4 5 6 
#
# 1 0.032709 -0.016762 -0.001401 0.000000 0.000000 0.000000
# 2 -0.016762 0.026482 -0.002664 0.000000 0.000000 0.000000
# 3 -0.001401 -0.002664 0.009828 0.000000 0.000000 0.000000
# 4 0.000000 0.000000 0.000000 0.024299 0.000000 0.000000
# 5 0.000000 0.000000 0.000000 0.000000 0.085676 0.000000
# 6 0.000000 0.000000 0.000000 0.000000 0.000000 0.033453
#
#
# Mechanical properties :
#
#
# Convention : Reuss Voigt Hill
#
# Bulk Modulus (GPa) = 36.54506 39.09343 37.81925
# Shear Modulus (GPa) = 18.99520 26.48950 22.74235
#
# Velocity S-wave (km/s) = 3.17427 3.74852 3.47328
# Velocity P-wave (km/s) = 5.72888 6.28270 6.01217
#
# Compressibility (1/GPa) = 0.02736348
#
# Stress axis : x y z
#
# Youngs Moduli (GPa) = 30.57241 37.76167 101.74766
#
# Poissons Ratio (x) = 0.63297 0.14258
# Poissons Ratio (y) = 0.51247 0.27108
# Poissons Ratio (z) = 0.04284 0.10061
#
# Static dielectric constant tensor:
#      x y z
#    x 1.645220 0.000000 0.000000 
#    y 0.000000 1.688030 0.000000 
#    z 0.000000 0.000000 1.664170 
# 
# From -- ./inp_files/7414.got.cif
#   From: 2010.05.17/outbox.cif.g08.bks.cpg/sg60_4_cif.got.tgz:7414.got - 2010.06.03 14:59:27.
