data_PCOD9453279
_publ_section_title
;
Structure prediction by ZEFSAII (Michael W. Deem and Ramdas Pophale) SiO2 
 PCOD9453279
Probable space group: P M M N
;
_chemical_formula_sum "Si O2"
_cell_formula_units_Z 64
_cell_length_a 18.139820
_cell_length_b 7.453833
_cell_length_c 23.682762
_cell_angle_alpha 90.000000
_cell_angle_beta 90.000000
_cell_angle_gamma 90.000000
_cell_volume 3202.174407
_symmetry_space_group_name_H-M "P M M N"
_symmetry_group_IT_number 59
_space_group.IT_coordinate_system_code '2'
_symmetry_cell_setting 'orthorhombic'
loop_
_space_group_symop_operation_xyz
x,y,z
1/2-x,1/2-y,z
1/2+x,-y,-z
-x,1/2+y,-z
-x,-y,-z
1/2+x,1/2+y,-z
1/2-x,y,z
x,1/2-y,z
loop_
_atom_site_type_symbol
_atom_site_label
_atom_site_fract_x
_atom_site_fract_y
_atom_site_fract_z
Si Si1 0.528522 0.531946 0.115336
Si Si2 0.008144 0.540642 0.239782
Si Si3 0.070360 0.536036 0.460140
Si Si4 0.472913 0.465015 0.638328
Si Si5 0.830911 0.530742 0.044821
Si Si6 0.169129 0.032660 0.204076
Si Si7 0.367694 0.041861 0.079075
Si Si8 0.667357 0.466000 0.440604
O O1 0.526622 0.750000 0.115747
O O2 0.520083 0.466415 0.179880
O O3 0.602337 0.472305 0.084321
O O4 0.456012 0.470572 0.082005
O O5 0.987652 0.750000 0.238840
O O6 0.097072 0.527949 0.237701
O O7 0.977105 0.463745 0.298051
O O8 0.080571 0.750000 0.454265
O O9 0.138178 0.467956 0.498004
O O10 0.000000 0.500000 0.500000
O O11 0.041232 0.465966 0.400086
O O12 0.482090 0.250000 0.641322
O O13 0.395836 0.494219 0.605635
O O14 0.750000 0.479726 0.065549
O O15 0.834142 0.750000 0.043448
O O16 0.840914 0.466705 0.980323
O O17 0.250000 0.978574 0.225133
O O18 0.166391 0.250000 0.203246
O O19 0.159951 0.967569 0.139046
O O20 0.344795 0.250000 0.079350
O O21 0.750000 0.530453 0.427698
O O22 0.670060 0.250000 0.443690
#
# Coordination Sequence:
#
# PCOD9453279 Si02
#       8
#     8   8   8   8   8   8   8   8
#     4   9  17  29  44  62  86 114 143 177 215 257
#     4   9  18  31  45  64  90 119 151 182 212 251
#     4   8  14  26  44  64  86 112 140 172 211 253
#     4   9  17  30  47  66  89 119 154 184 211 253
#     4   9  16  26  42  63  84 108 141 180 220 261
#     4   9  17  29  45  65  87 111 142 181 223 265
#     4   9  16  27  45  65  83 106 139 179 221 266
#     4   9  17  29  46  69  93 114 141 181 225 263
#
# _framework density 19.986418
#
# number of rings (size 3 to 8) (size 9 to 14) (size 15 to 20)
#    0.000    3.125    0.000    0.750    0.000    2.500 
#    0.000    1.250    0.000    6.750    0.000    0.000 
#    0.000    0.000    0.000    0.000    0.000    0.000 
#
# Total GULP energy -356607.444740 kJ/mol
# GULP energy per Si atom -5571.991324 kJ/mol
# Density = 1.994093 g / cm^3
# Si number density = 19.986418 Si / 1000 Ang^3
#
#
#
# Elastic Constant Matrix: (Units=GPa)
#
#
# Indices 1 2 3 4 5 6 
#
# 1 117.9968 -9.9043 53.9379 0.0000 0.0000 0.0000
# 2 -9.9043 61.1340 1.2897 0.0000 0.0000 0.0000
# 3 53.9379 1.2897 88.1483 0.0000 0.0000 0.0000
# 4 0.0000 0.0000 0.0000 -9.8383 0.0000 0.0000
# 5 0.0000 0.0000 0.0000 0.0000 16.8643 0.0000
# 6 0.0000 0.0000 0.0000 0.0000 0.0000 16.4539
#
#
#
# Elastic Compliance Matrix: (Units=1/GPa)
#
#
# Indices 1 2 3 4 5 6 
#
# 1 0.012031 0.002105 -0.007392 0.000000 0.000000 0.000000
# 2 0.002105 0.016731 -0.001533 0.000000 0.000000 0.000000
# 3 -0.007392 -0.001533 0.015890 0.000000 0.000000 0.000000
# 4 0.000000 0.000000 0.000000 -0.101644 0.000000 0.000000
# 5 0.000000 0.000000 0.000000 0.000000 0.059297 0.000000
# 6 0.000000 0.000000 0.000000 0.000000 0.000000 0.060776
#
#
# Mechanical properties :
#
#
# Convention : Reuss Voigt Hill
#
# Bulk Modulus (GPa) = 32.24611 39.76953 36.00782
# Shear Modulus (GPa) = 57.43273 19.49304 38.46289
#
# Velocity S-wave (km/s) = 5.36640 3.12639 4.39162
# Velocity P-wave (km/s) = 7.38693 5.74229 6.61591
#
# Compressibility (1/GPa) = 0.03101149
#
# Stress axis : x y z
#
# Youngs Moduli (GPa) = 83.12115 59.76972 62.93141
#
# Poissons Ratio (x) = -0.12582 0.46521
# Poissons Ratio (y) = -0.17497 0.09647
# Poissons Ratio (z) = 0.61446 0.09162
#
# Static dielectric constant tensor:
#      x y z
#    x 1.691140 0.000000 0.000000 
#    y 0.000000 1.760570 0.000000 
#    z 0.000000 0.000000 1.720270 
# 
# From -- ./inp_files/30720.got.cif
#   From: 2010.05.17/outbox.cif.g08.bks.cpg/sg59_16_cif.got.tgz:30720.got - 2010.06.03 14:40:33.
