data_PCOD9453942
_publ_section_title
;
Structure prediction by ZEFSAII (Michael W. Deem and Ramdas Pophale) SiO2 
 PCOD9453942
Probable space group: P B C N
;
_chemical_formula_sum "Si O2"
_cell_formula_units_Z 60
_cell_length_a 14.685071
_cell_length_b 12.574283
_cell_length_c 17.818838
_cell_angle_alpha 90.000000
_cell_angle_beta 90.000000
_cell_angle_gamma 90.000000
_cell_volume 3290.323964
_symmetry_space_group_name_H-M "P B C N"
_symmetry_group_IT_number 60
_symmetry_cell_setting 'orthorhombic'
loop_
_space_group_symop_operation_xyz
x,y,z
1/2-x,1/2-y,1/2+z
1/2+x,1/2-y,-z
-x,y,1/2-z
-x,-y,-z
1/2+x,1/2+y,1/2-z
1/2-x,1/2+y,z
x,-y,1/2+z
loop_
_atom_site_type_symbol
_atom_site_label
_atom_site_fract_x
_atom_site_fract_y
_atom_site_fract_z
Si Si1 0.372684 0.120830 0.346957
Si Si2 0.243464 0.818622 0.341317
Si Si3 0.138749 0.558243 0.732404
Si Si4 0.000000 0.251696 0.250000
Si Si5 0.355638 0.002568 0.561939
Si Si6 0.213753 0.004250 0.442597
Si Si7 0.917685 0.187041 0.099487
Si Si8 0.504547 0.837259 0.515406
O O1 0.319014 0.221745 0.314198
O O2 0.402858 0.031944 0.287476
O O3 0.298434 0.058108 0.397470
O O4 0.449699 0.164828 0.402586
O O5 0.334992 0.768247 0.378210
O O6 0.271163 0.898070 0.274384
O O7 0.198820 0.888632 0.407094
O O8 0.150912 0.508067 0.651133
O O9 0.078592 0.664736 0.726970
O O10 0.027440 0.183413 0.322386
O O11 0.255523 0.003548 0.525608
O O12 0.421719 0.098714 0.534960
O O13 0.411444 0.903060 0.528311
O O14 0.128424 0.078894 0.427436
O O15 0.977315 0.234992 0.032271
#
# Coordination Sequence:
#
# PCOD9453942 Si02
#       8
#     8   8   8   4   8   8   8   8
#     4   9  19  32  52  78 107 138 180 235 285 320
#     4   9  18  35  51  73 107 146 180 222 283 336
#     4  10  18  31  52  78 104 136 184 228 281 334
#     4  10  18  30  54  82 106 134 182 234 270 324
#     4  10  18  31  53  80 108 135 181 237 276 321
#     4   9  18  33  54  75 107 147 179 221 281 336
#     4  10  18  32  55  81 106 143 188 228 278 333
#     4  10  18  31  52  82 107 136 182 230 281 327
#
# _framework density 18.235287
#
# number of rings (size 3 to 8) (size 9 to 14) (size 15 to 20)
#    0.000    2.400    2.667    0.800    3.733    0.000 
#    2.400    0.667    2.933    2.400    0.000    0.000 
#    0.000    0.000    0.000    0.000    0.000    0.000 
#
# Total GULP energy -334178.927295 kJ/mol
# GULP energy per Si atom -5569.648788 kJ/mol
# Density = 1.819378 g / cm^3
# Si number density = 18.235287 Si / 1000 Ang^3
#
#
#
# Elastic Constant Matrix: (Units=GPa)
#
#
# Indices 1 2 3 4 5 6 
#
# 1 40.8032 12.2706 22.8812 0.0000 0.0000 0.0000
# 2 12.2706 26.7958 6.7270 0.0000 0.0000 0.0000
# 3 22.8812 6.7270 93.9915 0.0000 0.0000 0.0000
# 4 0.0000 0.0000 0.0000 13.9722 0.0000 0.0000
# 5 0.0000 0.0000 0.0000 0.0000 22.7704 0.0000
# 6 0.0000 0.0000 0.0000 0.0000 0.0000 14.4162
#
#
#
# Elastic Compliance Matrix: (Units=1/GPa)
#
#
# Indices 1 2 3 4 5 6 
#
# 1 0.032324 -0.013061 -0.006934 0.000000 0.000000 0.000000
# 2 -0.013061 0.043280 0.000082 0.000000 0.000000 0.000000
# 3 -0.006934 0.000082 0.012321 0.000000 0.000000 0.000000
# 4 0.000000 0.000000 0.000000 0.071571 0.000000 0.000000
# 5 0.000000 0.000000 0.000000 0.000000 0.043917 0.000000
# 6 0.000000 0.000000 0.000000 0.000000 0.000000 0.069366
#
#
# Mechanical properties :
#
#
# Convention : Reuss Voigt Hill
#
# Bulk Modulus (GPa) = 20.79060 27.26087 24.02574
# Shear Modulus (GPa) = 15.21425 18.21255 16.71340
#
# Velocity S-wave (km/s) = 2.89161 3.16373 3.03073
# Velocity P-wave (km/s) = 4.75127 5.32237 5.04491
#
# Compressibility (1/GPa) = 0.04809865
#
# Stress axis : x y z
#
# Youngs Moduli (GPa) = 30.93647 23.10537 81.15940
#
# Poissons Ratio (x) = 0.30179 0.56277
# Poissons Ratio (y) = 0.40408 -0.00666
# Poissons Ratio (z) = 0.21452 -0.00190
#
# Static dielectric constant tensor:
#      x y z
#    x 1.648680 0.000000 0.000000 
#    y 0.000000 1.620190 0.000000 
#    z 0.000000 0.000000 1.644090 
# 
# From -- ./inp_files/20624.got.cif
#   From: 2010.05.17/outbox.cif.g08.bks.cpg/sg60_11_cif.got.tgz:20624.got - 2010.06.03 14:59:27.
