data_PCOD9453096
_publ_section_title
;
Structure prediction by ZEFSAII (Michael W. Deem and Ramdas Pophale) SiO2 
 PCOD9453096
Probable space group: P M M N
;
_chemical_formula_sum "Si O2"
_cell_formula_units_Z 56
_cell_length_a 20.636238
_cell_length_b 7.592825
_cell_length_c 15.912051
_cell_angle_alpha 90.000000
_cell_angle_beta 90.000000
_cell_angle_gamma 90.000000
_cell_volume 2493.217005
_symmetry_space_group_name_H-M "P M M N"
_symmetry_group_IT_number 59
_space_group.IT_coordinate_system_code '2'
_symmetry_cell_setting 'orthorhombic'
loop_
_space_group_symop_operation_xyz
x,y,z
1/2-x,1/2-y,z
1/2+x,-y,-z
-x,1/2+y,-z
-x,-y,-z
1/2+x,1/2+y,-z
1/2-x,y,z
x,1/2-y,z
loop_
_atom_site_type_symbol
_atom_site_label
_atom_site_fract_x
_atom_site_fract_y
_atom_site_fract_z
Si Si1 0.820388 0.041150 0.322326
Si Si2 0.323457 0.964167 0.188374
Si Si3 0.176969 0.534963 0.995564
Si Si4 0.044095 0.540344 0.919750
Si Si5 0.543222 0.950680 0.262939
Si Si6 0.084003 0.533272 0.338945
Si Si7 0.823338 0.464830 0.513407
O O1 0.750000 0.973342 0.292290
O O2 0.813888 0.250000 0.330410
O O3 0.832463 0.974578 0.417389
O O4 0.883828 0.018066 0.267032
O O5 0.250000 0.016709 0.210233
O O6 0.324748 0.750000 0.188013
O O7 0.373832 0.022472 0.258196
O O8 0.335951 0.019006 0.092310
O O9 0.250000 0.479421 0.972175
O O10 0.176890 0.750000 0.994106
O O11 0.117042 0.475644 0.939339
O O12 0.046134 0.750000 0.908513
O O13 0.018757 0.462281 0.832746
O O14 0.000000 0.500000 0.000000
O O15 0.548890 0.750000 0.288520
O O16 0.489132 0.031392 0.324023
O O17 0.083177 0.750000 0.339031
O O18 0.121628 0.475897 0.422304
O O19 0.750000 0.514129 0.539894
O O20 0.824945 0.250000 0.513892
#
# Coordination Sequence:
#
# PCOD9453096 Si02
#       7
#     8   8   8   8   8   8   8
#     4   9  19  37  58  78 103 137 179 226 272 320
#     4   8  12  20  38  65  97 129 159 198 251 305
#     4   8  15  28  47  72  98 126 167 218 265 309
#     4  11  22  37  57  79 107 143 182 225 272 324
#     4  11  23  36  52  78 109 141 177 219 271 327
#     4   9  16  26  43  72 108 138 168 210 259 314
#     4   8  14  27  50  78 105 136 176 220 264 311
#
# _framework density 22.460940000000001
#
# number of rings (size 3 to 8) (size 9 to 14) (size 15 to 20)
#    0.000    2.857    0.000    3.857    0.000    5.429 
#    0.000    1.429    0.000    2.143    0.000    0.000 
#    0.000    5.143    0.000    0.000    0.000    0.000 
#
# Total GULP energy -312534.734113 kJ/mol
# GULP energy per Si atom -5580.977395 kJ/mol
# Density = 2.240982 g / cm^3
# Si number density = 22.460940 Si / 1000 Ang^3
#
#
#
# Elastic Constant Matrix: (Units=GPa)
#
#
# Indices 1 2 3 4 5 6 
#
# 1 106.1130 1.4685 41.5275 0.0000 0.0000 0.0000
# 2 1.4685 45.1649 -6.6906 0.0000 0.0000 0.0000
# 3 41.5275 -6.6906 53.9785 0.0000 0.0000 0.0000
# 4 0.0000 0.0000 0.0000 2.2071 0.0000 0.0000
# 5 0.0000 0.0000 0.0000 0.0000 36.0194 0.0000
# 6 0.0000 0.0000 0.0000 0.0000 0.0000 5.8808
#
#
#
# Elastic Compliance Matrix: (Units=1/GPa)
#
#
# Indices 1 2 3 4 5 6 
#
# 1 0.013665 -0.002039 -0.010766 0.000000 0.000000 0.000000
# 2 -0.002039 0.022860 0.004402 0.000000 0.000000 0.000000
# 3 -0.010766 0.004402 0.027354 0.000000 0.000000 0.000000
# 4 0.000000 0.000000 0.000000 0.453088 0.000000 0.000000
# 5 0.000000 0.000000 0.000000 0.000000 0.027763 0.000000
# 6 0.000000 0.000000 0.000000 0.000000 0.000000 0.170046
#
#
# Mechanical properties :
#
#
# Convention : Reuss Voigt Hill
#
# Bulk Modulus (GPa) = 21.24352 30.87415 26.05884
# Shear Modulus (GPa) = 6.69100 20.08486 13.38793
#
# Velocity S-wave (km/s) = 1.72784 2.99358 2.44407
# Velocity P-wave (km/s) = 3.66866 5.07191 4.42625
#
# Compressibility (1/GPa) = 0.04707317
#
# Stress axis : x y z
#
# Youngs Moduli (GPa) = 73.17736 43.74548 36.55746
#
# Poissons Ratio (x) = 0.08920 0.39358
# Poissons Ratio (y) = 0.14922 -0.16093
# Poissons Ratio (z) = 0.78783 -0.19258
#
# Static dielectric constant tensor:
#      x y z
#    x 1.864240 0.000000 0.000000 
#    y 0.000000 1.876360 0.000000 
#    z 0.000000 0.000000 1.800340 
# 
# From -- ./inp_files/24285.got.cif
#   From: 2010.05.17/outbox.cif.g08.bks.cpg/sg59_13_cif.got.tgz:24285.got - 2010.06.03 14:40:33.
