data_PCOD9453866
_publ_section_title
;
Structure prediction by ZEFSAII (Michael W. Deem and Ramdas Pophale) SiO2 
 PCOD9453866
Probable space group: P B C N
;
_chemical_formula_sum "Si O2"
_cell_formula_units_Z 48
_cell_length_a 13.413253
_cell_length_b 19.859596
_cell_length_c 9.591439
_cell_angle_alpha 90.000000
_cell_angle_beta 90.000000
_cell_angle_gamma 90.000000
_cell_volume 2554.984648
_symmetry_space_group_name_H-M "P B C N"
_symmetry_group_IT_number 60
_symmetry_cell_setting 'orthorhombic'
loop_
_space_group_symop_operation_xyz
x,y,z
1/2-x,1/2-y,1/2+z
1/2+x,1/2-y,-z
-x,y,1/2-z
-x,-y,-z
1/2+x,1/2+y,1/2-z
1/2-x,1/2+y,z
x,-y,1/2+z
loop_
_atom_site_type_symbol
_atom_site_label
_atom_site_fract_x
_atom_site_fract_y
_atom_site_fract_z
Si Si1 0.327998 0.785726 0.894100
Si Si2 0.000000 0.846574 0.750000
Si Si3 0.269715 0.685532 0.673458
Si Si4 0.994577 0.799137 0.441987
Si Si5 0.199255 0.963920 0.120194
Si Si6 0.000000 0.081387 0.750000
Si Si7 0.712084 0.582761 0.195486
O O1 0.303565 0.786773 0.056986
O O2 0.442924 0.763734 0.885882
O O3 0.267393 0.727042 0.814735
O O4 0.288476 0.855558 0.829749
O O5 0.003145 0.805067 0.606920
O O6 0.102982 0.888297 0.765091
O O7 0.255553 0.605448 0.681986
O O8 0.460477 0.632958 0.869456
O O9 0.879846 0.802502 0.394591
O O10 0.085628 0.961192 0.177199
O O11 0.244986 0.030802 0.185346
O O12 0.202261 0.955563 0.953669
#
# Coordination Sequence:
#
# PCOD9453866 Si02
#       7
#     8   4   8   8   8   4   8
#     4  11  20  37  57  83 119 149 196 241 284 354
#     4  12  21  36  52  92 116 151 194 236 281 360
#     4  10  21  38  55  88 110 154 196 233 300 342
#     4  11  20  36  59  82 122 148 193 236 289 348
#     4  10  21  36  49  80 115 151 188 226 286 360
#     4  10  17  36  56  78 112 151 176 228 291 354
#     4  11  24  34  54  84 120 154 194 228 296 350
#
# _framework density 18.786805000000001
#
# number of rings (size 3 to 8) (size 9 to 14) (size 15 to 20)
#    0.000    1.333    8.333    1.500    2.333    2.667 
#    0.000    0.000    0.000    0.000    0.000   29.167 
#    0.000    0.000    0.000    0.000    0.000    0.000 
#
# Total GULP energy -267656.902570 kJ/mol
# GULP energy per Si atom -5576.185470 kJ/mol
# Density = 1.874404 g / cm^3
# Si number density = 18.786805 Si / 1000 Ang^3
#
#
#
# Elastic Constant Matrix: (Units=GPa)
#
#
# Indices 1 2 3 4 5 6 
#
# 1 41.1689 28.9767 -4.0260 0.0000 0.0000 0.0000
# 2 28.9767 75.6025 19.8814 0.0000 0.0000 0.0000
# 3 -4.0260 19.8814 60.2040 0.0000 0.0000 0.0000
# 4 0.0000 0.0000 0.0000 38.6725 0.0000 0.0000
# 5 0.0000 0.0000 0.0000 0.0000 22.4735 0.0000
# 6 0.0000 0.0000 0.0000 0.0000 0.0000 23.9868
#
#
#
# Elastic Compliance Matrix: (Units=1/GPa)
#
#
# Indices 1 2 3 4 5 6 
#
# 1 0.036238 -0.015908 0.007677 0.000000 0.000000 0.000000
# 2 -0.015908 0.021468 -0.008153 0.000000 0.000000 0.000000
# 3 0.007677 -0.008153 0.019816 0.000000 0.000000 0.000000
# 4 0.000000 0.000000 0.000000 0.025858 0.000000 0.000000
# 5 0.000000 0.000000 0.000000 0.000000 0.044497 0.000000
# 6 0.000000 0.000000 0.000000 0.000000 0.000000 0.041690
#
#
# Mechanical properties :
#
#
# Convention : Reuss Voigt Hill
#
# Bulk Modulus (GPa) = 22.34497 29.62663 25.98580
# Shear Modulus (GPa) = 21.07452 25.83611 23.45532
#
# Velocity S-wave (km/s) = 3.35292 3.71243 3.53724
# Velocity P-wave (km/s) = 5.18741 5.84639 5.52673
#
# Compressibility (1/GPa) = 0.04475281
#
# Stress axis : x y z
#
# Youngs Moduli (GPa) = 27.59566 46.58035 50.46415
#
# Poissons Ratio (x) = 0.74099 -0.38739
# Poissons Ratio (y) = 0.43899 0.41145
# Poissons Ratio (z) = -0.21184 0.37979
#
# Static dielectric constant tensor:
#      x y z
#    x 1.666490 0.000000 0.000000 
#    y 0.000000 1.687090 0.000000 
#    z 0.000000 0.000000 1.693340 
# 
# From -- ./inp_files/6834.got.cif
#   From: 2010.05.17/outbox.cif.g08.bks.cpg/sg60_4_cif.got.tgz:6834.got - 2010.06.03 14:59:27.
