data_PCOD9453427
_publ_section_title
;
Structure prediction by ZEFSAII (Michael W. Deem and Ramdas Pophale) SiO2 
 PCOD9453427
Probable space group: P M M N
;
_chemical_formula_sum "Si O2"
_cell_formula_units_Z 64
_cell_length_a 24.000000
_cell_length_b 9.000000
_cell_length_c 15.000000
_cell_angle_alpha 90.000000
_cell_angle_beta 90.000000
_cell_angle_gamma 90.000000
_cell_volume 3240.000000
_symmetry_space_group_name_H-M "P M M N"
_symmetry_group_IT_number 59
_space_group.IT_coordinate_system_code '2'
_symmetry_cell_setting 'orthorhombic'
loop_
_space_group_symop_operation_xyz
x,y,z
1/2-x,1/2-y,z
1/2+x,-y,-z
-x,1/2+y,-z
-x,-y,-z
1/2+x,1/2+y,-z
1/2-x,y,z
x,1/2-y,z
loop_
_atom_site_type_symbol
_atom_site_label
_atom_site_fract_x
_atom_site_fract_y
_atom_site_fract_z
Si Si1 0.816754 0.575300 0.636609
Si Si2 0.486608 0.428924 0.220446
Si Si3 0.398285 0.928879 0.863668
Si Si4 0.369522 0.572874 0.193082
Si Si5 0.187629 0.569749 0.011499
Si Si6 0.689512 0.929588 0.264312
Si Si7 0.980527 0.575323 0.408185
Si Si8 0.649382 0.575578 0.446422
O O1 0.750000 0.568159 0.633349
O O2 0.832687 0.750000 0.648111
O O3 0.841556 0.482377 0.716716
O O4 0.841195 0.513263 0.544002
O O5 0.484534 0.250000 0.225758
O O6 0.538427 0.474268 0.156874
O O7 0.429042 0.493935 0.184577
O O8 0.497260 0.494103 0.319754
O O9 0.398178 0.750000 0.864136
O O10 0.360171 0.990301 0.784817
O O11 0.363825 0.981445 0.950075
O O12 0.377470 0.750000 0.192958
O O13 0.328630 0.532987 0.112143
O O14 0.250000 0.515310 0.989002
O O15 0.189227 0.750000 0.004017
O O16 0.750000 0.965423 0.225360
O O17 0.682260 0.750000 0.261277
O O18 0.687355 0.979916 0.366776
O O19 0.995889 0.750000 0.405860
O O20 0.913613 0.565123 0.412620
O O21 0.000000 0.500000 0.500000
O O22 0.663427 0.750000 0.456889
#
# Coordination Sequence:
#
# PCOD9453427 Si02
#       8
#     8   8   8   8   8   8   8   8
#     4  10  20  36  59  86 118 156 196 242 298 358
#     4  11  23  39  58  85 120 156 199 249 302 357
#     4  10  21  38  61  86 116 154 195 240 291 352
#     4  11  23  39  61  86 114 154 201 251 304 358
#     4   9  19  38  63  89 117 151 193 241 301 367
#     4  10  19  33  55  83 115 149 187 232 283 344
#     4  11  21  35  57  83 117 161 204 246 290 345
#     4   9  18  33  53  79 112 151 191 228 280 346
#
# _framework density 19.753086
#
# number of rings (size 3 to 8) (size 9 to 14) (size 15 to 20)
#    0.000    1.875    1.250    3.000    0.000    5.000 
#    0.000    2.500    0.000    4.500    0.000    0.000 
#    0.000    0.000    0.000    0.000    0.000    0.000 
#
# Total GULP energy -357079.025721 kJ/mol
# GULP energy per Si atom -5579.359777 kJ/mol
# Density = 1.970813 g / cm^3
# Si number density = 19.753086 Si / 1000 Ang^3
#
#
#
# Elastic Constant Matrix: (Units=GPa)
#
#
# Indices 1 2 3 4 5 6 
#
# 1 30.5643 19.9645 28.6324 0.0000 0.0000 0.0000
# 2 19.9645 29.5979 4.6682 0.0000 0.0000 0.0000
# 3 28.6324 4.6682 87.5862 0.0000 0.0000 0.0000
# 4 0.0000 0.0000 0.0000 25.2279 0.0000 0.0000
# 5 0.0000 0.0000 0.0000 0.0000 80.4495 0.0000
# 6 0.0000 0.0000 0.0000 0.0000 0.0000 11.4339
#
#
#
# Elastic Compliance Matrix: (Units=1/GPa)
#
#
# Indices 1 2 3 4 5 6 
#
# 1 0.103946 -0.065304 -0.030500 0.000000 0.000000 0.000000
# 2 -0.065304 0.075099 0.017345 0.000000 0.000000 0.000000
# 3 -0.030500 0.017345 0.020463 0.000000 0.000000 0.000000
# 4 0.000000 0.000000 0.000000 0.039639 0.000000 0.000000
# 5 0.000000 0.000000 0.000000 0.000000 0.012430 0.000000
# 6 0.000000 0.000000 0.000000 0.000000 0.000000 0.087459
#
#
# Mechanical properties :
#
#
# Convention : Reuss Voigt Hill
#
# Bulk Modulus (GPa) = 23.47834 28.25320 25.86577
# Shear Modulus (GPa) = 9.80103 29.72115 19.76109
#
# Velocity S-wave (km/s) = 2.22992 3.88317 3.16635
# Velocity P-wave (km/s) = 4.30602 5.86852 5.14691
#
# Compressibility (1/GPa) = 0.04259246
#
# Stress axis : x y z
#
# Youngs Moduli (GPa) = 9.62038 13.31570 48.86775
#
# Poissons Ratio (x) = 0.86956 1.49046
# Poissons Ratio (y) = 0.62825 -0.84763
# Poissons Ratio (z) = 0.29342 -0.23097
#
# Static dielectric constant tensor:
#      x y z
#    x 1.655560 0.000000 0.000000 
#    y 0.000000 1.723010 0.000000 
#    z 0.000000 0.000000 1.719110 
# 
# From -- ./inp_files/24723.got.cif
#   From: 2010.05.17/outbox.ucp.g08.bks.cvg/sg59_13_cif.got.tgz:24723.got - 2010.06.11 16:43:56.
