data_PCOD9453724
_publ_section_title
;
Structure prediction by ZEFSAII (Michael W. Deem and Ramdas Pophale) SiO2 
 PCOD9453724
Probable space group: P B C N
;
_chemical_formula_sum "Si O2"
_cell_formula_units_Z 32
_cell_length_a 13.166960
_cell_length_b 20.779805
_cell_length_c 5.152855
_cell_angle_alpha 90.000000
_cell_angle_beta 90.000000
_cell_angle_gamma 90.000000
_cell_volume 1409.856483
_symmetry_space_group_name_H-M "P B C N"
_symmetry_group_IT_number 60
_symmetry_cell_setting 'orthorhombic'
loop_
_space_group_symop_operation_xyz
x,y,z
1/2-x,1/2-y,1/2+z
1/2+x,1/2-y,-z
-x,y,1/2-z
-x,-y,-z
1/2+x,1/2+y,1/2-z
1/2-x,1/2+y,z
x,-y,1/2+z
loop_
_atom_site_type_symbol
_atom_site_label
_atom_site_fract_x
_atom_site_fract_y
_atom_site_fract_z
Si Si1 0.383647 0.252546 0.201982
Si Si2 0.316165 0.675529 0.207092
Si Si3 0.213269 0.959109 0.946939
Si Si4 0.952046 0.428353 0.501761
O O1 0.500000 0.239313 0.250000
O O2 0.302841 0.194882 0.233534
O O3 0.349073 0.307024 0.414429
O O4 0.371222 0.277707 0.909745
O O5 0.334781 0.604354 0.317980
O O6 0.332964 0.940625 0.972789
O O7 0.190885 0.015463 0.736750
O O8 0.000000 0.396102 0.750000
O O9 0.000000 0.500000 0.500000
O O10 0.000000 0.395361 0.250000
#
# Coordination Sequence:
#
# PCOD9453724 Si02
#       4
#     8   8   8   8
#     4  10  21  44  67  88 120 158 211 268 309 343
#     4  10  23  39  64  97 119 158 214 249 305 383
#     4  12  21  34  55  83 129 164 185 244 310 367
#     4  10  16  29  43  68 109 160 188 215 268 368
#
# _framework density 22.697344999999999
#
# number of rings (size 3 to 8) (size 9 to 14) (size 15 to 20)
#    0.000    1.500    5.000    2.250    0.000    1.000 
#    0.000    5.000    0.000   15.000    0.000    0.000 
#    0.000    0.000    0.000    0.000    0.000    0.000 
#
# Total GULP energy -178603.025140 kJ/mol
# GULP energy per Si atom -5581.344536 kJ/mol
# Density = 2.264568 g / cm^3
# Si number density = 22.697345 Si / 1000 Ang^3
#
#
#
# Elastic Constant Matrix: (Units=GPa)
#
#
# Indices 1 2 3 4 5 6 
#
# 1 63.9356 -1.5427 -10.7421 0.0000 0.0000 0.0000
# 2 -1.5427 63.0504 -20.2669 0.0000 0.0000 0.0000
# 3 -10.7421 -20.2669 134.2307 0.0000 0.0000 0.0000
# 4 0.0000 0.0000 0.0000 5.5166 0.0000 0.0000
# 5 0.0000 0.0000 0.0000 0.0000 17.3521 0.0000
# 6 0.0000 0.0000 0.0000 0.0000 0.0000 3.3682
#
#
#
# Elastic Compliance Matrix: (Units=1/GPa)
#
#
# Indices 1 2 3 4 5 6 
#
# 1 0.015896 0.000839 0.001399 0.000000 0.000000 0.000000
# 2 0.000839 0.016714 0.002591 0.000000 0.000000 0.000000
# 3 0.001399 0.002591 0.007953 0.000000 0.000000 0.000000
# 4 0.000000 0.000000 0.000000 0.181272 0.000000 0.000000
# 5 0.000000 0.000000 0.000000 0.000000 0.057630 0.000000
# 6 0.000000 0.000000 0.000000 0.000000 0.000000 0.296898
#
#
# Mechanical properties :
#
#
# Convention : Reuss Voigt Hill
#
# Bulk Modulus (GPa) = 19.91310 21.79038 20.85174
# Shear Modulus (GPa) = 8.56978 24.83192 16.70085
#
# Velocity S-wave (km/s) = 1.94522 3.31122 2.71552
# Velocity P-wave (km/s) = 3.71988 4.92343 4.36335
#
# Compressibility (1/GPa) = 0.05021819
#
# Stress axis : x y z
#
# Youngs Moduli (GPa) = 62.90905 59.83162 125.73962
#
# Poissons Ratio (x) = -0.05017 -0.17587
# Poissons Ratio (y) = -0.05275 -0.32574
# Poissons Ratio (z) = -0.08799 -0.15500
#
# Static dielectric constant tensor:
#      x y z
#    x 1.816910 0.000000 0.000000 
#    y 0.000000 1.828520 0.000000 
#    z 0.000000 0.000000 1.858350 
# 
# From -- ./inp_files/646.got.cif
#   From: 2010.05.17/outbox.cif.g08.bks.cpg/sg60_1_cif.got.tgz:646.got - 2010.06.03 14:59:27.
