data_PCOD9453944
_publ_section_title
;
Structure prediction by ZEFSAII (Michael W. Deem and Ramdas Pophale) SiO2 
 PCOD9453944
Probable space group: P B C N
;
_chemical_formula_sum "Si O2"
_cell_formula_units_Z 48
_cell_length_a 8.975441
_cell_length_b 17.212453
_cell_length_c 18.083757
_cell_angle_alpha 90.000000
_cell_angle_beta 90.000000
_cell_angle_gamma 90.000000
_cell_volume 2793.747980
_symmetry_space_group_name_H-M "P B C N"
_symmetry_group_IT_number 60
_symmetry_cell_setting 'orthorhombic'
loop_
_space_group_symop_operation_xyz
x,y,z
1/2-x,1/2-y,1/2+z
1/2+x,1/2-y,-z
-x,y,1/2-z
-x,-y,-z
1/2+x,1/2+y,1/2-z
1/2-x,1/2+y,z
x,-y,1/2+z
loop_
_atom_site_type_symbol
_atom_site_label
_atom_site_fract_x
_atom_site_fract_y
_atom_site_fract_z
Si Si1 0.267369 0.314390 0.409927
Si Si2 0.544503 0.599135 0.926246
Si Si3 0.891230 0.072632 0.413432
Si Si4 0.836733 0.694731 0.964437
Si Si5 0.016477 0.222924 0.336674
Si Si6 0.415607 0.082048 0.007176
O O1 0.427207 0.345644 0.384564
O O2 0.286827 0.267899 0.487074
O O3 0.180622 0.253495 0.359021
O O4 0.169189 0.390189 0.431928
O O5 0.573365 0.515583 0.890469
O O6 0.698018 0.641862 0.943338
O O7 0.468770 0.585021 0.006523
O O8 0.713566 0.079844 0.430388
O O9 0.966152 0.136240 0.360407
O O10 0.912884 0.724362 0.889573
O O11 0.956190 0.647104 0.013422
O O12 0.000000 0.233702 0.250000
O O13 0.500000 0.000000 0.000000
#
# Coordination Sequence:
#
# PCOD9453944 Si02
#       6
#     8   8   8   8   8   8
#     4  10  20  34  56  87 111 149 198 243 282 347
#     4  10  18  32  60  88 112 140 201 242 282 330
#     4  10  19  34  55  89 116 150 186 246 288 350
#     4  11  18  34  59  87 115 147 195 244 280 347
#     4  11  23  39  56  82 122 159 190 244 313 350
#     4  10  18  30  54  88 113 142 190 239 284 329
#
# _framework density 17.181222000000002
#
# number of rings (size 3 to 8) (size 9 to 14) (size 15 to 20)
#    0.000    1.667    6.667    1.000    0.000    0.000 
#    0.000    2.500    0.000    0.000    0.000    0.000 
#    0.000    0.000    0.000    0.000    0.000    0.000 
#
# Total GULP energy -267263.059056 kJ/mol
# GULP energy per Si atom -5567.980397 kJ/mol
# Density = 1.714212 g / cm^3
# Si number density = 17.181222 Si / 1000 Ang^3
#
#
#
# Elastic Constant Matrix: (Units=GPa)
#
#
# Indices 1 2 3 4 5 6 
#
# 1 121.8465 63.4437 30.8545 0.0000 0.0000 0.0000
# 2 63.4437 125.1134 35.1300 0.0000 0.0000 0.0000
# 3 30.8545 35.1300 71.0129 0.0000 0.0000 0.0000
# 4 0.0000 0.0000 0.0000 9.5343 0.0000 0.0000
# 5 0.0000 0.0000 0.0000 0.0000 10.0967 0.0000
# 6 0.0000 0.0000 0.0000 0.0000 0.0000 36.0480
#
#
#
# Elastic Compliance Matrix: (Units=1/GPa)
#
#
# Indices 1 2 3 4 5 6 
#
# 1 0.011508 -0.005147 -0.002454 0.000000 0.000000 0.000000
# 2 -0.005147 0.011584 -0.003494 0.000000 0.000000 0.000000
# 3 -0.002454 -0.003494 0.016877 0.000000 0.000000 0.000000
# 4 0.000000 0.000000 0.000000 0.104884 0.000000 0.000000
# 5 0.000000 0.000000 0.000000 0.000000 0.099042 0.000000
# 6 0.000000 0.000000 0.000000 0.000000 0.000000 0.027741
#
#
# Mechanical properties :
#
#
# Convention : Reuss Voigt Hill
#
# Bulk Modulus (GPa) = 56.24730 64.09214 60.16972
# Shear Modulus (GPa) = 16.68041 23.70545 20.19293
#
# Velocity S-wave (km/s) = 3.11923 3.71850 3.43197
# Velocity P-wave (km/s) = 6.76620 7.47134 7.12750
#
# Compressibility (1/GPa) = 0.01777863
#
# Stress axis : x y z
#
# Youngs Moduli (GPa) = 86.89389 86.32835 59.25264
#
# Poissons Ratio (x) = 0.44430 0.14542
# Poissons Ratio (y) = 0.44721 0.20704
# Poissons Ratio (z) = 0.21326 0.30165
#
# Static dielectric constant tensor:
#      x y z
#    x 1.646280 0.000000 0.000000 
#    y 0.000000 1.638460 0.000000 
#    z 0.000000 0.000000 1.539860 
# 
# From -- ./inp_files/19435.got.cif
#   From: 2010.05.17/outbox.cif.g08.bks.cpg/sg60_10_cif.got.tgz:19435.got - 2010.06.03 14:59:27.
