data_PCOD9453505
_publ_section_title
;
Structure prediction by ZEFSAII (Michael W. Deem and Ramdas Pophale) SiO2 
 PCOD9453505
Probable space group: P M M N
;
_chemical_formula_sum "Si O2"
_cell_formula_units_Z 56
_cell_length_a 9.000000
_cell_length_b 21.000000
_cell_length_c 15.000000
_cell_angle_alpha 90.000000
_cell_angle_beta 90.000000
_cell_angle_gamma 90.000000
_cell_volume 2835.000000
_symmetry_space_group_name_H-M "P M M N"
_symmetry_group_IT_number 59
_space_group.IT_coordinate_system_code '2'
_symmetry_cell_setting 'orthorhombic'
loop_
_space_group_symop_operation_xyz
x,y,z
1/2-x,1/2-y,z
1/2+x,-y,-z
-x,1/2+y,-z
-x,-y,-z
1/2+x,1/2+y,-z
1/2-x,y,z
x,1/2-y,z
loop_
_atom_site_type_symbol
_atom_site_label
_atom_site_fract_x
_atom_site_fract_y
_atom_site_fract_z
Si Si1 0.075094 0.385471 0.147305
Si Si2 0.427709 0.389113 0.645683
Si Si3 0.425121 0.060880 0.956956
Si Si4 0.574090 0.031824 0.288342
Si Si5 0.926797 0.141654 0.818642
Si Si6 0.570715 0.750000 0.854037
Si Si7 0.071733 0.931319 0.522484
Si Si8 0.072105 0.250000 0.935403
O O1 0.250000 0.388991 0.165884
O O2 0.013691 0.317438 0.179935
O O3 0.999010 0.441632 0.200320
O O4 0.061471 0.390429 0.040458
O O5 0.250000 0.382547 0.642847
O O6 0.466158 0.460723 0.680339
O O7 0.502142 0.347146 0.721997
O O8 0.498900 0.383609 0.548142
O O9 0.250000 0.053717 0.937382
O O10 0.512221 0.078830 0.867914
O O11 0.500000 0.000000 0.000000
O O12 0.750000 0.031282 0.276001
O O13 0.538880 0.077311 0.373040
O O14 0.750000 0.142359 0.814239
O O15 0.995154 0.192074 0.885975
O O16 0.750000 0.750000 0.842160
O O17 0.544862 0.750000 0.959867
O O18 0.250000 0.934474 0.511078
O O19 0.000000 0.000000 0.500000
O O20 0.250000 0.250000 0.921645
#
# Coordination Sequence:
#
# PCOD9453505 Si02
#       8
#     8   8   8   8   8   4   8   4
#     4  10  20  34  54  75 100 138 181 221 266 316
#     4  10  20  35  55  80 110 146 182 221 275 331
#     4  11  22  36  53  77 109 147 181 222 277 327
#     4   9  19  33  51  79 113 142 173 217 272 328
#     4  12  24  37  55  82 111 142 184 230 275 332
#     4   9  18  37  57  74  97 134 183 229 266 310
#     4   9  17  31  51  77 110 145 179 220 269 327
#     4  11  21  41  63  76 103 144 187 233 278 324
#
# _framework density 19.753086
#
# number of rings (size 3 to 8) (size 9 to 14) (size 15 to 20)
#    0.000    1.857    1.429    4.500    0.000    6.857 
#    0.000    0.357    0.000    0.857    0.000    2.000 
#    0.000    0.000    0.000    0.000    0.000    0.000 
#
# Total GULP energy -312035.584889 kJ/mol
# GULP energy per Si atom -5572.064016 kJ/mol
# Density = 1.970813 g / cm^3
# Si number density = 19.753086 Si / 1000 Ang^3
#
#
#
# Elastic Constant Matrix: (Units=GPa)
#
#
# Indices 1 2 3 4 5 6 
#
# 1 49.4614 3.5016 35.8950 0.0000 0.0000 0.0000
# 2 3.5016 53.0484 1.5507 0.0000 0.0000 0.0000
# 3 35.8950 1.5507 66.8391 0.0000 0.0000 0.0000
# 4 0.0000 0.0000 0.0000 13.8031 0.0000 0.0000
# 5 0.0000 0.0000 0.0000 0.0000 27.9650 0.0000
# 6 0.0000 0.0000 0.0000 0.0000 0.0000 15.8254
#
#
#
# Elastic Compliance Matrix: (Units=1/GPa)
#
#
# Indices 1 2 3 4 5 6 
#
# 1 0.033278 -0.001675 -0.017832 0.000000 0.000000 0.000000
# 2 -0.001675 0.018948 0.000460 0.000000 0.000000 0.000000
# 3 -0.017832 0.000460 0.024527 0.000000 0.000000 0.000000
# 4 0.000000 0.000000 0.000000 0.072447 0.000000 0.000000
# 5 0.000000 0.000000 0.000000 0.000000 0.035759 0.000000
# 6 0.000000 0.000000 0.000000 0.000000 0.000000 0.063189
#
#
# Mechanical properties :
#
#
# Convention : Reuss Voigt Hill
#
# Bulk Modulus (GPa) = 25.86818 27.91593 26.89206
# Shear Modulus (GPa) = 16.71516 20.07882 18.39699
#
# Velocity S-wave (km/s) = 2.91212 3.19170 3.05511
# Velocity P-wave (km/s) = 4.94281 5.26742 5.10770
#
# Compressibility (1/GPa) = 0.03865753
#
# Stress axis : x y z
#
# Youngs Moduli (GPa) = 30.05017 52.77646 40.77095
#
# Poissons Ratio (x) = 0.08842 0.72704
# Poissons Ratio (y) = 0.05034 -0.01876
# Poissons Ratio (z) = 0.53587 -0.02428
#
# Static dielectric constant tensor:
#      x y z
#    x 1.638900 0.000000 0.000000 
#    y 0.000000 1.800420 0.000000 
#    z 0.000000 0.000000 1.693810 
# 
# From -- ./inp_files/21195.got.cif
#   From: 2010.05.17/outbox.ucp.g08.bks.cvg/sg59_11_cif.got.tgz:21195.got - 2010.06.11 16:43:56.
