data_PCOD9453443
_publ_section_title
;
Structure prediction by ZEFSAII (Michael W. Deem and Ramdas Pophale) SiO2 
 PCOD9453443
Probable space group: P M M N
;
_chemical_formula_sum "Si O2"
_cell_formula_units_Z 64
_cell_length_a 30.000000
_cell_length_b 9.000000
_cell_length_c 12.000000
_cell_angle_alpha 90.000000
_cell_angle_beta 90.000000
_cell_angle_gamma 90.000000
_cell_volume 3240.000000
_symmetry_space_group_name_H-M "P M M N"
_symmetry_group_IT_number 59
_space_group.IT_coordinate_system_code '2'
_symmetry_cell_setting 'orthorhombic'
loop_
_space_group_symop_operation_xyz
x,y,z
1/2-x,1/2-y,z
1/2+x,-y,-z
-x,1/2+y,-z
-x,-y,-z
1/2+x,1/2+y,-z
1/2-x,y,z
x,1/2-y,z
loop_
_atom_site_type_symbol
_atom_site_label
_atom_site_fract_x
_atom_site_fract_y
_atom_site_fract_z
Si Si1 0.366663 0.580417 0.386470
Si Si2 0.798241 0.571265 0.996007
Si Si3 0.698988 0.571105 0.451219
Si Si4 0.952302 0.073687 0.488494
Si Si5 0.159680 0.429941 0.782484
Si Si6 0.878286 0.079619 0.872138
Si Si7 0.436673 0.428751 0.740374
Si Si8 0.480497 0.570468 0.110819
O O1 0.361847 0.750000 0.428288
O O2 0.330190 0.481709 0.445816
O O3 0.416906 0.532682 0.416807
O O4 0.363091 0.581222 0.255255
O O5 0.750000 0.517994 0.954083
O O6 0.797809 0.750000 0.992081
O O7 0.806067 0.522702 0.123322
O O8 0.841898 0.515483 0.934870
O O9 0.750000 0.519762 0.456639
O O10 0.699365 0.750000 0.448386
O O11 0.675123 0.517364 0.338252
O O12 0.957965 0.250000 0.488403
O O13 0.931734 0.013117 0.374889
O O14 0.000000 0.000000 0.500000
O O15 0.161145 0.250000 0.779724
O O16 0.108076 0.467087 0.809023
O O17 0.878200 0.250000 0.914339
O O18 0.929268 0.024160 0.875451
O O19 0.436976 0.250000 0.723049
O O20 0.483843 0.470851 0.794088
O O21 0.481036 0.750000 0.105658
O O22 0.500000 0.500000 0.000000
#
# Coordination Sequence:
#
# PCOD9453443 Si02
#       8
#     8   8   8   8   8   8   8   8
#     4  10  22  40  58  79 112 153 194 234 283 343
#     4  10  21  38  61  87 112 144 192 245 293 345
#     4  10  20  35  58  87 116 148 189 236 288 345
#     4  11  22  36  56  82 112 148 190 236 285 339
#     4   9  17  33  58  86 116 147 181 232 294 347
#     4  10  22  40  58  79 115 157 192 233 287 346
#     4  10  19  34  57  83 114 151 190 233 285 344
#     4  10  21  37  58  85 117 154 196 240 287 342
#
# _framework density 19.753086
#
# number of rings (size 3 to 8) (size 9 to 14) (size 15 to 20)
#    0.000    2.000    1.250    2.250    0.000    7.500 
#    0.000    5.000    0.000    1.500    0.000    0.000 
#    0.000    0.000    0.000    0.000    0.000    0.000 
#
# Total GULP energy -356840.520466 kJ/mol
# GULP energy per Si atom -5575.633132 kJ/mol
# Density = 1.970813 g / cm^3
# Si number density = 19.753086 Si / 1000 Ang^3
#
#
#
# Elastic Constant Matrix: (Units=GPa)
#
#
# Indices 1 2 3 4 5 6 
#
# 1 152.3348 38.0814 32.6901 0.0000 0.0000 0.0000
# 2 38.0814 5.1187 15.6373 0.0000 0.0000 0.0000
# 3 32.6901 15.6373 49.9509 0.0000 0.0000 0.0000
# 4 0.0000 0.0000 0.0000 21.1105 0.0000 0.0000
# 5 0.0000 0.0000 0.0000 0.0000 20.0470 0.0000
# 6 0.0000 0.0000 0.0000 0.0000 0.0000 26.2818
#
#
#
# Elastic Compliance Matrix: (Units=1/GPa)
#
#
# Indices 1 2 3 4 5 6 
#
# 1 -0.000299 0.037318 -0.011486 0.000000 0.000000 0.000000
# 2 0.037318 -0.175469 0.030509 0.000000 0.000000 0.000000
# 3 -0.011486 0.030509 0.017986 0.000000 0.000000 0.000000
# 4 0.000000 0.000000 0.000000 0.047370 0.000000 0.000000
# 5 0.000000 0.000000 0.000000 0.000000 0.049883 0.000000
# 6 0.000000 0.000000 0.000000 0.000000 0.000000 0.038049
#
#
# Mechanical properties :
#
#
# Convention : Reuss Voigt Hill
#
# Bulk Modulus (GPa) = -22.17169 42.24687 10.03759
# Shear Modulus (GPa) = -33.28987 21.55426 -5.86780
#
# Velocity S-wave (km/s) = -4.10969 3.30689 -1.72541
# Velocity P-wave (km/s) = 5.81104 6.00122 1.05981
#
# Compressibility (1/GPa) = -0.04510256
#
# Stress axis : x y z
#
# Youngs Moduli (GPa) = -3339.68672 -5.69900 55.59892
#
# Poissons Ratio (x) = 0.21267 0.63863
# Poissons Ratio (y) = 124.62921 -1.69627
# Poissons Ratio (z) = -38.36113 0.17387
#
# Static dielectric constant tensor:
#      x y z
#    x 1.667970 0.000000 0.000000 
#    y 0.000000 1.654210 0.000000 
#    z 0.000000 0.000000 1.790490 
# 
# From -- ./inp_files/19271.got.cif
#   From: 2010.05.17/outbox.ucp.g08.bks.cvg/sg59_10_cif.got.tgz:19271.got - 2010.06.11 16:43:56.
