data_PCOD9453428
_publ_section_title
;
Structure prediction by ZEFSAII (Michael W. Deem and Ramdas Pophale) SiO2 
 PCOD9453428
Probable space group: P M M N
;
_chemical_formula_sum "Si O2"
_cell_formula_units_Z 64
_cell_length_a 9.000000
_cell_length_b 15.000000
_cell_length_c 24.000000
_cell_angle_alpha 90.000000
_cell_angle_beta 90.000000
_cell_angle_gamma 90.000000
_cell_volume 3240.000000
_symmetry_space_group_name_H-M "P M M N"
_symmetry_group_IT_number 59
_space_group.IT_coordinate_system_code '2'
_symmetry_cell_setting 'orthorhombic'
loop_
_space_group_symop_operation_xyz
x,y,z
1/2-x,1/2-y,z
1/2+x,-y,-z
-x,1/2+y,-z
-x,-y,-z
1/2+x,1/2+y,-z
1/2-x,y,z
x,1/2-y,z
loop_
_atom_site_type_symbol
_atom_site_label
_atom_site_fract_x
_atom_site_fract_y
_atom_site_fract_z
Si Si1 0.073326 0.525782 0.251985
Si Si2 0.930912 0.650712 0.688211
Si Si3 0.580329 0.648782 0.339111
Si Si4 0.572039 0.967874 0.136890
Si Si5 0.072134 0.091168 0.979380
Si Si6 0.571097 0.847044 0.902387
Si Si7 0.919638 0.387023 0.549473
Si Si8 0.921623 0.898049 0.562718
O O1 0.250000 0.524815 0.244426
O O2 0.021924 0.426415 0.269567
O O3 0.027998 0.587817 0.303296
O O4 0.995712 0.557908 0.195863
O O5 0.750000 0.648955 0.688161
O O6 0.979624 0.750000 0.703249
O O7 0.974307 0.628554 0.624402
O O8 0.750000 0.616048 0.335173
O O9 0.575203 0.750000 0.318211
O O10 0.526782 0.648274 0.402703
O O11 0.750000 0.970552 0.140071
O O12 0.509829 0.066897 0.122584
O O13 0.527599 0.902437 0.085418
O O14 0.250000 0.083597 0.978684
O O15 0.037590 0.154947 0.031057
O O16 0.000000 0.000000 0.000000
O O17 0.750000 0.858726 0.895843
O O18 0.531334 0.750000 0.878387
O O19 0.750000 0.357690 0.557335
O O20 0.921813 0.494554 0.557248
O O21 0.979186 0.364352 0.488193
O O22 0.750000 0.868226 0.556431
#
# Coordination Sequence:
#
# PCOD9453428 Si02
#       8
#     8   8   8   8   8   8   8   8
#     4  11  22  39  60  83 111 148 193 239 285 331
#     4   9  18  34  56  80 107 142 185 229 274 329
#     4  11  24  41  61  83 107 142 188 237 293 350
#     4  10  20  34  53  78 109 147 186 225 276 333
#     4   8  15  29  49  73 102 135 174 215 259 313
#     4   9  17  31  53  81 110 142 182 227 273 324
#     4  10  19  33  55  84 113 142 179 225 281 341
#     4   9  17  32  53  81 113 145 180 220 275 338
#
# _framework density 19.753086
#
# number of rings (size 3 to 8) (size 9 to 14) (size 15 to 20)
#    0.000    2.375    1.250    1.500    0.000    3.250 
#    0.000    3.125    0.000    4.875    0.000    0.000 
#    0.000    0.000    0.000    0.000    0.000    0.000 
#
# Total GULP energy -356827.282831 kJ/mol
# GULP energy per Si atom -5575.426294 kJ/mol
# Density = 1.970813 g / cm^3
# Si number density = 19.753086 Si / 1000 Ang^3
#
#
#
# Elastic Constant Matrix: (Units=GPa)
#
#
# Indices 1 2 3 4 5 6 
#
# 1 27.7196 2.1429 5.5954 0.0000 0.0000 0.0000
# 2 2.1429 36.7644 -15.4720 0.0000 0.0000 0.0000
# 3 5.5954 -15.4720 66.8215 0.0000 0.0000 0.0000
# 4 0.0000 0.0000 0.0000 -0.7391 0.0000 0.0000
# 5 0.0000 0.0000 0.0000 0.0000 33.7150 0.0000
# 6 0.0000 0.0000 0.0000 0.0000 0.0000 12.4541
#
#
#
# Elastic Compliance Matrix: (Units=1/GPa)
#
#
# Indices 1 2 3 4 5 6 
#
# 1 0.037182 -0.003853 -0.004006 0.000000 0.000000 0.000000
# 2 -0.003853 0.030536 0.007393 0.000000 0.000000 0.000000
# 3 -0.004006 0.007393 0.017012 0.000000 0.000000 0.000000
# 4 0.000000 0.000000 0.000000 -1.353048 0.000000 0.000000
# 5 0.000000 0.000000 0.000000 0.000000 0.029660 0.000000
# 6 0.000000 0.000000 0.000000 0.000000 0.000000 0.080295
#
#
# Mechanical properties :
#
#
# Convention : Reuss Voigt Hill
#
# Bulk Modulus (GPa) = 11.93325 12.87090 12.40207
# Shear Modulus (GPa) = -4.42674 18.35528 6.96427
#
# Velocity S-wave (km/s) = -1.49863 3.05164 1.87971
# Velocity P-wave (km/s) = 1.74922 4.35279 3.31712
#
# Compressibility (1/GPa) = 0.08379948
#
# Stress axis : x y z
#
# Youngs Moduli (GPa) = 26.89474 32.74810 58.78049
#
# Poissons Ratio (x) = 0.12618 0.23545
# Poissons Ratio (y) = 0.10362 -0.43457
# Poissons Ratio (z) = 0.10773 -0.24211
#
# Static dielectric constant tensor:
#      x y z
#    x 1.659380 0.000000 0.000000 
#    y 0.000000 1.719550 0.000000 
#    z 0.000000 0.000000 1.698720 
# 
# From -- ./inp_files/31423.got.cif
#   From: 2010.05.17/outbox.ucp.g08.bks.cvg/sg59_16_cif.got.tgz:31423.got - 2010.06.11 16:43:56.
