data_PCOD9453526
_publ_section_title
;
Structure prediction by ZEFSAII (Michael W. Deem and Ramdas Pophale) SiO2 
 PCOD9453526
Probable space group: P M M N
;
_chemical_formula_sum "Si O2"
_cell_formula_units_Z 64
_cell_length_a 18.000000
_cell_length_b 9.000000
_cell_length_c 21.000000
_cell_angle_alpha 90.000000
_cell_angle_beta 90.000000
_cell_angle_gamma 90.000000
_cell_volume 3402.000000
_symmetry_space_group_name_H-M "P M M N"
_symmetry_group_IT_number 59
_space_group.IT_coordinate_system_code '2'
_symmetry_cell_setting 'orthorhombic'
loop_
_space_group_symop_operation_xyz
x,y,z
1/2-x,1/2-y,z
1/2+x,-y,-z
-x,1/2+y,-z
-x,-y,-z
1/2+x,1/2+y,-z
1/2-x,y,z
x,1/2-y,z
loop_
_atom_site_type_symbol
_atom_site_label
_atom_site_fract_x
_atom_site_fract_y
_atom_site_fract_z
Si Si1 0.337542 0.583776 0.252308
Si Si2 0.336517 0.072778 0.611152
Si Si3 0.460254 0.579894 0.943257
Si Si4 0.338707 0.421238 0.381875
Si Si5 0.336522 0.575140 0.856436
Si Si6 0.081914 0.426649 0.742173
Si Si7 0.080099 0.574771 0.495081
Si Si8 0.950422 0.920136 0.811978
O O1 0.250000 0.585845 0.243134
O O2 0.362485 0.750000 0.268740
O O3 0.353560 0.473334 0.310342
O O4 0.378887 0.522544 0.191195
O O5 0.250000 0.038595 0.622890
O O6 0.342034 0.250000 0.598993
O O7 0.385426 0.038562 0.673128
O O8 0.367928 0.985926 0.551252
O O9 0.449520 0.750000 0.962084
O O10 0.381878 0.520247 0.917681
O O11 0.510396 0.572584 0.879975
O O12 0.500000 0.500000 0.000000
O O13 0.250000 0.434963 0.392773
O O14 0.359594 0.250000 0.392022
O O15 0.382239 0.525915 0.429503
O O16 0.250000 0.569159 0.866871
O O17 0.357899 0.750000 0.845299
O O18 0.359869 0.480850 0.795361
O O19 0.070176 0.250000 0.746810
O O20 0.007522 0.513727 0.760291
O O21 0.072527 0.750000 0.499049
O O22 0.000000 0.500000 0.500000
O O23 0.932758 0.750000 0.797965
#
# Coordination Sequence:
#
# PCOD9453526 Si02
#       8
#     8   8   8   8   8   8   8   8
#     4  10  21  37  59  87 115 145 186 234 282 334
#     4  10  22  40  59  81 113 148 181 224 280 337
#     4   9  19  35  55  80 110 148 189 230 278 330
#     4  10  21  39  62  84 109 144 183 228 285 342
#     4   9  18  34  55  80 112 147 185 229 278 334
#     4  10  20  34  56  85 115 146 183 227 276 330
#     4  12  26  41  58  80 109 145 188 235 282 334
#     4  10  21  37  57  82 115 151 187 229 279 331
#
# _framework density 18.812463000000001
#
# number of rings (size 3 to 8) (size 9 to 14) (size 15 to 20)
#    0.000    2.000    0.000    4.125    1.750    7.500 
#    0.000    0.625    0.000    2.250    0.000    0.000 
#    0.000    0.000    0.000    0.000    0.000    0.000 
#
# Total GULP energy -357128.377691 kJ/mol
# GULP energy per Si atom -5580.130901 kJ/mol
# Density = 1.876965 g / cm^3
# Si number density = 18.812463 Si / 1000 Ang^3
#
#
#
# Elastic Constant Matrix: (Units=GPa)
#
#
# Indices 1 2 3 4 5 6 
#
# 1 26.1679 21.9759 44.1192 0.0000 0.0000 0.0000
# 2 21.9759 29.1892 13.8291 0.0000 0.0000 0.0000
# 3 44.1192 13.8291 -16.3819 0.0000 0.0000 0.0000
# 4 0.0000 0.0000 0.0000 13.0198 0.0000 0.0000
# 5 0.0000 0.0000 0.0000 0.0000 13.3958 0.0000
# 6 0.0000 0.0000 0.0000 0.0000 0.0000 26.6166
#
#
#
# Elastic Compliance Matrix: (Units=1/GPa)
#
#
# Indices 1 2 3 4 5 6 
#
# 1 0.016902 -0.024494 0.024842 0.000000 0.000000 0.000000
# 2 -0.024494 0.059970 -0.015343 0.000000 0.000000 0.000000
# 3 0.024842 -0.015343 -0.007092 0.000000 0.000000 0.000000
# 4 0.000000 0.000000 0.000000 0.076806 0.000000 0.000000
# 5 0.000000 0.000000 0.000000 0.000000 0.074650 0.000000
# 6 0.000000 0.000000 0.000000 0.000000 0.000000 0.037571
#
#
# Mechanical properties :
#
#
# Convention : Reuss Voigt Hill
#
# Bulk Modulus (GPa) = 25.13284 22.09151 23.61218
# Shear Modulus (GPa) = 16.55295 7.87650 12.21472
#
# Velocity S-wave (km/s) = 2.96952 2.04840 2.55088
# Velocity P-wave (km/s) = 5.01458 4.16691 4.61027
#
# Compressibility (1/GPa) = 0.03978859
#
# Stress axis : x y z
#
# Youngs Moduli (GPa) = 59.16543 16.67505 -141.00948
#
# Poissons Ratio (x) = 0.40845 3.50294
# Poissons Ratio (y) = 1.44922 -2.16352
# Poissons Ratio (z) = -1.46978 0.25585
#
# Static dielectric constant tensor:
#      x y z
#    x 1.682010 0.000000 0.000000 
#    y 0.000000 1.645260 0.000000 
#    z 0.000000 0.000000 1.614740 
# 
# From -- ./inp_files/30695.got.cif
#   From: 2010.05.17/outbox.ucp.g08.bks.cvg/sg59_16_cif.got.tgz:30695.got - 2010.06.11 16:43:56.
