data_PCOD9453348
_publ_section_title
;
Structure prediction by ZEFSAII (Michael W. Deem and Ramdas Pophale) SiO2 
 PCOD9453348
Probable space group: P M M N
;
_chemical_formula_sum "Si O2"
_cell_formula_units_Z 64
_cell_length_a 21.000000
_cell_length_b 18.000000
_cell_length_c 9.000000
_cell_angle_alpha 90.000000
_cell_angle_beta 90.000000
_cell_angle_gamma 90.000000
_cell_volume 3402.000000
_symmetry_space_group_name_H-M "P M M N"
_symmetry_group_IT_number 59
_space_group.IT_coordinate_system_code '2'
_symmetry_cell_setting 'orthorhombic'
loop_
_space_group_symop_operation_xyz
x,y,z
1/2-x,1/2-y,z
1/2+x,-y,-z
-x,1/2+y,-z
-x,-y,-z
1/2+x,1/2+y,-z
1/2-x,y,z
x,1/2-y,z
loop_
_atom_site_type_symbol
_atom_site_label
_atom_site_fract_x
_atom_site_fract_y
_atom_site_fract_z
Si Si1 0.597325 0.550586 0.233519
Si Si2 0.608809 0.413970 0.696058
Si Si3 0.013392 0.901525 0.693296
Si Si4 0.515798 0.836647 0.391573
Si Si5 0.318440 0.533966 0.576819
Si Si6 0.319703 0.837273 0.071563
Si Si7 0.438610 0.464016 0.077040
Si Si8 0.638324 0.166120 0.232661
O O1 0.550375 0.480798 0.282817
O O2 0.563993 0.626804 0.276057
O O3 0.660916 0.534408 0.322714
O O4 0.608169 0.548874 0.058217
O O5 0.554672 0.352943 0.671293
O O6 0.628639 0.451222 0.544910
O O7 0.668097 0.376390 0.775095
O O8 0.585782 0.477342 0.805330
O O9 0.979552 0.888488 0.537766
O O10 0.068260 0.840133 0.700712
O O11 0.964208 0.895285 0.828139
O O12 0.525534 0.750000 0.419780
O O13 0.250000 0.523990 0.507476
O O14 0.320234 0.607127 0.679730
O O15 0.250000 0.854003 0.011143
O O16 0.324994 0.750000 0.096034
O O17 0.367307 0.857948 0.939499
O O18 0.500000 0.500000 0.000000
O O19 0.662815 0.250000 0.238426
#
# Coordination Sequence:
#
# PCOD9453348 Si02
#       8
#     8   8   8   8   8   8   8   8
#     4  10  20  38  57  79 109 142 192 232 278 326
#     4  12  20  34  52  78 112 140 186 229 277 328
#     4  10  18  33  51  77 107 142 178 221 279 333
#     4  12  22  33  54  83 115 147 176 225 287 340
#     4  11  23  36  57  80 108 149 192 232 271 323
#     4  10  21  34  45  63 101 150 190 225 263 311
#     4  10  19  32  58  79 102 150 179 229 281 327
#     4  10  20  33  51  74 107 148 188 228 269 321
#
# _framework density 18.812463000000001
#
# number of rings (size 3 to 8) (size 9 to 14) (size 15 to 20)
#    0.000    1.375    5.000    4.875    0.000    1.250 
#    0.000    1.250    0.000    0.375    0.000    0.000 
#    0.000    2.000    0.000    0.000    0.000    0.000 
#
# Total GULP energy -356273.442095 kJ/mol
# GULP energy per Si atom -5566.772533 kJ/mol
# Density = 1.876965 g / cm^3
# Si number density = 18.812463 Si / 1000 Ang^3
#
#
#
# Elastic Constant Matrix: (Units=GPa)
#
#
# Indices 1 2 3 4 5 6 
#
# 1 24.9855 33.4942 19.7001 0.0000 0.0000 0.0000
# 2 33.4942 35.1569 19.1974 0.0000 0.0000 0.0000
# 3 19.7001 19.1974 94.7626 0.0000 0.0000 0.0000
# 4 0.0000 0.0000 0.0000 24.1848 0.0000 0.0000
# 5 0.0000 0.0000 0.0000 0.0000 10.4724 0.0000
# 6 0.0000 0.0000 0.0000 0.0000 0.0000 10.0169
#
#
#
# Elastic Compliance Matrix: (Units=1/GPa)
#
#
# Indices 1 2 3 4 5 6 
#
# 1 -0.143919 0.135797 0.002409 0.000000 0.000000 0.000000
# 2 0.135797 -0.096152 -0.008752 0.000000 0.000000 0.000000
# 3 0.002409 -0.008752 0.011825 0.000000 0.000000 0.000000
# 4 0.000000 0.000000 0.000000 0.041348 0.000000 0.000000
# 5 0.000000 0.000000 0.000000 0.000000 0.095489 0.000000
# 6 0.000000 0.000000 0.000000 0.000000 0.000000 0.099831
#
#
# Mechanical properties :
#
#
# Convention : Reuss Voigt Hill
#
# Bulk Modulus (GPa) = 32.61337 33.29871 32.95604
# Shear Modulus (GPa) = -20.81038 14.43570 -3.18734
#
# Velocity S-wave (km/s) = -3.32957 2.77311 -1.30305
# Velocity P-wave (km/s) = 1.61006 5.29077 3.91054
#
# Compressibility (1/GPa) = 0.03066227
#
# Stress axis : x y z
#
# Youngs Moduli (GPa) = -6.94836 -10.40017 84.56724
#
# Poissons Ratio (x) = 1.41231 -0.20370
# Poissons Ratio (y) = 0.94357 0.74012
# Poissons Ratio (z) = 0.01674 -0.09102
#
# Static dielectric constant tensor:
#      x y z
#    x 1.797540 0.000000 0.000000 
#    y 0.000000 1.713760 0.000000 
#    z 0.000000 0.000000 1.677210 
# 
# From -- ./inp_files/11637.got.cif
#   From: 2010.05.17/outbox.ucp.g08.bks.cvg/sg59_6_cif.got.tgz:11637.got - 2010.06.11 16:43:56.
