data_PCOD9453442
_publ_section_title
;
Structure prediction by ZEFSAII (Michael W. Deem and Ramdas Pophale) SiO2 
 PCOD9453442
Probable space group: P M M N
;
_chemical_formula_sum "Si O2"
_cell_formula_units_Z 64
_cell_length_a 9.000000
_cell_length_b 15.000000
_cell_length_c 24.000000
_cell_angle_alpha 90.000000
_cell_angle_beta 90.000000
_cell_angle_gamma 90.000000
_cell_volume 3240.000000
_symmetry_space_group_name_H-M "P M M N"
_symmetry_group_IT_number 59
_space_group.IT_coordinate_system_code '2'
_symmetry_cell_setting 'orthorhombic'
loop_
_space_group_symop_operation_xyz
x,y,z
1/2-x,1/2-y,z
1/2+x,-y,-z
-x,1/2+y,-z
-x,-y,-z
1/2+x,1/2+y,-z
1/2-x,y,z
x,1/2-y,z
loop_
_atom_site_type_symbol
_atom_site_label
_atom_site_fract_x
_atom_site_fract_y
_atom_site_fract_z
Si Si1 0.573635 0.010395 0.940791
Si Si2 0.071053 0.354710 0.466505
Si Si3 0.423662 0.021928 0.572822
Si Si4 0.416295 0.645607 0.347832
Si Si5 0.576800 0.348772 0.256642
Si Si6 0.923425 0.349507 0.121966
Si Si7 0.917931 0.473330 0.756337
Si Si8 0.931173 0.351707 0.853153
O O1 0.750000 0.007194 0.945115
O O2 0.519199 0.928364 0.902971
O O3 0.534085 0.105076 0.912597
O O4 0.500000 0.000000 0.000000
O O5 0.250000 0.353233 0.462910
O O6 0.022261 0.250000 0.465399
O O7 0.028614 0.410293 0.522499
O O8 0.005435 0.426344 0.422924
O O9 0.250000 0.004454 0.565567
O O10 0.461794 0.083913 0.624324
O O11 0.250000 0.630514 0.372837
O O12 0.448742 0.750000 0.351563
O O13 0.408206 0.609503 0.285633
O O14 0.750000 0.354100 0.272875
O O15 0.520713 0.250000 0.275285
O O16 0.568814 0.349305 0.189175
O O17 0.495139 0.440733 0.271004
O O18 0.750000 0.362283 0.106946
O O19 0.968744 0.250000 0.103223
O O20 0.750000 0.502861 0.770631
O O21 0.989944 0.426143 0.809825
O O22 0.750000 0.350633 0.846712
O O23 0.982114 0.250000 0.845393
#
# Coordination Sequence:
#
# PCOD9453442 Si02
#       8
#     8   8   8   8   8   8   8   8
#     4  11  22  35  53  78 106 138 174 215 263 315
#     4   9  18  34  56  81 111 149 191 234 280 330
#     4  10  20  34  54  82 115 148 186 233 281 330
#     4  10  21  36  55  80 111 147 185 227 276 327
#     4   9  18  33  54  79 106 135 166 207 263 320
#     4   9  18  34  55  76 100 132 167 206 257 314
#     4  10  19  34  57  83 106 134 179 228 266 310
#     4   9  18  34  55  77 102 134 172 213 259 312
#
# _framework density 19.753086
#
# number of rings (size 3 to 8) (size 9 to 14) (size 15 to 20)
#    0.000    2.375    1.250    2.250    0.000    4.500 
#    0.000    3.125    0.000    4.500    0.000    0.000 
#    0.000    0.000    0.000    0.000    0.000    0.000 
#
# Total GULP energy -356353.353194 kJ/mol
# GULP energy per Si atom -5568.021144 kJ/mol
# Density = 1.970813 g / cm^3
# Si number density = 19.753086 Si / 1000 Ang^3
#
#
#
# Elastic Constant Matrix: (Units=GPa)
#
#
# Indices 1 2 3 4 5 6 
#
# 1 14.6397 30.3587 3.0714 0.0000 0.0000 0.0000
# 2 30.3587 161.1099 11.6069 0.0000 0.0000 0.0000
# 3 3.0714 11.6069 25.3753 0.0000 0.0000 0.0000
# 4 0.0000 0.0000 0.0000 20.5617 0.0000 0.0000
# 5 0.0000 0.0000 0.0000 0.0000 18.5935 0.0000
# 6 0.0000 0.0000 0.0000 0.0000 0.0000 27.9254
#
#
#
# Elastic Compliance Matrix: (Units=1/GPa)
#
#
# Indices 1 2 3 4 5 6 
#
# 1 0.112522 -0.020911 -0.004055 0.000000 0.000000 0.000000
# 2 -0.020911 0.010304 -0.002182 0.000000 0.000000 0.000000
# 3 -0.004055 -0.002182 0.040897 0.000000 0.000000 0.000000
# 4 0.000000 0.000000 0.000000 0.048634 0.000000 0.000000
# 5 0.000000 0.000000 0.000000 0.000000 0.053782 0.000000
# 6 0.000000 0.000000 0.000000 0.000000 0.000000 0.035810
#
#
# Mechanical properties :
#
#
# Convention : Reuss Voigt Hill
#
# Bulk Modulus (GPa) = 9.13843 32.35541 20.74692
# Shear Modulus (GPa) = 12.73170 23.82200 18.27685
#
# Velocity S-wave (km/s) = 2.54154 3.47650 3.04512
# Velocity P-wave (km/s) = 3.63991 5.70353 4.78431
#
# Compressibility (1/GPa) = 0.10942794
#
# Stress axis : x y z
#
# Youngs Moduli (GPa) = 8.88719 97.04509 24.45146
#
# Poissons Ratio (x) = 2.02929 0.09914
# Poissons Ratio (y) = 0.18584 0.05336
# Poissons Ratio (z) = 0.03603 0.21179
#
# Static dielectric constant tensor:
#      x y z
#    x 1.709020 0.000000 0.000000 
#    y 0.000000 1.694960 0.000000 
#    z 0.000000 0.000000 1.813520 
# 
# From -- ./inp_files/31621.got.cif
#   From: 2010.05.17/outbox.ucp.g08.bks.cvg/sg59_16_cif.got.tgz:31621.got - 2010.06.11 16:43:56.
