data_PCOD9453101
_publ_section_title
;
Structure prediction by ZEFSAII (Michael W. Deem and Ramdas Pophale) SiO2 
 PCOD9453101
Probable space group: P M M N
;
_chemical_formula_sum "Si O2"
_cell_formula_units_Z 64
_cell_length_a 23.074426
_cell_length_b 13.762807
_cell_length_c 10.354126
_cell_angle_alpha 90.000000
_cell_angle_beta 90.000000
_cell_angle_gamma 90.000000
_cell_volume 3288.148111
_symmetry_space_group_name_H-M "P M M N"
_symmetry_group_IT_number 59
_space_group.IT_coordinate_system_code '2'
_symmetry_cell_setting 'orthorhombic'
loop_
_space_group_symop_operation_xyz
x,y,z
1/2-x,1/2-y,z
1/2+x,-y,-z
-x,1/2+y,-z
-x,-y,-z
1/2+x,1/2+y,-z
1/2-x,y,z
x,1/2-y,z
loop_
_atom_site_type_symbol
_atom_site_label
_atom_site_fract_x
_atom_site_fract_y
_atom_site_fract_z
Si Si1 0.879533 0.633539 0.865631
Si Si2 0.499776 0.131770 0.248858
Si Si3 0.616482 0.634061 0.355076
Si Si4 0.131458 0.636438 0.771852
Si Si5 0.136623 0.863988 0.460680
Si Si6 0.182183 0.456088 0.887799
Si Si7 0.817074 0.938838 0.608846
Si Si8 0.996458 0.132287 0.544685
O O1 0.878085 0.750000 0.887436
O O2 0.845047 0.607773 0.735393
O O3 0.946128 0.602370 0.839710
O O4 0.849759 0.578607 0.983559
O O5 0.498898 0.250000 0.253379
O O6 0.564478 0.106122 0.205024
O O7 0.491233 0.099331 0.397580
O O8 0.617402 0.750000 0.352261
O O9 0.650480 0.594770 0.232632
O O10 0.648000 0.598558 0.484488
O O11 0.549238 0.601389 0.364430
O O12 0.137778 0.750000 0.800901
O O13 0.141483 0.625377 0.616982
O O14 0.172793 0.569413 0.855767
O O15 0.147392 0.750000 0.431423
O O16 0.070078 0.889782 0.424065
O O17 0.176078 0.944109 0.393325
O O18 0.250000 0.431996 0.893012
O O19 0.750000 0.912196 0.598289
O O20 0.998128 0.250000 0.541576
#
# Coordination Sequence:
#
# PCOD9453101 Si02
#       8
#     8   8   8   8   8   8   8   8
#     4  11  24  43  63  83 117 162 200 245 300 350
#     4   8  15  33  61  90 115 145 192 241 296 361
#     4  11  22  37  58  86 118 149 192 254 298 334
#     4   9  19  38  64  91 121 153 189 244 303 352
#     4   9  19  37  62  92 124 153 185 242 308 356
#     4  12  26  41  57  85 120 162 209 238 284 358
#     4  12  24  37  58  89 115 153 209 242 280 353
#     4   8  15  32  59  90 118 147 188 238 302 362
#
# _framework density 19.463843000000001
#
# number of rings (size 3 to 8) (size 9 to 14) (size 15 to 20)
#    0.000    2.000    2.500    3.000    0.000    5.500 
#    0.000    1.875    0.000    4.500    0.000    0.000 
#    0.000    0.000    0.000    0.000    0.000    0.000 
#
# Total GULP energy -357475.055617 kJ/mol
# GULP energy per Si atom -5585.547744 kJ/mol
# Density = 1.941954 g / cm^3
# Si number density = 19.463843 Si / 1000 Ang^3
#
#
#
# Elastic Constant Matrix: (Units=GPa)
#
#
# Indices 1 2 3 4 5 6 
#
# 1 39.3758 -7.4309 4.4966 0.0000 0.0000 0.0000
# 2 -7.4309 73.5468 0.4984 0.0000 0.0000 0.0000
# 3 4.4966 0.4984 56.2582 0.0000 0.0000 0.0000
# 4 0.0000 0.0000 0.0000 18.7597 0.0000 0.0000
# 5 0.0000 0.0000 0.0000 0.0000 3.0351 0.0000
# 6 0.0000 0.0000 0.0000 0.0000 0.0000 3.2521
#
#
#
# Elastic Compliance Matrix: (Units=1/GPa)
#
#
# Indices 1 2 3 4 5 6 
#
# 1 0.026139 0.002655 -0.002113 0.000000 0.000000 0.000000
# 2 0.002655 0.013867 -0.000335 0.000000 0.000000 0.000000
# 3 -0.002113 -0.000335 0.017947 0.000000 0.000000 0.000000
# 4 0.000000 0.000000 0.000000 0.053306 0.000000 0.000000
# 5 0.000000 0.000000 0.000000 0.000000 0.329474 0.000000
# 6 0.000000 0.000000 0.000000 0.000000 0.000000 0.307493
#
#
# Mechanical properties :
#
#
# Convention : Reuss Voigt Hill
#
# Bulk Modulus (GPa) = 17.13270 18.25657 17.69463
# Shear Modulus (GPa) = 6.51664 16.45050 11.48357
#
# Velocity S-wave (km/s) = 1.83176 2.91036 2.43162
# Velocity P-wave (km/s) = 3.64626 4.54903 4.12243
#
# Compressibility (1/GPa) = 0.05836793
#
# Stress axis : x y z
#
# Youngs Moduli (GPa) = 38.25747 72.11195 55.71959
#
# Poissons Ratio (x) = -0.19148 0.11772
# Poissons Ratio (y) = -0.10158 0.01867
# Poissons Ratio (z) = 0.08083 0.02416
#
# Static dielectric constant tensor:
#      x y z
#    x 1.677200 0.000000 0.000000 
#    y 0.000000 1.736100 0.000000 
#    z 0.000000 0.000000 1.635320 
# 
# From -- ./inp_files/12218.got.cif
#   From: 2010.05.17/outbox.cif.g08.bks.cpg/sg59_7_cif.got.tgz:12218.got - 2010.06.03 14:40:33.
