data_PCOD9453639
_publ_section_title
;
Structure prediction by ZEFSAII (Michael W. Deem and Ramdas Pophale) SiO2 
 PCOD9453639
Probable space group: P M M N
;
_chemical_formula_sum "Si O2"
_cell_formula_units_Z 48
_cell_length_a 9.000000
_cell_length_b 9.000000
_cell_length_c 30.000000
_cell_angle_alpha 90.000000
_cell_angle_beta 90.000000
_cell_angle_gamma 90.000000
_cell_volume 2430.000000
_symmetry_space_group_name_H-M "P M M N"
_symmetry_group_IT_number 59
_space_group.IT_coordinate_system_code '2'
_symmetry_cell_setting 'orthorhombic'
loop_
_space_group_symop_operation_xyz
x,y,z
1/2-x,1/2-y,z
1/2+x,-y,-z
-x,1/2+y,-z
-x,-y,-z
1/2+x,1/2+y,-z
1/2-x,y,z
x,1/2-y,z
loop_
_atom_site_type_symbol
_atom_site_label
_atom_site_fract_x
_atom_site_fract_y
_atom_site_fract_z
Si Si1 0.571012 0.080992 0.638300
Si Si2 0.583176 0.076682 0.789705
Si Si3 0.423277 0.584038 0.715000
Si Si4 0.422348 0.070870 0.042201
Si Si5 0.082125 0.571716 0.867779
Si Si6 0.418424 0.927181 0.459608
O O1 0.750000 0.083456 0.636991
O O2 0.524789 0.250000 0.650855
O O3 0.514056 0.045807 0.588937
O O4 0.515014 0.959398 0.671955
O O5 0.750000 0.038760 0.774525
O O6 0.578427 0.250000 0.799644
O O7 0.468174 0.033750 0.751857
O O8 0.534758 0.986006 0.832399
O O9 0.250000 0.577201 0.705104
O O10 0.458587 0.750000 0.731415
O O11 0.250000 0.025536 0.046799
O O12 0.425000 0.250000 0.039072
O O13 0.521104 0.026461 0.084371
O O14 0.500000 0.000000 0.000000
O O15 0.250000 0.517291 0.859151
O O16 0.086192 0.750000 0.865959
O O17 0.250000 0.982991 0.459005
O O18 0.415175 0.750000 0.464835
O O19 0.500000 0.000000 0.500000
#
# Coordination Sequence:
#
# PCOD9453639 Si02
#       6
#     8   8   8   8   8   8
#     4   9  19  37  58  79 106 142 183 225 270 321
#     4  11  24  40  59  84 112 144 183 225 270 323
#     4  11  24  39  56  82 113 143 178 222 272 325
#     4  10  21  37  58  84 114 150 190 231 278 329
#     4  10  21  38  60  85 113 146 185 229 276 326
#     4   9  19  35  54  78 109 143 180 224 271 320
#
# _framework density 19.753086
#
# number of rings (size 3 to 8) (size 9 to 14) (size 15 to 20)
#    0.000    2.000    0.000    4.000    0.000   11.333 
#    0.000    5.000    0.000    0.000    0.000    0.000 
#    0.000    0.000    0.000    0.000    0.000    0.000 
#
# Total GULP energy -267725.751700 kJ/mol
# GULP energy per Si atom -5577.619827 kJ/mol
# Density = 1.970813 g / cm^3
# Si number density = 19.753086 Si / 1000 Ang^3
#
#
#
# Elastic Constant Matrix: (Units=GPa)
#
#
# Indices 1 2 3 4 5 6 
#
# 1 25.5534 20.3104 -0.2993 0.0000 0.0000 0.0000
# 2 20.3104 -11.3215 19.4745 0.0000 0.0000 0.0000
# 3 -0.2993 19.4745 61.7839 0.0000 0.0000 0.0000
# 4 0.0000 0.0000 0.0000 31.1226 0.0000 0.0000
# 5 0.0000 0.0000 0.0000 0.0000 27.8094 0.0000
# 6 0.0000 0.0000 0.0000 0.0000 0.0000 26.4145
#
#
#
# Elastic Compliance Matrix: (Units=1/GPa)
#
#
# Indices 1 2 3 4 5 6 
#
# 1 0.020244 0.023658 -0.007359 0.000000 0.000000 0.000000
# 2 0.023658 -0.029626 0.009453 0.000000 0.000000 0.000000
# 3 -0.007359 0.009453 0.013170 0.000000 0.000000 0.000000
# 4 0.000000 0.000000 0.000000 0.032131 0.000000 0.000000
# 5 0.000000 0.000000 0.000000 0.000000 0.035959 0.000000
# 6 0.000000 0.000000 0.000000 0.000000 0.000000 0.037858
#
#
# Mechanical properties :
#
#
# Convention : Reuss Voigt Hill
#
# Bulk Modulus (GPa) = 18.08595 17.22077 17.65336
# Shear Modulus (GPa) = 65.22044 19.50466 42.36255
#
# Velocity S-wave (km/s) = 5.75235 3.14574 4.63601
# Velocity P-wave (km/s) = 7.30036 4.68307 6.13296
#
# Compressibility (1/GPa) = 0.05529153
#
# Stress axis : x y z
#
# Youngs Moduli (GPa) = 49.39822 -33.75429 75.92869
#
# Poissons Ratio (x) = 0.79856 0.55876
# Poissons Ratio (y) = -1.16866 -0.71774
# Poissons Ratio (z) = 0.36352 0.31907
#
# Static dielectric constant tensor:
#      x y z
#    x 1.691020 0.000000 0.000000 
#    y 0.000000 1.683740 0.000000 
#    z 0.000000 0.000000 1.369930 
# 
# From -- ./inp_files/32828.got.cif
#   From: 2010.05.17/outbox.ucp.g08.bks.cvg/sg59_17_cif.got.tgz:32828.got - 2010.06.11 16:43:56.
