data_PCOD9453300
_publ_section_title
;
Structure prediction by ZEFSAII (Michael W. Deem and Ramdas Pophale) SiO2 
 PCOD9453300
Probable space group: P M M N
;
_chemical_formula_sum "Si O2"
_cell_formula_units_Z 64
_cell_length_a 20.382772
_cell_length_b 7.428323
_cell_length_c 20.894616
_cell_angle_alpha 90.000000
_cell_angle_beta 90.000000
_cell_angle_gamma 90.000000
_cell_volume 3163.649923
_symmetry_space_group_name_H-M "P M M N"
_symmetry_group_IT_number 59
_space_group.IT_coordinate_system_code '2'
_symmetry_cell_setting 'orthorhombic'
loop_
_space_group_symop_operation_xyz
x,y,z
1/2-x,1/2-y,z
1/2+x,-y,-z
-x,1/2+y,-z
-x,-y,-z
1/2+x,1/2+y,-z
1/2-x,y,z
x,1/2-y,z
loop_
_atom_site_type_symbol
_atom_site_label
_atom_site_fract_x
_atom_site_fract_y
_atom_site_fract_z
Si Si1 0.563614 0.465460 0.906688
Si Si2 0.074534 0.968633 0.237577
Si Si3 0.587112 0.033244 0.545075
Si Si4 0.087016 0.535191 0.876347
Si Si5 0.927172 0.455460 0.266196
Si Si6 0.823251 0.470018 0.656724
Si Si7 0.325934 0.970348 0.992177
Si Si8 0.058727 0.964497 0.594349
O O1 0.566175 0.250000 0.910638
O O2 0.584986 0.522112 0.835615
O O3 0.485352 0.507417 0.908408
O O4 0.617717 0.530941 0.957419
O O5 0.068659 0.750000 0.239454
O O6 0.131491 0.025028 0.284649
O O7 0.005971 0.046413 0.261025
O O8 0.589271 0.250000 0.541106
O O9 0.645102 0.970583 0.590275
O O10 0.588541 0.964711 0.472334
O O11 0.518936 0.990533 0.581276
O O12 0.092611 0.750000 0.870569
O O13 0.091294 0.462788 0.803346
O O14 0.144339 0.473415 0.923552
O O15 0.901809 0.250000 0.267261
O O16 0.916374 0.536896 0.337117
O O17 0.750000 0.532034 0.664585
O O18 0.823505 0.250000 0.656309
O O19 0.250000 0.026450 0.002893
O O20 0.325291 0.750000 0.993803
O O21 0.069723 0.750000 0.597216
#
# Coordination Sequence:
#
# PCOD9453300 Si02
#       8
#     8   8   8   8   8   8   8   8
#     4   9  17  28  45  67  88 110 140 182 220 251
#     4   9  16  26  40  60  83 105 134 168 202 243
#     4   9  16  26  40  58  79 104 134 166 201 241
#     4   9  17  29  46  65  86 115 145 175 215 261
#     4   9  16  26  41  61  84 106 131 168 211 248
#     4   9  16  25  38  56  80 109 136 161 193 240
#     4   9  17  29  45  65  88 114 146 181 215 254
#     4   9  16  25  40  60  81 102 128 169 210 240
#
# _framework density 20.229799
#
# number of rings (size 3 to 8) (size 9 to 14) (size 15 to 20)
#    0.000    3.000    1.250    0.375    0.000    0.500 
#    0.000    2.500    0.000    3.750    0.000    8.750 
#    0.000    0.000    0.000   12.500    0.000   13.000 
#
# Total GULP energy -356517.240355 kJ/mol
# GULP energy per Si atom -5570.581881 kJ/mol
# Density = 2.018375 g / cm^3
# Si number density = 20.229799 Si / 1000 Ang^3
#
#
#
# Elastic Constant Matrix: (Units=GPa)
#
#
# Indices 1 2 3 4 5 6 
#
# 1 38.4635 -0.1955 25.9711 0.0000 0.0000 0.0000
# 2 -0.1955 65.0812 8.1113 0.0000 0.0000 0.0000
# 3 25.9711 8.1113 118.0697 0.0000 0.0000 0.0000
# 4 0.0000 0.0000 0.0000 3.4133 0.0000 0.0000
# 5 0.0000 0.0000 0.0000 0.0000 14.0681 0.0000
# 6 0.0000 0.0000 0.0000 0.0000 0.0000 11.0120
#
#
#
# Elastic Compliance Matrix: (Units=1/GPa)
#
#
# Indices 1 2 3 4 5 6 
#
# 1 0.030590 0.000939 -0.006793 0.000000 0.000000 0.000000
# 2 0.000939 0.015527 -0.001273 0.000000 0.000000 0.000000
# 3 -0.006793 -0.001273 0.010051 0.000000 0.000000 0.000000
# 4 0.000000 0.000000 0.000000 0.292975 0.000000 0.000000
# 5 0.000000 0.000000 0.000000 0.000000 0.071083 0.000000
# 6 0.000000 0.000000 0.000000 0.000000 0.000000 0.090810
#
#
# Mechanical properties :
#
#
# Convention : Reuss Voigt Hill
#
# Bulk Modulus (GPa) = 23.85899 32.15425 28.00662
# Shear Modulus (GPa) = 9.27192 18.21384 13.74288
#
# Velocity S-wave (km/s) = 2.14319 3.00383 2.60924
# Velocity P-wave (km/s) = 4.23603 5.28769 4.79080
#
# Compressibility (1/GPa) = 0.04191293
#
# Stress axis : x y z
#
# Youngs Moduli (GPa) = 32.69004 64.40427 99.48950
#
# Poissons Ratio (x) = -0.06045 0.67586
# Poissons Ratio (y) = -0.03068 0.12666
# Poissons Ratio (z) = 0.22207 0.08200
#
# Static dielectric constant tensor:
#      x y z
#    x 1.668880 0.000000 0.000000 
#    y 0.000000 1.781480 0.000000 
#    z 0.000000 0.000000 1.774640 
# 
# From -- ./inp_files/30913.got.cif
#   From: 2010.05.17/outbox.cif.g08.bks.cpg/sg59_16_cif.got.tgz:30913.got - 2010.06.03 14:40:33.
