data_PCOD9453366
_publ_section_title
;
Structure prediction by ZEFSAII (Michael W. Deem and Ramdas Pophale) SiO2 
 PCOD9453366
Probable space group: P M M N
;
_chemical_formula_sum "Si O2"
_cell_formula_units_Z 64
_cell_length_a 9.000000
_cell_length_b 30.000000
_cell_length_c 12.000000
_cell_angle_alpha 90.000000
_cell_angle_beta 90.000000
_cell_angle_gamma 90.000000
_cell_volume 3240.000000
_symmetry_space_group_name_H-M "P M M N"
_symmetry_group_IT_number 59
_space_group.IT_coordinate_system_code '2'
_symmetry_cell_setting 'orthorhombic'
loop_
_space_group_symop_operation_xyz
x,y,z
1/2-x,1/2-y,z
1/2+x,-y,-z
-x,1/2+y,-z
-x,-y,-z
1/2+x,1/2+y,-z
1/2-x,y,z
x,1/2-y,z
loop_
_atom_site_type_symbol
_atom_site_label
_atom_site_fract_x
_atom_site_fract_y
_atom_site_fract_z
Si Si1 0.924111 0.822660 0.881503
Si Si2 0.920838 0.455259 0.623424
Si Si3 0.429850 0.700299 0.646771
Si Si4 0.578172 0.035429 0.256716
Si Si5 0.079015 0.426692 0.054551
Si Si6 0.929109 0.202086 0.887703
Si Si7 0.925582 0.108036 0.436092
Si Si8 0.580060 0.395651 0.841307
O O1 0.750000 0.810781 0.881876
O O2 0.934164 0.876196 0.896998
O O3 0.000714 0.806879 0.768477
O O4 0.006769 0.802157 0.987918
O O5 0.750000 0.467569 0.594832
O O6 0.991561 0.426733 0.523845
O O7 0.919271 0.421332 0.726405
O O8 0.004191 0.498857 0.664388
O O9 0.250000 0.697255 0.655722
O O10 0.466417 0.750000 0.605813
O O11 0.482319 0.658335 0.572848
O O12 0.750000 0.024763 0.245188
O O13 0.504537 0.040092 0.136675
O O14 0.564251 0.083232 0.317999
O O15 0.250000 0.439250 0.051521
O O16 0.014158 0.422228 0.931599
O O17 0.750000 0.202600 0.890753
O O18 0.977662 0.250000 0.839622
O O19 0.973153 0.155561 0.829697
O O20 0.750000 0.111341 0.465561
O O21 0.750000 0.393979 0.884183
#
# Coordination Sequence:
#
# PCOD9453366 Si02
#       8
#     8   8   8   8   8   8   8   8
#     4  10  19  30  47  75 109 139 169 211 260 310
#     4  10  21  38  57  77 105 140 180 224 266 312
#     4  10  19  32  52  77 107 143 177 209 256 317
#     4  11  21  35  58  83 107 137 175 220 270 323
#     4  10  20  34  54  80 110 141 172 213 264 316
#     4   9  17  30  49  73 101 136 177 214 254 310
#     4   9  19  36  56  79 108 140 176 220 264 309
#     4   9  19  35  54  76 106 143 177 216 266 314
#
# _framework density 19.753086
#
# number of rings (size 3 to 8) (size 9 to 14) (size 15 to 20)
#    0.000    2.250    1.250    1.875    0.000    4.000 
#    0.000    1.875    0.000    3.750    0.000    0.000 
#    0.000    3.000    0.000    0.000    0.000    0.000 
#
# Total GULP energy -356913.776731 kJ/mol
# GULP energy per Si atom -5576.777761 kJ/mol
# Density = 1.970813 g / cm^3
# Si number density = 19.753086 Si / 1000 Ang^3
#
#
#
# Elastic Constant Matrix: (Units=GPa)
#
#
# Indices 1 2 3 4 5 6 
#
# 1 25.6057 13.7616 16.3038 0.0000 0.0000 0.0000
# 2 13.7616 78.6139 7.3883 0.0000 0.0000 0.0000
# 3 16.3038 7.3883 28.4747 0.0000 0.0000 0.0000
# 4 0.0000 0.0000 0.0000 16.4472 0.0000 0.0000
# 5 0.0000 0.0000 0.0000 0.0000 8.8515 0.0000
# 6 0.0000 0.0000 0.0000 0.0000 0.0000 20.3422
#
#
#
# Elastic Compliance Matrix: (Units=1/GPa)
#
#
# Indices 1 2 3 4 5 6 
#
# 1 0.066286 -0.008237 -0.035816 0.000000 0.000000 0.000000
# 2 -0.008237 0.014062 0.001068 0.000000 0.000000 0.000000
# 3 -0.035816 0.001068 0.055349 0.000000 0.000000 0.000000
# 4 0.000000 0.000000 0.000000 0.060800 0.000000 0.000000
# 5 0.000000 0.000000 0.000000 0.000000 0.112976 0.000000
# 6 0.000000 0.000000 0.000000 0.000000 0.000000 0.049159
#
#
# Mechanical properties :
#
#
# Convention : Reuss Voigt Hill
#
# Bulk Modulus (GPa) = 20.11032 23.06687 21.58860
# Shear Modulus (GPa) = 10.84179 15.47755 13.15967
#
# Velocity S-wave (km/s) = 2.34533 2.80224 2.58390
# Velocity P-wave (km/s) = 4.18773 4.70882 4.45590
#
# Compressibility (1/GPa) = 0.04972570
#
# Stress axis : x y z
#
# Youngs Moduli (GPa) = 15.08617 71.11353 18.06720
#
# Poissons Ratio (x) = 0.58580 0.64709
# Poissons Ratio (y) = 0.12427 -0.01929
# Poissons Ratio (z) = 0.54033 -0.07594
#
# Static dielectric constant tensor:
#      x y z
#    x 1.685810 0.000000 0.000000 
#    y 0.000000 1.745760 0.000000 
#    z 0.000000 0.000000 1.683060 
# 
# From -- ./inp_files/15022.got.cif
#   From: 2010.05.17/outbox.ucp.g08.bks.cvg/sg59_8_cif.got.tgz:15022.got - 2010.06.11 16:43:56.
