data_PCOD9453492
_publ_section_title
;
Structure prediction by ZEFSAII (Michael W. Deem and Ramdas Pophale) SiO2 
 PCOD9453492
Probable space group: P M M N
;
_chemical_formula_sum "Si O2"
_cell_formula_units_Z 56
_cell_length_a 15.000000
_cell_length_b 9.000000
_cell_length_c 21.000000
_cell_angle_alpha 90.000000
_cell_angle_beta 90.000000
_cell_angle_gamma 90.000000
_cell_volume 2835.000000
_symmetry_space_group_name_H-M "P M M N"
_symmetry_group_IT_number 59
_space_group.IT_coordinate_system_code '2'
_symmetry_cell_setting 'orthorhombic'
loop_
_space_group_symop_operation_xyz
x,y,z
1/2-x,1/2-y,z
1/2+x,-y,-z
-x,1/2+y,-z
-x,-y,-z
1/2+x,1/2+y,-z
1/2-x,y,z
x,1/2-y,z
loop_
_atom_site_type_symbol
_atom_site_label
_atom_site_fract_x
_atom_site_fract_y
_atom_site_fract_z
Si Si1 0.141724 0.081011 0.472870
Si Si2 0.857270 0.074558 0.397154
Si Si3 0.148310 0.571563 0.339314
Si Si4 0.963736 0.927288 0.282549
Si Si5 0.907389 0.072450 0.019932
Si Si6 0.036772 0.571936 0.846906
Si Si7 0.847423 0.070820 0.884365
O O1 0.250000 0.086119 0.475686
O O2 0.108351 0.250000 0.474380
O O3 0.113032 0.989187 0.534477
O O4 0.122058 0.001485 0.406479
O O5 0.750000 0.052257 0.391285
O O6 0.874445 0.250000 0.393609
O O7 0.909225 0.989281 0.342123
O O8 0.250000 0.525842 0.322582
O O9 0.149243 0.750000 0.346616
O O10 0.068964 0.534547 0.291163
O O11 0.956402 0.750000 0.279563
O O12 0.930347 0.002176 0.218308
O O13 0.915442 0.250000 0.019981
O O14 0.898768 0.029490 0.093747
O O15 0.844842 0.037703 0.960430
O O16 0.000000 0.000000 0.000000
O O17 0.032165 0.750000 0.842719
O O18 0.936698 0.508384 0.859586
O O19 0.750000 0.029737 0.856895
O O20 0.857810 0.250000 0.875882
#
# Coordination Sequence:
#
# PCOD9453492 Si02
#       7
#     8   8   8   8   8   8   8
#     4   9  17  31  54  82 108 135 171 220 276 327
#     4  10  21  38  59  80 104 137 178 226 278 329
#     4   9  19  36  55  76 105 141 181 223 267 319
#     4  11  23  37  55  79 108 146 188 226 268 320
#     4   8  15  29  49  71  95 126 163 203 247 295
#     4  10  20  34  51  73 105 141 176 215 261 316
#     4   9  17  31  53  79 104 132 170 214 260 313
#
# _framework density 19.753086
#
# number of rings (size 3 to 8) (size 9 to 14) (size 15 to 20)
#    0.000    2.571    0.000    1.714    0.000    5.714 
#    0.000    2.143    0.000    2.571    0.000    0.000 
#    0.000    0.000    0.000    0.000    0.000    0.000 
#
# Total GULP energy -312213.556103 kJ/mol
# GULP energy per Si atom -5575.242073 kJ/mol
# Density = 1.970813 g / cm^3
# Si number density = 19.753086 Si / 1000 Ang^3
#
#
#
# Elastic Constant Matrix: (Units=GPa)
#
#
# Indices 1 2 3 4 5 6 
#
# 1 20.4328 10.2361 -6.3307 0.0000 0.0000 0.0000
# 2 10.2361 23.8946 22.6192 0.0000 0.0000 0.0000
# 3 -6.3307 22.6192 95.0063 0.0000 0.0000 0.0000
# 4 0.0000 0.0000 0.0000 29.8703 0.0000 0.0000
# 5 0.0000 0.0000 0.0000 0.0000 15.7738 0.0000
# 6 0.0000 0.0000 0.0000 0.0000 0.0000 19.4159
#
#
#
# Elastic Compliance Matrix: (Units=1/GPa)
#
#
# Indices 1 2 3 4 5 6 
#
# 1 0.079615 -0.050512 0.017331 0.000000 0.000000 0.000000
# 2 -0.050512 0.086074 -0.023858 0.000000 0.000000 0.000000
# 3 0.017331 -0.023858 0.017361 0.000000 0.000000 0.000000
# 4 0.000000 0.000000 0.000000 0.033478 0.000000 0.000000
# 5 0.000000 0.000000 0.000000 0.000000 0.063396 0.000000
# 6 0.000000 0.000000 0.000000 0.000000 0.000000 0.051504
#
#
# Mechanical properties :
#
#
# Convention : Reuss Voigt Hill
#
# Bulk Modulus (GPa) = 14.49877 21.37587 17.93732
# Shear Modulus (GPa) = 10.67243 20.53262 15.60253
#
# Velocity S-wave (km/s) = 2.32694 3.22757 2.81353
# Velocity P-wave (km/s) = 3.81778 4.97339 4.43340
#
# Compressibility (1/GPa) = 0.06897136
#
# Stress axis : x y z
#
# Youngs Moduli (GPa) = 12.56040 11.61794 57.60144
#
# Poissons Ratio (x) = 0.58684 -0.99829
# Poissons Ratio (y) = 0.63445 1.37428
# Poissons Ratio (z) = -0.21768 0.27718
#
# Static dielectric constant tensor:
#      x y z
#    x 1.703110 0.000000 0.000000 
#    y 0.000000 1.655120 0.000000 
#    z 0.000000 0.000000 1.713610 
# 
# From -- ./inp_files/30344.got.cif
#   From: 2010.05.17/outbox.ucp.g08.bks.cvg/sg59_16_cif.got.tgz:30344.got - 2010.06.11 16:43:56.
