data_PCOD9453131
_publ_section_title
;
Structure prediction by ZEFSAII (Michael W. Deem and Ramdas Pophale) SiO2 
 PCOD9453131
Probable space group: P M M N
;
_chemical_formula_sum "Si O2"
_cell_formula_units_Z 32
_cell_length_a 9.154596
_cell_length_b 18.530013
_cell_length_c 10.715679
_cell_angle_alpha 90.000000
_cell_angle_beta 90.000000
_cell_angle_gamma 90.000000
_cell_volume 1817.751881
_symmetry_space_group_name_H-M "P M M N"
_symmetry_group_IT_number 59
_space_group.IT_coordinate_system_code '2'
_symmetry_cell_setting 'orthorhombic'
loop_
_space_group_symop_operation_xyz
x,y,z
1/2-x,1/2-y,z
1/2+x,-y,-z
-x,1/2+y,-z
-x,-y,-z
1/2+x,1/2+y,-z
1/2-x,y,z
x,1/2-y,z
loop_
_atom_site_type_symbol
_atom_site_label
_atom_site_fract_x
_atom_site_fract_y
_atom_site_fract_z
Si Si1 0.425036 0.163767 0.222400
Si Si2 0.425050 0.833782 0.247844
Si Si3 0.080904 0.337681 0.501430
Si Si4 0.074150 0.922119 0.000225
O O1 0.250000 0.151535 0.209930
O O2 0.448457 0.250000 0.211853
O O3 0.468437 0.139960 0.362930
O O4 0.513193 0.122692 0.116715
O O5 0.250000 0.834505 0.257578
O O6 0.470984 0.750000 0.229936
O O7 0.491143 0.861294 0.378075
O O8 0.466487 0.880361 0.127833
O O9 0.250000 0.358427 0.516174
O O10 0.075393 0.250000 0.499678
O O11 0.250000 0.927496 0.994880
O O12 0.000000 0.000000 0.000000
#
# Coordination Sequence:
#
# PCOD9453131 Si02
#       4
#     8   8   8   8
#     4   9  18  34  56  81 107 134 167 209 256 306
#     4   9  18  33  53  77 103 130 164 209 257 304
#     4   8  15  29  51  79 106 130 161 204 252 303
#     4  11  23  37  52  73 104 140 178 217 258 305
#
# _framework density 17.604163
#
# number of rings (size 3 to 8) (size 9 to 14) (size 15 to 20)
#    0.000    2.750    0.000    3.000    0.000    4.500 
#    0.000    6.250    0.000    0.000    0.000    0.000 
#    0.000    0.000    0.000    0.000    0.000    0.000 
#
# Total GULP energy -178395.389811 kJ/mol
# GULP energy per Si atom -5574.855932 kJ/mol
# Density = 1.756410 g / cm^3
# Si number density = 17.604163 Si / 1000 Ang^3
#
#
#
# Elastic Constant Matrix: (Units=GPa)
#
#
# Indices 1 2 3 4 5 6 
#
# 1 43.3755 41.8269 73.0445 0.0000 0.0000 0.0000
# 2 41.8269 58.2391 72.2671 0.0000 0.0000 0.0000
# 3 73.0445 72.2671 206.1634 0.0000 0.0000 0.0000
# 4 0.0000 0.0000 0.0000 -7.4459 0.0000 0.0000
# 5 0.0000 0.0000 0.0000 0.0000 39.7828 0.0000
# 6 0.0000 0.0000 0.0000 0.0000 0.0000 23.8524
#
#
#
# Elastic Compliance Matrix: (Units=1/GPa)
#
#
# Indices 1 2 3 4 5 6 
#
# 1 0.105282 -0.051902 -0.019109 0.000000 0.000000 0.000000
# 2 -0.051902 0.055975 -0.001232 0.000000 0.000000 0.000000
# 3 -0.019109 -0.001232 0.012053 0.000000 0.000000 0.000000
# 4 0.000000 0.000000 0.000000 -0.134303 0.000000 0.000000
# 5 0.000000 0.000000 0.000000 0.000000 0.025136 0.000000
# 6 0.000000 0.000000 0.000000 0.000000 0.000000 0.041925
#
#
# Mechanical properties :
#
#
# Convention : Reuss Voigt Hill
#
# Bulk Modulus (GPa) = 34.69214 75.78389 55.23801
# Shear Modulus (GPa) = 19.21886 19.28051 19.24968
#
# Velocity S-wave (km/s) = 3.30771 3.31301 3.31036
# Velocity P-wave (km/s) = 5.85982 7.60112 6.78655
#
# Compressibility (1/GPa) = 0.02882497
#
# Stress axis : x y z
#
# Youngs Moduli (GPa) = 9.49829 17.86515 82.96917
#
# Poissons Ratio (x) = 0.92723 1.58543
# Poissons Ratio (y) = 0.49298 0.10223
# Poissons Ratio (z) = 0.18150 0.02201
#
# Static dielectric constant tensor:
#      x y z
#    x 1.586260 0.000000 0.000000 
#    y 0.000000 1.582330 0.000000 
#    z 0.000000 0.000000 1.600920 
# 
# From -- ./inp_files/5329.got.cif
#   From: 2010.05.17/outbox.cif.g08.bks.cpg/sg59_3_cif.got.tgz:5329.got - 2010.06.03 14:40:33.
