data_PCOD9453806
_publ_section_title
;
Structure prediction by ZEFSAII (Michael W. Deem and Ramdas Pophale) SiO2 
 PCOD9453806
Probable space group: P B C N
;
_chemical_formula_sum "Si O2"
_cell_formula_units_Z 48
_cell_length_a 24.482881
_cell_length_b 26.858956
_cell_length_c 4.999220
_cell_angle_alpha 90.000000
_cell_angle_beta 90.000000
_cell_angle_gamma 90.000000
_cell_volume 3287.410202
_symmetry_space_group_name_H-M "P B C N"
_symmetry_group_IT_number 60
_symmetry_cell_setting 'orthorhombic'
loop_
_space_group_symop_operation_xyz
x,y,z
1/2-x,1/2-y,1/2+z
1/2+x,1/2-y,-z
-x,y,1/2-z
-x,-y,-z
1/2+x,1/2+y,1/2-z
1/2-x,1/2+y,z
x,-y,1/2+z
loop_
_atom_site_type_symbol
_atom_site_label
_atom_site_fract_x
_atom_site_fract_y
_atom_site_fract_z
Si Si1 0.218755 0.232831 0.164067
Si Si2 0.919295 0.530274 0.262644
Si Si3 0.721377 0.860463 0.946885
Si Si4 0.153681 0.323834 0.055317
Si Si5 0.035907 0.632185 0.485750
Si Si6 0.787475 0.530795 0.258528
O O1 0.236722 0.239727 0.471026
O O2 0.226232 0.175849 0.077116
O O3 0.165208 0.265559 0.112716
O O4 0.934473 0.514578 0.561663
O O5 0.853618 0.535704 0.260075
O O6 0.944294 0.580348 0.147182
O O7 0.678246 0.838521 0.731722
O O8 0.733812 0.916661 0.864261
O O9 0.690591 0.854234 0.229478
O O10 0.090887 0.338829 0.064623
O O11 0.000000 0.624722 0.750000
O O12 0.000000 0.657094 0.250000
O O13 0.772332 0.486778 0.463296
#
# Coordination Sequence:
#
# PCOD9453806 Si02
#       6
#     8   8   8   8   8   8
#     4   8  16  28  46  67  78  96 125 162 214 247
#     4  10  21  33  44  54  73 104 143 181 213 237
#     4  10  17  30  49  63  81 103 130 168 207 248
#     4  10  19  32  46  61  82 100 131 179 206 251
#     4  12  24  33  44  58  76 108 141 175 219 244
#     4  10  19  28  43  62  82 108 135 163 208 248
#
# _framework density 14.60116
#
# number of rings (size 3 to 8) (size 9 to 14) (size 15 to 20)
#    0.000    2.000    1.667    3.000    4.667    2.000 
#    0.000    0.000    0.000    0.000    0.000    0.000 
#    0.000    0.000    0.000    0.000    0.000    5.000 
#
# Total GULP energy -267676.137880 kJ/mol
# GULP energy per Si atom -5576.586206 kJ/mol
# Density = 1.456793 g / cm^3
# Si number density = 14.601160 Si / 1000 Ang^3
#
#
#
# Elastic Constant Matrix: (Units=GPa)
#
#
# Indices 1 2 3 4 5 6 
#
# 1 38.3275 40.6532 5.7416 0.0000 0.0000 0.0000
# 2 40.6532 82.4311 4.5403 0.0000 0.0000 0.0000
# 3 5.7416 4.5403 64.1805 0.0000 0.0000 0.0000
# 4 0.0000 0.0000 0.0000 15.1910 0.0000 0.0000
# 5 0.0000 0.0000 0.0000 0.0000 13.4043 0.0000
# 6 0.0000 0.0000 0.0000 0.0000 0.0000 13.6160
#
#
#
# Elastic Compliance Matrix: (Units=1/GPa)
#
#
# Indices 1 2 3 4 5 6 
#
# 1 0.055290 -0.027101 -0.003029 0.000000 0.000000 0.000000
# 2 -0.027101 0.025463 0.000623 0.000000 0.000000 0.000000
# 3 -0.003029 0.000623 0.015808 0.000000 0.000000 0.000000
# 4 0.000000 0.000000 0.000000 0.065828 0.000000 0.000000
# 5 0.000000 0.000000 0.000000 0.000000 0.074603 0.000000
# 6 0.000000 0.000000 0.000000 0.000000 0.000000 0.073443
#
#
# Mechanical properties :
#
#
# Convention : Reuss Voigt Hill
#
# Bulk Modulus (GPa) = 26.63334 31.86771 29.25052
# Shear Modulus (GPa) = 13.09020 17.37586 15.23303
#
# Velocity S-wave (km/s) = 2.99744 3.45343 3.23348
# Velocity P-wave (km/s) = 5.50088 6.14609 5.83241
#
# Compressibility (1/GPa) = 0.03754692
#
# Stress axis : x y z
#
# Youngs Moduli (GPa) = 18.08630 39.27305 63.25924
#
# Poissons Ratio (x) = 1.06435 0.19162
# Poissons Ratio (y) = 0.49016 -0.03942
# Poissons Ratio (z) = 0.05479 -0.02447
#
# Static dielectric constant tensor:
#      x y z
#    x 1.472790 0.000000 0.000000 
#    y 0.000000 1.522160 0.000000 
#    z 0.000000 0.000000 1.508390 
# 
# From -- ./inp_files/1318.got.cif
#   From: 2010.05.17/outbox.cif.g08.bks.cpg/sg60_1_cif.got.tgz:1318.got - 2010.06.03 14:59:27.
