data_PCOD9453805
_publ_section_title
;
Structure prediction by ZEFSAII (Michael W. Deem and Ramdas Pophale) SiO2 
 PCOD9453805
Probable space group: P B C N
;
_chemical_formula_sum "Si O2"
_cell_formula_units_Z 48
_cell_length_a 19.301913
_cell_length_b 21.181781
_cell_length_c 5.382180
_cell_angle_alpha 90.000000
_cell_angle_beta 90.000000
_cell_angle_gamma 90.000000
_cell_volume 2200.498341
_symmetry_space_group_name_H-M "P B C N"
_symmetry_group_IT_number 60
_symmetry_cell_setting 'orthorhombic'
loop_
_space_group_symop_operation_xyz
x,y,z
1/2-x,1/2-y,1/2+z
1/2+x,1/2-y,-z
-x,y,1/2-z
-x,-y,-z
1/2+x,1/2+y,1/2-z
1/2-x,1/2+y,z
x,-y,1/2+z
loop_
_atom_site_type_symbol
_atom_site_label
_atom_site_fract_x
_atom_site_fract_y
_atom_site_fract_z
Si Si1 0.071456 0.857159 0.110046
Si Si2 0.654472 0.041853 0.784389
Si Si3 0.840126 0.260604 0.879405
Si Si4 0.500000 0.446530 0.750000
Si Si5 0.201978 0.674994 0.623234
Si Si6 0.500000 0.041682 0.750000
Si Si7 0.138055 0.023158 0.672344
O O1 0.094977 0.785999 0.109303
O O2 0.127356 0.903731 0.234221
O O3 0.000000 0.863578 0.250000
O O4 0.054837 0.894375 0.857820
O O5 0.705357 0.100007 0.839691
O O6 0.576152 0.072349 0.770482
O O7 0.660762 0.005791 0.519952
O O8 0.834589 0.303994 0.634639
O O9 0.774789 0.212273 0.879051
O O10 0.836279 0.299548 0.131899
O O11 0.558924 0.493691 0.869110
O O12 0.500000 0.000000 0.500000
O O13 0.171832 0.010345 0.407061
#
# Coordination Sequence:
#
# PCOD9453805 Si02
#       7
#     8   8   8   4   8   4   8
#     4  11  20  34  55  83 115 151 204 242 284 343
#     4  10  19  36  67  91 118 144 187 249 305 359
#     4  10  24  40  63  79 120 171 197 235 289 347
#     4  10  18  32  51  78 121 160 180 236 300 336
#     4  10  22  46  60  84 117 161 203 236 295 354
#     4   8  16  30  51  86 115 144 166 220 318 370
#     4  10  17  30  48  71 108 158 183 221 290 334
#
# _framework density 21.813241000000001
#
# number of rings (size 3 to 8) (size 9 to 14) (size 15 to 20)
#    0.000    2.000    2.500    2.000    2.333    0.000 
#    3.000    3.333    0.000    0.000    0.000    0.000 
#    0.000    0.000    0.000    0.000    0.000    0.000 
#
# Total GULP energy -267281.491114 kJ/mol
# GULP energy per Si atom -5568.364398 kJ/mol
# Density = 2.176359 g / cm^3
# Si number density = 21.813241 Si / 1000 Ang^3
#
#
#
# Elastic Constant Matrix: (Units=GPa)
#
#
# Indices 1 2 3 4 5 6 
#
# 1 49.3334 6.3895 0.9096 0.0000 0.0000 0.0000
# 2 6.3895 63.5513 -3.7254 0.0000 0.0000 0.0000
# 3 0.9096 -3.7254 90.8208 0.0000 0.0000 0.0000
# 4 0.0000 0.0000 0.0000 22.5775 0.0000 0.0000
# 5 0.0000 0.0000 0.0000 0.0000 -0.8168 0.0000
# 6 0.0000 0.0000 0.0000 0.0000 0.0000 28.4346
#
#
#
# Elastic Compliance Matrix: (Units=1/GPa)
#
#
# Indices 1 2 3 4 5 6 
#
# 1 0.020545 -0.002083 -0.000291 0.000000 0.000000 0.000000
# 2 -0.002083 0.015984 0.000677 0.000000 0.000000 0.000000
# 3 -0.000291 0.000677 0.011041 0.000000 0.000000 0.000000
# 4 0.000000 0.000000 0.000000 0.044292 0.000000 0.000000
# 5 0.000000 0.000000 0.000000 0.000000 -1.224309 0.000000
# 6 0.000000 0.000000 0.000000 0.000000 0.000000 0.035168
#
#
# Mechanical properties :
#
#
# Convention : Reuss Voigt Hill
#
# Bulk Modulus (GPa) = 22.63657 23.42810 23.03233
# Shear Modulus (GPa) = -4.63324 23.38118 9.37397
#
# Velocity S-wave (km/s) = -1.45899 3.27751 2.07526
# Velocity P-wave (km/s) = 2.74986 5.00863 4.04031
#
# Compressibility (1/GPa) = 0.04417631
#
# Stress axis : x y z
#
# Youngs Moduli (GPa) = 48.67282 62.56105 90.56855
#
# Poissons Ratio (x) = 0.13030 0.02637
# Poissons Ratio (y) = 0.10137 -0.06127
# Poissons Ratio (z) = 0.01417 -0.04232
#
# Static dielectric constant tensor:
#      x y z
#    x 1.928820 0.000000 0.000000 
#    y 0.000000 1.814350 0.000000 
#    z 0.000000 0.000000 2.549670 
# 
# From -- ./inp_files/2352.got.cif
#   From: 2010.05.17/outbox.cif.g08.bks.cpg/sg60_2_cif.got.tgz:2352.got - 2010.06.03 14:59:27.
