data_PCOD9453271
_publ_section_title
;
Structure prediction by ZEFSAII (Michael W. Deem and Ramdas Pophale) SiO2 
 PCOD9453271
Probable space group: P M M N
;
_chemical_formula_sum "Si O2"
_cell_formula_units_Z 64
_cell_length_a 17.760179
_cell_length_b 7.484050
_cell_length_c 24.311795
_cell_angle_alpha 90.000000
_cell_angle_beta 90.000000
_cell_angle_gamma 90.000000
_cell_volume 3231.476812
_symmetry_space_group_name_H-M "P M M N"
_symmetry_group_IT_number 59
_space_group.IT_coordinate_system_code '2'
_symmetry_cell_setting 'orthorhombic'
loop_
_space_group_symop_operation_xyz
x,y,z
1/2-x,1/2-y,z
1/2+x,-y,-z
-x,1/2+y,-z
-x,-y,-z
1/2+x,1/2+y,-z
1/2-x,y,z
x,1/2-y,z
loop_
_atom_site_type_symbol
_atom_site_label
_atom_site_fract_x
_atom_site_fract_y
_atom_site_fract_z
Si Si1 0.664046 0.530997 0.038418
Si Si2 0.834097 0.965251 0.567368
Si Si3 0.667149 0.965491 0.817989
Si Si4 0.433953 0.456953 0.865773
Si Si5 0.985960 0.464439 0.635364
Si Si6 0.414122 0.033902 0.072260
Si Si7 0.013330 0.960511 0.241547
Si Si8 0.424198 0.463216 0.534405
O O1 0.750000 0.478887 0.029146
O O2 0.661641 0.750000 0.038705
O O3 0.632356 0.466513 0.096886
O O4 0.612139 0.472983 0.987486
O O5 0.750000 0.028412 0.582478
O O6 0.831303 0.750000 0.565087
O O7 0.858699 0.030372 0.506160
O O8 0.903188 0.005474 0.608670
O O9 0.750000 0.030122 0.802586
O O10 0.667668 0.750000 0.816080
O O11 0.646090 0.015668 0.880556
O O12 0.599045 0.024980 0.779560
O O13 0.415082 0.250000 0.855258
O O14 0.506758 0.463014 0.905708
O O15 0.461282 0.536561 0.807659
O O16 0.993723 0.250000 0.637368
O O17 0.992547 0.535570 0.697187
O O18 0.051716 0.532493 0.594394
O O19 0.419327 0.250000 0.071596
O O20 0.995977 0.750000 0.244874
O O21 0.500000 0.500000 0.500000
O O22 0.413174 0.250000 0.539387
#
# Coordination Sequence:
#
# PCOD9453271 Si02
#       8
#     8   8   8   8   8   8   8   8
#     4   9  16  26  43  65  84 104 133 170 212 254
#     4   9  17  28  43  65  90 109 127 161 207 245
#     4   9  17  28  41  58  81 108 137 169 204 243
#     4   9  17  29  44  61  83 110 138 170 206 243
#     4   9  17  29  44  60  80 110 144 170 192 230
#     4   9  16  27  44  63  82 105 135 170 207 250
#     4   9  18  30  42  58  81 110 142 171 199 232
#     4   8  14  26  43  60  79 105 134 161 192 230
#
# _framework density 19.805187
#
# number of rings (size 3 to 8) (size 9 to 14) (size 15 to 20)
#    0.000    3.125    0.000    0.750    0.000    3.000 
#    0.000    2.500    0.000    3.000    0.000    5.250 
#    0.000    0.000    0.000   14.375    0.000   14.000 
#
# Total GULP energy -356531.647091 kJ/mol
# GULP energy per Si atom -5570.806986 kJ/mol
# Density = 1.976011 g / cm^3
# Si number density = 19.805187 Si / 1000 Ang^3
#
#
#
# Elastic Constant Matrix: (Units=GPa)
#
#
# Indices 1 2 3 4 5 6 
#
# 1 17.0902 -3.1407 22.8357 0.0000 0.0000 0.0000
# 2 -3.1407 56.6523 5.0749 0.0000 0.0000 0.0000
# 3 22.8357 5.0749 154.8868 0.0000 0.0000 0.0000
# 4 0.0000 0.0000 0.0000 6.8026 0.0000 0.0000
# 5 0.0000 0.0000 0.0000 0.0000 11.8531 0.0000
# 6 0.0000 0.0000 0.0000 0.0000 0.0000 3.7651
#
#
#
# Elastic Compliance Matrix: (Units=1/GPa)
#
#
# Indices 1 2 3 4 5 6 
#
# 1 0.074318 0.005117 -0.011125 0.000000 0.000000 0.000000
# 2 0.005117 0.018056 -0.001346 0.000000 0.000000 0.000000
# 3 -0.011125 -0.001346 0.008141 0.000000 0.000000 0.000000
# 4 0.000000 0.000000 0.000000 0.147002 0.000000 0.000000
# 5 0.000000 0.000000 0.000000 0.000000 0.084366 0.000000
# 6 0.000000 0.000000 0.000000 0.000000 0.000000 0.265595
#
#
# Mechanical properties :
#
#
# Convention : Reuss Voigt Hill
#
# Bulk Modulus (GPa) = 11.65417 30.90767 21.28092
# Shear Modulus (GPa) = 7.80290 18.07481 12.93885
#
# Velocity S-wave (km/s) = 1.98705 3.02425 2.55876
# Velocity P-wave (km/s) = 3.34091 5.27585 4.41567
#
# Compressibility (1/GPa) = 0.08580621
#
# Stress axis : x y z
#
# Youngs Moduli (GPa) = 13.45569 55.38396 122.84121
#
# Poissons Ratio (x) = -0.28338 1.36657
# Poissons Ratio (y) = -0.06885 0.16534
# Poissons Ratio (z) = 0.14969 0.07454
#
# Static dielectric constant tensor:
#      x y z
#    x 1.680640 0.000000 0.000000 
#    y 0.000000 1.778110 0.000000 
#    z 0.000000 0.000000 1.731300 
# 
# From -- ./inp_files/31760.got.cif
#   From: 2010.05.17/outbox.cif.g08.bks.cpg/sg59_16_cif.got.tgz:31760.got - 2010.06.03 14:40:33.
