data_PCOD9453166
_publ_section_title
;
Structure prediction by ZEFSAII (Michael W. Deem and Ramdas Pophale) SiO2 
 PCOD9453166
Probable space group: P M M N
;
_chemical_formula_sum "Si O2"
_cell_formula_units_Z 44
_cell_length_a 18.633866
_cell_length_b 14.771048
_cell_length_c 7.319325
_cell_angle_alpha 90.000000
_cell_angle_beta 90.000000
_cell_angle_gamma 90.000000
_cell_volume 2014.583669
_symmetry_space_group_name_H-M "P M M N"
_symmetry_group_IT_number 59
_space_group.IT_coordinate_system_code '2'
_symmetry_cell_setting 'orthorhombic'
loop_
_space_group_symop_operation_xyz
x,y,z
1/2-x,1/2-y,z
1/2+x,-y,-z
-x,1/2+y,-z
-x,-y,-z
1/2+x,1/2+y,-z
1/2-x,y,z
x,1/2-y,z
loop_
_atom_site_type_symbol
_atom_site_label
_atom_site_fract_x
_atom_site_fract_y
_atom_site_fract_z
Si Si1 0.857527 0.609927 0.895997
Si Si2 0.526964 0.144102 0.100345
Si Si3 0.333612 0.149422 0.679502
Si Si4 0.250000 0.250000 0.267035
Si Si5 0.250000 0.750000 0.147273
Si Si6 0.369127 0.905234 0.201619
Si Si7 0.078726 0.526073 0.571112
O O1 0.812619 0.671315 0.759068
O O2 0.844303 0.504151 0.864622
O O3 0.942695 0.625538 0.879443
O O4 0.835739 0.639206 0.100565
O O5 0.540360 0.250000 0.132723
O O6 0.569625 0.082042 0.243366
O O7 0.556160 0.117280 0.901042
O O8 0.250000 0.148096 0.623115
O O9 0.361946 0.250000 0.634447
O O10 0.377587 0.066148 0.600870
O O11 0.312553 0.829009 0.152447
O O12 0.382871 0.914019 0.417076
O O13 0.000000 0.500000 0.500000
#
# Coordination Sequence:
#
# PCOD9453166 Si02
#       7
#     8   8   8   2   2   8   8
#     4  12  21  44  76 105 145 186 239 303 364 430
#     4  12  25  47  78 109 140 195 252 301 372 433
#     4  11  23  45  72 110 148 189 241 299 372 442
#     4  12  22  38  72 114 134 186 234 294 364 432
#     4  12  30  50  74 108 154 208 240 310 370 442
#     4  12  27  50  72 110 149 191 254 303 362 439
#     4  12  27  47  75 109 147 193 246 311 364 437
#
# _framework density 21.840741999999999
#
# number of rings (size 3 to 8) (size 9 to 14) (size 15 to 20)
#    0.000    0.182    7.273    2.182    2.545    0.727 
#    1.636    0.909    0.000    0.000    0.000    0.000 
#    0.000    0.000    0.000    0.000    0.000    0.000 
#
# Total GULP energy -245548.812908 kJ/mol
# GULP energy per Si atom -5580.654839 kJ/mol
# Density = 2.179103 g / cm^3
# Si number density = 21.840742 Si / 1000 Ang^3
#
#
#
# Elastic Constant Matrix: (Units=GPa)
#
#
# Indices 1 2 3 4 5 6 
#
# 1 109.3222 67.7243 18.5741 0.0000 0.0000 0.0000
# 2 67.7243 211.2650 22.7554 0.0000 0.0000 0.0000
# 3 18.5741 22.7554 85.9409 0.0000 0.0000 0.0000
# 4 0.0000 0.0000 0.0000 -19.9122 0.0000 0.0000
# 5 0.0000 0.0000 0.0000 0.0000 -28.7503 0.0000
# 6 0.0000 0.0000 0.0000 0.0000 0.0000 50.2711
#
#
#
# Elastic Compliance Matrix: (Units=1/GPa)
#
#
# Indices 1 2 3 4 5 6 
#
# 1 0.011616 -0.003555 -0.001569 0.000000 0.000000 0.000000
# 2 -0.003555 0.005960 -0.000810 0.000000 0.000000 0.000000
# 3 -0.001569 -0.000810 0.012190 0.000000 0.000000 0.000000
# 4 0.000000 0.000000 0.000000 -0.050220 0.000000 0.000000
# 5 0.000000 0.000000 0.000000 0.000000 -0.034782 0.000000
# 6 0.000000 0.000000 0.000000 0.000000 0.000000 0.019892
#
#
# Mechanical properties :
#
#
# Convention : Reuss Voigt Hill
#
# Bulk Modulus (GPa) = 55.87237 69.40397 62.63817
# Shear Modulus (GPa) = -285.52972 20.15335 -132.68818
#
# Velocity S-wave (km/s) = -11.44624 3.04096 -7.80285
# Velocity P-wave (km/s) = 12.20866 6.64652 7.24138
#
# Compressibility (1/GPa) = 0.01789793
#
# Stress axis : x y z
#
# Youngs Moduli (GPa) = 86.08833 167.78191 82.03775
#
# Poissons Ratio (x) = 0.59641 0.12874
# Poissons Ratio (y) = 0.30601 0.06644
# Poissons Ratio (z) = 0.13510 0.13588
#
# Static dielectric constant tensor:
#      x y z
#    x 1.768520 0.000000 0.000000 
#    y 0.000000 1.800000 0.000000 
#    z 0.000000 0.000000 1.870180 
# 
# From -- ./inp_files/10218.got.cif
#   From: 2010.05.17/outbox.cif.g08.bks.cpg/sg59_6_cif.got.tgz:10218.got - 2010.06.03 14:40:33.
