data_PCOD9453955
_publ_section_title
;
Structure prediction by ZEFSAII (Michael W. Deem and Ramdas Pophale) SiO2 
 PCOD9453955
Probable space group: P B C N
;
_chemical_formula_sum "Si O2"
_cell_formula_units_Z 48
_cell_length_a 14.258215
_cell_length_b 34.321090
_cell_length_c 5.057136
_cell_angle_alpha 90.000000
_cell_angle_beta 90.000000
_cell_angle_gamma 90.000000
_cell_volume 2474.747330
_symmetry_space_group_name_H-M "P B C N"
_symmetry_group_IT_number 60
_symmetry_cell_setting 'orthorhombic'
loop_
_space_group_symop_operation_xyz
x,y,z
1/2-x,1/2-y,1/2+z
1/2+x,1/2-y,-z
-x,y,1/2-z
-x,-y,-z
1/2+x,1/2+y,1/2-z
1/2-x,1/2+y,z
x,-y,1/2+z
loop_
_atom_site_type_symbol
_atom_site_label
_atom_site_fract_x
_atom_site_fract_y
_atom_site_fract_z
Si Si1 0.000000 0.541053 0.250000
Si Si2 0.700301 0.355770 0.589659
Si Si3 0.799385 0.233585 0.899351
Si Si4 0.500000 0.905736 0.250000
Si Si5 0.796428 0.390192 0.087040
Si Si6 0.500000 0.661531 0.250000
Si Si7 0.500000 0.716848 0.750000
Si Si8 0.296689 0.978535 0.613354
O O1 0.909826 0.518304 0.353559
O O2 0.029797 0.568207 0.497225
O O3 0.705834 0.311071 0.495047
O O4 0.736122 0.381687 0.347396
O O5 0.591970 0.362329 0.669562
O O6 0.762962 0.363377 0.846612
O O7 0.762391 0.259448 0.139991
O O8 0.907902 0.240814 0.826316
O O9 0.405964 0.884082 0.341981
O O10 0.783121 0.434700 0.987474
O O11 0.524426 0.689223 0.499871
O O12 0.260479 0.009407 0.399783
#
# Coordination Sequence:
#
# PCOD9453955 Si02
#       8
#     4   8   8   4   8   4   4   8
#     4  10  18  31  50  75 106 151 204 242 268 309
#     4  11  22  39  62  87 112 145 191 243 289 331
#     4  11  22  39  63  90 118 151 187 233 284 336
#     4  10  20  35  52  77 120 161 186 224 274 333
#     4  11  22  37  56  83 117 155 190 230 280 342
#     4  10  20  38  64  89 106 136 192 260 296 308
#     4  10  20  38  62  89 116 144 186 242 284 318
#     4  11  20  32  51  79 110 148 191 236 278 328
#
# _framework density 19.39592
#
# number of rings (size 3 to 8) (size 9 to 14) (size 15 to 20)
#    0.000    1.333    0.000   10.500    0.000    0.667 
#    0.000    3.333    0.000    4.000    0.000   11.667 
#    0.000    0.000    0.000    0.000    0.000    0.000 
#
# Total GULP energy -268171.231669 kJ/mol
# GULP energy per Si atom -5586.900660 kJ/mol
# Density = 1.935177 g / cm^3
# Si number density = 19.395920 Si / 1000 Ang^3
#
#
#
# Elastic Constant Matrix: (Units=GPa)
#
#
# Indices 1 2 3 4 5 6 
#
# 1 130.3580 55.1683 71.3369 0.0000 0.0000 0.0000
# 2 55.1683 39.6085 28.4220 0.0000 0.0000 0.0000
# 3 71.3369 28.4220 161.0233 0.0000 0.0000 0.0000
# 4 0.0000 0.0000 0.0000 50.2412 0.0000 0.0000
# 5 0.0000 0.0000 0.0000 0.0000 36.8376 0.0000
# 6 0.0000 0.0000 0.0000 0.0000 0.0000 15.5737
#
#
#
# Elastic Compliance Matrix: (Units=1/GPa)
#
#
# Indices 1 2 3 4 5 6 
#
# 1 0.021575 -0.026556 -0.004871 0.000000 0.000000 0.000000
# 2 -0.026556 0.061594 0.000893 0.000000 0.000000 0.000000
# 3 -0.004871 0.000893 0.008211 0.000000 0.000000 0.000000
# 4 0.000000 0.000000 0.000000 0.019904 0.000000 0.000000
# 5 0.000000 0.000000 0.000000 0.000000 0.027146 0.000000
# 6 0.000000 0.000000 0.000000 0.000000 0.000000 0.064211
#
#
# Mechanical properties :
#
#
# Convention : Reuss Voigt Hill
#
# Bulk Modulus (GPa) = 32.98972 71.20493 52.09733
# Shear Modulus (GPa) = 18.26063 32.26800 25.26432
#
# Velocity S-wave (km/s) = 3.07166 4.08321 3.61301
# Velocity P-wave (km/s) = 5.44295 7.68252 6.65758
#
# Compressibility (1/GPa) = 0.03031247
#
# Stress axis : x y z
#
# Youngs Moduli (GPa) = 46.34924 16.23530 121.79271
#
# Poissons Ratio (x) = 0.43114 0.59326
# Poissons Ratio (y) = 1.23083 -0.10874
# Poissons Ratio (z) = 0.22577 -0.01450
#
# Static dielectric constant tensor:
#      x y z
#    x 1.687240 0.000000 0.000000 
#    y 0.000000 1.673070 0.000000 
#    z 0.000000 0.000000 1.706770 
# 
# From -- ./inp_files/1453.got.cif
#   From: 2010.05.17/outbox.cif.g08.bks.cpg/sg60_1_cif.got.tgz:1453.got - 2010.06.03 14:59:27.
