data_PCOD9453723
_publ_section_title
;
Structure prediction by ZEFSAII (Michael W. Deem and Ramdas Pophale) SiO2 
 PCOD9453723
Probable space group: P B C N
;
_chemical_formula_sum "Si O2"
_cell_formula_units_Z 40
_cell_length_a 11.219867
_cell_length_b 26.770410
_cell_length_c 5.282705
_cell_angle_alpha 90.000000
_cell_angle_beta 90.000000
_cell_angle_gamma 90.000000
_cell_volume 1586.715597
_symmetry_space_group_name_H-M "P B C N"
_symmetry_group_IT_number 60
_symmetry_cell_setting 'orthorhombic'
loop_
_space_group_symop_operation_xyz
x,y,z
1/2-x,1/2-y,1/2+z
1/2+x,1/2-y,-z
-x,y,1/2-z
-x,-y,-z
1/2+x,1/2+y,1/2-z
1/2-x,1/2+y,z
x,-y,1/2+z
loop_
_atom_site_type_symbol
_atom_site_label
_atom_site_fract_x
_atom_site_fract_y
_atom_site_fract_z
Si Si1 0.360081 0.202697 0.892605
Si Si2 0.835458 0.532338 0.014265
Si Si3 0.554497 0.555588 0.002729
Si Si4 0.122935 0.192718 0.626928
Si Si5 0.655026 0.855262 0.594484
O O1 0.216478 0.207837 0.847249
O O2 0.398697 0.181112 0.619889
O O3 0.400829 0.257491 0.966592
O O4 0.371722 0.164201 0.125821
O O5 0.862490 0.497089 0.255004
O O6 0.886415 0.588167 0.045409
O O7 0.694229 0.544750 0.010081
O O8 0.500000 0.578261 0.750000
O O9 0.500000 0.581150 0.250000
O O10 0.500000 0.500000 0.000000
O O11 0.202463 0.152985 0.466884
O O12 0.000000 0.177769 0.750000
#
# Coordination Sequence:
#
# PCOD9453723 Si02
#       5
#     8   8   8   8   8
#     4  10  20  42  56  85 122 146 185 262 289 345
#     4  12  21  33  49  71 104 155 202 224 274 331
#     4  10  16  29  40  56  87 130 182 230 265 277
#     4  10  21  40  65  87 115 162 192 235 316 362
#     4  10  22  38  53  81 121 153 192 250 286 332
#
# _framework density 25.209306000000002
#
# number of rings (size 3 to 8) (size 9 to 14) (size 15 to 20)
#    1.200    0.400    6.000    1.200    0.000    1.600 
#    3.600    0.000    0.000    0.000    0.000    0.000 
#    0.000   16.000    0.000    0.000    0.000    0.000 
#
# Total GULP energy -223683.954884 kJ/mol
# GULP energy per Si atom -5592.098872 kJ/mol
# Density = 2.515193 g / cm^3
# Si number density = 25.209306 Si / 1000 Ang^3
#
#
#
# Elastic Constant Matrix: (Units=GPa)
#
#
# Indices 1 2 3 4 5 6 
#
# 1 102.6324 7.3409 28.3399 0.0000 0.0000 0.0000
# 2 7.3409 198.4867 58.8964 0.0000 0.0000 0.0000
# 3 28.3399 58.8964 209.4725 0.0000 0.0000 0.0000
# 4 0.0000 0.0000 0.0000 37.9820 0.0000 0.0000
# 5 0.0000 0.0000 0.0000 0.0000 27.9825 0.0000
# 6 0.0000 0.0000 0.0000 0.0000 0.0000 27.1072
#
#
#
# Elastic Compliance Matrix: (Units=1/GPa)
#
#
# Indices 1 2 3 4 5 6 
#
# 1 0.010122 0.000035 -0.001379 0.000000 0.000000 0.000000
# 2 0.000035 0.005497 -0.001550 0.000000 0.000000 0.000000
# 3 -0.001379 -0.001550 0.005396 0.000000 0.000000 0.000000
# 4 0.000000 0.000000 0.000000 0.026328 0.000000 0.000000
# 5 0.000000 0.000000 0.000000 0.000000 0.035737 0.000000
# 6 0.000000 0.000000 0.000000 0.000000 0.000000 0.036891
#
#
# Mechanical properties :
#
#
# Convention : Reuss Voigt Hill
#
# Bulk Modulus (GPa) = 65.67738 77.74956 71.71347
# Shear Modulus (GPa) = 38.21608 46.34863 42.28236
#
# Velocity S-wave (km/s) = 3.89775 4.29249 4.09987
# Velocity P-wave (km/s) = 6.80926 7.44821 7.13589
#
# Compressibility (1/GPa) = 0.01522594
#
# Stress axis : x y z
#
# Youngs Moduli (GPa) = 98.79608 181.92310 185.30989
#
# Poissons Ratio (x) = -0.00635 0.25558
# Poissons Ratio (y) = -0.00345 0.28727
# Poissons Ratio (z) = 0.13626 0.28202
#
# Static dielectric constant tensor:
#      x y z
#    x 2.155560 0.000000 0.000000 
#    y 0.000000 1.871910 0.000000 
#    z 0.000000 0.000000 2.080680 
# 
# From -- ./inp_files/1259.got.cif
#   From: 2010.05.17/outbox.cif.g08.bks.cpg/sg60_1_cif.got.tgz:1259.got - 2010.06.03 14:59:27.
