data_PCOD9453165
_publ_section_title
;
Structure prediction by ZEFSAII (Michael W. Deem and Ramdas Pophale) SiO2 
 PCOD9453165
Probable space group: P M M N
;
_chemical_formula_sum "Si O2"
_cell_formula_units_Z 38
_cell_length_a 9.309403
_cell_length_b 11.030751
_cell_length_c 17.293116
_cell_angle_alpha 90.000000
_cell_angle_beta 90.000000
_cell_angle_gamma 90.000000
_cell_volume 1775.825006
_symmetry_space_group_name_H-M "P M M N"
_symmetry_group_IT_number 59
_space_group.IT_coordinate_system_code '2'
_symmetry_cell_setting 'orthorhombic'
loop_
_space_group_symop_operation_xyz
x,y,z
1/2-x,1/2-y,z
1/2+x,-y,-z
-x,1/2+y,-z
-x,-y,-z
1/2+x,1/2+y,-z
1/2-x,y,z
x,1/2-y,z
loop_
_atom_site_type_symbol
_atom_site_label
_atom_site_fract_x
_atom_site_fract_y
_atom_site_fract_z
Si Si1 0.750000 0.750000 0.927358
Si Si2 0.250000 0.474261 0.960514
Si Si3 0.417293 0.750000 0.429331
Si Si4 0.416848 0.750000 0.615130
Si Si5 0.040713 0.487581 0.819092
Si Si6 0.581082 0.250000 0.145951
Si Si7 0.916522 0.973908 0.352954
Si Si8 0.750000 0.107469 0.885049
O O1 0.583107 0.750000 0.892629
O O2 0.750000 0.634492 0.980870
O O3 0.120555 0.463936 0.900439
O O4 0.250000 0.583390 0.022248
O O5 0.250000 0.750000 0.405021
O O6 0.422795 0.750000 0.522156
O O7 0.493935 0.627570 0.398617
O O8 0.250000 0.750000 0.641460
O O9 0.473238 0.885854 0.638845
O O10 0.074375 0.628098 0.806718
O O11 0.081537 0.431698 0.737296
O O12 0.882333 0.453372 0.842169
O O13 0.750000 0.250000 0.112616
O O14 0.750000 0.974844 0.379312
O O15 0.750000 0.250000 0.872778
#
# Coordination Sequence:
#
# PCOD9453165 Si02
#       8
#     2   4   4   4   8   4   8   4
#     4  12  28  44  64 100 136 178 244 300 350 426
#     4  12  26  46  66 100 135 183 244 295 348 420
#     4  11  25  43  72 106 146 179 223 278 342 426
#     4   9  21  45  74 108 137 177 231 282 337 413
#     4  12  26  44  70 101 138 182 240 288 355 418
#     4  12  23  46  72  96 135 181 237 299 362 413
#     4  11  23  44  72 103 141 185 228 283 347 415
#     4  12  30  46  68  98 141 187 234 304 358 411
#
# _framework density 21.398505
#
# number of rings (size 3 to 8) (size 9 to 14) (size 15 to 20)
#    0.000    0.632    4.211    2.211    5.895    0.842 
#    0.000    1.579    0.000    0.000    0.000    0.000 
#    0.000    0.000    0.000    0.000    0.000    0.000 
#
# Total GULP energy -211551.869401 kJ/mol
# GULP energy per Si atom -5567.154458 kJ/mol
# Density = 2.134980 g / cm^3
# Si number density = 21.398505 Si / 1000 Ang^3
#
#
#
# Elastic Constant Matrix: (Units=GPa)
#
#
# Indices 1 2 3 4 5 6 
#
# 1 151.9218 51.9102 33.2121 0.0000 0.0000 0.0000
# 2 51.9102 107.3379 29.8367 0.0000 0.0000 0.0000
# 3 33.2121 29.8367 95.1362 0.0000 0.0000 0.0000
# 4 0.0000 0.0000 0.0000 -20.2573 0.0000 0.0000
# 5 0.0000 0.0000 0.0000 0.0000 32.6114 0.0000
# 6 0.0000 0.0000 0.0000 0.0000 0.0000 34.7887
#
#
#
# Elastic Compliance Matrix: (Units=1/GPa)
#
#
# Indices 1 2 3 4 5 6 
#
# 1 0.008146 -0.003450 -0.001762 0.000000 0.000000 0.000000
# 2 -0.003450 0.011667 -0.002455 0.000000 0.000000 0.000000
# 3 -0.001762 -0.002455 0.011896 0.000000 0.000000 0.000000
# 4 0.000000 0.000000 0.000000 -0.049365 0.000000 0.000000
# 5 0.000000 0.000000 0.000000 0.000000 0.030664 0.000000
# 6 0.000000 0.000000 0.000000 0.000000 0.000000 0.028745
#
#
# Mechanical properties :
#
#
# Convention : Reuss Voigt Hill
#
# Bulk Modulus (GPa) = 61.06284 64.92378 62.99331
# Shear Modulus (GPa) = 79.94164 25.39102 52.66633
#
# Velocity S-wave (km/s) = 6.11879 3.44841 4.96645
# Velocity P-wave (km/s) = 8.86101 6.80159 7.89870
#
# Compressibility (1/GPa) = 0.01637657
#
# Stress axis : x y z
#
# Youngs Moduli (GPa) = 122.75482 85.71087 84.06062
#
# Poissons Ratio (x) = 0.29570 0.14811
# Poissons Ratio (y) = 0.42349 0.20634
# Poissons Ratio (z) = 0.21628 0.21039
#
# Static dielectric constant tensor:
#      x y z
#    x 1.698360 0.000000 0.000000 
#    y 0.000000 -0.409850 0.000000 
#    z 0.000000 0.000000 1.788290 
# 
# From -- ./inp_files/25304.got.cif
#   From: 2010.05.17/outbox.cif.g08.bks.cpg/sg59_13_cif.got.tgz:25304.got - 2010.06.03 14:40:33.
