data_PCOD9453540
_publ_section_title
;
Structure prediction by ZEFSAII (Michael W. Deem and Ramdas Pophale) SiO2 
 PCOD9453540
Probable space group: P M M N
;
_chemical_formula_sum "Si O2"
_cell_formula_units_Z 56
_cell_length_a 21.000000
_cell_length_b 9.000000
_cell_length_c 15.000000
_cell_angle_alpha 90.000000
_cell_angle_beta 90.000000
_cell_angle_gamma 90.000000
_cell_volume 2835.000000
_symmetry_space_group_name_H-M "P M M N"
_symmetry_group_IT_number 59
_space_group.IT_coordinate_system_code '2'
_symmetry_cell_setting 'orthorhombic'
loop_
_space_group_symop_operation_xyz
x,y,z
1/2-x,1/2-y,z
1/2+x,-y,-z
-x,1/2+y,-z
-x,-y,-z
1/2+x,1/2+y,-z
1/2-x,y,z
x,1/2-y,z
loop_
_atom_site_type_symbol
_atom_site_label
_atom_site_fract_x
_atom_site_fract_y
_atom_site_fract_z
Si Si1 0.177832 0.924865 0.637867
Si Si2 0.558903 0.923823 0.276832
Si Si3 0.910617 0.574508 0.861600
Si Si4 0.176933 0.074171 0.980747
Si Si5 0.577982 0.422800 0.673735
Si Si6 0.547911 0.075648 0.091218
Si Si7 0.178935 0.076914 0.448574
O O1 0.250000 0.949007 0.672048
O O2 0.162632 0.750000 0.648421
O O3 0.125851 0.029686 0.682581
O O4 0.177677 0.971814 0.534635
O O5 0.558595 0.750000 0.247288
O O6 0.497963 0.940273 0.341872
O O7 0.547055 0.037401 0.196617
O O8 0.918040 0.750000 0.838438
O O9 0.911403 0.470139 0.776278
O O10 0.971823 0.534596 0.924964
O O11 0.845274 0.559453 0.916376
O O12 0.250000 0.022233 0.965257
O O13 0.175071 0.250000 0.958739
O O14 0.116342 0.997283 0.933726
O O15 0.594185 0.250000 0.660116
O O16 0.622718 0.526359 0.615367
O O17 0.552471 0.250000 0.069422
O O18 0.250000 0.062602 0.407500
O O19 0.171562 0.250000 0.474832
#
# Coordination Sequence:
#
# PCOD9453540 Si02
#       7
#     8   8   8   8   8   8   8
#     4  10  21  37  57  81 109 141 179 224 271 317
#     4  10  21  37  57  81 109 142 180 220 266 322
#     4   9  19  36  56  78 106 141 179 218 264 319
#     4  10  21  36  54  78 108 140 175 217 265 318
#     4  10  21  36  56  83 111 140 178 224 270 315
#     4  10  20  35  56  79 105 139 178 221 266 313
#     4  10  21  37  57  80 108 145 184 219 263 321
#
# _framework density 19.753086
#
# number of rings (size 3 to 8) (size 9 to 14) (size 15 to 20)
#    0.000    2.143    0.000    2.571    0.000    6.571 
#    0.000    1.429    0.000    0.000    0.000    0.000 
#    0.000    0.000    0.000    0.000    0.000    0.000 
#
# Total GULP energy -311901.788491 kJ/mol
# GULP energy per Si atom -5569.674794 kJ/mol
# Density = 1.970813 g / cm^3
# Si number density = 19.753086 Si / 1000 Ang^3
#
#
#
# Elastic Constant Matrix: (Units=GPa)
#
#
# Indices 1 2 3 4 5 6 
#
# 1 97.2402 -17.1754 -37.0478 0.0000 0.0000 0.0000
# 2 -17.1754 -16.5473 -87.3657 0.0000 0.0000 0.0000
# 3 -37.0478 -87.3657 -117.8821 0.0000 0.0000 0.0000
# 4 0.0000 0.0000 0.0000 10.9594 0.0000 0.0000
# 5 0.0000 0.0000 0.0000 0.0000 23.7826 0.0000
# 6 0.0000 0.0000 0.0000 0.0000 0.0000 28.4601
#
#
#
# Elastic Compliance Matrix: (Units=1/GPa)
#
#
# Indices 1 2 3 4 5 6 
#
# 1 0.009373 -0.001999 -0.001464 0.000000 0.000000 0.000000
# 2 -0.001999 0.021173 -0.015063 0.000000 0.000000 0.000000
# 3 -0.001464 -0.015063 0.003141 0.000000 0.000000 0.000000
# 4 0.000000 0.000000 0.000000 0.091246 0.000000 0.000000
# 5 0.000000 0.000000 0.000000 0.000000 0.042048 0.000000
# 6 0.000000 0.000000 0.000000 0.000000 0.000000 0.035137
#
#
# Mechanical properties :
#
#
# Convention : Reuss Voigt Hill
#
# Bulk Modulus (GPa) = -297.02544 -35.59633 -166.31088
# Shear Modulus (GPa) = 21.00424 19.60041 20.30233
#
# Velocity S-wave (km/s) = 3.26443 3.15345 3.20942
# Velocity P-wave (km/s) = 11.68276 2.19106 8.40499
#
# Compressibility (1/GPa) = -0.00336671
#
# Stress axis : x y z
#
# Youngs Moduli (GPa) = 106.69039 47.23098 318.38837
#
# Poissons Ratio (x) = 0.09443 0.46611
# Poissons Ratio (y) = 0.21331 4.79596
# Poissons Ratio (z) = 0.15619 0.71145
#
# Static dielectric constant tensor:
#      x y z
#    x 1.724190 0.000000 0.000000 
#    y 0.000000 1.670050 0.000000 
#    z 0.000000 0.000000 1.743830 
# 
# From -- ./inp_files/21069.got.cif
#   From: 2010.05.17/outbox.ucp.g08.bks.cvg/sg59_11_cif.got.tgz:21069.got - 2010.06.11 16:43:56.
