data_PCOD9453106
_publ_section_title
;
Structure prediction by ZEFSAII (Michael W. Deem and Ramdas Pophale) SiO2 
 PCOD9453106
Probable space group: P M M N
;
_chemical_formula_sum "Si O2"
_cell_formula_units_Z 32
_cell_length_a 7.500349
_cell_length_b 13.213732
_cell_length_c 15.265559
_cell_angle_alpha 90.000000
_cell_angle_beta 90.000000
_cell_angle_gamma 90.000000
_cell_volume 1512.932939
_symmetry_space_group_name_H-M "P M M N"
_symmetry_group_IT_number 59
_space_group.IT_coordinate_system_code '2'
_symmetry_cell_setting 'orthorhombic'
loop_
_space_group_symop_operation_xyz
x,y,z
1/2-x,1/2-y,z
1/2+x,-y,-z
-x,1/2+y,-z
-x,-y,-z
1/2+x,1/2+y,-z
1/2-x,y,z
x,1/2-y,z
loop_
_atom_site_type_symbol
_atom_site_label
_atom_site_fract_x
_atom_site_fract_y
_atom_site_fract_z
Si Si1 0.466686 0.139684 0.557940
Si Si2 0.250000 0.632881 0.155866
Si Si3 0.043214 0.422974 0.369056
Si Si4 0.046396 0.444997 0.179320
Si Si5 0.250000 0.868426 0.945698
O O1 0.250000 0.133423 0.557355
O O2 0.518337 0.250000 0.591960
O O3 0.534084 0.042531 0.609496
O O4 0.529591 0.128494 0.456754
O O5 0.250000 0.750000 0.180364
O O6 0.081471 0.565993 0.187250
O O7 0.250000 0.623378 0.050239
O O8 0.250000 0.392781 0.363153
O O9 0.970116 0.405759 0.271891
O O10 0.250000 0.405834 0.166131
O O11 0.921628 0.418254 0.099259
O O12 0.250000 0.750000 0.923517
#
# Coordination Sequence:
#
# PCOD9453106 Si02
#       5
#     8   4   8   8   4
#     4   9  18  31  50  73 104 141 176 219 269 320
#     4   9  20  40  61  86 117 148 189 236 284 345
#     4   9  18  34  51  75 105 140 178 223 266 326
#     4   9  21  37  61  83 117 153 183 238 287 333
#     4  11  22  38  61  88 115 148 193 234 282 351
#
# _framework density 21.150971999999999
#
# number of rings (size 3 to 8) (size 9 to 14) (size 15 to 20)
#    0.750    2.000    0.000    0.750    1.750    3.000 
#    0.000    3.125    0.000    0.000    0.000    0.000 
#    0.000    0.000    0.000    0.000    0.000    0.000 
#
# Total GULP energy -178327.853010 kJ/mol
# GULP energy per Si atom -5572.745407 kJ/mol
# Density = 2.110283 g / cm^3
# Si number density = 21.150972 Si / 1000 Ang^3
#
#
#
# Elastic Constant Matrix: (Units=GPa)
#
#
# Indices 1 2 3 4 5 6 
#
# 1 66.5947 -3.5437 11.3168 0.0000 0.0000 0.0000
# 2 -3.5437 59.2516 -11.1007 0.0000 0.0000 0.0000
# 3 11.3168 -11.1007 71.8292 0.0000 0.0000 0.0000
# 4 0.0000 0.0000 0.0000 -2.5275 0.0000 0.0000
# 5 0.0000 0.0000 0.0000 0.0000 307.9523 0.0000
# 6 0.0000 0.0000 0.0000 0.0000 0.0000 17.7579
#
#
#
# Elastic Compliance Matrix: (Units=1/GPa)
#
#
# Indices 1 2 3 4 5 6 
#
# 1 0.015443 0.000482 -0.002359 0.000000 0.000000 0.000000
# 2 0.000482 0.017395 0.002612 0.000000 0.000000 0.000000
# 3 -0.002359 0.002612 0.014697 0.000000 0.000000 0.000000
# 4 0.000000 0.000000 0.000000 -0.395641 0.000000 0.000000
# 5 0.000000 0.000000 0.000000 0.000000 0.003247 0.000000
# 6 0.000000 0.000000 0.000000 0.000000 0.000000 0.056313
#
#
# Mechanical properties :
#
#
# Convention : Reuss Voigt Hill
#
# Bulk Modulus (GPa) = 20.40545 21.22448 20.81497
# Shear Modulus (GPa) = -18.26945 78.03673 29.88364
#
# Velocity S-wave (km/s) = -2.94217 6.08072 3.76290
# Velocity P-wave (km/s) = 1.36872 7.70434 5.36113
#
# Compressibility (1/GPa) = 0.04900650
#
# Stress axis : x y z
#
# Youngs Moduli (GPa) = 64.75575 57.48635 68.03993
#
# Poissons Ratio (x) = -0.02769 0.16048
# Poissons Ratio (y) = -0.03119 -0.17775
# Poissons Ratio (z) = 0.15273 -0.15018
#
# Static dielectric constant tensor:
#      x y z
#    x 1.769980 0.000000 0.000000 
#    y 0.000000 1.784750 0.000000 
#    z 0.000000 0.000000 1.762740 
# 
# From -- ./inp_files/19727.got.cif
#   From: 2010.05.17/outbox.cif.g08.bks.cpg/sg59_10_cif.got.tgz:19727.got - 2010.06.03 14:40:33.
