data_PCOD9453224
_publ_section_title
;
Structure prediction by ZEFSAII (Michael W. Deem and Ramdas Pophale) SiO2 
 PCOD9453224
Probable space group: P M M N
;
_chemical_formula_sum "Si O2"
_cell_formula_units_Z 48
_cell_length_a 13.335548
_cell_length_b 11.338451
_cell_length_c 12.407397
_cell_angle_alpha 90.000000
_cell_angle_beta 90.000000
_cell_angle_gamma 90.000000
_cell_volume 1876.053733
_symmetry_space_group_name_H-M "P M M N"
_symmetry_group_IT_number 59
_space_group.IT_coordinate_system_code '2'
_symmetry_cell_setting 'orthorhombic'
loop_
_space_group_symop_operation_xyz
x,y,z
1/2-x,1/2-y,z
1/2+x,-y,-z
-x,1/2+y,-z
-x,-y,-z
1/2+x,1/2+y,-z
1/2-x,y,z
x,1/2-y,z
loop_
_atom_site_type_symbol
_atom_site_label
_atom_site_fract_x
_atom_site_fract_y
_atom_site_fract_z
Si Si1 0.079995 0.623169 0.558063
Si Si2 0.067542 0.622617 0.929364
Si Si3 0.143687 0.121460 0.197279
Si Si4 0.860991 0.618273 0.479982
Si Si5 0.899581 0.377558 0.698403
Si Si6 0.936341 0.878428 0.136047
O O1 0.108855 0.750000 0.606850
O O2 0.128631 0.500258 0.591987
O O3 0.105013 0.627277 0.430481
O O4 0.959012 0.613791 0.556910
O O5 0.116111 0.750000 0.908063
O O6 0.118269 0.500878 0.892146
O O7 0.959369 0.622338 0.868787
O O8 0.032526 0.619047 0.053648
O O9 0.250000 0.120773 0.134178
O O10 0.143117 0.250000 0.255017
O O11 0.144800 0.999813 0.261778
O O12 0.750000 0.611621 0.529856
O O13 0.866388 0.750000 0.430339
O O14 0.859037 0.250000 0.736132
O O15 0.011682 0.380583 0.747572
O O16 0.887019 0.750000 0.119945
#
# Coordination Sequence:
#
# PCOD9453224 Si02
#       6
#     8   8   8   8   8   8
#     4   9  18  32  49  70  95 120 148 184 225 271
#     4   8  13  22  36  52  71  98 133 169 201 237
#     4   9  17  27  38  55  82 115 147 179 217 258
#     4   9  18  33  52  71  91 118 151 185 222 267
#     4   9  17  28  42  61  85 111 139 174 215 259
#     4   8  13  22  37  55  73  96 129 167 204 241
#
# _framework density 25.585621
#
# number of rings (size 3 to 8) (size 9 to 14) (size 15 to 20)
#    0.000    3.333    0.000    0.000    0.000    2.000 
#    0.000    3.333    0.000    1.000    0.000    7.000 
#    0.000    0.000    0.000   31.000    0.000   28.667 
#
# Total GULP energy -267319.626152 kJ/mol
# GULP energy per Si atom -5569.158878 kJ/mol
# Density = 2.552739 g / cm^3
# Si number density = 25.585621 Si / 1000 Ang^3
#
#
#
# Elastic Constant Matrix: (Units=GPa)
#
#
# Indices 1 2 3 4 5 6 
#
# 1 75.0895 35.1578 14.4105 0.0000 0.0000 0.0000
# 2 35.1578 329.5569 24.6598 0.0000 0.0000 0.0000
# 3 14.4105 24.6598 48.5358 0.0000 0.0000 0.0000
# 4 0.0000 0.0000 0.0000 30.7964 0.0000 0.0000
# 5 0.0000 0.0000 0.0000 0.0000 0.0213 0.0000
# 6 0.0000 0.0000 0.0000 0.0000 0.0000 7.9051
#
#
#
# Elastic Compliance Matrix: (Units=1/GPa)
#
#
# Indices 1 2 3 4 5 6 
#
# 1 0.014627 -0.001284 -0.003690 0.000000 0.000000 0.000000
# 2 -0.001284 0.003267 -0.001279 0.000000 0.000000 0.000000
# 3 -0.003690 -0.001279 0.022349 0.000000 0.000000 0.000000
# 4 0.000000 0.000000 0.000000 0.032471 0.000000 0.000000
# 5 0.000000 0.000000 0.000000 0.000000 46.929811 0.000000
# 6 0.000000 0.000000 0.000000 0.000000 0.000000 0.126501
#
#
# Mechanical properties :
#
#
# Convention : Reuss Voigt Hill
#
# Bulk Modulus (GPa) = 36.05387 66.84873 51.45130
# Shear Modulus (GPa) = 0.10604 33.00816 16.55710
#
# Velocity S-wave (km/s) = 0.20380 3.59570 2.54663
# Velocity P-wave (km/s) = 3.76529 6.58961 5.36658
#
# Compressibility (1/GPa) = 0.02773628
#
# Stress axis : x y z
#
# Youngs Moduli (GPa) = 68.36684 306.08534 44.74544
#
# Poissons Ratio (x) = 0.39311 0.16512
# Poissons Ratio (y) = 0.08780 0.05721
# Poissons Ratio (z) = 0.25229 0.39136
#
# Static dielectric constant tensor:
#      x y z
#    x 1.971300 0.000000 0.000000 
#    y 0.000000 2.139660 0.000000 
#    z 0.000000 0.000000 2.059080 
# 
# From -- ./inp_files/26901.got.cif
#   From: 2010.05.17/outbox.cif.g08.bks.cpg/sg59_14_cif.got.tgz:26901.got - 2010.06.03 14:40:33.
