data_PCOD9453462
_publ_section_title
;
Structure prediction by ZEFSAII (Michael W. Deem and Ramdas Pophale) SiO2 
 PCOD9453462
Probable space group: P M M N
;
_chemical_formula_sum "Si O2"
_cell_formula_units_Z 40
_cell_length_a 9.000000
_cell_length_b 9.000000
_cell_length_c 27.000000
_cell_angle_alpha 90.000000
_cell_angle_beta 90.000000
_cell_angle_gamma 90.000000
_cell_volume 2187.000000
_symmetry_space_group_name_H-M "P M M N"
_symmetry_group_IT_number 59
_space_group.IT_coordinate_system_code '2'
_symmetry_cell_setting 'orthorhombic'
loop_
_space_group_symop_operation_xyz
x,y,z
1/2-x,1/2-y,z
1/2+x,-y,-z
-x,1/2+y,-z
-x,-y,-z
1/2+x,1/2+y,-z
1/2-x,y,z
x,1/2-y,z
loop_
_atom_site_type_symbol
_atom_site_label
_atom_site_fract_x
_atom_site_fract_y
_atom_site_fract_z
Si Si1 0.575890 0.071656 0.546808
Si Si2 0.571777 0.575779 0.046809
Si Si3 0.571036 0.918662 0.753776
Si Si4 0.577791 0.928944 0.154791
Si Si5 0.068600 0.922287 0.345235
O O1 0.750000 0.035876 0.544742
O O2 0.561130 0.250000 0.545411
O O3 0.517739 0.022977 0.600851
O O4 0.500000 0.000000 0.500000
O O5 0.750000 0.560739 0.045253
O O6 0.536470 0.750000 0.044752
O O7 0.523115 0.517799 0.100835
O O8 0.500000 0.500000 0.000000
O O9 0.750000 0.921587 0.752767
O O10 0.521031 0.750000 0.759446
O O11 0.515332 0.012803 0.799755
O O12 0.517822 0.984960 0.701655
O O13 0.750000 0.973724 0.160644
O O14 0.574588 0.750000 0.153782
O O15 0.250000 0.925375 0.346398
O O16 0.026218 0.750000 0.339062
#
# Coordination Sequence:
#
# PCOD9453462 Si02
#       5
#     8   8   8   8   8
#     4   9  18  32  50  73  99 127 162 202 242 287
#     4   9  19  35  53  74 100 129 163 202 241 284
#     4  10  20  32  49  76 103 125 157 202 247 290
#     4   9  19  36  54  71  96 132 168 199 237 287
#     4   8  15  30  50  69  93 128 166 201 238 283
#
# _framework density 18.289895000000001
#
# number of rings (size 3 to 8) (size 9 to 14) (size 15 to 20)
#    0.000    3.000    0.000    3.000    0.000    4.800 
#    0.000    9.000    0.000    1.200    0.000    0.000 
#    0.000    0.000    0.000    0.000    0.000    0.000 
#
# Total GULP energy -222807.266770 kJ/mol
# GULP energy per Si atom -5570.181669 kJ/mol
# Density = 1.824827 g / cm^3
# Si number density = 18.289895 Si / 1000 Ang^3
#
#
#
# Elastic Constant Matrix: (Units=GPa)
#
#
# Indices 1 2 3 4 5 6 
#
# 1 -0.7451 17.3349 32.3035 0.0000 0.0000 0.0000
# 2 17.3349 19.1702 45.9617 0.0000 0.0000 0.0000
# 3 32.3035 45.9617 175.1116 0.0000 0.0000 0.0000
# 4 0.0000 0.0000 0.0000 32.8329 0.0000 0.0000
# 5 0.0000 0.0000 0.0000 0.0000 27.6230 0.0000
# 6 0.0000 0.0000 0.0000 0.0000 0.0000 21.6484
#
#
#
# Elastic Compliance Matrix: (Units=1/GPa)
#
#
# Indices 1 2 3 4 5 6 
#
# 1 -0.056367 0.070244 -0.008039 0.000000 0.000000 0.000000
# 2 0.070244 0.053176 -0.026915 0.000000 0.000000 0.000000
# 3 -0.008039 -0.026915 0.014258 0.000000 0.000000 0.000000
# 4 0.000000 0.000000 0.000000 0.030457 0.000000 0.000000
# 5 0.000000 0.000000 0.000000 0.000000 0.036202 0.000000
# 6 0.000000 0.000000 0.000000 0.000000 0.000000 0.046193
#
#
# Mechanical properties :
#
#
# Convention : Reuss Voigt Hill
#
# Bulk Modulus (GPa) = 12.24779 42.74853 27.49816
# Shear Modulus (GPa) = 62.06979 22.94996 42.50988
#
# Velocity S-wave (km/s) = 5.83184 3.54614 4.82625
# Velocity P-wave (km/s) = 7.21513 6.33959 6.79148
#
# Compressibility (1/GPa) = 0.08164739
#
# Stress axis : x y z
#
# Youngs Moduli (GPa) = -17.74084 18.80543 70.13552
#
# Poissons Ratio (x) = -1.32098 0.56381
# Poissons Ratio (y) = 1.24619 1.88773
# Poissons Ratio (z) = -0.14262 0.50616
#
# Static dielectric constant tensor:
#      x y z
#    x 1.617590 0.000000 0.000000 
#    y 0.000000 1.621010 0.000000 
#    z 0.000000 0.000000 1.635980 
# 
# From -- ./inp_files/28728.got.cif
#   From: 2010.05.17/outbox.ucp.g08.bks.cvg/sg59_15_cif.got.tgz:28728.got - 2010.06.11 16:43:56.
