data_PCOD9453599
_publ_section_title
;
Structure prediction by ZEFSAII (Michael W. Deem and Ramdas Pophale) SiO2 
 PCOD9453599
Probable space group: P M M N
;
_chemical_formula_sum "Si O2"
_cell_formula_units_Z 64
_cell_length_a 15.000000
_cell_length_b 9.000000
_cell_length_c 24.000000
_cell_angle_alpha 90.000000
_cell_angle_beta 90.000000
_cell_angle_gamma 90.000000
_cell_volume 3240.000000
_symmetry_space_group_name_H-M "P M M N"
_symmetry_group_IT_number 59
_space_group.IT_coordinate_system_code '2'
_symmetry_cell_setting 'orthorhombic'
loop_
_space_group_symop_operation_xyz
x,y,z
1/2-x,1/2-y,z
1/2+x,-y,-z
-x,1/2+y,-z
-x,-y,-z
1/2+x,1/2+y,-z
1/2-x,y,z
x,1/2-y,z
loop_
_atom_site_type_symbol
_atom_site_label
_atom_site_fract_x
_atom_site_fract_y
_atom_site_fract_z
Si Si1 0.850226 0.931075 0.362440
Si Si2 0.355832 0.923898 0.351295
Si Si3 0.349608 0.573185 0.867558
Si Si4 0.990299 0.574225 0.941639
Si Si5 0.504052 0.071957 0.558769
Si Si6 0.141766 0.082709 0.757544
Si Si7 0.643115 0.417078 0.869064
Si Si8 0.641229 0.583222 0.760289
O O1 0.750000 0.986127 0.369639
O O2 0.846780 0.750000 0.362409
O O3 0.917323 0.981233 0.408562
O O4 0.889230 0.969693 0.302319
O O5 0.250000 0.938074 0.358578
O O6 0.374927 0.750000 0.338721
O O7 0.408764 0.966850 0.406094
O O8 0.384887 0.023373 0.299626
O O9 0.250000 0.513061 0.878262
O O10 0.345392 0.750000 0.873203
O O11 0.426260 0.514557 0.906551
O O12 0.377469 0.530351 0.805745
O O13 0.996325 0.750000 0.945183
O O14 0.899331 0.527938 0.912571
O O15 0.000000 0.500000 0.000000
O O16 0.501040 0.250000 0.554973
O O17 0.500000 0.000000 0.500000
O O18 0.250000 0.090754 0.752487
O O19 0.110493 0.250000 0.769915
O O20 0.750000 0.420765 0.870917
O O21 0.613416 0.250000 0.880778
O O22 0.613440 0.470345 0.808207
O O23 0.750000 0.585213 0.760875
O O24 0.610164 0.750000 0.771933
#
# Coordination Sequence:
#
# PCOD9453599 Si02
#       8
#     8   8   8   8   8   8   8   8
#     4   8  15  30  51  73  97 125 159 203 252 298
#     4   9  18  33  51  72 103 140 172 206 255 316
#     4   9  19  36  56  79 110 143 171 208 264 323
#     4  11  24  40  57  80 110 146 190 234 273 319
#     4  10  21  35  50  70  96 130 173 215 255 303
#     4   8  14  27  50  78 103 128 164 208 252 304
#     4  10  21  38  60  84 112 147 183 223 276 332
#     4   9  17  31  54  84 113 138 170 215 265 319
#
# _framework density 19.753086
#
# number of rings (size 3 to 8) (size 9 to 14) (size 15 to 20)
#    0.000    2.750    0.000    1.875    0.000    5.750 
#    0.000    3.125    0.000    0.750    0.000    0.000 
#    0.000    0.000    0.000    0.000    0.000    0.000 
#
# Total GULP energy -356635.761972 kJ/mol
# GULP energy per Si atom -5572.433781 kJ/mol
# Density = 1.970813 g / cm^3
# Si number density = 19.753086 Si / 1000 Ang^3
#
#
#
# Elastic Constant Matrix: (Units=GPa)
#
#
# Indices 1 2 3 4 5 6 
#
# 1 36.7277 26.9224 34.4737 0.0000 0.0000 0.0000
# 2 26.9224 17.9159 26.7083 0.0000 0.0000 0.0000
# 3 34.4737 26.7083 101.4657 0.0000 0.0000 0.0000
# 4 0.0000 0.0000 0.0000 29.7136 0.0000 0.0000
# 5 0.0000 0.0000 0.0000 0.0000 -0.3205 0.0000
# 6 0.0000 0.0000 0.0000 0.0000 0.0000 -8.0201
#
#
#
# Elastic Compliance Matrix: (Units=1/GPa)
#
#
# Indices 1 2 3 4 5 6 
#
# 1 -0.235360 0.385897 -0.021612 0.000000 0.000000 0.000000
# 2 0.385897 -0.540854 0.011255 0.000000 0.000000 0.000000
# 3 -0.021612 0.011255 0.014236 0.000000 0.000000 0.000000
# 4 0.000000 0.000000 0.000000 0.033655 0.000000 0.000000
# 5 0.000000 0.000000 0.000000 0.000000 -3.120051 0.000000
# 6 0.000000 0.000000 0.000000 0.000000 0.000000 -0.124687
#
#
# Mechanical properties :
#
#
# Convention : Reuss Voigt Hill
#
# Bulk Modulus (GPa) = -91.75046 36.92423 -27.41311
# Shear Modulus (GPa) = -1.05758 8.80827 3.87534
#
# Velocity S-wave (km/s) = -0.73250 2.11397 1.40220
# Velocity P-wave (km/s) = 6.87495 4.96910 3.35954
#
# Compressibility (1/GPa) = -0.01089913
#
# Stress axis : x y z
#
# Youngs Moduli (GPa) = -4.24881 -1.84893 70.24447
#
# Poissons Ratio (x) = 0.71350 1.51815
# Poissons Ratio (y) = 1.63960 -0.79058
# Poissons Ratio (z) = -0.09183 0.02081
#
# Static dielectric constant tensor:
#      x y z
#    x 1.709870 0.000000 0.000000 
#    y 0.000000 1.676090 0.000000 
#    z 0.000000 0.000000 1.685810 
# 
# From -- ./inp_files/32123.got.cif
#   From: 2010.05.17/outbox.ucp.g08.bks.cvg/sg59_17_cif.got.tgz:32123.got - 2010.06.11 16:43:56.
