data_PCOD9453420
_publ_section_title
;
Structure prediction by ZEFSAII (Michael W. Deem and Ramdas Pophale) SiO2 
 PCOD9453420
Probable space group: P M M N
;
_chemical_formula_sum "Si O2"
_cell_formula_units_Z 64
_cell_length_a 24.000000
_cell_length_b 15.000000
_cell_length_c 9.000000
_cell_angle_alpha 90.000000
_cell_angle_beta 90.000000
_cell_angle_gamma 90.000000
_cell_volume 3240.000000
_symmetry_space_group_name_H-M "P M M N"
_symmetry_group_IT_number 59
_space_group.IT_coordinate_system_code '2'
_symmetry_cell_setting 'orthorhombic'
loop_
_space_group_symop_operation_xyz
x,y,z
1/2-x,1/2-y,z
1/2+x,-y,-z
-x,1/2+y,-z
-x,-y,-z
1/2+x,1/2+y,-z
1/2-x,y,z
x,1/2-y,z
loop_
_atom_site_type_symbol
_atom_site_label
_atom_site_fract_x
_atom_site_fract_y
_atom_site_fract_z
Si Si1 0.187270 0.150005 0.790509
Si Si2 0.076143 0.852567 0.075473
Si Si3 0.892617 0.853319 0.487103
Si Si4 0.964226 0.856165 0.915544
Si Si5 0.142318 0.480212 0.025916
Si Si6 0.884389 0.354204 0.583291
Si Si7 0.009668 0.857686 0.590745
Si Si8 0.312848 0.013174 0.348982
O O1 0.250000 0.145097 0.726423
O O2 0.182605 0.250000 0.859201
O O3 0.139022 0.143381 0.668612
O O4 0.177799 0.069878 0.902794
O O5 0.086779 0.750000 0.029854
O O6 0.089054 0.860263 0.250801
O O7 0.115008 0.923793 0.992357
O O8 0.011673 0.871243 0.039228
O O9 0.891809 0.750000 0.538030
O O10 0.956985 0.882305 0.487900
O O11 0.856757 0.914041 0.595510
O O12 0.951166 0.750000 0.912779
O O13 0.909987 0.914941 0.940947
O O14 0.992417 0.881045 0.757879
O O15 0.179152 0.492215 0.172627
O O16 0.871713 0.250000 0.556148
O O17 0.831697 0.418768 0.582883
O O18 0.931354 0.389596 0.470076
O O19 0.014421 0.750000 0.584862
O O20 0.250000 0.036457 0.388349
#
# Coordination Sequence:
#
# PCOD9453420 Si02
#       8
#     8   8   8   8   8   8   8   8
#     4  10  22  38  56  80 111 148 188 231 278 330
#     4   9  20  36  54  78 112 148 183 229 283 337
#     4  10  21  38  57  82 115 151 185 223 278 341
#     4  10  19  33  53  82 116 146 180 225 281 343
#     4  11  21  36  55  82 111 147 191 233 276 332
#     4   9  20  38  58  83 112 146 188 236 283 332
#     4   9  18  34  56  82 113 146 181 225 281 336
#     4  11  23  38  57  82 111 150 193 234 276 326
#
# _framework density 19.753086
#
# number of rings (size 3 to 8) (size 9 to 14) (size 15 to 20)
#    0.000    2.125    1.250    1.500    1.750    3.000 
#    0.000    0.000    0.000    1.125    0.000    0.000 
#    0.000    5.000    0.000    0.000    0.000    0.000 
#
# Total GULP energy -357226.802367 kJ/mol
# GULP energy per Si atom -5581.668787 kJ/mol
# Density = 1.970813 g / cm^3
# Si number density = 19.753086 Si / 1000 Ang^3
#
#
#
# Elastic Constant Matrix: (Units=GPa)
#
#
# Indices 1 2 3 4 5 6 
#
# 1 28.6046 -1.1499 -0.4191 0.0000 0.0000 0.0000
# 2 -1.1499 52.0869 4.6319 0.0000 0.0000 0.0000
# 3 -0.4191 4.6319 13.7720 0.0000 0.0000 0.0000
# 4 0.0000 0.0000 0.0000 19.0327 0.0000 0.0000
# 5 0.0000 0.0000 0.0000 0.0000 3.7343 0.0000
# 6 0.0000 0.0000 0.0000 0.0000 0.0000 63.6860
#
#
#
# Elastic Compliance Matrix: (Units=1/GPa)
#
#
# Indices 1 2 3 4 5 6 
#
# 1 0.035000 0.000699 0.000830 0.000000 0.000000 0.000000
# 2 0.000699 0.019805 -0.006639 0.000000 0.000000 0.000000
# 3 0.000830 -0.006639 0.074869 0.000000 0.000000 0.000000
# 4 0.000000 0.000000 0.000000 0.052541 0.000000 0.000000
# 5 0.000000 0.000000 0.000000 0.000000 0.267787 0.000000
# 6 0.000000 0.000000 0.000000 0.000000 0.000000 0.015702
#
#
# Mechanical properties :
#
#
# Convention : Reuss Voigt Hill
#
# Bulk Modulus (GPa) = 8.37155 11.17659 9.77407
# Shear Modulus (GPa) = 9.69478 23.38399 16.53939
#
# Velocity S-wave (km/s) = 2.21780 3.44439 2.89676
# Velocity P-wave (km/s) = 3.28717 4.63561 4.01836
#
# Compressibility (1/GPa) = 0.11945215
#
# Stress axis : x y z
#
# Youngs Moduli (GPa) = 28.57174 50.49350 13.35664
#
# Poissons Ratio (x) = -0.03529 -0.01109
# Poissons Ratio (y) = -0.01997 0.08868
# Poissons Ratio (z) = -0.02372 0.33525
#
# Static dielectric constant tensor:
#      x y z
#    x 1.677720 0.000000 0.000000 
#    y 0.000000 1.708430 0.000000 
#    z 0.000000 0.000000 1.712180 
# 
# From -- ./inp_files/9578.got.cif
#   From: 2010.05.17/outbox.ucp.g08.bks.cvg/sg59_5_cif.got.tgz:9578.got - 2010.06.11 16:43:56.
