data_PCOD9453581
_publ_section_title
;
Structure prediction by ZEFSAII (Michael W. Deem and Ramdas Pophale) SiO2 
 PCOD9453581
Probable space group: P M M N
;
_chemical_formula_sum "Si O2"
_cell_formula_units_Z 64
_cell_length_a 9.000000
_cell_length_b 30.000000
_cell_length_c 12.000000
_cell_angle_alpha 90.000000
_cell_angle_beta 90.000000
_cell_angle_gamma 90.000000
_cell_volume 3240.000000
_symmetry_space_group_name_H-M "P M M N"
_symmetry_group_IT_number 59
_space_group.IT_coordinate_system_code '2'
_symmetry_cell_setting 'orthorhombic'
loop_
_space_group_symop_operation_xyz
x,y,z
1/2-x,1/2-y,z
1/2+x,-y,-z
-x,1/2+y,-z
-x,-y,-z
1/2+x,1/2+y,-z
1/2-x,y,z
x,1/2-y,z
loop_
_atom_site_type_symbol
_atom_site_label
_atom_site_fract_x
_atom_site_fract_y
_atom_site_fract_z
Si Si1 0.429798 0.643973 0.986299
Si Si2 0.428095 0.699302 0.194375
Si Si3 0.077484 0.547802 0.011866
Si Si4 0.576161 0.026292 0.397549
Si Si5 0.928450 0.301035 0.228862
Si Si6 0.418220 0.144423 0.630807
Si Si7 0.580171 0.554773 0.232287
Si Si8 0.576620 0.621809 0.626369
O O1 0.250000 0.639422 0.994015
O O2 0.460136 0.681801 0.895798
O O3 0.486507 0.664052 0.102677
O O4 0.481365 0.593723 0.954821
O O5 0.250000 0.700285 0.183601
O O6 0.481503 0.750000 0.178060
O O7 0.472659 0.679339 0.312907
O O8 0.250000 0.542221 0.983774
O O9 0.046288 0.559241 0.140564
O O10 0.000000 0.500000 0.000000
O O11 0.750000 0.033349 0.423697
O O12 0.500968 0.073437 0.369976
O O13 0.500000 0.000000 0.500000
O O14 0.567381 0.992464 0.293690
O O15 0.750000 0.301755 0.243959
O O16 0.978805 0.250000 0.247580
O O17 0.000720 0.339447 0.302779
O O18 0.250000 0.158806 0.657539
O O19 0.437269 0.095029 0.681490
O O20 0.433616 0.138758 0.500188
O O21 0.750000 0.557800 0.185762
O O22 0.750000 0.616796 0.656265
#
# Coordination Sequence:
#
# PCOD9453581 Si02
#       8
#     8   8   8   8   8   8   8   8
#     4   9  19  38  62  87 117 154 193 241 301 359
#     4  10  20  36  61  91 117 145 192 249 297 352
#     4  11  23  38  58  88 124 159 196 239 298 361
#     4  11  22  38  61  89 121 157 200 247 297 357
#     4  10  22  42  66  89 116 158 210 259 311 366
#     4  10  21  39  59  83 120 159 193 237 299 361
#     4  10  21  39  59  82 118 159 198 240 293 359
#     4  11  24  42  61  88 124 163 208 253 305 363
#
# _framework density 19.753086
#
# number of rings (size 3 to 8) (size 9 to 14) (size 15 to 20)
#    0.000    1.750    2.500    1.500    1.750    4.500 
#    0.000    3.750    0.000    1.500    0.000    0.000 
#    0.000    0.000    0.000    0.000    0.000    0.000 
#
# Total GULP energy -356991.457230 kJ/mol
# GULP energy per Si atom -5577.991519 kJ/mol
# Density = 1.970813 g / cm^3
# Si number density = 19.753086 Si / 1000 Ang^3
#
#
#
# Elastic Constant Matrix: (Units=GPa)
#
#
# Indices 1 2 3 4 5 6 
#
# 1 38.0720 43.0948 12.4780 0.0000 0.0000 0.0000
# 2 43.0948 168.6133 17.6712 0.0000 0.0000 0.0000
# 3 12.4780 17.6712 22.6279 0.0000 0.0000 0.0000
# 4 0.0000 0.0000 0.0000 26.5464 0.0000 0.0000
# 5 0.0000 0.0000 0.0000 0.0000 24.1792 0.0000
# 6 0.0000 0.0000 0.0000 0.0000 0.0000 30.1184
#
#
#
# Elastic Compliance Matrix: (Units=1/GPa)
#
#
# Indices 1 2 3 4 5 6 
#
# 1 0.041655 -0.008973 -0.015963 0.000000 0.000000 0.000000
# 2 -0.008973 0.008392 -0.001606 0.000000 0.000000 0.000000
# 3 -0.015963 -0.001606 0.054250 0.000000 0.000000 0.000000
# 4 0.000000 0.000000 0.000000 0.037670 0.000000 0.000000
# 5 0.000000 0.000000 0.000000 0.000000 0.041358 0.000000
# 6 0.000000 0.000000 0.000000 0.000000 0.000000 0.033202
#
#
# Mechanical properties :
#
#
# Convention : Reuss Voigt Hill
#
# Bulk Modulus (GPa) = 19.52606 41.75569 30.64088
# Shear Modulus (GPa) = 17.44091 26.57341 22.00716
#
# Velocity S-wave (km/s) = 2.97466 3.67178 3.34145
# Velocity P-wave (km/s) = 4.65883 6.25785 5.51658
#
# Compressibility (1/GPa) = 0.05121361
#
# Stress axis : x y z
#
# Youngs Moduli (GPa) = 24.00668 119.15439 18.43325
#
# Poissons Ratio (x) = 1.06922 0.29424
# Poissons Ratio (y) = 0.21542 0.02960
# Poissons Ratio (z) = 0.38321 0.19133
#
# Static dielectric constant tensor:
#      x y z
#    x 1.689420 0.000000 0.000000 
#    y 0.000000 1.714530 0.000000 
#    z 0.000000 0.000000 1.727560 
# 
# From -- ./inp_files/14996.got.cif
#   From: 2010.05.17/outbox.ucp.g08.bks.cvg/sg59_8_cif.got.tgz:14996.got - 2010.06.11 16:43:56.
