data_PCOD9453337
_publ_section_title
;
Structure prediction by ZEFSAII (Michael W. Deem and Ramdas Pophale) SiO2 
 PCOD9453337
Probable space group: P M M N
;
_chemical_formula_sum "Si O2"
_cell_formula_units_Z 64
_cell_length_a 15.000000
_cell_length_b 9.000000
_cell_length_c 24.000000
_cell_angle_alpha 90.000000
_cell_angle_beta 90.000000
_cell_angle_gamma 90.000000
_cell_volume 3240.000000
_symmetry_space_group_name_H-M "P M M N"
_symmetry_group_IT_number 59
_space_group.IT_coordinate_system_code '2'
_symmetry_cell_setting 'orthorhombic'
loop_
_space_group_symop_operation_xyz
x,y,z
1/2-x,1/2-y,z
1/2+x,-y,-z
-x,1/2+y,-z
-x,-y,-z
1/2+x,1/2+y,-z
1/2-x,y,z
x,1/2-y,z
loop_
_atom_site_type_symbol
_atom_site_label
_atom_site_fract_x
_atom_site_fract_y
_atom_site_fract_z
Si Si1 0.351744 0.582283 0.483857
Si Si2 0.410865 0.576773 0.596598
Si Si3 0.384749 0.079387 0.370550
Si Si4 0.654071 0.069534 0.290713
Si Si5 0.145090 0.071472 0.027986
Si Si6 0.527472 0.573410 0.080374
Si Si7 0.153177 0.430909 0.246165
Si Si8 0.025770 0.929505 0.806722
O O1 0.250000 0.586893 0.504430
O O2 0.384442 0.750000 0.473334
O O3 0.405456 0.509524 0.535030
O O4 0.351236 0.501986 0.425106
O O5 0.383799 0.750000 0.588130
O O6 0.509191 0.577847 0.621725
O O7 0.353820 0.510458 0.646561
O O8 0.354553 0.250000 0.372169
O O9 0.360066 0.017610 0.310014
O O10 0.750000 0.033657 0.266729
O O11 0.647052 0.250000 0.295486
O O12 0.578667 0.023591 0.248348
O O13 0.250000 0.026210 0.032440
O O14 0.142857 0.250000 0.036985
O O15 0.069930 0.997123 0.067190
O O16 0.100584 0.040329 0.967489
O O17 0.517871 0.750000 0.083148
O O18 0.560136 0.504976 0.138015
O O19 0.250000 0.475031 0.226000
O O20 0.148724 0.250000 0.248993
O O21 0.075278 0.476389 0.205421
O O22 0.030812 0.750000 0.811624
#
# Coordination Sequence:
#
# PCOD9453337 Si02
#       8
#     8   8   8   8   8   8   8   8
#     4  10  20  31  44  67  97 126 158 201 260 325
#     4   9  16  29  48  69  94 125 163 209 260 314
#     4  10  18  31  51  71  91 121 165 213 258 308
#     4   9  16  28  49  75 100 129 171 222 266 306
#     4   9  19  38  62  85 112 150 190 222 258 309
#     4  10  21  36  56  85 118 149 181 223 269 311
#     4   9  17  30  49  71  95 128 171 215 255 300
#     4  10  19  33  52  76 105 138 179 220 257 307
#
# _framework density 19.753086
#
# number of rings (size 3 to 8) (size 9 to 14) (size 15 to 20)
#    0.000    2.500    1.250    1.500    0.000    4.000 
#    0.000    1.875    0.000    1.500    0.000    0.000 
#    0.000    0.000    0.000    0.000    0.000    0.000 
#
# Total GULP energy -356365.877083 kJ/mol
# GULP energy per Si atom -5568.216829 kJ/mol
# Density = 1.970813 g / cm^3
# Si number density = 19.753086 Si / 1000 Ang^3
#
#
#
# Elastic Constant Matrix: (Units=GPa)
#
#
# Indices 1 2 3 4 5 6 
#
# 1 68.3586 7.7978 -3.2479 0.0000 0.0000 0.0000
# 2 7.7978 3.8318 13.1345 0.0000 0.0000 0.0000
# 3 -3.2479 13.1345 64.4515 0.0000 0.0000 0.0000
# 4 0.0000 0.0000 0.0000 22.7901 0.0000 0.0000
# 5 0.0000 0.0000 0.0000 0.0000 17.0696 0.0000
# 6 0.0000 0.0000 0.0000 0.0000 0.0000 12.9835
#
#
#
# Elastic Compliance Matrix: (Units=1/GPa)
#
#
# Indices 1 2 3 4 5 6 
#
# 1 0.160259 -1.173656 0.247255 0.000000 0.000000 0.000000
# 2 -1.173656 9.460982 -1.987194 0.000000 0.000000 0.000000
# 3 0.247255 -1.987194 0.432945 0.000000 0.000000 0.000000
# 4 0.000000 0.000000 0.000000 0.043879 0.000000 0.000000
# 5 0.000000 0.000000 0.000000 0.000000 0.058584 0.000000
# 6 0.000000 0.000000 0.000000 0.000000 0.000000 0.077021
#
#
# Mechanical properties :
#
#
# Convention : Reuss Voigt Hill
#
# Bulk Modulus (GPa) = 0.23657 19.11231 9.67444
# Shear Modulus (GPa) = 0.28621 18.49913 9.39267
#
# Velocity S-wave (km/s) = 0.38106 3.06358 2.18297
# Velocity P-wave (km/s) = 0.56003 4.71282 3.35591
#
# Compressibility (1/GPa) = 4.22699474
#
# Stress axis : x y z
#
# Youngs Moduli (GPa) = 6.23992 0.10570 2.30976
#
# Poissons Ratio (x) = 0.12405 -0.57110
# Poissons Ratio (y) = 7.32352 4.58995
# Poissons Ratio (z) = -1.54285 0.21004
#
# Static dielectric constant tensor:
#      x y z
#    x 1.751490 0.000000 0.000000 
#    y 0.000000 1.677780 0.000000 
#    z 0.000000 0.000000 1.699980 
# 
# From -- ./inp_files/32181.got.cif
#   From: 2010.05.17/outbox.ucp.g08.bks.cvg/sg59_17_cif.got.tgz:32181.got - 2010.06.11 16:43:56.
