data_PCOD9453596
_publ_section_title
;
Structure prediction by ZEFSAII (Michael W. Deem and Ramdas Pophale) SiO2 
 PCOD9453596
Probable space group: P M M N
;
_chemical_formula_sum "Si O2"
_cell_formula_units_Z 48
_cell_length_a 9.000000
_cell_length_b 15.000000
_cell_length_c 18.000000
_cell_angle_alpha 90.000000
_cell_angle_beta 90.000000
_cell_angle_gamma 90.000000
_cell_volume 2430.000000
_symmetry_space_group_name_H-M "P M M N"
_symmetry_group_IT_number 59
_space_group.IT_coordinate_system_code '2'
_symmetry_cell_setting 'orthorhombic'
loop_
_space_group_symop_operation_xyz
x,y,z
1/2-x,1/2-y,z
1/2+x,-y,-z
-x,1/2+y,-z
-x,-y,-z
1/2+x,1/2+y,-z
1/2-x,y,z
x,1/2-y,z
loop_
_atom_site_type_symbol
_atom_site_label
_atom_site_fract_x
_atom_site_fract_y
_atom_site_fract_z
Si Si1 0.918547 0.250000 0.909043
Si Si2 0.419660 0.098416 0.829351
Si Si3 0.076545 0.894143 0.847418
Si Si4 0.579081 0.750000 0.941854
Si Si5 0.420825 0.003266 0.422792
Si Si6 0.419943 0.644650 0.309426
Si Si7 0.428745 0.851173 0.680169
O O1 0.750000 0.250000 0.935825
O O2 0.957401 0.336167 0.861478
O O3 0.038060 0.250000 0.973178
O O4 0.250000 0.128190 0.842630
O O5 0.456599 0.100156 0.742456
O O6 0.437141 0.999131 0.858812
O O7 0.250000 0.870432 0.851613
O O8 0.024366 0.867975 0.765232
O O9 0.991327 0.837258 0.906669
O O10 0.750000 0.750000 0.927151
O O11 0.250000 0.028229 0.430679
O O12 0.497819 0.075119 0.370318
O O13 0.500000 0.000000 0.500000
O O14 0.428436 0.905503 0.386768
O O15 0.250000 0.629273 0.281525
O O16 0.443484 0.750000 0.313145
O O17 0.250000 0.860091 0.677631
O O18 0.466884 0.750000 0.658785
#
# Coordination Sequence:
#
# PCOD9453596 Si02
#       7
#     4   8   8   4   8   8   8
#     4  12  26  44  64  88 129 170 203 252 314 368
#     4  11  22  38  65  96 124 158 207 256 302 366
#     4  10  21  40  65  93 126 164 203 249 310 370
#     4  12  26  42  64  94 127 162 209 260 304 360
#     4  11  24  40  60  89 127 164 207 256 309 366
#     4  10  21  38  61  89 121 161 205 252 310 369
#     4  10  20  38  64  90 120 161 206 250 306 371
#
# _framework density 19.753086
#
# number of rings (size 3 to 8) (size 9 to 14) (size 15 to 20)
#    0.000    1.333    3.333    2.500    0.000    4.333 
#    0.000    1.667    0.000    0.000    0.000    0.000 
#    0.000    0.000    0.000    0.000    0.000    0.000 
#
# Total GULP energy -267872.430040 kJ/mol
# GULP energy per Si atom -5580.675626 kJ/mol
# Density = 1.970813 g / cm^3
# Si number density = 19.753086 Si / 1000 Ang^3
#
#
#
# Elastic Constant Matrix: (Units=GPa)
#
#
# Indices 1 2 3 4 5 6 
#
# 1 -0.7670 35.3527 0.0593 0.0000 0.0000 0.0000
# 2 35.3527 58.0544 13.6510 0.0000 0.0000 0.0000
# 3 0.0593 13.6510 52.2680 0.0000 0.0000 0.0000
# 4 0.0000 0.0000 0.0000 -103.1737 0.0000 0.0000
# 5 0.0000 0.0000 0.0000 0.0000 28.2917 0.0000
# 6 0.0000 0.0000 0.0000 0.0000 0.0000 60.0910
#
#
#
# Elastic Compliance Matrix: (Units=1/GPa)
#
#
# Indices 1 2 3 4 5 6 
#
# 1 -0.042223 0.027382 -0.007104 0.000000 0.000000 0.000000
# 2 0.027382 0.000594 -0.000186 0.000000 0.000000 0.000000
# 3 -0.007104 -0.000186 0.019189 0.000000 0.000000 0.000000
# 4 0.000000 0.000000 0.000000 -0.009692 0.000000 0.000000
# 5 0.000000 0.000000 0.000000 0.000000 0.035346 0.000000
# 6 0.000000 0.000000 0.000000 0.000000 0.000000 0.016641
#
#
# Mechanical properties :
#
#
# Convention : Reuss Voigt Hill
#
# Bulk Modulus (GPa) = 56.35332 23.07572 39.71452
# Shear Modulus (GPa) = -346.89276 1.07462 -172.90907
#
# Velocity S-wave (km/s) = -13.26634 0.73838 -9.36618
# Velocity P-wave (km/s) = 14.35514 3.52624 9.83961
#
# Compressibility (1/GPa) = 0.01774518
#
# Stress axis : x y z
#
# Youngs Moduli (GPa) = -23.68399 1682.30535 52.11353
#
# Poissons Ratio (x) = -46.06517 0.37019
# Poissons Ratio (y) = 0.64852 0.00971
# Poissons Ratio (z) = -0.16824 0.31341
#
# Static dielectric constant tensor:
#      x y z
#    x 1.665930 0.000000 0.000000 
#    y 0.000000 1.652190 0.000000 
#    z 0.000000 0.000000 1.770780 
# 
# From -- ./inp_files/25542.got.cif
#   From: 2010.05.17/outbox.ucp.g08.bks.cvg/sg59_13_cif.got.tgz:25542.got - 2010.06.11 16:43:56.
