data_PCOD9453322
_publ_section_title
;
Structure prediction by ZEFSAII (Michael W. Deem and Ramdas Pophale) SiO2 
 PCOD9453322
Probable space group: P M M N
;
_chemical_formula_sum "Si O2"
_cell_formula_units_Z 56
_cell_length_a 9.000000
_cell_length_b 21.000000
_cell_length_c 18.000000
_cell_angle_alpha 90.000000
_cell_angle_beta 90.000000
_cell_angle_gamma 90.000000
_cell_volume 3402.000000
_symmetry_space_group_name_H-M "P M M N"
_symmetry_group_IT_number 59
_space_group.IT_coordinate_system_code '2'
_symmetry_cell_setting 'orthorhombic'
loop_
_space_group_symop_operation_xyz
x,y,z
1/2-x,1/2-y,z
1/2+x,-y,-z
-x,1/2+y,-z
-x,-y,-z
1/2+x,1/2+y,-z
1/2-x,y,z
x,1/2-y,z
loop_
_atom_site_type_symbol
_atom_site_label
_atom_site_fract_x
_atom_site_fract_y
_atom_site_fract_z
Si Si1 0.426313 0.042425 0.238818
Si Si2 0.572902 0.060573 0.094216
Si Si3 0.077791 0.578924 0.449983
Si Si4 0.582354 0.175097 0.674747
Si Si5 0.572770 0.078347 0.933648
Si Si6 0.924614 0.045195 0.388194
Si Si7 0.575739 0.905126 0.208605
O O1 0.250000 0.038680 0.233903
O O2 0.494026 0.081199 0.169646
O O3 0.481272 0.066824 0.317969
O O4 0.495902 0.971265 0.231755
O O5 0.750000 0.055147 0.104656
O O6 0.503660 0.990836 0.077342
O O7 0.545897 0.099098 0.018346
O O8 0.250000 0.556372 0.443203
O O9 0.064238 0.643688 0.405481
O O10 0.046847 0.584580 0.536914
O O11 0.975044 0.525861 0.412086
O O12 0.750000 0.156733 0.701057
O O13 0.573231 0.250000 0.672078
O O14 0.462155 0.145109 0.728614
O O15 0.750000 0.072387 0.923020
O O16 0.497801 0.117861 0.868391
O O17 0.750000 0.045682 0.370183
O O18 0.750000 0.916258 0.200062
#
# Coordination Sequence:
#
# PCOD9453322 Si02
#       7
#     8   8   8   8   8   8   8
#     4  11  19  27  41  61  88 119 149 181 220 266
#     4   9  16  25  38  58  83 112 145 177 211 251
#     4   9  18  31  46  64  86 114 147 182 225 273
#     4  10  20  34  50  66  87 116 150 188 227 268
#     4   9  16  26  40  57  81 113 145 177 212 254
#     4  10  18  28  44  65  88 115 147 184 223 269
#     4  11  20  29  43  62  85 115 150 185 221 261
#
# _framework density 16.460905
#
# number of rings (size 3 to 8) (size 9 to 14) (size 15 to 20)
#    0.000    2.143    1.429    5.571    0.000    2.571 
#    0.000    0.000    0.000    0.000    0.000    0.000 
#    0.000    1.143    0.000    8.857    0.000    2.571 
#
# Total GULP energy -311844.693164 kJ/mol
# GULP energy per Si atom -5568.655235 kJ/mol
# Density = 1.642344 g / cm^3
# Si number density = 16.460905 Si / 1000 Ang^3
#
#
#
# Elastic Constant Matrix: (Units=GPa)
#
#
# Indices 1 2 3 4 5 6 
#
# 1 107.5608 9.1834 65.9971 0.0000 0.0000 0.0000
# 2 9.1834 12.6400 16.6491 0.0000 0.0000 0.0000
# 3 65.9971 16.6491 135.3307 0.0000 0.0000 0.0000
# 4 0.0000 0.0000 0.0000 1.6030 0.0000 0.0000
# 5 0.0000 0.0000 0.0000 0.0000 26.5074 0.0000
# 6 0.0000 0.0000 0.0000 0.0000 0.0000 3.6211
#
#
#
# Elastic Compliance Matrix: (Units=1/GPa)
#
#
# Indices 1 2 3 4 5 6 
#
# 1 0.013286 -0.001335 -0.006315 0.000000 0.000000 0.000000
# 2 -0.001335 0.094547 -0.010981 0.000000 0.000000 0.000000
# 3 -0.006315 -0.010981 0.011820 0.000000 0.000000 0.000000
# 4 0.000000 0.000000 0.000000 0.623846 0.000000 0.000000
# 5 0.000000 0.000000 0.000000 0.000000 0.037725 0.000000
# 6 0.000000 0.000000 0.000000 0.000000 0.000000 0.276161
#
#
# Mechanical properties :
#
#
# Convention : Reuss Voigt Hill
#
# Bulk Modulus (GPa) = 12.13709 48.79897 30.46803
# Shear Modulus (GPa) = 4.45589 17.25973 10.85781
#
# Velocity S-wave (km/s) = 1.64707 3.24161 2.57108
# Velocity P-wave (km/s) = 3.31759 6.61215 5.23101
#
# Compressibility (1/GPa) = 0.08239210
#
# Stress axis : x y z
#
# Youngs Moduli (GPa) = 75.26886 10.57670 84.60371
#
# Poissons Ratio (x) = 0.01412 0.53426
# Poissons Ratio (y) = 0.10047 0.92902
# Poissons Ratio (z) = 0.47531 0.11614
#
# Static dielectric constant tensor:
#      x y z
#    x 1.565440 0.000000 0.000000 
#    y 0.000000 1.511380 0.000000 
#    z 0.000000 0.000000 1.653010 
# 
# From -- ./inp_files/26060.got.cif
#   From: 2010.05.17/outbox.ucp.g08.bks.cvg/sg59_14_cif.got.tgz:26060.got - 2010.06.11 16:43:56.
