data_PCOD9453549
_publ_section_title
;
Structure prediction by ZEFSAII (Michael W. Deem and Ramdas Pophale) SiO2 
 PCOD9453549
Probable space group: P M M N
;
_chemical_formula_sum "Si O2"
_cell_formula_units_Z 56
_cell_length_a 21.000000
_cell_length_b 9.000000
_cell_length_c 15.000000
_cell_angle_alpha 90.000000
_cell_angle_beta 90.000000
_cell_angle_gamma 90.000000
_cell_volume 2835.000000
_symmetry_space_group_name_H-M "P M M N"
_symmetry_group_IT_number 59
_space_group.IT_coordinate_system_code '2'
_symmetry_cell_setting 'orthorhombic'
loop_
_space_group_symop_operation_xyz
x,y,z
1/2-x,1/2-y,z
1/2+x,-y,-z
-x,1/2+y,-z
-x,-y,-z
1/2+x,1/2+y,-z
1/2-x,y,z
x,1/2-y,z
loop_
_atom_site_type_symbol
_atom_site_label
_atom_site_fract_x
_atom_site_fract_y
_atom_site_fract_z
Si Si1 0.978831 0.919140 0.285368
Si Si2 0.820293 0.075535 0.512884
Si Si3 0.972243 0.422949 0.110711
Si Si4 0.051418 0.427912 0.432144
Si Si5 0.250000 0.569546 0.810945
Si Si6 0.337424 0.077214 0.668941
Si Si7 0.107804 0.428106 0.034812
Si Si8 0.750000 0.931211 0.992177
O O1 0.990305 0.750000 0.252517
O O2 0.913387 0.914495 0.339601
O O3 0.963467 0.040891 0.212113
O O4 0.035674 0.985348 0.341593
O O5 0.750000 0.052127 0.553493
O O6 0.836859 0.250000 0.521440
O O7 0.876240 0.970692 0.547088
O O8 0.815535 0.029169 0.409860
O O9 0.967481 0.250000 0.087298
O O10 0.045436 0.475520 0.091986
O O11 0.917507 0.512267 0.059513
O O12 0.042547 0.250000 0.428251
O O13 0.000000 0.500000 0.500000
O O14 0.250000 0.750000 0.807106
O O15 0.190082 0.496288 0.758683
O O16 0.250000 0.510383 0.911810
O O17 0.316869 0.250000 0.662750
O O18 0.107896 0.250000 0.036114
O O19 0.181344 0.472722 0.052254
O O20 0.750000 0.750000 0.002344
#
# Coordination Sequence:
#
# PCOD9453549 Si02
#       8
#     8   8   8   8   4   8   8   4
#     4  11  23  38  58  84 113 148 192 241 289 338
#     4  11  23  39  60  84 114 151 190 235 288 344
#     4  10  20  35  57  85 114 146 186 234 287 340
#     4  12  24  39  61  87 117 153 196 242 290 343
#     4  12  24  34  48  78 119 152 185 230 284 344
#     4  11  22  35  54  78 110 151 191 230 279 341
#     4   9  19  36  58  83 112 148 188 228 280 341
#     4  10  20  36  56  78 109 148 187 226 272 338
#
# _framework density 19.753086
#
# number of rings (size 3 to 8) (size 9 to 14) (size 15 to 20)
#    0.000    1.286    2.143    4.500    0.000    7.143 
#    0.000    0.000    1.571    0.000    0.000    0.000 
#    0.000    0.000    0.000    0.000    0.000    0.000 
#
# Total GULP energy -311880.602220 kJ/mol
# GULP energy per Si atom -5569.296468 kJ/mol
# Density = 1.970813 g / cm^3
# Si number density = 19.753086 Si / 1000 Ang^3
#
#
#
# Elastic Constant Matrix: (Units=GPa)
#
#
# Indices 1 2 3 4 5 6 
#
# 1 118.4125 2.1267 5.4374 0.0000 0.0000 0.0000
# 2 2.1267 22.5234 -13.8857 0.0000 0.0000 0.0000
# 3 5.4374 -13.8857 1.9367 0.0000 0.0000 0.0000
# 4 0.0000 0.0000 0.0000 17.9722 0.0000 0.0000
# 5 0.0000 0.0000 0.0000 0.0000 14.8083 0.0000
# 6 0.0000 0.0000 0.0000 0.0000 0.0000 27.3597
#
#
#
# Elastic Compliance Matrix: (Units=1/GPa)
#
#
# Indices 1 2 3 4 5 6 
#
# 1 0.007994 0.004267 0.008145 0.000000 0.000000 0.000000
# 2 0.004267 -0.010705 -0.088726 0.000000 0.000000 0.000000
# 3 0.008145 -0.088726 -0.142671 0.000000 0.000000 0.000000
# 4 0.000000 0.000000 0.000000 0.055642 0.000000 0.000000
# 5 0.000000 0.000000 0.000000 0.000000 0.067530 0.000000
# 6 0.000000 0.000000 0.000000 0.000000 0.000000 0.036550
#
#
# Mechanical properties :
#
#
# Convention : Reuss Voigt Hill
#
# Bulk Modulus (GPa) = -3.35559 14.46994 5.55717
# Shear Modulus (GPa) = 73.92841 21.97432 47.95137
#
# Velocity S-wave (km/s) = 6.12434 3.33896 4.93235
# Velocity P-wave (km/s) = 6.95036 4.71234 5.93775
#
# Compressibility (1/GPa) = -0.29801032
#
# Stress axis : x y z
#
# Youngs Moduli (GPa) = 125.08729 -93.41828 -7.00915
#
# Poissons Ratio (x) = 0.39857 0.05709
# Poissons Ratio (y) = -0.53369 -0.62189
# Poissons Ratio (z) = -1.01883 -8.28865
#
# Static dielectric constant tensor:
#      x y z
#    x 1.887770 0.000000 0.000000 
#    y 0.000000 1.649090 0.000000 
#    z 0.000000 0.000000 1.796520 
# 
# From -- ./inp_files/24352.got.cif
#   From: 2010.05.17/outbox.ucp.g08.bks.cvg/sg59_13_cif.got.tgz:24352.got - 2010.06.11 16:43:56.
