data_PCOD9453338
_publ_section_title
;
Structure prediction by ZEFSAII (Michael W. Deem and Ramdas Pophale) SiO2 
 PCOD9453338
Probable space group: P M M N
;
_chemical_formula_sum "Si O2"
_cell_formula_units_Z 40
_cell_length_a 15.000000
_cell_length_b 9.000000
_cell_length_c 15.000000
_cell_angle_alpha 90.000000
_cell_angle_beta 90.000000
_cell_angle_gamma 90.000000
_cell_volume 2025.000000
_symmetry_space_group_name_H-M "P M M N"
_symmetry_group_IT_number 59
_space_group.IT_coordinate_system_code '2'
_symmetry_cell_setting 'orthorhombic'
loop_
_space_group_symop_operation_xyz
x,y,z
1/2-x,1/2-y,z
1/2+x,-y,-z
-x,1/2+y,-z
-x,-y,-z
1/2+x,1/2+y,-z
1/2-x,y,z
x,1/2-y,z
loop_
_atom_site_type_symbol
_atom_site_label
_atom_site_fract_x
_atom_site_fract_y
_atom_site_fract_z
Si Si1 0.145297 0.074958 0.029493
Si Si2 0.405228 0.928793 0.528525
Si Si3 0.465836 0.424986 0.695313
Si Si4 0.152537 0.427836 0.356076
Si Si5 0.039553 0.922445 0.872816
O O1 0.250000 0.042238 0.051436
O O2 0.142912 0.250000 0.002360
O O3 0.066297 0.062651 0.103268
O O4 0.104234 0.968242 0.953817
O O5 0.404420 0.750000 0.524151
O O6 0.500000 0.000000 0.500000
O O7 0.399538 0.988760 0.628488
O O8 0.342995 0.003362 0.455310
O O9 0.467258 0.250000 0.675641
O O10 0.566199 0.492268 0.685035
O O11 0.438752 0.464256 0.794577
O O12 0.250000 0.452174 0.312642
O O13 0.136861 0.250000 0.359248
O O14 0.053336 0.750000 0.847952
#
# Coordination Sequence:
#
# PCOD9453338 Si02
#       5
#     8   8   8   8   8
#     4   9  19  37  59  81 108 143 179 218 270 330
#     4  10  18  31  51  72  98 132 170 209 252 304
#     4  11  21  34  53  76 105 139 177 219 262 312
#     4  10  20  34  52  75 105 139 175 217 266 317
#     4  10  20  35  56  83 112 142 180 224 272 325
#
# _framework density 19.753086
#
# number of rings (size 3 to 8) (size 9 to 14) (size 15 to 20)
#    0.000    2.000    0.000    7.200    0.000    3.600 
#    0.000    3.000    0.000    6.000    0.000    0.000 
#    0.000    0.000    0.000    0.000    0.000    0.000 
#
# Total GULP energy -222833.490489 kJ/mol
# GULP energy per Si atom -5570.837262 kJ/mol
# Density = 1.970813 g / cm^3
# Si number density = 19.753086 Si / 1000 Ang^3
#
#
#
# Elastic Constant Matrix: (Units=GPa)
#
#
# Indices 1 2 3 4 5 6 
#
# 1 40.3390 -5.6109 -11.6689 0.0000 0.0000 0.0000
# 2 -5.6109 112.5241 12.0921 0.0000 0.0000 0.0000
# 3 -11.6689 12.0921 43.9389 0.0000 0.0000 0.0000
# 4 0.0000 0.0000 0.0000 29.8787 0.0000 0.0000
# 5 0.0000 0.0000 0.0000 0.0000 8.2190 0.0000
# 6 0.0000 0.0000 0.0000 0.0000 0.0000 22.0582
#
#
#
# Elastic Compliance Matrix: (Units=1/GPa)
#
#
# Indices 1 2 3 4 5 6 
#
# 1 0.026891 0.000591 0.006979 0.000000 0.000000 0.000000
# 2 0.000591 0.009171 -0.002367 0.000000 0.000000 0.000000
# 3 0.006979 -0.002367 0.025264 0.000000 0.000000 0.000000
# 4 0.000000 0.000000 0.000000 0.033469 0.000000 0.000000
# 5 0.000000 0.000000 0.000000 0.000000 0.121670 0.000000
# 6 0.000000 0.000000 0.000000 0.000000 0.000000 0.045335
#
#
# Mechanical properties :
#
#
# Convention : Reuss Voigt Hill
#
# Bulk Modulus (GPa) = 13.94099 20.71408 17.32754
# Shear Modulus (GPa) = 18.16180 25.49715 21.82947
#
# Velocity S-wave (km/s) = 3.03552 3.59666 3.32794
# Velocity P-wave (km/s) = 4.39986 5.26851 4.85366
#
# Compressibility (1/GPa) = 0.07173089
#
# Stress axis : x y z
#
# Youngs Moduli (GPa) = 37.18739 109.04165 39.58264
#
# Poissons Ratio (x) = -0.06444 -0.27624
# Poissons Ratio (y) = -0.02198 0.09369
# Poissons Ratio (z) = -0.25952 0.25809
#
# Static dielectric constant tensor:
#      x y z
#    x 1.599020 0.000000 0.000000 
#    y 0.000000 1.652330 0.000000 
#    z 0.000000 0.000000 1.807760 
# 
# From -- ./inp_files/22961.got.cif
#   From: 2010.05.17/outbox.ucp.g08.bks.cvg/sg59_12_cif.got.tgz:22961.got - 2010.06.11 16:43:56.
