data_PCOD9453614
_publ_section_title
;
Structure prediction by ZEFSAII (Michael W. Deem and Ramdas Pophale) SiO2 
 PCOD9453614
Probable space group: P M M N
;
_chemical_formula_sum "Si O2"
_cell_formula_units_Z 64
_cell_length_a 9.000000
_cell_length_b 21.000000
_cell_length_c 18.000000
_cell_angle_alpha 90.000000
_cell_angle_beta 90.000000
_cell_angle_gamma 90.000000
_cell_volume 3402.000000
_symmetry_space_group_name_H-M "P M M N"
_symmetry_group_IT_number 59
_space_group.IT_coordinate_system_code '2'
_symmetry_cell_setting 'orthorhombic'
loop_
_space_group_symop_operation_xyz
x,y,z
1/2-x,1/2-y,z
1/2+x,-y,-z
-x,1/2+y,-z
-x,-y,-z
1/2+x,1/2+y,-z
1/2-x,y,z
x,1/2-y,z
loop_
_atom_site_type_symbol
_atom_site_label
_atom_site_fract_x
_atom_site_fract_y
_atom_site_fract_z
Si Si1 0.417870 0.409917 0.689928
Si Si2 0.922418 0.964834 0.667108
Si Si3 0.074883 0.933839 0.525213
Si Si4 0.924029 0.438916 0.179633
Si Si5 0.574255 0.821058 0.435235
Si Si6 0.579221 0.319819 0.954602
Si Si7 0.419212 0.424610 0.866214
Si Si8 0.577536 0.821808 0.890708
O O1 0.250000 0.432264 0.668807
O O2 0.535883 0.460631 0.660421
O O3 0.439398 0.342696 0.650564
O O4 0.423627 0.410048 0.778247
O O5 0.750000 0.953896 0.652727
O O6 0.024785 0.926987 0.610267
O O7 0.971366 0.947643 0.749659
O O8 0.250000 0.938764 0.516826
O O9 0.009887 0.874412 0.481097
O O10 0.000000 0.000000 0.500000
O O11 0.750000 0.442269 0.200598
O O12 0.949987 0.500076 0.126695
O O13 0.967923 0.372697 0.144271
O O14 0.750000 0.823365 0.453420
O O15 0.519405 0.750000 0.447768
O O16 0.750000 0.325157 0.980589
O O17 0.565289 0.250000 0.917319
O O18 0.535453 0.378902 0.904528
O O19 0.466777 0.320159 0.023175
O O20 0.250000 0.412139 0.892126
O O21 0.750000 0.839863 0.880884
O O22 0.557562 0.750000 0.861233
#
# Coordination Sequence:
#
# PCOD9453614 Si02
#       8
#     8   8   8   8   8   8   8   8
#     4   9  18  34  55  79 111 148 187 227 273 335
#     4  11  21  35  58  86 113 144 184 232 280 332
#     4  12  23  37  59  85 112 148 193 238 283 337
#     4  10  21  38  59  85 116 147 183 231 280 336
#     4  10  21  37  57  83 116 152 190 235 286 340
#     4  10  21  36  54  78 109 148 192 235 280 333
#     4   9  19  34  54  82 113 147 187 229 275 327
#     4  10  21  38  60  84 110 144 187 233 283 342
#
# _framework density 18.812463000000001
#
# number of rings (size 3 to 8) (size 9 to 14) (size 15 to 20)
#    0.000    1.875    1.250    4.125    0.000    5.250 
#    0.000    1.875    0.000    3.750    0.000    0.000 
#    0.000    0.000    0.000    0.000    0.000    0.000 
#
# Total GULP energy -356815.858308 kJ/mol
# GULP energy per Si atom -5575.247786 kJ/mol
# Density = 1.876965 g / cm^3
# Si number density = 18.812463 Si / 1000 Ang^3
#
#
#
# Elastic Constant Matrix: (Units=GPa)
#
#
# Indices 1 2 3 4 5 6 
#
# 1 64.6877 45.0956 6.5577 0.0000 0.0000 0.0000
# 2 45.0956 108.8179 28.8946 0.0000 0.0000 0.0000
# 3 6.5577 28.8946 18.7822 0.0000 0.0000 0.0000
# 4 0.0000 0.0000 0.0000 29.3405 0.0000 0.0000
# 5 0.0000 0.0000 0.0000 0.0000 25.6000 0.0000
# 6 0.0000 0.0000 0.0000 0.0000 0.0000 25.4055
#
#
#
# Elastic Compliance Matrix: (Units=1/GPa)
#
#
# Indices 1 2 3 4 5 6 
#
# 1 0.023064 -0.012544 0.011245 0.000000 0.000000 0.000000
# 2 -0.012544 0.022358 -0.030017 0.000000 0.000000 0.000000
# 3 0.011245 -0.030017 0.095494 0.000000 0.000000 0.000000
# 4 0.000000 0.000000 0.000000 0.034083 0.000000 0.000000
# 5 0.000000 0.000000 0.000000 0.000000 0.039062 0.000000
# 6 0.000000 0.000000 0.000000 0.000000 0.000000 0.039362
#
#
# Mechanical properties :
#
#
# Convention : Reuss Voigt Hill
#
# Bulk Modulus (GPa) = 12.77387 39.26484 26.01936
# Shear Modulus (GPa) = 14.61353 23.51853 19.06603
#
# Velocity S-wave (km/s) = 2.79014 3.53959 3.18697
# Velocity P-wave (km/s) = 4.14544 6.13368 5.23482
#
# Compressibility (1/GPa) = 0.07828479
#
# Stress axis : x y z
#
# Youngs Moduli (GPa) = 43.35852 44.72594 10.47185
#
# Poissons Ratio (x) = 0.56103 -0.11776
# Poissons Ratio (y) = 0.54388 0.31433
# Poissons Ratio (z) = -0.48756 1.34253
#
# Static dielectric constant tensor:
#      x y z
#    x 1.604760 0.000000 0.000000 
#    y 0.000000 1.661900 0.000000 
#    z 0.000000 0.000000 1.697910 
# 
# From -- ./inp_files/26226.got.cif
#   From: 2010.05.17/outbox.ucp.g08.bks.cvg/sg59_14_cif.got.tgz:26226.got - 2010.06.11 16:43:56.
