data_PCOD9453949
_publ_section_title
;
Structure prediction by ZEFSAII (Michael W. Deem and Ramdas Pophale) SiO2 
 PCOD9453949
Probable space group: P B C N
;
_chemical_formula_sum "Si O2"
_cell_formula_units_Z 52
_cell_length_a 14.149554
_cell_length_b 20.392843
_cell_length_c 9.056241
_cell_angle_alpha 90.000000
_cell_angle_beta 90.000000
_cell_angle_gamma 90.000000
_cell_volume 2613.175019
_symmetry_space_group_name_H-M "P B C N"
_symmetry_group_IT_number 60
_symmetry_cell_setting 'orthorhombic'
loop_
_space_group_symop_operation_xyz
x,y,z
1/2-x,1/2-y,1/2+z
1/2+x,1/2-y,-z
-x,y,1/2-z
-x,-y,-z
1/2+x,1/2+y,1/2-z
1/2-x,1/2+y,z
x,-y,1/2+z
loop_
_atom_site_type_symbol
_atom_site_label
_atom_site_fract_x
_atom_site_fract_y
_atom_site_fract_z
Si Si1 0.875569 0.215706 0.992947
Si Si2 0.666793 0.794011 0.422217
Si Si3 0.500000 0.349225 0.750000
Si Si4 0.000000 0.848429 0.250000
Si Si5 0.366291 0.362730 0.510777
Si Si6 0.536837 0.089261 0.981841
Si Si7 0.661909 0.854156 0.088319
Si Si8 0.500000 0.996903 0.750000
O O1 0.940025 0.193255 0.130863
O O2 0.863843 0.292976 0.985257
O O3 0.767890 0.190299 0.995948
O O4 0.926256 0.192624 0.845735
O O5 0.642893 0.717290 0.455958
O O6 0.586243 0.840916 0.485416
O O7 0.671512 0.818214 0.249765
O O8 0.420990 0.387545 0.655990
O O9 0.065225 0.880947 0.374707
O O10 0.261040 0.383107 0.466113
O O11 0.427255 0.099146 0.935933
O O12 0.569737 0.041905 0.848726
O O13 0.548749 0.050613 0.132359
#
# Coordination Sequence:
#
# PCOD9453949 Si02
#       8
#     8   8   4   4   8   8   8   4
#     4  10  21  31  51  74 113 139 198 207 273 340
#     4  11  20  34  51  79 106 155 178 233 271 344
#     4  10  18  33  46  68 104 152 156 231 248 308
#     4  10  18  31  42  68 102 148 168 227 242 312
#     4  10  21  31  51  74 113 139 198 207 273 340
#     4  11  22  39  63  75 121 146 194 229 295 307
#     4  11  20  34  51  79 106 155 178 233 271 344
#     4  10  24  40  54  88 100 152 200 256 252 334
#
# _framework density 19.899166000000001
#
# number of rings (size 3 to 8) (size 9 to 14) (size 15 to 20)
#    0.000    1.538    4.615    1.846    0.000    3.692 
#    0.000    0.000    0.000    0.000    0.000    0.000 
#    0.000   86.154    0.000    0.000    0.000    0.000 
#
# Total GULP energy -289535.380152 kJ/mol
# GULP energy per Si atom -5567.988080 kJ/mol
# Density = 1.985387 g / cm^3
# Si number density = 19.899166 Si / 1000 Ang^3
#
#
#
# Elastic Constant Matrix: (Units=GPa)
#
#
# Indices 1 2 3 4 5 6 
#
# 1 132.4427 8.9219 26.0026 0.0000 0.0000 0.0000
# 2 8.9219 22.2334 4.4192 0.0000 0.0000 0.0000
# 3 26.0026 4.4192 86.8669 0.0000 0.0000 0.0000
# 4 0.0000 0.0000 0.0000 0.9488 0.0000 0.0000
# 5 0.0000 0.0000 0.0000 0.0000 30.8175 0.0000
# 6 0.0000 0.0000 0.0000 0.0000 0.0000 1.7031
#
#
#
# Elastic Compliance Matrix: (Units=1/GPa)
#
#
# Indices 1 2 3 4 5 6 
#
# 1 0.008194 -0.002829 -0.002309 0.000000 0.000000 0.000000
# 2 -0.002829 0.046414 -0.001514 0.000000 0.000000 0.000000
# 3 -0.002309 -0.001514 0.012280 0.000000 0.000000 0.000000
# 4 0.000000 0.000000 0.000000 1.053929 0.000000 0.000000
# 5 0.000000 0.000000 0.000000 0.000000 0.032449 0.000000
# 6 0.000000 0.000000 0.000000 0.000000 0.000000 0.587179
#
#
# Mechanical properties :
#
#
# Convention : Reuss Voigt Hill
#
# Bulk Modulus (GPa) = 18.66261 35.58115 27.12188
# Shear Modulus (GPa) = 2.82229 20.17382 11.49806
#
# Velocity S-wave (km/s) = 1.19221 3.18748 2.40639
# Velocity P-wave (km/s) = 3.36067 5.60948 4.62387
#
# Compressibility (1/GPa) = 0.05358308
#
# Stress axis : x y z
#
# Youngs Moduli (GPa) = 122.03531 21.54531 81.43279
#
# Poissons Ratio (x) = 0.06096 0.18802
# Poissons Ratio (y) = 0.34528 0.12331
# Poissons Ratio (z) = 0.28177 0.03263
#
# Static dielectric constant tensor:
#      x y z
#    x 1.757370 0.000000 0.000000 
#    y 0.000000 1.689670 0.000000 
#    z 0.000000 0.000000 1.794290 
# 
# From -- ./inp_files/6267.got.cif
#   From: 2010.05.17/outbox.cif.g08.bks.cpg/sg60_4_cif.got.tgz:6267.got - 2010.06.03 14:59:27.
