data_PCOD9453572
_publ_section_title
;
Structure prediction by ZEFSAII (Michael W. Deem and Ramdas Pophale) SiO2 
 PCOD9453572
Probable space group: P M M N
;
_chemical_formula_sum "Si O2"
_cell_formula_units_Z 48
_cell_length_a 9.000000
_cell_length_b 9.000000
_cell_length_c 30.000000
_cell_angle_alpha 90.000000
_cell_angle_beta 90.000000
_cell_angle_gamma 90.000000
_cell_volume 2430.000000
_symmetry_space_group_name_H-M "P M M N"
_symmetry_group_IT_number 59
_space_group.IT_coordinate_system_code '2'
_symmetry_cell_setting 'orthorhombic'
loop_
_space_group_symop_operation_xyz
x,y,z
1/2-x,1/2-y,z
1/2+x,-y,-z
-x,1/2+y,-z
-x,-y,-z
1/2+x,1/2+y,-z
1/2-x,y,z
x,1/2-y,z
loop_
_atom_site_type_symbol
_atom_site_label
_atom_site_fract_x
_atom_site_fract_y
_atom_site_fract_z
Si Si1 0.581086 0.084346 0.199795
Si Si2 0.427574 0.424904 0.632924
Si Si3 0.927943 0.076146 0.457608
Si Si4 0.582171 0.071527 0.722593
Si Si5 0.074962 0.054185 0.107474
Si Si6 0.078613 0.750000 0.067787
Si Si7 0.573163 0.750000 0.973509
O O1 0.750000 0.033278 0.196973
O O2 0.577884 0.250000 0.219651
O O3 0.514340 0.097100 0.150613
O O4 0.488907 0.979679 0.231574
O O5 0.250000 0.439831 0.635487
O O6 0.462269 0.250000 0.628361
O O7 0.481905 0.507213 0.588887
O O8 0.494762 0.481560 0.679056
O O9 0.750000 0.054164 0.459470
O O10 0.958975 0.250000 0.458415
O O11 0.000000 0.000000 0.500000
O O12 0.750000 0.017939 0.720320
O O13 0.580639 0.250000 0.721371
O O14 0.250000 0.088075 0.113414
O O15 0.028216 0.117152 0.059279
O O16 0.052571 0.884212 0.100086
O O17 0.250000 0.750000 0.053361
O O18 0.990287 0.750000 0.022218
O O19 0.750000 0.750000 0.977546
#
# Coordination Sequence:
#
# PCOD9453572 Si02
#       7
#     8   8   8   8   8   4   4
#     4  11  24  40  59  84 113 148 189 235 285 337
#     4   9  18  35  57  81 114 154 194 238 287 339
#     4  10  21  36  56  84 118 157 199 244 292 341
#     4  10  22  39  61  88 117 150 187 232 286 344
#     4  10  21  38  57  81 113 147 184 229 280 333
#     4  10  22  36  56  84 112 144 182 228 277 330
#     4  10  20  36  58  80 110 150 186 224 275 330
#
# _framework density 19.753086
#
# number of rings (size 3 to 8) (size 9 to 14) (size 15 to 20)
#    0.000    2.000    0.833    2.000    1.167    5.667 
#    0.000    3.333    0.000    0.000    0.000    0.000 
#    0.000    0.000    0.000    0.000    0.000    0.000 
#
# Total GULP energy -267400.226016 kJ/mol
# GULP energy per Si atom -5570.838042 kJ/mol
# Density = 1.970813 g / cm^3
# Si number density = 19.753086 Si / 1000 Ang^3
#
#
#
# Elastic Constant Matrix: (Units=GPa)
#
#
# Indices 1 2 3 4 5 6 
#
# 1 7.4360 62.5376 42.6257 0.0000 0.0000 0.0000
# 2 62.5376 63.1233 47.7758 0.0000 0.0000 0.0000
# 3 42.6257 47.7758 114.8462 0.0000 0.0000 0.0000
# 4 0.0000 0.0000 0.0000 26.4627 0.0000 0.0000
# 5 0.0000 0.0000 0.0000 0.0000 38.4900 0.0000
# 6 0.0000 0.0000 0.0000 0.0000 0.0000 17.9349
#
#
#
# Elastic Compliance Matrix: (Units=1/GPa)
#
#
# Indices 1 2 3 4 5 6 
#
# 1 -0.018247 0.018904 -0.001091 0.000000 0.000000 0.000000
# 2 0.018904 0.003538 -0.008488 0.000000 0.000000 0.000000
# 3 -0.001091 -0.008488 0.012643 0.000000 0.000000 0.000000
# 4 0.000000 0.000000 0.000000 0.037789 0.000000 0.000000
# 5 0.000000 0.000000 0.000000 0.000000 0.025981 0.000000
# 6 0.000000 0.000000 0.000000 0.000000 0.000000 0.055757
#
#
# Mechanical properties :
#
#
# Convention : Reuss Voigt Hill
#
# Bulk Modulus (GPa) = 60.30300 54.58706 57.44503
# Shear Modulus (GPa) = 47.92052 18.74194 33.33123
#
# Velocity S-wave (km/s) = 4.93076 3.08362 4.11225
# Velocity P-wave (km/s) = 7.93796 6.35397 7.18972
#
# Compressibility (1/GPa) = 0.01658292
#
# Stress axis : x y z
#
# Youngs Moduli (GPa) = -54.80282 282.67277 79.09265
#
# Poissons Ratio (x) = -5.34365 0.08633
# Poissons Ratio (y) = 1.03599 0.67134
# Poissons Ratio (z) = -0.05982 2.39932
#
# Static dielectric constant tensor:
#      x y z
#    x 1.687480 0.000000 0.000000 
#    y 0.000000 1.809460 0.000000 
#    z 0.000000 0.000000 1.644390 
# 
# From -- ./inp_files/32961.got.cif
#   From: 2010.05.17/outbox.ucp.g08.bks.cvg/sg59_17_cif.got.tgz:32961.got - 2010.06.11 16:43:56.
