data_PCOD9453629
_publ_section_title
;
Structure prediction by ZEFSAII (Michael W. Deem and Ramdas Pophale) SiO2 
 PCOD9453629
Probable space group: P M M N
;
_chemical_formula_sum "Si O2"
_cell_formula_units_Z 56
_cell_length_a 9.000000
_cell_length_b 15.000000
_cell_length_c 21.000000
_cell_angle_alpha 90.000000
_cell_angle_beta 90.000000
_cell_angle_gamma 90.000000
_cell_volume 2835.000000
_symmetry_space_group_name_H-M "P M M N"
_symmetry_group_IT_number 59
_space_group.IT_coordinate_system_code '2'
_symmetry_cell_setting 'orthorhombic'
loop_
_space_group_symop_operation_xyz
x,y,z
1/2-x,1/2-y,z
1/2+x,-y,-z
-x,1/2+y,-z
-x,-y,-z
1/2+x,1/2+y,-z
1/2-x,y,z
x,1/2-y,z
loop_
_atom_site_type_symbol
_atom_site_label
_atom_site_fract_x
_atom_site_fract_y
_atom_site_fract_z
Si Si1 0.078810 0.353458 0.704621
Si Si2 0.922236 0.524751 0.419375
Si Si3 0.570544 0.855130 0.540509
Si Si4 0.576639 0.475836 0.803789
Si Si5 0.422258 0.348101 0.894221
Si Si6 0.572285 0.351468 0.160379
Si Si7 0.923288 0.587009 0.970152
O O1 0.250000 0.356306 0.728181
O O2 0.042717 0.250000 0.692878
O O3 0.072886 0.413343 0.642018
O O4 0.971233 0.402193 0.753046
O O5 0.750000 0.502297 0.433513
O O6 0.974911 0.592636 0.475352
O O7 0.008172 0.430781 0.411344
O O8 0.750000 0.853368 0.543149
O O9 0.522791 0.750000 0.544469
O O10 0.750000 0.492518 0.803546
O O11 0.523118 0.427208 0.868215
O O12 0.491351 0.569229 0.796090
O O13 0.250000 0.367123 0.877594
O O14 0.461784 0.250000 0.868376
O O15 0.429191 0.346577 0.970138
O O16 0.750000 0.357450 0.158403
O O17 0.531175 0.250000 0.178486
O O18 0.506011 0.373767 0.090825
O O19 0.750000 0.570344 0.954740
O O20 0.000000 0.500000 0.000000
#
# Coordination Sequence:
#
# PCOD9453629 Si02
#       7
#     8   8   8   8   8   8   8
#     4  10  21  39  62  84 111 150 192 234 281 334
#     4   9  18  33  55  84 115 151 196 238 278 331
#     4   9  17  31  53  83 120 157 191 231 281 333
#     4  12  25  39  58  83 112 144 182 233 285 336
#     4  10  21  37  57  80 110 147 182 219 269 331
#     4  11  24  42  63  84 109 145 188 233 283 341
#     4  11  21  35  58  86 115 147 182 223 277 336
#
# _framework density 19.753086
#
# number of rings (size 3 to 8) (size 9 to 14) (size 15 to 20)
#    0.000    1.714    1.429    3.429    0.000    7.143 
#    0.000    0.714    0.000    3.429    0.000    0.000 
#    0.000    0.000    0.000    0.000    0.000    0.000 
#
# Total GULP energy -312241.235408 kJ/mol
# GULP energy per Si atom -5575.736347 kJ/mol
# Density = 1.970813 g / cm^3
# Si number density = 19.753086 Si / 1000 Ang^3
#
#
#
# Elastic Constant Matrix: (Units=GPa)
#
#
# Indices 1 2 3 4 5 6 
#
# 1 73.8171 63.0827 8.2974 0.0000 0.0000 0.0000
# 2 63.0827 190.6201 15.6853 0.0000 0.0000 0.0000
# 3 8.2974 15.6853 33.4218 0.0000 0.0000 0.0000
# 4 0.0000 0.0000 0.0000 23.4021 0.0000 0.0000
# 5 0.0000 0.0000 0.0000 0.0000 18.8507 0.0000
# 6 0.0000 0.0000 0.0000 0.0000 0.0000 26.7014
#
#
#
# Elastic Compliance Matrix: (Units=1/GPa)
#
#
# Indices 1 2 3 4 5 6 
#
# 1 0.018997 -0.006136 -0.001837 0.000000 0.000000 0.000000
# 2 -0.006136 0.007438 -0.001968 0.000000 0.000000 0.000000
# 3 -0.001837 -0.001968 0.031300 0.000000 0.000000 0.000000
# 4 0.000000 0.000000 0.000000 0.042731 0.000000 0.000000
# 5 0.000000 0.000000 0.000000 0.000000 0.053049 0.000000
# 6 0.000000 0.000000 0.000000 0.000000 0.000000 0.037451
#
#
# Mechanical properties :
#
#
# Convention : Reuss Voigt Hill
#
# Bulk Modulus (GPa) = 26.41637 52.44330 39.42984
# Shear Modulus (GPa) = 22.37490 27.84373 25.10932
#
# Velocity S-wave (km/s) = 3.36926 3.75852 3.56920
# Velocity P-wave (km/s) = 5.34211 6.74110 6.08196
#
# Compressibility (1/GPa) = 0.03785531
#
# Stress axis : x y z
#
# Youngs Moduli (GPa) = 52.64054 134.43728 31.94881
#
# Poissons Ratio (x) = 0.82485 0.05868
# Poissons Ratio (y) = 0.32298 0.06287
# Poissons Ratio (z) = 0.09669 0.26453
#
# Static dielectric constant tensor:
#      x y z
#    x 1.679970 0.000000 0.000000 
#    y 0.000000 1.698980 0.000000 
#    z 0.000000 0.000000 1.809630 
# 
# From -- ./inp_files/29126.got.cif
#   From: 2010.05.17/outbox.ucp.g08.bks.cvg/sg59_15_cif.got.tgz:29126.got - 2010.06.11 16:43:56.
