data_PCOD9453622
_publ_section_title
;
Structure prediction by ZEFSAII (Michael W. Deem and Ramdas Pophale) SiO2 
 PCOD9453622
Probable space group: P M M N
;
_chemical_formula_sum "Si O2"
_cell_formula_units_Z 48
_cell_length_a 9.000000
_cell_length_b 9.000000
_cell_length_c 30.000000
_cell_angle_alpha 90.000000
_cell_angle_beta 90.000000
_cell_angle_gamma 90.000000
_cell_volume 2430.000000
_symmetry_space_group_name_H-M "P M M N"
_symmetry_group_IT_number 59
_space_group.IT_coordinate_system_code '2'
_symmetry_cell_setting 'orthorhombic'
loop_
_space_group_symop_operation_xyz
x,y,z
1/2-x,1/2-y,z
1/2+x,-y,-z
-x,1/2+y,-z
-x,-y,-z
1/2+x,1/2+y,-z
1/2-x,y,z
x,1/2-y,z
loop_
_atom_site_type_symbol
_atom_site_label
_atom_site_fract_x
_atom_site_fract_y
_atom_site_fract_z
Si Si1 0.571772 0.423665 0.542502
Si Si2 0.250000 0.928951 0.032190
Si Si3 0.412667 0.921939 0.198844
Si Si4 0.072175 0.074981 0.366287
Si Si5 0.574589 0.078662 0.275992
Si Si6 0.554037 0.926478 0.894661
Si Si7 0.750000 0.427807 0.068664
O O1 0.500000 0.500000 0.500000
O O2 0.750000 0.443119 0.540304
O O3 0.538270 0.250000 0.542099
O O4 0.520354 0.494392 0.589050
O O5 0.250000 0.750000 0.033450
O O6 0.118723 0.995531 0.061561
O O7 0.250000 0.986522 0.981662
O O8 0.250000 0.933767 0.221010
O O9 0.441263 0.750000 0.188959
O O10 0.530001 0.989471 0.232364
O O11 0.402359 0.009148 0.152569
O O12 0.250000 0.060070 0.363229
O O13 0.036417 0.250000 0.370038
O O14 0.000821 0.018006 0.320715
O O15 0.750000 0.078684 0.282104
O O16 0.523794 0.250000 0.269972
O O17 0.580849 0.750000 0.896647
O O18 0.385285 0.964188 0.900738
O O19 0.750000 0.250000 0.061902
#
# Coordination Sequence:
#
# PCOD9453622 Si02
#       7
#     8   4   8   8   8   8   4
#     4  10  21  36  56  84 118 157 200 246 295 346
#     4  11  21  39  61  87 121 151 187 237 284 337
#     4  11  24  41  60  84 115 150 191 241 291 340
#     4   9  18  35  58  83 115 156 200 242 287 344
#     4  10  22  39  61  89 119 151 189 236 289 349
#     4  11  22  39  62  87 114 152 195 234 282 344
#     4   9  22  39  59  87 119 151 189 237 286 335
#
# _framework density 19.753086
#
# number of rings (size 3 to 8) (size 9 to 14) (size 15 to 20)
#    0.000    1.833    0.833    2.750    1.167    4.333 
#    0.000    7.083    0.000    0.000    0.000    0.000 
#    0.000    0.000    0.000    0.000    0.000    0.000 
#
# Total GULP energy -267480.763827 kJ/mol
# GULP energy per Si atom -5572.515913 kJ/mol
# Density = 1.970813 g / cm^3
# Si number density = 19.753086 Si / 1000 Ang^3
#
#
#
# Elastic Constant Matrix: (Units=GPa)
#
#
# Indices 1 2 3 4 5 6 
#
# 1 64.0785 32.4312 39.1391 0.0000 0.0000 0.0000
# 2 32.4312 60.5852 47.5820 0.0000 0.0000 0.0000
# 3 39.1391 47.5820 133.1194 0.0000 0.0000 0.0000
# 4 0.0000 0.0000 0.0000 27.5063 0.0000 0.0000
# 5 0.0000 0.0000 0.0000 0.0000 57.6164 0.0000
# 6 0.0000 0.0000 0.0000 0.0000 0.0000 3.3025
#
#
#
# Elastic Compliance Matrix: (Units=1/GPa)
#
#
# Indices 1 2 3 4 5 6 
#
# 1 0.022338 -0.009453 -0.003189 0.000000 0.000000 0.000000
# 2 -0.009453 0.026948 -0.006853 0.000000 0.000000 0.000000
# 3 -0.003189 -0.006853 0.010899 0.000000 0.000000 0.000000
# 4 0.000000 0.000000 0.000000 0.036355 0.000000 0.000000
# 5 0.000000 0.000000 0.000000 0.000000 0.017356 0.000000
# 6 0.000000 0.000000 0.000000 0.000000 0.000000 0.302800
#
#
# Mechanical properties :
#
#
# Convention : Reuss Voigt Hill
#
# Bulk Modulus (GPa) = 47.17988 55.12084 51.15036
# Shear Modulus (GPa) = 10.80493 26.92709 18.86601
#
# Velocity S-wave (km/s) = 2.34134 3.69614 3.09381
# Velocity P-wave (km/s) = 5.58980 6.79564 6.22200
#
# Compressibility (1/GPa) = 0.02119548
#
# Stress axis : x y z
#
# Youngs Moduli (GPa) = 44.76697 37.10860 91.75074
#
# Poissons Ratio (x) = 0.35079 0.29257
# Poissons Ratio (y) = 0.42318 0.62876
# Poissons Ratio (z) = 0.14275 0.25430
#
# Static dielectric constant tensor:
#      x y z
#    x 1.708280 0.000000 0.000000 
#    y 0.000000 1.674790 0.000000 
#    z 0.000000 0.000000 1.637810 
# 
# From -- ./inp_files/33023.got.cif
#   From: 2010.05.17/outbox.ucp.g08.bks.cvg/sg59_17_cif.got.tgz:33023.got - 2010.06.11 16:43:56.
