data_PCOD9453857
_publ_section_title
;
Structure prediction by ZEFSAII (Michael W. Deem and Ramdas Pophale) SiO2 
 PCOD9453857
Probable space group: P B C N
;
_chemical_formula_sum "Si O2"
_cell_formula_units_Z 56
_cell_length_a 10.160957
_cell_length_b 16.454122
_cell_length_c 15.412069
_cell_angle_alpha 90.000000
_cell_angle_beta 90.000000
_cell_angle_gamma 90.000000
_cell_volume 2576.738054
_symmetry_space_group_name_H-M "P B C N"
_symmetry_group_IT_number 60
_symmetry_cell_setting 'orthorhombic'
loop_
_space_group_symop_operation_xyz
x,y,z
1/2-x,1/2-y,1/2+z
1/2+x,1/2-y,-z
-x,y,1/2-z
-x,-y,-z
1/2+x,1/2+y,1/2-z
1/2-x,1/2+y,z
x,-y,1/2+z
loop_
_atom_site_type_symbol
_atom_site_label
_atom_site_fract_x
_atom_site_fract_y
_atom_site_fract_z
Si Si1 0.016735 0.290603 0.067639
Si Si2 0.500000 0.626566 0.250000
Si Si3 0.238624 0.240063 0.186320
Si Si4 0.500000 0.993211 0.750000
Si Si5 0.940852 0.106917 0.062039
Si Si6 0.932961 0.381956 0.901954
Si Si7 0.292162 0.460605 0.481469
Si Si8 0.812186 0.619302 0.690837
O O1 0.162940 0.274343 0.101920
O O2 0.940953 0.204311 0.058195
O O3 0.937018 0.338514 0.142338
O O4 0.013245 0.338255 0.977776
O O5 0.626500 0.681843 0.272376
O O6 0.462506 0.580879 0.337584
O O7 0.359899 0.186141 0.155933
O O8 0.262815 0.312469 0.253995
O O9 0.510051 0.939336 0.663872
O O10 0.371919 0.050173 0.747307
O O11 0.072837 0.079433 0.013792
O O12 0.819023 0.056607 0.025102
O O13 0.822796 0.434564 0.953032
O O14 0.263931 0.422616 0.387521
#
# Coordination Sequence:
#
# PCOD9453857 Si02
#       8
#     8   4   8   4   8   8   8   8
#     4  10  20  41  67  91 121 171 220 259 308 405
#     4  10  17  34  66  89 118 166 216 252 303 390
#     4  11  19  43  70  90 123 175 215 258 316 400
#     4  12  27  44  60  97 138 164 218 278 325 380
#     4  10  20  40  64  97 126 167 215 266 314 387
#     4  11  26  42  62  99 130 166 219 272 329 378
#     4  10  23  38  64  95 132 164 210 269 326 381
#     4  11  22  41  64  94 126 174 212 260 329 391
#
# _framework density 21.732903
#
# number of rings (size 3 to 8) (size 9 to 14) (size 15 to 20)
#    0.000    1.429    7.143    0.000    2.000    4.571 
#    2.571    1.429    0.000    0.000    0.000    0.000 
#    0.000    0.000    0.000    0.000    0.000    0.000 
#
# Total GULP energy -313073.161595 kJ/mol
# GULP energy per Si atom -5590.592171 kJ/mol
# Density = 2.168344 g / cm^3
# Si number density = 21.732903 Si / 1000 Ang^3
#
#
#
# Elastic Constant Matrix: (Units=GPa)
#
#
# Indices 1 2 3 4 5 6 
#
# 1 27.2950 13.6528 8.9254 0.0000 0.0000 0.0000
# 2 13.6528 90.1236 39.1705 0.0000 0.0000 0.0000
# 3 8.9254 39.1705 91.4321 0.0000 0.0000 0.0000
# 4 0.0000 0.0000 0.0000 47.1242 0.0000 0.0000
# 5 0.0000 0.0000 0.0000 0.0000 13.9518 0.0000
# 6 0.0000 0.0000 0.0000 0.0000 0.0000 -3.7911
#
#
#
# Elastic Compliance Matrix: (Units=1/GPa)
#
#
# Indices 1 2 3 4 5 6 
#
# 1 0.039830 -0.005338 -0.001601 0.000000 0.000000 0.000000
# 2 -0.005338 0.014350 -0.005627 0.000000 0.000000 0.000000
# 3 -0.001601 -0.005627 0.013504 0.000000 0.000000 0.000000
# 4 0.000000 0.000000 0.000000 0.021221 0.000000 0.000000
# 5 0.000000 0.000000 0.000000 0.000000 0.071675 0.000000
# 6 0.000000 0.000000 0.000000 0.000000 0.000000 -0.263779
#
#
# Mechanical properties :
#
#
# Convention : Reuss Voigt Hill
#
# Bulk Modulus (GPa) = 23.50032 36.92755 30.21393
# Shear Modulus (GPa) = -78.26807 21.26380 -28.50214
#
# Velocity S-wave (km/s) = -6.00765 3.13136 -3.62536
# Velocity P-wave (km/s) = 6.10620 5.48655 1.89518
#
# Compressibility (1/GPa) = 0.04255261
#
# Stress axis : x y z
#
# Youngs Moduli (GPa) = 25.10644 69.68634 74.05264
#
# Poissons Ratio (x) = 0.37198 0.11858
# Poissons Ratio (y) = 0.13402 0.41667
# Poissons Ratio (z) = 0.04020 0.39210
#
# Static dielectric constant tensor:
#      x y z
#    x 1.787570 0.000000 0.000000 
#    y 0.000000 1.815920 0.000000 
#    z 0.000000 0.000000 1.788260 
# 
# From -- ./inp_files/16195.got.cif
#   From: 2010.05.17/outbox.cif.g08.bks.cpg/sg60_9_cif.got.tgz:16195.got - 2010.06.03 14:59:27.
