data_PCOD9453223
_publ_section_title
;
Structure prediction by ZEFSAII (Michael W. Deem and Ramdas Pophale) SiO2 
 PCOD9453223
Probable space group: P M M N
;
_chemical_formula_sum "Si O2"
_cell_formula_units_Z 64
_cell_length_a 14.967195
_cell_length_b 9.488074
_cell_length_c 21.995878
_cell_angle_alpha 90.000000
_cell_angle_beta 90.000000
_cell_angle_gamma 90.000000
_cell_volume 3123.631417
_symmetry_space_group_name_H-M "P M M N"
_symmetry_group_IT_number 59
_space_group.IT_coordinate_system_code '2'
_symmetry_cell_setting 'orthorhombic'
loop_
_space_group_symop_operation_xyz
x,y,z
1/2-x,1/2-y,z
1/2+x,-y,-z
-x,1/2+y,-z
-x,-y,-z
1/2+x,1/2+y,-z
1/2-x,y,z
x,1/2-y,z
loop_
_atom_site_type_symbol
_atom_site_label
_atom_site_fract_x
_atom_site_fract_y
_atom_site_fract_z
Si Si1 0.108924 0.585854 0.675976
Si Si2 0.891126 0.585070 0.676691
Si Si3 0.609354 0.087664 0.559271
Si Si4 0.357009 0.413075 0.059992
Si Si5 0.857074 0.910376 0.071243
Si Si6 0.606947 0.409100 0.189895
Si Si7 0.606272 0.588965 0.809347
Si Si8 0.390804 0.087819 0.559069
O O1 0.134260 0.750000 0.667625
O O2 0.138643 0.540148 0.743654
O O3 0.139156 0.488678 0.620799
O O4 0.000017 0.582738 0.674922
O O5 0.865606 0.750000 0.670346
O O6 0.860718 0.491095 0.620505
O O7 0.862631 0.532564 0.743935
O O8 0.637695 0.250000 0.556968
O O9 0.500070 0.087555 0.559405
O O10 0.637152 0.000808 0.499832
O O11 0.250000 0.407758 0.058166
O O12 0.390469 0.250000 0.061803
O O13 0.377614 0.481484 0.125211
O O14 0.387745 0.471338 0.994447
O O15 0.750000 0.902010 0.067534
O O16 0.891356 0.750000 0.077083
O O17 0.875735 0.998421 0.131119
O O18 0.640773 0.250000 0.180719
O O19 0.500135 0.401337 0.195450
O O20 0.642143 0.750000 0.813129
O O21 0.362464 0.250000 0.555808
#
# Coordination Sequence:
#
# PCOD9453223 Si02
#       8
#     8   8   8   8   8   8   8   8
#     4   8  14  24  35  49  73 103 132 164 205 249
#     4   8  13  22  35  50  72 102 133 167 206 245
#     4   9  15  21  30  46  71 103 136 168 201 241
#     4   8  14  26  44  64  86 113 143 174 211 255
#     4   9  18  31  45  62  85 112 142 177 214 252
#     4   9  17  28  43  63  86 112 141 175 216 259
#     4   8  14  25  41  61  85 112 142 177 215 254
#     4   9  15  21  31  48  70 100 137 170 200 239
#
# _framework density 20.488973999999999
#
# number of rings (size 3 to 8) (size 9 to 14) (size 15 to 20)
#    0.000    3.500    0.000    3.000    0.000    4.250 
#    0.000    1.875    0.000    0.750    0.000    0.000 
#    0.000    1.000    0.000    5.250    0.000    5.875 
#
# Total GULP energy -356383.966819 kJ/mol
# GULP energy per Si atom -5568.499482 kJ/mol
# Density = 2.044234 g / cm^3
# Si number density = 20.488974 Si / 1000 Ang^3
#
#
#
# Elastic Constant Matrix: (Units=GPa)
#
#
# Indices 1 2 3 4 5 6 
#
# 1 43.9427 2.8755 7.9694 0.0000 0.0000 0.0000
# 2 2.8755 92.5012 115.0637 0.0000 0.0000 0.0000
# 3 7.9694 115.0637 282.2356 0.0000 0.0000 0.0000
# 4 0.0000 0.0000 0.0000 24.5898 0.0000 0.0000
# 5 0.0000 0.0000 0.0000 0.0000 73.8016 0.0000
# 6 0.0000 0.0000 0.0000 0.0000 0.0000 -7.1342
#
#
#
# Elastic Compliance Matrix: (Units=1/GPa)
#
#
# Indices 1 2 3 4 5 6 
#
# 1 0.022876 0.000187 -0.000722 0.000000 0.000000 0.000000
# 2 0.000187 0.021936 -0.008948 0.000000 0.000000 0.000000
# 3 -0.000722 -0.008948 0.007212 0.000000 0.000000 0.000000
# 4 0.000000 0.000000 0.000000 0.040667 0.000000 0.000000
# 5 0.000000 0.000000 0.000000 0.000000 0.013550 0.000000
# 6 0.000000 0.000000 0.000000 0.000000 0.000000 -0.140170
#
#
# Mechanical properties :
#
#
# Convention : Reuss Voigt Hill
#
# Bulk Modulus (GPa) = 30.25107 74.49963 52.37535
# Shear Modulus (GPa) = -1267.37908 37.76951 -614.80479
#
# Velocity S-wave (km/s) = -24.89798 4.29815 -17.34121
# Velocity P-wave (km/s) = 28.49121 7.81485 19.37366
#
# Compressibility (1/GPa) = 0.03305669
#
# Stress axis : x y z
#
# Youngs Moduli (GPa) = 43.71457 45.58802 138.66600
#
# Poissons Ratio (x) = -0.00854 0.10016
# Poissons Ratio (y) = -0.00819 1.24080
# Poissons Ratio (z) = 0.03158 0.40793
#
# Static dielectric constant tensor:
#      x y z
#    x 1.777210 0.000000 0.000000 
#    y 0.000000 1.699160 0.000000 
#    z 0.000000 0.000000 1.778010 
# 
# From -- ./inp_files/30892.got.cif
#   From: 2010.05.17/outbox.cif.g08.bks.cpg/sg59_16_cif.got.tgz:30892.got - 2010.06.03 14:40:33.
