data_PCOD9453871
_publ_section_title
;
Structure prediction by ZEFSAII (Michael W. Deem and Ramdas Pophale) SiO2 
 PCOD9453871
Probable space group: P B C N
;
_chemical_formula_sum "Si O2"
_cell_formula_units_Z 48
_cell_length_a 21.506772
_cell_length_b 15.605398
_cell_length_c 5.378153
_cell_angle_alpha 90.000000
_cell_angle_beta 90.000000
_cell_angle_gamma 90.000000
_cell_volume 1805.025050
_symmetry_space_group_name_H-M "P B C N"
_symmetry_group_IT_number 60
_symmetry_cell_setting 'orthorhombic'
loop_
_space_group_symop_operation_xyz
x,y,z
1/2-x,1/2-y,1/2+z
1/2+x,1/2-y,-z
-x,y,1/2-z
-x,-y,-z
1/2+x,1/2+y,1/2-z
1/2-x,1/2+y,z
x,-y,1/2+z
loop_
_atom_site_type_symbol
_atom_site_label
_atom_site_fract_x
_atom_site_fract_y
_atom_site_fract_z
Si Si1 0.438037 0.861242 0.352074
Si Si2 0.698002 0.117419 0.514303
Si Si3 0.686835 0.548507 0.770415
Si Si4 0.594654 0.688075 0.403672
Si Si5 0.500000 0.736144 0.750000
Si Si6 0.500000 0.443739 0.750000
Si Si7 0.286151 0.315575 0.853353
O O1 0.500000 0.909827 0.250000
O O2 0.374794 0.903809 0.452112
O O3 0.415488 0.788998 0.154805
O O4 0.465915 0.799542 0.561400
O O5 0.740250 0.054078 0.678635
O O6 0.724460 0.134064 0.233770
O O7 0.712602 0.214212 0.612771
O O8 0.662798 0.507915 0.509310
O O9 0.683130 0.640958 0.906138
O O10 0.555537 0.677375 0.651326
O O11 0.557637 0.622762 0.229116
O O12 0.666569 0.671944 0.376070
O O13 0.500000 0.500000 0.500000
#
# Coordination Sequence:
#
# PCOD9453871 Si02
#       7
#     8   8   8   8   4   4   8
#     4   9  20  37  66 100 133 177 223 300 365 417
#     4  11  23  42  71 108 141 183 251 303 355 429
#     4  12  26  47  68 101 150 194 226 285 375 442
#     4  10  22  39  58  92 134 180 236 303 356 408
#     4  10  17  36  66  90 136 175 226 294 390 402
#     4  12  25  42  60  86 126 189 238 276 328 422
#     4  11  24  40  71 104 139 185 252 309 354 424
#
# _framework density 26.592426
#
# number of rings (size 3 to 8) (size 9 to 14) (size 15 to 20)
#    0.000    1.333    5.833    0.500    2.333    2.667 
#    0.000    0.000    0.000    1.000    0.000    0.000 
#    0.000    0.000    0.000    0.000    0.000    0.000 
#
# Total GULP energy -267429.238325 kJ/mol
# GULP energy per Si atom -5571.442465 kJ/mol
# Density = 2.653190 g / cm^3
# Si number density = 26.592426 Si / 1000 Ang^3
#
#
#
# Elastic Constant Matrix: (Units=GPa)
#
#
# Indices 1 2 3 4 5 6 
#
# 1 124.6095 -26.4170 -5.6028 0.0000 0.0000 0.0000
# 2 -26.4170 39.7840 5.7215 0.0000 0.0000 0.0000
# 3 -5.6028 5.7215 124.2766 0.0000 0.0000 0.0000
# 4 0.0000 0.0000 0.0000 30.6569 0.0000 0.0000
# 5 0.0000 0.0000 0.0000 0.0000 28.1869 0.0000
# 6 0.0000 0.0000 0.0000 0.0000 0.0000 20.0419
#
#
#
# Elastic Compliance Matrix: (Units=1/GPa)
#
#
# Indices 1 2 3 4 5 6 
#
# 1 0.009342 0.006184 0.000136 0.000000 0.000000 0.000000
# 2 0.006184 0.029396 -0.001075 0.000000 0.000000 0.000000
# 3 0.000136 -0.001075 0.008102 0.000000 0.000000 0.000000
# 4 0.000000 0.000000 0.000000 0.032619 0.000000 0.000000
# 5 0.000000 0.000000 0.000000 0.000000 0.035478 0.000000
# 6 0.000000 0.000000 0.000000 0.000000 0.000000 0.049896
#
#
# Mechanical properties :
#
#
# Convention : Reuss Voigt Hill
#
# Bulk Modulus (GPa) = 17.44237 26.23039 21.83638
# Shear Modulus (GPa) = 28.82638 36.77501 32.80070
#
# Velocity S-wave (km/s) = 3.29600 3.72279 3.51588
# Velocity P-wave (km/s) = 4.58892 5.32580 4.97103
#
# Compressibility (1/GPa) = 0.05733167
#
# Stress axis : x y z
#
# Youngs Moduli (GPa) = 107.04198 34.01793 123.42335
#
# Poissons Ratio (x) = -0.21035 -0.01685
# Poissons Ratio (y) = -0.66191 0.13263
# Poissons Ratio (z) = -0.01461 0.03656
#
# Static dielectric constant tensor:
#      x y z
#    x 2.149470 0.000000 0.000000 
#    y 0.000000 2.096230 0.000000 
#    z 0.000000 0.000000 2.289190 
# 
# From -- ./inp_files/2355.got.cif
#   From: 2010.05.17/outbox.cif.g08.bks.cpg/sg60_2_cif.got.tgz:2355.got - 2010.06.03 14:59:27.
