data_PCOD9453613
_publ_section_title
;
Structure prediction by ZEFSAII (Michael W. Deem and Ramdas Pophale) SiO2 
 PCOD9453613
Probable space group: P M M N
;
_chemical_formula_sum "Si O2"
_cell_formula_units_Z 56
_cell_length_a 15.000000
_cell_length_b 9.000000
_cell_length_c 21.000000
_cell_angle_alpha 90.000000
_cell_angle_beta 90.000000
_cell_angle_gamma 90.000000
_cell_volume 2835.000000
_symmetry_space_group_name_H-M "P M M N"
_symmetry_group_IT_number 59
_space_group.IT_coordinate_system_code '2'
_symmetry_cell_setting 'orthorhombic'
loop_
_space_group_symop_operation_xyz
x,y,z
1/2-x,1/2-y,z
1/2+x,-y,-z
-x,1/2+y,-z
-x,-y,-z
1/2+x,1/2+y,-z
1/2-x,y,z
x,1/2-y,z
loop_
_atom_site_type_symbol
_atom_site_label
_atom_site_fract_x
_atom_site_fract_y
_atom_site_fract_z
Si Si1 0.855148 0.424977 0.537596
Si Si2 0.970253 0.071112 0.659873
Si Si3 0.484815 0.426530 0.212717
Si Si4 0.852221 0.925887 0.151114
Si Si5 0.850432 0.571298 0.403359
Si Si6 0.653240 0.922268 0.897605
Si Si7 0.406219 0.573993 0.981431
O O1 0.750000 0.443033 0.550847
O O2 0.872099 0.250000 0.525915
O O3 0.912021 0.470398 0.598561
O O4 0.875355 0.514199 0.473575
O O5 0.965627 0.250000 0.667243
O O6 0.072197 0.026557 0.644743
O O7 0.941346 0.991481 0.723950
O O8 0.494762 0.250000 0.216760
O O9 0.578820 0.504902 0.200427
O O10 0.423929 0.460243 0.151511
O O11 0.750000 0.948815 0.170159
O O12 0.868107 0.750000 0.144762
O O13 0.869604 0.003349 0.083232
O O14 0.750000 0.518452 0.388619
O O15 0.849201 0.750000 0.404485
O O16 0.750000 0.930071 0.865734
O O17 0.640366 0.750000 0.918660
O O18 0.652098 0.027962 0.958180
O O19 0.414435 0.750000 0.973969
O O20 0.500000 0.500000 0.000000
#
# Coordination Sequence:
#
# PCOD9453613 Si02
#       7
#     8   8   8   8   8   8   8
#     4   9  18  33  54  81 111 143 181 229 282 333
#     4  10  21  36  54  77 111 150 187 229 280 340
#     4  11  24  40  59  84 115 154 197 243 285 337
#     4  11  24  42  64  88 117 154 192 237 295 351
#     4   9  18  33  54  80 108 140 180 227 280 337
#     4  10  22  41  62  85 116 153 192 239 296 349
#     4  12  23  37  62  92 121 152 190 239 292 345
#
# _framework density 19.753086
#
# number of rings (size 3 to 8) (size 9 to 14) (size 15 to 20)
#    0.000    1.714    1.429    3.000    0.000    6.000 
#    0.000    1.429    0.000    0.000    0.000    0.000 
#    0.000    0.000    0.000    0.000    0.000    0.000 
#
# Total GULP energy -312746.558470 kJ/mol
# GULP energy per Si atom -5584.759973 kJ/mol
# Density = 1.970813 g / cm^3
# Si number density = 19.753086 Si / 1000 Ang^3
#
#
#
# Elastic Constant Matrix: (Units=GPa)
#
#
# Indices 1 2 3 4 5 6 
#
# 1 57.7771 24.0737 12.3752 0.0000 0.0000 0.0000
# 2 24.0737 19.5671 9.6143 0.0000 0.0000 0.0000
# 3 12.3752 9.6143 47.3462 0.0000 0.0000 0.0000
# 4 0.0000 0.0000 0.0000 31.0133 0.0000 0.0000
# 5 0.0000 0.0000 0.0000 0.0000 -5.6127 0.0000
# 6 0.0000 0.0000 0.0000 0.0000 0.0000 18.7843
#
#
#
# Elastic Compliance Matrix: (Units=1/GPa)
#
#
# Indices 1 2 3 4 5 6 
#
# 1 0.035522 -0.043479 -0.000456 0.000000 0.000000 0.000000
# 2 -0.043479 0.109989 -0.010970 0.000000 0.000000 0.000000
# 3 -0.000456 -0.010970 0.023468 0.000000 0.000000 0.000000
# 4 0.000000 0.000000 0.000000 0.032244 0.000000 0.000000
# 5 0.000000 0.000000 0.000000 0.000000 -0.178169 0.000000
# 6 0.000000 0.000000 0.000000 0.000000 0.000000 0.053236
#
#
# Mechanical properties :
#
#
# Convention : Reuss Voigt Hill
#
# Bulk Modulus (GPa) = 16.90078 24.09075 20.49576
# Shear Modulus (GPa) = 24.29278 14.07880 19.18579
#
# Velocity S-wave (km/s) = 3.51069 2.67261 3.11992
# Velocity P-wave (km/s) = 5.00078 4.66329 4.83498
#
# Compressibility (1/GPa) = 0.05916887
#
# Stress axis : x y z
#
# Youngs Moduli (GPa) = 28.15194 9.09181 42.61155
#
# Poissons Ratio (x) = 0.39530 0.01941
# Poissons Ratio (y) = 1.22401 0.46747
# Poissons Ratio (z) = 0.01282 0.09974
#
# Static dielectric constant tensor:
#      x y z
#    x 1.773600 0.000000 0.000000 
#    y 0.000000 1.657480 0.000000 
#    z 0.000000 0.000000 1.659420 
# 
# From -- ./inp_files/28994.got.cif
#   From: 2010.05.17/outbox.ucp.g08.bks.cvg/sg59_15_cif.got.tgz:28994.got - 2010.06.11 16:43:56.
