data_PCOD9453423
_publ_section_title
;
Structure prediction by ZEFSAII (Michael W. Deem and Ramdas Pophale) SiO2 
 PCOD9453423
Probable space group: P M M N
;
_chemical_formula_sum "Si O2"
_cell_formula_units_Z 64
_cell_length_a 9.000000
_cell_length_b 21.000000
_cell_length_c 18.000000
_cell_angle_alpha 90.000000
_cell_angle_beta 90.000000
_cell_angle_gamma 90.000000
_cell_volume 3402.000000
_symmetry_space_group_name_H-M "P M M N"
_symmetry_group_IT_number 59
_space_group.IT_coordinate_system_code '2'
_symmetry_cell_setting 'orthorhombic'
loop_
_space_group_symop_operation_xyz
x,y,z
1/2-x,1/2-y,z
1/2+x,-y,-z
-x,1/2+y,-z
-x,-y,-z
1/2+x,1/2+y,-z
1/2-x,y,z
x,1/2-y,z
loop_
_atom_site_type_symbol
_atom_site_label
_atom_site_fract_x
_atom_site_fract_y
_atom_site_fract_z
Si Si1 0.579291 0.678313 0.072725
Si Si2 0.572470 0.569342 0.493016
Si Si3 0.919204 0.011491 0.078154
Si Si4 0.427998 0.065270 0.668357
Si Si5 0.919149 0.161636 0.079451
Si Si6 0.427024 0.074284 0.344686
Si Si7 0.574973 0.416771 0.818508
Si Si8 0.927144 0.319551 0.247600
O O1 0.750000 0.657130 0.078724
O O2 0.570450 0.750000 0.100960
O O3 0.471112 0.634669 0.120153
O O4 0.527333 0.677856 0.987532
O O5 0.500000 0.500000 0.500000
O O6 0.750000 0.561644 0.490433
O O7 0.530015 0.595304 0.411914
O O8 0.537677 0.600714 0.572101
O O9 0.750000 0.987418 0.075324
O O10 0.914974 0.086206 0.087127
O O11 0.005388 0.980511 0.146487
O O12 0.000000 0.000000 0.000000
O O13 0.250000 0.064805 0.676244
O O14 0.501017 0.097439 0.739586
O O15 0.489378 0.992800 0.666280
O O16 0.750000 0.182097 0.061988
O O17 0.963196 0.184387 0.160518
O O18 0.250000 0.063382 0.339366
O O19 0.482415 0.125098 0.286010
O O20 0.750000 0.422468 0.811127
O O21 0.750000 0.332633 0.252434
O O22 0.955866 0.250000 0.281453
#
# Coordination Sequence:
#
# PCOD9453423 Si02
#       8
#     8   8   8   8   8   8   8   8
#     4  11  24  40  58  78 101 135 180 227 274 324
#     4   8  16  30  51  79 109 139 169 207 258 316
#     4  11  21  34  54  81 111 141 175 218 271 327
#     4  10  19  34  56  82 112 143 177 220 272 328
#     4  10  21  37  57  78 103 139 180 223 269 317
#     4  10  19  33  54  82 113 142 177 219 268 328
#     4  12  24  37  55  81 111 144 180 222 271 321
#     4  10  21  36  53  75 106 146 190 229 267 316
#
# _framework density 18.812463000000001
#
# number of rings (size 3 to 8) (size 9 to 14) (size 15 to 20)
#    0.000    1.750    1.250    3.750    0.000    4.750 
#    0.000    0.000    0.000    0.750    0.000    1.750 
#    0.000    0.000    0.000    0.000    0.000    0.000 
#
# Total GULP energy -356864.736490 kJ/mol
# GULP energy per Si atom -5576.011508 kJ/mol
# Density = 1.876965 g / cm^3
# Si number density = 18.812463 Si / 1000 Ang^3
#
#
#
# Elastic Constant Matrix: (Units=GPa)
#
#
# Indices 1 2 3 4 5 6 
#
# 1 74.9168 13.1364 37.4774 0.0000 0.0000 0.0000
# 2 13.1364 72.0860 6.4768 0.0000 0.0000 0.0000
# 3 37.4774 6.4768 94.6372 0.0000 0.0000 0.0000
# 4 0.0000 0.0000 0.0000 167.6708 0.0000 0.0000
# 5 0.0000 0.0000 0.0000 0.0000 29.7873 0.0000
# 6 0.0000 0.0000 0.0000 0.0000 0.0000 -7.8756
#
#
#
# Elastic Compliance Matrix: (Units=1/GPa)
#
#
# Indices 1 2 3 4 5 6 
#
# 1 0.017090 -0.002522 -0.006595 0.000000 0.000000 0.000000
# 2 -0.002522 0.014330 0.000018 0.000000 0.000000 0.000000
# 3 -0.006595 0.000018 0.013177 0.000000 0.000000 0.000000
# 4 0.000000 0.000000 0.000000 0.005964 0.000000 0.000000
# 5 0.000000 0.000000 0.000000 0.000000 0.033571 0.000000
# 6 0.000000 0.000000 0.000000 0.000000 0.000000 -0.126974
#
#
# Mechanical properties :
#
#
# Convention : Reuss Voigt Hill
#
# Bulk Modulus (GPa) = 37.87998 39.53568 38.70783
# Shear Modulus (GPa) = -315.56299 50.21979 -132.67160
#
# Velocity S-wave (km/s) = -12.96555 5.17232 -8.40692
# Velocity P-wave (km/s) = 14.28151 7.53206 8.57991
#
# Compressibility (1/GPa) = 0.02639917
#
# Stress axis : x y z
#
# Youngs Moduli (GPa) = 58.51542 69.78246 75.88883
#
# Poissons Ratio (x) = 0.17597 0.50049
# Poissons Ratio (y) = 0.14756 -0.00136
# Poissons Ratio (z) = 0.38591 -0.00125
#
# Static dielectric constant tensor:
#      x y z
#    x 1.653670 0.000000 0.000000 
#    y 0.000000 2.012420 0.000000 
#    z 0.000000 0.000000 1.688720 
# 
# From -- ./inp_files/26358.got.cif
#   From: 2010.05.17/outbox.ucp.g08.bks.cvg/sg59_14_cif.got.tgz:26358.got - 2010.06.11 16:43:56.
