data_PCOD9453129
_publ_section_title
;
Structure prediction by ZEFSAII (Michael W. Deem and Ramdas Pophale) SiO2 
 PCOD9453129
Probable space group: P M M N
;
_chemical_formula_sum "Si O2"
_cell_formula_units_Z 64
_cell_length_a 8.669622
_cell_length_b 30.121452
_cell_length_c 12.815693
_cell_angle_alpha 90.000000
_cell_angle_beta 90.000000
_cell_angle_gamma 90.000000
_cell_volume 3346.710613
_symmetry_space_group_name_H-M "P M M N"
_symmetry_group_IT_number 59
_space_group.IT_coordinate_system_code '2'
_symmetry_cell_setting 'orthorhombic'
loop_
_space_group_symop_operation_xyz
x,y,z
1/2-x,1/2-y,z
1/2+x,-y,-z
-x,1/2+y,-z
-x,-y,-z
1/2+x,1/2+y,-z
1/2-x,y,z
x,1/2-y,z
loop_
_atom_site_type_symbol
_atom_site_label
_atom_site_fract_x
_atom_site_fract_y
_atom_site_fract_z
Si Si1 0.934585 0.625569 0.377709
Si Si2 0.436768 0.801512 0.224413
Si Si3 0.438284 0.124091 0.383211
Si Si4 0.064357 0.449170 0.220416
Si Si5 0.926530 0.195905 0.005489
Si Si6 0.564624 0.800727 0.775092
Si Si7 0.934505 0.449894 0.003759
Si Si8 0.064143 0.552861 0.226364
O O1 0.750000 0.627817 0.378245
O O2 0.990142 0.624703 0.497420
O O3 0.999934 0.667308 0.314156
O O4 0.987901 0.582227 0.314794
O O5 0.250000 0.803489 0.222738
O O6 0.480869 0.750000 0.239372
O O7 0.489074 0.816767 0.108459
O O8 0.250000 0.124478 0.384553
O O9 0.484953 0.080687 0.317731
O O10 0.489604 0.166540 0.315699
O O11 0.250000 0.448075 0.213148
O O12 0.019782 0.500859 0.233034
O O13 0.999446 0.430659 0.111058
O O14 0.750000 0.180061 0.014141
O O15 0.923566 0.250000 0.002880
O O16 0.015499 0.183381 0.109862
O O17 0.750000 0.800018 0.772063
O O18 0.508964 0.750000 0.761096
O O19 0.750000 0.451343 0.009011
O O20 0.976834 0.430281 0.890658
O O21 0.000000 0.500000 0.000000
O O22 0.250000 0.555635 0.235772
#
# Coordination Sequence:
#
# PCOD9453129 Si02
#       8
#     8   8   8   8   8   8   8   8
#     4  11  23  36  53  77 104 138 181 223 257 302
#     4   9  19  37  58  78 106 142 172 208 263 315
#     4   9  20  37  52  72 104 139 177 219 263 306
#     4   9  18  35  57  77 103 139 174 214 265 317
#     4   8  15  30  52  77 104 132 163 202 251 306
#     4   9  17  31  53  78 104 134 165 203 255 311
#     4   9  17  31  53  81 109 135 167 210 262 320
#     4   9  19  35  54  76 105 139 170 210 265 315
#
# _framework density 19.123255
#
# number of rings (size 3 to 8) (size 9 to 14) (size 15 to 20)
#    0.000    2.875    0.000    2.250    0.000    5.250 
#    0.000    8.125    0.000    1.500    0.000    0.000 
#    0.000    0.000    0.000    0.000    0.000    0.000 
#
# Total GULP energy -356901.841835 kJ/mol
# GULP energy per Si atom -5576.591279 kJ/mol
# Density = 1.907973 g / cm^3
# Si number density = 19.123255 Si / 1000 Ang^3
#
#
#
# Elastic Constant Matrix: (Units=GPa)
#
#
# Indices 1 2 3 4 5 6 
#
# 1 11.1344 22.3976 32.8435 0.0000 0.0000 0.0000
# 2 22.3976 102.7589 90.4449 0.0000 0.0000 0.0000
# 3 32.8435 90.4449 221.3364 0.0000 0.0000 0.0000
# 4 0.0000 0.0000 0.0000 33.6475 0.0000 0.0000
# 5 0.0000 0.0000 0.0000 0.0000 23.5693 0.0000
# 6 0.0000 0.0000 0.0000 0.0000 0.0000 17.8781
#
#
#
# Elastic Compliance Matrix: (Units=1/GPa)
#
#
# Indices 1 2 3 4 5 6 
#
# 1 0.198561 -0.027089 -0.018395 0.000000 0.000000 0.000000
# 2 -0.027089 0.018893 -0.003701 0.000000 0.000000 0.000000
# 3 -0.018395 -0.003701 0.008760 0.000000 0.000000 0.000000
# 4 0.000000 0.000000 0.000000 0.029720 0.000000 0.000000
# 5 0.000000 0.000000 0.000000 0.000000 0.042428 0.000000
# 6 0.000000 0.000000 0.000000 0.000000 0.000000 0.055934
#
#
# Mechanical properties :
#
#
# Convention : Reuss Voigt Hill
#
# Bulk Modulus (GPa) = 7.82191 69.62242 38.72216
# Shear Modulus (GPa) = 10.09530 27.65523 18.87527
#
# Velocity S-wave (km/s) = 2.30012 3.80696 3.14512
# Velocity P-wave (km/s) = 3.33964 7.47062 5.78634
#
# Compressibility (1/GPa) = 0.12784609
#
# Stress axis : x y z
#
# Youngs Moduli (GPa) = 5.03623 52.92952 114.15838
#
# Poissons Ratio (x) = 1.43379 2.09991
# Poissons Ratio (y) = 0.13642 0.42246
# Poissons Ratio (z) = 0.09264 0.19587
#
# Static dielectric constant tensor:
#      x y z
#    x 0.755430 0.000000 0.000000 
#    y 0.000000 1.665540 0.000000 
#    z 0.000000 0.000000 1.658330 
# 
# From -- ./inp_files/14926.got.cif
#   From: 2010.05.17/outbox.cif.g08.bks.cpg/sg59_8_cif.got.tgz:14926.got - 2010.06.03 14:40:33.
