data_PCOD9453595
_publ_section_title
;
Structure prediction by ZEFSAII (Michael W. Deem and Ramdas Pophale) SiO2 
 PCOD9453595
Probable space group: P M M N
;
_chemical_formula_sum "Si O2"
_cell_formula_units_Z 64
_cell_length_a 18.000000
_cell_length_b 15.000000
_cell_length_c 12.000000
_cell_angle_alpha 90.000000
_cell_angle_beta 90.000000
_cell_angle_gamma 90.000000
_cell_volume 3240.000000
_symmetry_space_group_name_H-M "P M M N"
_symmetry_group_IT_number 59
_space_group.IT_coordinate_system_code '2'
_symmetry_cell_setting 'orthorhombic'
loop_
_space_group_symop_operation_xyz
x,y,z
1/2-x,1/2-y,z
1/2+x,-y,-z
-x,1/2+y,-z
-x,-y,-z
1/2+x,1/2+y,-z
1/2-x,y,z
x,1/2-y,z
loop_
_atom_site_type_symbol
_atom_site_label
_atom_site_fract_x
_atom_site_fract_y
_atom_site_fract_z
Si Si1 0.087223 0.450567 0.781023
Si Si2 0.333549 0.856790 0.488688
Si Si3 0.165320 0.149001 0.597179
Si Si4 0.423740 0.646310 0.712775
Si Si5 0.069390 0.858684 0.271284
Si Si6 0.405635 0.350512 0.363204
Si Si7 0.338117 0.354887 0.986978
Si Si8 0.336998 0.012596 0.194580
O O1 0.147984 0.423824 0.688894
O O2 0.081226 0.558201 0.790939
O O3 0.112669 0.399494 0.891435
O O4 0.011426 0.403726 0.737912
O O5 0.250000 0.894944 0.475050
O O6 0.326654 0.750000 0.480720
O O7 0.368508 0.872948 0.609689
O O8 0.391204 0.878748 0.390302
O O9 0.250000 0.142260 0.556383
O O10 0.156156 0.250000 0.644235
O O11 0.110180 0.139930 0.493739
O O12 0.410224 0.750000 0.752595
O O13 0.507532 0.645707 0.665305
O O14 0.067682 0.750000 0.255100
O O15 0.119110 0.919039 0.187408
O O16 0.378649 0.250000 0.331626
O O17 0.364542 0.429271 0.299323
O O18 0.250000 0.358188 0.957772
O O19 0.356437 0.250000 0.005689
O O20 0.349131 0.418192 0.093571
O O21 0.250000 0.993206 0.202932
#
# Coordination Sequence:
#
# PCOD9453595 Si02
#       8
#     8   8   8   8   8   8   8   8
#     4  12  23  39  62  89 121 164 207 249 305 367
#     4   9  19  36  57  83 123 172 211 245 292 358
#     4  10  21  35  57  91 126 159 199 253 310 364
#     4  10  22  39  58  86 124 165 208 252 303 361
#     4  11  23  39  60  91 125 162 204 252 303 359
#     4  10  20  38  60  89 125 157 194 253 316 365
#     4  10  23  44  68  93 122 158 202 252 304 365
#     4  11  23  40  64  91 118 157 205 250 305 368
#
# _framework density 19.753086
#
# number of rings (size 3 to 8) (size 9 to 14) (size 15 to 20)
#    0.000    1.625    1.250    3.375    1.750    7.500 
#    0.000    0.625    0.000    0.750    0.000    0.000 
#    0.000    0.000    0.000    0.000    0.000    0.000 
#
# Total GULP energy -357189.248391 kJ/mol
# GULP energy per Si atom -5581.082006 kJ/mol
# Density = 1.970813 g / cm^3
# Si number density = 19.753086 Si / 1000 Ang^3
#
#
#
# Elastic Constant Matrix: (Units=GPa)
#
#
# Indices 1 2 3 4 5 6 
#
# 1 38.1191 28.4102 20.3793 0.0000 0.0000 0.0000
# 2 28.4102 143.4115 30.5304 0.0000 0.0000 0.0000
# 3 20.3793 30.5304 29.6057 0.0000 0.0000 0.0000
# 4 0.0000 0.0000 0.0000 28.8596 0.0000 0.0000
# 5 0.0000 0.0000 0.0000 0.0000 36.8021 0.0000
# 6 0.0000 0.0000 0.0000 0.0000 0.0000 29.3183
#
#
#
# Elastic Compliance Matrix: (Units=1/GPa)
#
#
# Indices 1 2 3 4 5 6 
#
# 1 0.042369 -0.002799 -0.026278 0.000000 0.000000 0.000000
# 2 -0.002799 0.009119 -0.007477 0.000000 0.000000 0.000000
# 3 -0.026278 -0.007477 0.059577 0.000000 0.000000 0.000000
# 4 0.000000 0.000000 0.000000 0.034651 0.000000 0.000000
# 5 0.000000 0.000000 0.000000 0.000000 0.027172 0.000000
# 6 0.000000 0.000000 0.000000 0.000000 0.000000 0.034108
#
#
# Mechanical properties :
#
#
# Convention : Reuss Voigt Hill
#
# Bulk Modulus (GPa) = 26.34661 41.08622 33.71642
# Shear Modulus (GPa) = 17.07900 27.78376 22.43138
#
# Velocity S-wave (km/s) = 2.94364 3.75447 3.37351
# Velocity P-wave (km/s) = 4.99202 6.29601 5.68155
#
# Compressibility (1/GPa) = 0.03795555
#
# Stress axis : x y z
#
# Youngs Moduli (GPa) = 23.60236 109.65802 16.78504
#
# Poissons Ratio (x) = 0.30694 0.44108
# Poissons Ratio (y) = 0.06606 0.12551
# Poissons Ratio (z) = 0.62023 0.81995
#
# Static dielectric constant tensor:
#      x y z
#    x 1.708020 0.000000 0.000000 
#    y 0.000000 1.720290 0.000000 
#    z 0.000000 0.000000 1.717020 
# 
# From -- ./inp_files/17869.got.cif
#   From: 2010.05.17/outbox.ucp.g08.bks.cvg/sg59_9_cif.got.tgz:17869.got - 2010.06.11 16:43:56.
