data_PCOD9453237
_publ_section_title
;
Structure prediction by ZEFSAII (Michael W. Deem and Ramdas Pophale) SiO2 
 PCOD9453237
Probable space group: P M M N
;
_chemical_formula_sum "Si O2"
_cell_formula_units_Z 48
_cell_length_a 19.226606
_cell_length_b 7.509507
_cell_length_c 16.980709
_cell_angle_alpha 90.000000
_cell_angle_beta 90.000000
_cell_angle_gamma 90.000000
_cell_volume 2451.714370
_symmetry_space_group_name_H-M "P M M N"
_symmetry_group_IT_number 59
_space_group.IT_coordinate_system_code '2'
_symmetry_cell_setting 'orthorhombic'
loop_
_space_group_symop_operation_xyz
x,y,z
1/2-x,1/2-y,z
1/2+x,-y,-z
-x,1/2+y,-z
-x,-y,-z
1/2+x,1/2+y,-z
1/2-x,y,z
x,1/2-y,z
loop_
_atom_site_type_symbol
_atom_site_label
_atom_site_fract_x
_atom_site_fract_y
_atom_site_fract_z
Si Si1 0.539959 0.462872 0.757788
Si Si2 0.328356 0.032854 0.835863
Si Si3 0.597423 0.532766 0.325785
Si Si4 0.531269 0.963173 0.085145
Si Si5 0.328219 0.037130 0.341496
Si Si6 0.668902 0.533303 0.483775
O O1 0.533623 0.250000 0.760380
O O2 0.479918 0.526590 0.697921
O O3 0.518845 0.529400 0.844431
O O4 0.615789 0.500786 0.725161
O O5 0.250000 0.971641 0.852856
O O6 0.327087 0.250000 0.837756
O O7 0.352698 0.983187 0.747403
O O8 0.390305 0.973525 0.894422
O O9 0.597779 0.750000 0.327853
O O10 0.624156 0.469215 0.410072
O O11 0.534589 0.750000 0.091827
O O12 0.500000 0.000000 0.000000
O O13 0.250000 0.970036 0.325809
O O14 0.323415 0.250000 0.347844
O O15 0.351475 0.972454 0.428417
O O16 0.750000 0.486855 0.472431
O O17 0.665360 0.750000 0.483043
#
# Coordination Sequence:
#
# PCOD9453237 Si02
#       6
#     8   8   8   8   8   8
#     4   9  18  31  46  66  90 115 145 180 221 270
#     4   8  13  23  42  67  91 113 140 176 216 258
#     4   8  13  22  39  64  91 116 142 175 217 264
#     4   9  18  32  49  69  92 116 143 178 220 266
#     4   9  18  31  45  63  88 118 154 191 220 250
#     4   8  13  22  38  61  89 119 149 182 218 253
#
# _framework density 19.578137000000002
#
# number of rings (size 3 to 8) (size 9 to 14) (size 15 to 20)
#    0.000    3.500    0.000    3.500    0.000    3.667 
#    0.000    0.833    0.000    3.500    0.000    0.000 
#    0.000    4.000    0.000    0.000    0.000    0.000 
#
# Total GULP energy -267458.542596 kJ/mol
# GULP energy per Si atom -5572.052971 kJ/mol
# Density = 1.953358 g / cm^3
# Si number density = 19.578137 Si / 1000 Ang^3
#
#
#
# Elastic Constant Matrix: (Units=GPa)
#
#
# Indices 1 2 3 4 5 6 
#
# 1 157.4764 4.7981 115.6627 0.0000 0.0000 0.0000
# 2 4.7981 48.0784 4.4632 0.0000 0.0000 0.0000
# 3 115.6627 4.4632 145.1611 0.0000 0.0000 0.0000
# 4 0.0000 0.0000 0.0000 6.7152 0.0000 0.0000
# 5 0.0000 0.0000 0.0000 0.0000 26.5221 0.0000
# 6 0.0000 0.0000 0.0000 0.0000 0.0000 7.3979
#
#
#
# Elastic Compliance Matrix: (Units=1/GPa)
#
#
# Indices 1 2 3 4 5 6 
#
# 1 0.015317 -0.000397 -0.012192 0.000000 0.000000 0.000000
# 2 -0.000397 0.020869 -0.000326 0.000000 0.000000 0.000000
# 3 -0.012192 -0.000326 0.016614 0.000000 0.000000 0.000000
# 4 0.000000 0.000000 0.000000 0.148916 0.000000 0.000000
# 5 0.000000 0.000000 0.000000 0.000000 0.037704 0.000000
# 6 0.000000 0.000000 0.000000 0.000000 0.000000 0.135173
#
#
# Mechanical properties :
#
#
# Convention : Reuss Voigt Hill
#
# Bulk Modulus (GPa) = 37.07728 66.72934 51.90331
# Shear Modulus (GPa) = 12.21260 23.17984 17.69622
#
# Velocity S-wave (km/s) = 2.50028 3.44461 3.00972
# Velocity P-wave (km/s) = 5.22632 7.06952 6.21661
#
# Compressibility (1/GPa) = 0.02697070
#
# Stress axis : x y z
#
# Youngs Moduli (GPa) = 65.28544 47.91759 60.19113
#
# Poissons Ratio (x) = 0.01901 0.73388
# Poissons Ratio (y) = 0.02590 0.01959
# Poissons Ratio (z) = 0.79599 0.01560
#
# Static dielectric constant tensor:
#      x y z
#    x 1.690060 0.000000 0.000000 
#    y 0.000000 1.772490 0.000000 
#    z 0.000000 0.000000 1.678760 
# 
# From -- ./inp_files/27783.got.cif
#   From: 2010.05.17/outbox.cif.g08.bks.cpg/sg59_14_cif.got.tgz:27783.got - 2010.06.03 14:40:33.
