data_PCOD9453771
_publ_section_title
;
Structure prediction by ZEFSAII (Michael W. Deem and Ramdas Pophale) SiO2 
 PCOD9453771
Probable space group: P B C N
;
_chemical_formula_sum "Si O2"
_cell_formula_units_Z 32
_cell_length_a 8.735117
_cell_length_b 32.049717
_cell_length_c 5.327471
_cell_angle_alpha 90.000000
_cell_angle_beta 90.000000
_cell_angle_gamma 90.000000
_cell_volume 1491.468274
_symmetry_space_group_name_H-M "P B C N"
_symmetry_group_IT_number 60
_symmetry_cell_setting 'orthorhombic'
loop_
_space_group_symop_operation_xyz
x,y,z
1/2-x,1/2-y,1/2+z
1/2+x,1/2-y,-z
-x,y,1/2-z
-x,-y,-z
1/2+x,1/2+y,1/2-z
1/2-x,1/2+y,z
x,-y,1/2+z
loop_
_atom_site_type_symbol
_atom_site_label
_atom_site_fract_x
_atom_site_fract_y
_atom_site_fract_z
Si Si1 0.601837 0.385528 0.503478
Si Si2 0.899554 0.773874 0.996629
Si Si3 0.671386 0.817381 0.312844
Si Si4 0.175477 0.018032 0.490798
O O1 0.500000 0.384279 0.250000
O O2 0.733297 0.351580 0.461752
O O3 0.665929 0.432405 0.526695
O O4 0.500000 0.377759 0.750000
O O5 0.760798 0.804932 0.056750
O O6 0.000000 0.776127 0.250000
O O7 0.840379 0.726704 0.959738
O O8 0.000000 0.782909 0.750000
O O9 0.500000 0.831039 0.250000
O O10 0.248846 0.002459 0.747262
O O11 0.000000 0.000000 0.500000
#
# Coordination Sequence:
#
# PCOD9453771 Si02
#       4
#     8   8   8   8
#     4  12  24  39  64 101 128 166 224 277 320 395
#     4  11  25  47  71  92 125 186 239 272 326 398
#     4  11  26  44  67  97 138 176 219 284 342 393
#     4  10  16  34  62  90 121 162 210 273 317 371
#
# _framework density 21.455369000000001
#
# number of rings (size 3 to 8) (size 9 to 14) (size 15 to 20)
#    0.000    1.000    5.000    3.750    0.000   13.000 
#    0.000    0.000    0.000    1.500    0.000    0.000 
#    0.000    0.000    0.000    0.000    0.000    0.000 
#
# Total GULP energy -179117.193426 kJ/mol
# GULP energy per Si atom -5597.412295 kJ/mol
# Density = 2.140654 g / cm^3
# Si number density = 21.455369 Si / 1000 Ang^3
#
#
#
# Elastic Constant Matrix: (Units=GPa)
#
#
# Indices 1 2 3 4 5 6 
#
# 1 117.8850 72.9395 75.9541 0.0000 0.0000 0.0000
# 2 72.9395 192.4335 64.5262 0.0000 0.0000 0.0000
# 3 75.9541 64.5262 206.7806 0.0000 0.0000 0.0000
# 4 0.0000 0.0000 0.0000 25.7754 0.0000 0.0000
# 5 0.0000 0.0000 0.0000 0.0000 17.1033 0.0000
# 6 0.0000 0.0000 0.0000 0.0000 0.0000 10.5671
#
#
#
# Elastic Compliance Matrix: (Units=1/GPa)
#
#
# Indices 1 2 3 4 5 6 
#
# 1 0.013173 -0.003764 -0.003664 0.000000 0.000000 0.000000
# 2 -0.003764 0.006880 -0.000764 0.000000 0.000000 0.000000
# 3 -0.003664 -0.000764 0.006420 0.000000 0.000000 0.000000
# 4 0.000000 0.000000 0.000000 0.038797 0.000000 0.000000
# 5 0.000000 0.000000 0.000000 0.000000 0.058468 0.000000
# 6 0.000000 0.000000 0.000000 0.000000 0.000000 0.094633
#
#
# Mechanical properties :
#
#
# Convention : Reuss Voigt Hill
#
# Bulk Modulus (GPa) = 99.12838 104.88209 102.00523
# Shear Modulus (GPa) = 20.99801 30.93447 25.96624
#
# Velocity S-wave (km/s) = 3.13179 3.80123 3.48263
# Velocity P-wave (km/s) = 7.70583 8.26171 7.98861
#
# Compressibility (1/GPa) = 0.01008793
#
# Stress axis : x y z
#
# Youngs Moduli (GPa) = 75.91498 145.35634 155.75653
#
# Poissons Ratio (x) = 0.54717 0.57067
# Poissons Ratio (y) = 0.28577 0.11901
# Poissons Ratio (z) = 0.27814 0.11106
#
# Static dielectric constant tensor:
#      x y z
#    x 1.783050 0.000000 0.000000 
#    y 0.000000 1.767000 0.000000 
#    z 0.000000 0.000000 1.678060 
# 
# From -- ./inp_files/435.got.cif
#   From: 2010.05.17/outbox.cif.g08.bks.cpg/sg60_1_cif.got.tgz:435.got - 2010.06.03 14:59:27.
