data_PCOD9453439
_publ_section_title
;
Structure prediction by ZEFSAII (Michael W. Deem and Ramdas Pophale) SiO2 
 PCOD9453439
Probable space group: P M M N
;
_chemical_formula_sum "Si O2"
_cell_formula_units_Z 64
_cell_length_a 15.000000
_cell_length_b 9.000000
_cell_length_c 24.000000
_cell_angle_alpha 90.000000
_cell_angle_beta 90.000000
_cell_angle_gamma 90.000000
_cell_volume 3240.000000
_symmetry_space_group_name_H-M "P M M N"
_symmetry_group_IT_number 59
_space_group.IT_coordinate_system_code '2'
_symmetry_cell_setting 'orthorhombic'
loop_
_space_group_symop_operation_xyz
x,y,z
1/2-x,1/2-y,z
1/2+x,-y,-z
-x,1/2+y,-z
-x,-y,-z
1/2+x,1/2+y,-z
1/2-x,y,z
x,1/2-y,z
loop_
_atom_site_type_symbol
_atom_site_label
_atom_site_fract_x
_atom_site_fract_y
_atom_site_fract_z
Si Si1 0.153714 0.069102 0.789834
Si Si2 0.517570 0.073124 0.416692
Si Si3 0.648054 0.077860 0.992309
Si Si4 0.987500 0.927359 0.300883
Si Si5 0.854770 0.071540 0.520541
Si Si6 0.147857 0.078642 0.246257
Si Si7 0.088343 0.418278 0.902829
Si Si8 0.615517 0.421077 0.869510
O O1 0.250000 0.031680 0.766077
O O2 0.147524 0.250000 0.793909
O O3 0.145957 0.013184 0.853063
O O4 0.075372 0.020394 0.749669
O O5 0.509350 0.250000 0.412187
O O6 0.595248 0.040528 0.461763
O O7 0.541204 0.000546 0.358202
O O8 0.422259 0.006758 0.436406
O O9 0.750000 0.070154 0.012235
O O10 0.620760 0.250000 0.987021
O O11 0.589629 0.001175 0.038972
O O12 0.646095 0.018061 0.929418
O O13 0.982666 0.750000 0.304638
O O14 0.085898 0.979175 0.284785
O O15 0.750000 0.027161 0.522025
O O16 0.857853 0.250000 0.529307
O O17 0.250000 0.071183 0.264231
O O18 0.118285 0.250000 0.247976
O O19 0.141623 0.017070 0.183301
O O20 0.118551 0.250000 0.914133
O O21 0.990709 0.414582 0.876037
O O22 0.647080 0.250000 0.862393
#
# Coordination Sequence:
#
# PCOD9453439 Si02
#       8
#     8   8   8   8   8   8   8   8
#     4   9  18  34  56  82 111 144 187 238 286 337
#     4  10  21  37  59  90 125 158 196 246 291 329
#     4  10  21  34  49  75 109 141 178 228 285 346
#     4  11  22  39  61  85 117 158 199 236 282 343
#     4   9  19  38  63  90 123 164 203 237 282 340
#     4  11  24  40  59  84 113 146 188 241 296 345
#     4  10  19  34  56  79 104 140 185 231 284 344
#     4  10  20  37  58  79 105 142 185 229 285 351
#
# _framework density 19.753086
#
# number of rings (size 3 to 8) (size 9 to 14) (size 15 to 20)
#    0.000    2.000    1.250    2.250    0.000    5.000 
#    0.000    0.000    0.000    1.875    0.000    0.000 
#    0.000    0.000    0.000    0.000    0.000    0.000 
#
# Total GULP energy -357025.131727 kJ/mol
# GULP energy per Si atom -5578.517683 kJ/mol
# Density = 1.970813 g / cm^3
# Si number density = 19.753086 Si / 1000 Ang^3
#
#
#
# Elastic Constant Matrix: (Units=GPa)
#
#
# Indices 1 2 3 4 5 6 
#
# 1 67.3933 11.4726 -4.6840 0.0000 0.0000 0.0000
# 2 11.4726 14.8919 18.3781 0.0000 0.0000 0.0000
# 3 -4.6840 18.3781 58.9520 0.0000 0.0000 0.0000
# 4 0.0000 0.0000 0.0000 33.2419 0.0000 0.0000
# 5 0.0000 0.0000 0.0000 0.0000 17.4802 0.0000
# 6 0.0000 0.0000 0.0000 0.0000 0.0000 25.5258
#
#
#
# Elastic Compliance Matrix: (Units=1/GPa)
#
#
# Indices 1 2 3 4 5 6 
#
# 1 0.020506 -0.028943 0.010652 0.000000 0.000000 0.000000
# 2 -0.028943 0.149992 -0.049059 0.000000 0.000000 0.000000
# 3 0.010652 -0.049059 0.033103 0.000000 0.000000 0.000000
# 4 0.000000 0.000000 0.000000 0.030083 0.000000 0.000000
# 5 0.000000 0.000000 0.000000 0.000000 0.057208 0.000000
# 6 0.000000 0.000000 0.000000 0.000000 0.000000 0.039176
#
#
# Mechanical properties :
#
#
# Convention : Reuss Voigt Hill
#
# Bulk Modulus (GPa) = 14.51369 21.28563 17.89966
# Shear Modulus (GPa) = 10.25146 22.98762 16.61954
#
# Velocity S-wave (km/s) = 2.28059 3.41508 2.90377
# Velocity P-wave (km/s) = 3.78130 5.13318 4.50821
#
# Compressibility (1/GPa) = 0.06890046
#
# Stress axis : x y z
#
# Youngs Moduli (GPa) = 48.76670 6.66701 30.20835
#
# Poissons Ratio (x) = 0.19297 -0.32179
# Poissons Ratio (y) = 1.41148 1.48200
# Poissons Ratio (z) = -0.51948 0.32708
#
# Static dielectric constant tensor:
#      x y z
#    x 1.740310 0.000000 0.000000 
#    y 0.000000 1.685660 0.000000 
#    z 0.000000 0.000000 1.697080 
# 
# From -- ./inp_files/32250.got.cif
#   From: 2010.05.17/outbox.ucp.g08.bks.cvg/sg59_17_cif.got.tgz:32250.got - 2010.06.11 16:43:56.
