data_PCOD9453192
_publ_section_title
;
Structure prediction by ZEFSAII (Michael W. Deem and Ramdas Pophale) SiO2 
 PCOD9453192
Probable space group: P M M N
;
_chemical_formula_sum "Si O2"
_cell_formula_units_Z 48
_cell_length_a 8.823117
_cell_length_b 31.467632
_cell_length_c 9.849315
_cell_angle_alpha 90.000000
_cell_angle_beta 90.000000
_cell_angle_gamma 90.000000
_cell_volume 2734.589413
_symmetry_space_group_name_H-M "P M M N"
_symmetry_group_IT_number 59
_space_group.IT_coordinate_system_code '2'
_symmetry_cell_setting 'orthorhombic'
loop_
_space_group_symop_operation_xyz
x,y,z
1/2-x,1/2-y,z
1/2+x,-y,-z
-x,1/2+y,-z
-x,-y,-z
1/2+x,1/2+y,-z
1/2-x,y,z
x,1/2-y,z
loop_
_atom_site_type_symbol
_atom_site_label
_atom_site_fract_x
_atom_site_fract_y
_atom_site_fract_z
Si Si1 0.069961 0.485271 0.143539
Si Si2 0.429808 0.436979 0.716457
Si Si3 0.567158 0.870421 0.514359
Si Si4 0.069172 0.138779 0.931223
Si Si5 0.934651 0.701622 0.303111
Si Si6 0.929845 0.106737 0.201205
O O1 0.250000 0.482421 0.130331
O O2 0.022960 0.520909 0.252725
O O3 0.003826 0.439712 0.183188
O O4 0.000000 0.500000 0.000000
O O5 0.250000 0.446725 0.714637
O O6 0.468175 0.411512 0.579339
O O7 0.454859 0.403348 0.839064
O O8 0.750000 0.869414 0.529770
O O9 0.520640 0.829091 0.427052
O O10 0.489378 0.873655 0.658857
O O11 0.250000 0.141644 0.956063
O O12 0.021399 0.178182 0.836597
O O13 0.983065 0.133895 0.071584
O O14 0.750000 0.701765 0.303415
O O15 0.987297 0.750000 0.313669
O O16 0.750000 0.102697 0.202485
#
# Coordination Sequence:
#
# PCOD9453192 Si02
#       6
#     8   8   8   8   8   8
#     4  12  23  35  54  79 108 144 186 231 273 319
#     4   9  18  34  55  78 105 142 186 227 269 317
#     4   9  19  36  57  81 111 146 180 225 277 324
#     4   9  17  32  56  81 108 139 174 224 273 320
#     4   8  15  32  61  91 110 132 175 225 273 328
#     4  12  24  36  52  77 110 149 187 227 270 322
#
# _framework density 17.552910000000001
#
# number of rings (size 3 to 8) (size 9 to 14) (size 15 to 20)
#    0.000    2.167    1.667    5.000    0.000    1.333 
#    0.000    3.333    0.000    7.000    0.000    0.000 
#    0.000    0.000    0.000    0.000    0.000    0.000 
#
# Total GULP energy -267955.761077 kJ/mol
# GULP energy per Si atom -5582.411689 kJ/mol
# Density = 1.751296 g / cm^3
# Si number density = 17.552910 Si / 1000 Ang^3
#
#
#
# Elastic Constant Matrix: (Units=GPa)
#
#
# Indices 1 2 3 4 5 6 
#
# 1 71.8874 46.2377 63.4736 0.0000 0.0000 0.0000
# 2 46.2377 128.7013 68.4336 0.0000 0.0000 0.0000
# 3 63.4736 68.4336 146.8434 0.0000 0.0000 0.0000
# 4 0.0000 0.0000 0.0000 15.0173 0.0000 0.0000
# 5 0.0000 0.0000 0.0000 0.0000 18.9710 0.0000
# 6 0.0000 0.0000 0.0000 0.0000 0.0000 16.5350
#
#
#
# Elastic Compliance Matrix: (Units=1/GPa)
#
#
# Indices 1 2 3 4 5 6 
#
# 1 0.024047 -0.004138 -0.008466 0.000000 0.000000 0.000000
# 2 -0.004138 0.011042 -0.003357 0.000000 0.000000 0.000000
# 3 -0.008466 -0.003357 0.012034 0.000000 0.000000 0.000000
# 4 0.000000 0.000000 0.000000 0.066590 0.000000 0.000000
# 5 0.000000 0.000000 0.000000 0.000000 0.052712 0.000000
# 6 0.000000 0.000000 0.000000 0.000000 0.000000 0.060478
#
#
# Mechanical properties :
#
#
# Convention : Reuss Voigt Hill
#
# Bulk Modulus (GPa) = 65.78611 78.19133 71.98872
# Shear Modulus (GPa) = 18.94716 21.39047 20.16881
#
# Velocity S-wave (km/s) = 3.28903 3.49467 3.39341
# Velocity P-wave (km/s) = 7.20998 7.80554 7.51366
#
# Compressibility (1/GPa) = 0.01520078
#
# Stress axis : x y z
#
# Youngs Moduli (GPa) = 41.58470 90.56728 83.09708
#
# Poissons Ratio (x) = 0.37473 0.70352
# Poissons Ratio (y) = 0.17206 0.27897
# Poissons Ratio (z) = 0.35207 0.30405
#
# Static dielectric constant tensor:
#      x y z
#    x 1.586360 0.000000 0.000000 
#    y 0.000000 1.590900 0.000000 
#    z 0.000000 0.000000 1.590420 
# 
# From -- ./inp_files/6292.got.cif
#   From: 2010.05.17/outbox.cif.g08.bks.cpg/sg59_4_cif.got.tgz:6292.got - 2010.06.03 14:40:33.
