data_PCOD9453314
_publ_section_title
;
Structure prediction by ZEFSAII (Michael W. Deem and Ramdas Pophale) SiO2 
 PCOD9453314
Probable space group: P M M N
;
_chemical_formula_sum "Si O2"
_cell_formula_units_Z 64
_cell_length_a 19.744773
_cell_length_b 7.729259
_cell_length_c 21.405148
_cell_angle_alpha 90.000000
_cell_angle_beta 90.000000
_cell_angle_gamma 90.000000
_cell_volume 3266.692387
_symmetry_space_group_name_H-M "P M M N"
_symmetry_group_IT_number 59
_space_group.IT_coordinate_system_code '2'
_symmetry_cell_setting 'orthorhombic'
loop_
_space_group_symop_operation_xyz
x,y,z
1/2-x,1/2-y,z
1/2+x,-y,-z
-x,1/2+y,-z
-x,-y,-z
1/2+x,1/2+y,-z
1/2-x,y,z
x,1/2-y,z
loop_
_atom_site_type_symbol
_atom_site_label
_atom_site_fract_x
_atom_site_fract_y
_atom_site_fract_z
Si Si1 0.577889 0.541922 0.613143
Si Si2 0.828147 0.962234 0.500000
Si Si3 0.422111 0.041922 0.613143
Si Si4 0.577734 0.958356 0.245860
Si Si5 0.827307 0.044276 1.000000
Si Si6 0.577734 0.541644 0.754140
Si Si7 0.827257 0.956957 0.135439
Si Si8 0.172743 0.456957 0.135439
O O1 0.583143 0.750000 0.614769
O O2 0.630383 0.479853 0.561132
O O3 0.500000 0.500000 0.596812
O O4 0.591303 0.476850 0.683617
O O5 0.750000 0.016640 0.500000
O O6 0.828478 0.750000 0.500000
O O7 0.869616 0.020147 0.438868
O O8 0.416857 0.250000 0.614769
O O9 0.408697 0.976850 0.683617
O O10 0.584179 0.750000 0.247644
O O11 0.627663 0.024908 0.192283
O O12 0.500000 1.000000 0.230869
O O13 0.750000 0.971674 1.000000
O O14 0.823896 0.250000 1.000000
O O15 0.857354 0.990720 0.066526
O O16 0.857354 0.990720 0.933474
O O17 0.584179 0.750000 0.752356
O O18 0.627663 0.475092 0.807717
O O19 0.750000 0.025751 0.137106
O O20 0.823347 0.750000 0.142228
O O21 0.250000 0.525751 0.137106
O O22 0.176653 0.250000 0.142228
#
# Coordination Sequence:
#
# PCOD9453314 Si02
#       8
#     8   8   8   8   8   8   8   8
#     4   9  17  30  48  68  91 122 157 189 224 270
#     4   9  17  28  45  71  98 121 150 192 234 267
#     4   9  17  30  48  68  91 122 157 189 224 270
#     4   9  18  31  47  68  93 121 153 189 228 270
#     4   9  17  29  46  69  94 119 149 185 226 273
#     4   9  18  31  47  68  93 121 153 189 228 270
#     4   9  17  30  48  68  90 118 152 189 228 270
#     4   9  17  30  48  68  90 118 152 189 228 270
#
# _framework density 19.591681999999999
#
# number of rings (size 3 to 8) (size 9 to 14) (size 15 to 20)
#    0.000    3.000    0.000    0.750    0.000    3.500 
#    0.000    5.625    0.000    1.500    0.000    7.000 
#    0.000    0.000    0.000    0.000    0.000    0.000 
#
# Total GULP energy -356754.611512 kJ/mol
# GULP energy per Si atom -5574.290805 kJ/mol
# Density = 1.954709 g / cm^3
# Si number density = 19.591682 Si / 1000 Ang^3
#
#
#
# Elastic Constant Matrix: (Units=GPa)
#
#
# Indices 1 2 3 4 5 6 
#
# 1 117.6632 2.0550 128.7264 0.0000 0.0000 0.0000
# 2 2.0550 31.0582 6.0551 0.0000 0.0000 0.0000
# 3 128.7264 6.0551 192.5281 0.0000 0.0000 0.0000
# 4 0.0000 0.0000 0.0000 21.7607 0.0000 0.0000
# 5 0.0000 0.0000 0.0000 0.0000 36.5732 0.0000
# 6 0.0000 0.0000 0.0000 0.0000 0.0000 19.0344
#
#
#
# Elastic Compliance Matrix: (Units=1/GPa)
#
#
# Indices 1 2 3 4 5 6 
#
# 1 0.031780 0.002052 -0.021313 0.000000 0.000000 0.000000
# 2 0.002052 0.032529 -0.002395 0.000000 0.000000 0.000000
# 3 -0.021313 -0.002395 0.019519 0.000000 0.000000 0.000000
# 4 0.000000 0.000000 0.000000 0.045954 0.000000 0.000000
# 5 0.000000 0.000000 0.000000 0.000000 0.027342 0.000000
# 6 0.000000 0.000000 0.000000 0.000000 0.000000 0.052536
#
#
# Mechanical properties :
#
#
# Convention : Reuss Voigt Hill
#
# Bulk Modulus (GPa) = 24.68131 68.32472 46.50301
# Shear Modulus (GPa) = 18.76324 29.10119 23.93222
#
# Velocity S-wave (km/s) = 3.09805 3.85825 3.49886
# Velocity P-wave (km/s) = 5.04207 7.40258 6.33327
#
# Compressibility (1/GPa) = 0.04051650
#
# Stress axis : x y z
#
# Youngs Moduli (GPa) = 31.46650 30.74196 51.23102
#
# Poissons Ratio (x) = -0.06310 1.09188
# Poissons Ratio (y) = -0.06458 0.12271
# Poissons Ratio (z) = 0.67064 0.07364
#
# Static dielectric constant tensor:
#      x y z
#    x 1.656140 0.000000 0.000000 
#    y 0.000000 1.719220 0.000000 
#    z 0.000000 0.000000 1.713800 
# 
# From -- ./inp_files/30718.got.cif
#   From: 2010.05.17/outbox.cif.g08.bks.cpg/sg59_16_cif.got.tgz:30718.got - 2010.06.03 14:40:33.
