data_PCOD9453964
_publ_section_title
;
Structure prediction by ZEFSAII (Michael W. Deem and Ramdas Pophale) SiO2 
 PCOD9453964
Probable space group: P B C N
;
_chemical_formula_sum "Si O2"
_cell_formula_units_Z 48
_cell_length_a 9.582042
_cell_length_b 25.681679
_cell_length_c 10.910008
_cell_angle_alpha 90.000000
_cell_angle_beta 90.000000
_cell_angle_gamma 90.000000
_cell_volume 2684.766700
_symmetry_space_group_name_H-M "P B C N"
_symmetry_group_IT_number 60
_symmetry_cell_setting 'orthorhombic'
loop_
_space_group_symop_operation_xyz
x,y,z
1/2-x,1/2-y,1/2+z
1/2+x,1/2-y,-z
-x,y,1/2-z
-x,-y,-z
1/2+x,1/2+y,1/2-z
1/2-x,1/2+y,z
x,-y,1/2+z
loop_
_atom_site_type_symbol
_atom_site_label
_atom_site_fract_x
_atom_site_fract_y
_atom_site_fract_z
Si Si1 0.000000 0.642028 0.750000
Si Si2 0.231954 0.377208 0.800986
Si Si3 0.136108 0.572548 0.537853
Si Si4 0.366281 0.771833 0.412921
Si Si5 0.599949 0.968702 0.855741
Si Si6 0.000000 0.816113 0.750000
Si Si7 0.568264 0.773594 0.633824
O O1 0.914276 0.608969 0.850799
O O2 0.893801 0.680032 0.677644
O O3 0.178473 0.422934 0.714056
O O4 0.367894 0.353284 0.738391
O O5 0.128265 0.328620 0.818914
O O6 0.239473 0.400600 0.939708
O O7 0.186045 0.516579 0.588720
O O8 0.998003 0.557360 0.458712
O O9 0.452185 0.722632 0.358012
O O10 0.444408 0.783502 0.538885
O O11 0.203889 0.756100 0.419690
O O12 0.500000 0.992562 0.750000
O O13 0.500000 0.744975 0.750000
#
# Coordination Sequence:
#
# PCOD9453964 Si02
#       7
#     4   8   8   8   8   4   8
#     4  11  20  34  52  84 114 148 182 245 288 336
#     4  10  20  37  57  80 111 153 190 233 294 346
#     4  10  18  31  54  83 111 137 185 237 290 338
#     4  10  24  37  57  85 116 152 197 236 288 339
#     4   9  18  31  52  84 109 137 182 240 289 341
#     4   9  22  38  56  78 114 152 194 235 284 348
#     4  11  23  38  60  85 118 153 194 239 286 351
#
# _framework density 17.878648999999999
#
# number of rings (size 3 to 8) (size 9 to 14) (size 15 to 20)
#    0.000    2.000    2.500    1.500    7.000    0.000 
#    0.000    0.833    0.000    0.000    2.167    0.000 
#    0.000    0.000    0.000    0.000    0.000    0.000 
#
# Total GULP energy -267410.711694 kJ/mol
# GULP energy per Si atom -5571.056494 kJ/mol
# Density = 1.783796 g / cm^3
# Si number density = 17.878649 Si / 1000 Ang^3
#
#
#
# Elastic Constant Matrix: (Units=GPa)
#
#
# Indices 1 2 3 4 5 6 
#
# 1 79.1921 29.6486 36.4043 0.0000 0.0000 0.0000
# 2 29.6486 79.3944 23.4739 0.0000 0.0000 0.0000
# 3 36.4043 23.4739 87.3734 0.0000 0.0000 0.0000
# 4 0.0000 0.0000 0.0000 -5.1138 0.0000 0.0000
# 5 0.0000 0.0000 0.0000 0.0000 20.9832 0.0000
# 6 0.0000 0.0000 0.0000 0.0000 0.0000 15.3577
#
#
#
# Elastic Compliance Matrix: (Units=1/GPa)
#
#
# Indices 1 2 3 4 5 6 
#
# 1 0.017058 -0.004637 -0.005861 0.000000 0.000000 0.000000
# 2 -0.004637 0.014943 -0.002083 0.000000 0.000000 0.000000
# 3 -0.005861 -0.002083 0.014447 0.000000 0.000000 0.000000
# 4 0.000000 0.000000 0.000000 -0.195550 0.000000 0.000000
# 5 0.000000 0.000000 0.000000 0.000000 0.047657 0.000000
# 6 0.000000 0.000000 0.000000 0.000000 0.000000 0.065114
#
#
# Mechanical properties :
#
#
# Convention : Reuss Voigt Hill
#
# Bulk Modulus (GPa) = 46.98027 47.22371 47.10199
# Shear Modulus (GPa) = -1227.32452 16.67431 -605.32511
#
# Velocity S-wave (km/s) = -26.22909 3.05723 -18.42035
# Velocity P-wave (km/s) = 29.84883 6.23963 20.64001
#
# Compressibility (1/GPa) = 0.02128553
#
# Stress axis : x y z
#
# Youngs Moduli (GPa) = 58.62331 66.92234 69.21940
#
# Poissons Ratio (x) = 0.31032 0.40573
# Poissons Ratio (y) = 0.27184 0.14415
# Poissons Ratio (z) = 0.34362 0.13937
#
# Static dielectric constant tensor:
#      x y z
#    x 1.486080 0.000000 0.000000 
#    y 0.000000 1.637930 0.000000 
#    z 0.000000 0.000000 1.663930 
# 
# From -- ./inp_files/10221.got.cif
#   From: 2010.05.17/outbox.cif.g08.bks.cpg/sg60_6_cif.got.tgz:10221.got - 2010.06.03 14:59:27.
