data_PCOD9453282
_publ_section_title
;
Structure prediction by ZEFSAII (Michael W. Deem and Ramdas Pophale) SiO2 
 PCOD9453282
Probable space group: P M M N
;
_chemical_formula_sum "Si O2"
_cell_formula_units_Z 56
_cell_length_a 13.951918
_cell_length_b 7.989534
_cell_length_c 21.275040
_cell_angle_alpha 90.000000
_cell_angle_beta 90.000000
_cell_angle_gamma 90.000000
_cell_volume 2371.514310
_symmetry_space_group_name_H-M "P M M N"
_symmetry_group_IT_number 59
_space_group.IT_coordinate_system_code '2'
_symmetry_cell_setting 'orthorhombic'
loop_
_space_group_symop_operation_xyz
x,y,z
1/2-x,1/2-y,z
1/2+x,-y,-z
-x,1/2+y,-z
-x,-y,-z
1/2+x,1/2+y,-z
1/2-x,y,z
x,1/2-y,z
loop_
_atom_site_type_symbol
_atom_site_label
_atom_site_fract_x
_atom_site_fract_y
_atom_site_fract_z
Si Si1 0.142095 0.453031 0.044041
Si Si2 0.881585 0.559965 0.629604
Si Si3 0.436502 0.450377 0.910206
Si Si4 0.432403 0.048637 0.775128
Si Si5 0.148173 0.941905 0.238466
Si Si6 0.888238 0.442396 0.358837
Si Si7 0.388674 0.951119 0.506145
O O1 0.250000 0.508442 0.061259
O O2 0.141748 0.250000 0.045089
O O3 0.050358 0.510754 0.084293
O O4 0.116142 0.512367 0.972995
O O5 0.855399 0.750000 0.645088
O O6 0.848211 0.443586 0.685696
O O7 0.849279 0.516881 0.559609
O O8 0.996917 0.550516 0.632165
O O9 0.426636 0.250000 0.911627
O O10 0.395593 0.508797 0.843168
O O11 0.439305 0.250000 0.775772
O O12 0.542910 0.981525 0.773059
O O13 0.374640 0.009136 0.711573
O O14 0.250000 0.018747 0.216316
O O15 0.146175 0.750000 0.215783
O O16 0.858285 0.250000 0.357636
O O17 0.853672 0.516271 0.425713
O O18 0.379396 0.750000 0.506985
O O19 0.500000 0.000000 0.500000
#
# Coordination Sequence:
#
# PCOD9453282 Si02
#       7
#     8   8   8   8   8   8   8
#     4   9  18  33  52  74 101 132 164 198 240 291
#     4   9  16  25  37  54  76 104 140 182 225 267
#     4   9  18  32  50  74 102 130 163 204 245 286
#     4   9  17  28  43  63  88 118 151 189 232 277
#     4   9  17  28  40  55  79 113 150 186 229 283
#     4   8  15  25  37  56  82 110 139 175 222 273
#     4   9  15  23  36  55  78 103 134 174 221 270
#
# _framework density 23.613603000000001
#
# number of rings (size 3 to 8) (size 9 to 14) (size 15 to 20)
#    0.000    3.143    0.000    1.714    0.000    5.714 
#    0.000    1.429    0.000    0.000    0.000    1.000 
#    0.000    3.429    0.000    0.000    0.000    0.000 
#
# Total GULP energy -311949.394732 kJ/mol
# GULP energy per Si atom -5570.524906 kJ/mol
# Density = 2.355986 g / cm^3
# Si number density = 23.613603 Si / 1000 Ang^3
#
#
#
# Elastic Constant Matrix: (Units=GPa)
#
#
# Indices 1 2 3 4 5 6 
#
# 1 86.3064 -9.3839 -6.4494 0.0000 0.0000 0.0000
# 2 -9.3839 30.5002 4.7732 0.0000 0.0000 0.0000
# 3 -6.4494 4.7732 180.4167 0.0000 0.0000 0.0000
# 4 0.0000 0.0000 0.0000 18.9154 0.0000 0.0000
# 5 0.0000 0.0000 0.0000 0.0000 82.4493 0.0000
# 6 0.0000 0.0000 0.0000 0.0000 0.0000 -36.3997
#
#
#
# Elastic Compliance Matrix: (Units=1/GPa)
#
#
# Indices 1 2 3 4 5 6 
#
# 1 0.012008 0.003642 0.000333 0.000000 0.000000 0.000000
# 2 0.003642 0.034028 -0.000770 0.000000 0.000000 0.000000
# 3 0.000333 -0.000770 0.005575 0.000000 0.000000 0.000000
# 4 0.000000 0.000000 0.000000 0.052867 0.000000 0.000000
# 5 0.000000 0.000000 0.000000 0.000000 0.012129 0.000000
# 6 0.000000 0.000000 0.000000 0.000000 0.000000 -0.027473
#
#
# Mechanical properties :
#
#
# Convention : Reuss Voigt Hill
#
# Bulk Modulus (GPa) = 17.23533 30.56701 23.90117
# Shear Modulus (GPa) = 48.98922 33.54523 41.26722
#
# Velocity S-wave (km/s) = 4.55974 3.77316 4.18497
# Velocity P-wave (km/s) = 5.91915 5.65288 5.78755
#
# Compressibility (1/GPa) = 0.05802034
#
# Stress axis : x y z
#
# Youngs Moduli (GPa) = 83.28114 29.38779 179.37230
#
# Poissons Ratio (x) = -0.10704 -0.05971
# Poissons Ratio (y) = -0.30333 0.13813
# Poissons Ratio (z) = -0.02772 0.02263
#
# Static dielectric constant tensor:
#      x y z
#    x 1.966470 0.000000 0.000000 
#    y 0.000000 1.845230 0.000000 
#    z 0.000000 0.000000 1.950650 
# 
# From -- ./inp_files/30357.got.cif
#   From: 2010.05.17/outbox.cif.g08.bks.cpg/sg59_16_cif.got.tgz:30357.got - 2010.06.03 14:40:33.
