data_PCOD9453175
_publ_section_title
;
Structure prediction by ZEFSAII (Michael W. Deem and Ramdas Pophale) SiO2 
 PCOD9453175
Probable space group: P M M N
;
_chemical_formula_sum "Si O2"
_cell_formula_units_Z 48
_cell_length_a 10.143502
_cell_length_b 8.406422
_cell_length_c 30.065352
_cell_angle_alpha 90.000000
_cell_angle_beta 90.000000
_cell_angle_gamma 90.000000
_cell_volume 2563.689353
_symmetry_space_group_name_H-M "P M M N"
_symmetry_group_IT_number 59
_space_group.IT_coordinate_system_code '2'
_symmetry_cell_setting 'orthorhombic'
loop_
_space_group_symop_operation_xyz
x,y,z
1/2-x,1/2-y,z
1/2+x,-y,-z
-x,1/2+y,-z
-x,-y,-z
1/2+x,1/2+y,-z
1/2-x,y,z
x,1/2-y,z
loop_
_atom_site_type_symbol
_atom_site_label
_atom_site_fract_x
_atom_site_fract_y
_atom_site_fract_z
Si Si1 0.910125 0.066445 0.135508
Si Si2 0.097267 0.557026 0.961793
Si Si3 0.468382 0.436347 0.405657
Si Si4 0.096803 0.556764 0.767166
Si Si5 0.750000 0.935899 0.432540
Si Si6 0.750000 0.066776 0.529506
Si Si7 0.599847 0.439584 0.691696
O O1 0.750000 0.070174 0.135592
O O2 0.955990 0.250000 0.135539
O O3 0.946091 0.996953 0.087436
O O4 0.946679 0.997445 0.183582
O O5 0.250000 0.508684 0.969469
O O6 0.096344 0.750000 0.960220
O O7 0.000000 0.500000 0.000000
O O8 0.448176 0.250000 0.413673
O O9 0.619149 0.483309 0.413549
O O10 0.376457 0.531122 0.440026
O O11 0.428386 0.479058 0.355530
O O12 0.250000 0.511083 0.759966
O O13 0.093389 0.750000 0.767945
O O14 0.003194 0.495068 0.728640
O O15 0.750000 0.750000 0.421410
O O16 0.750000 0.960032 0.485671
O O17 0.750000 0.250000 0.515133
O O18 0.750000 0.477372 0.705322
O O19 0.589471 0.250000 0.685482
#
# Coordination Sequence:
#
# PCOD9453175 Si02
#       7
#     8   8   8   8   4   4   8
#     4   7  12  27  50  74 101 136 178 226 276 329
#     4   9  17  30  49  73 103 140 182 226 276 331
#     4  12  25  43  66  92 120 156 200 242 284 337
#     4   9  18  34  59  86 108 135 181 236 285 334
#     4  12  26  44  66  94 126 158 194 240 289 336
#     4  12  24  44  68  94 126 160 196 236 287 344
#     4  11  24  41  59  81 115 155 190 226 281 344
#
# _framework density 18.723016999999999
#
# number of rings (size 3 to 8) (size 9 to 14) (size 15 to 20)
#    0.000    2.000    0.833    6.000    1.167    1.667 
#    0.000    1.667    0.000    8.000    0.000    0.000 
#    0.000    0.000    0.000    0.000    0.000    0.000 
#
# Total GULP energy -267892.740969 kJ/mol
# GULP energy per Si atom -5581.098770 kJ/mol
# Density = 1.868040 g / cm^3
# Si number density = 18.723017 Si / 1000 Ang^3
#
#
#
# Elastic Constant Matrix: (Units=GPa)
#
#
# Indices 1 2 3 4 5 6 
#
# 1 87.3061 9.3923 28.2007 0.0000 0.0000 0.0000
# 2 9.3923 31.0988 2.3262 0.0000 0.0000 0.0000
# 3 28.2007 2.3262 84.8921 0.0000 0.0000 0.0000
# 4 0.0000 0.0000 0.0000 25.9812 0.0000 0.0000
# 5 0.0000 0.0000 0.0000 0.0000 35.2056 0.0000
# 6 0.0000 0.0000 0.0000 0.0000 0.0000 29.4726
#
#
#
# Elastic Compliance Matrix: (Units=1/GPa)
#
#
# Indices 1 2 3 4 5 6 
#
# 1 0.013237 -0.003676 -0.004297 0.000000 0.000000 0.000000
# 2 -0.003676 0.033243 0.000310 0.000000 0.000000 0.000000
# 3 -0.004297 0.000310 0.013198 0.000000 0.000000 0.000000
# 4 0.000000 0.000000 0.000000 0.038489 0.000000 0.000000
# 5 0.000000 0.000000 0.000000 0.000000 0.028405 0.000000
# 6 0.000000 0.000000 0.000000 0.000000 0.000000 0.033930
#
#
# Mechanical properties :
#
#
# Convention : Reuss Voigt Hill
#
# Bulk Modulus (GPa) = 22.54638 31.45950 27.00294
# Shear Modulus (GPa) = 26.23129 29.02372 27.62751
#
# Velocity S-wave (km/s) = 3.74708 3.94148 3.84551
# Velocity P-wave (km/s) = 5.54878 6.12803 5.84559
#
# Compressibility (1/GPa) = 0.04435303
#
# Stress axis : x y z
#
# Youngs Moduli (GPa) = 75.54397 30.08182 75.76638
#
# Poissons Ratio (x) = 0.11060 0.32554
# Poissons Ratio (y) = 0.27774 -0.02352
# Poissons Ratio (z) = 0.32458 -0.00934
#
# Static dielectric constant tensor:
#      x y z
#    x 1.620080 0.000000 0.000000 
#    y 0.000000 1.650640 0.000000 
#    z 0.000000 0.000000 1.656230 
# 
# From -- ./inp_files/33099.got.cif
#   From: 2010.05.17/outbox.cif.g08.bks.cpg/sg59_17_cif.got.tgz:33099.got - 2010.06.03 14:40:33.
