data_PCOD9453191
_publ_section_title
;
Structure prediction by ZEFSAII (Michael W. Deem and Ramdas Pophale) SiO2 
 PCOD9453191
Probable space group: P M M N
;
_chemical_formula_sum "Si O2"
_cell_formula_units_Z 40
_cell_length_a 9.818962
_cell_length_b 21.928902
_cell_length_c 11.471918
_cell_angle_alpha 90.000000
_cell_angle_beta 90.000000
_cell_angle_gamma 90.000000
_cell_volume 2470.122548
_symmetry_space_group_name_H-M "P M M N"
_symmetry_group_IT_number 59
_space_group.IT_coordinate_system_code '2'
_symmetry_cell_setting 'orthorhombic'
loop_
_space_group_symop_operation_xyz
x,y,z
1/2-x,1/2-y,z
1/2+x,-y,-z
-x,1/2+y,-z
-x,-y,-z
1/2+x,1/2+y,-z
1/2-x,y,z
x,1/2-y,z
loop_
_atom_site_type_symbol
_atom_site_label
_atom_site_fract_x
_atom_site_fract_y
_atom_site_fract_z
Si Si1 0.750000 0.075121 0.937462
Si Si2 0.750000 0.952513 0.627328
Si Si3 0.025535 0.518479 0.216650
Si Si4 0.250000 0.814585 0.240090
Si Si5 0.750000 0.449054 0.189128
Si Si6 0.750000 0.065668 0.460335
Si Si7 0.250000 0.322596 0.487633
Si Si8 0.980025 0.369407 0.611001
O O1 0.881449 0.037742 0.892501
O O2 0.750000 0.133364 0.854908
O O3 0.750000 0.091545 0.072874
O O4 0.750000 0.880125 0.603819
O O5 0.880888 0.974935 0.701450
O O6 0.750000 0.995370 0.509557
O O7 0.989919 0.577110 0.296134
O O8 0.886834 0.487966 0.179626
O O9 0.250000 0.750000 0.181324
O O10 0.119307 0.823370 0.322007
O O11 0.750000 0.426206 0.322147
O O12 0.615945 0.097846 0.514253
O O13 0.250000 0.250000 0.452825
O O14 0.386867 0.337364 0.560783
#
# Coordination Sequence:
#
# PCOD9453191 Si02
#       8
#     4   4   8   4   4   4   4   8
#     4   9  20  32  44  70  97 119 155 193 238 281
#     4   9  18  34  48  68  98 127 156 184 236 289
#     4   9  18  32  51  68  91 123 155 200 237 269
#     4   9  17  34  53  62  85 127 161 191 224 269
#     4  12  18  26  47  74  97 119 147 187 239 284
#     4   9  18  31  53  73  93 124 155 197 239 275
#     4  12  21  27  42  73 107 126 144 182 232 292
#     4   9  18  32  48  73  95 117 156 192 234 280
#
# _framework density 16.193528000000001
#
# number of rings (size 3 to 8) (size 9 to 14) (size 15 to 20)
#    0.000    2.400    0.000    6.600    0.000    3.200 
#    0.000    0.000    0.000    7.200    0.000    0.000 
#    0.000    9.600    0.000    0.000    0.000    0.000 
#
# Total GULP energy -222775.679413 kJ/mol
# GULP energy per Si atom -5569.391985 kJ/mol
# Density = 1.615667 g / cm^3
# Si number density = 16.193528 Si / 1000 Ang^3
#
#
#
# Elastic Constant Matrix: (Units=GPa)
#
#
# Indices 1 2 3 4 5 6 
#
# 1 93.8938 28.2614 13.5747 0.0000 0.0000 0.0000
# 2 28.2614 80.3142 14.3566 0.0000 0.0000 0.0000
# 3 13.5747 14.3566 90.0075 0.0000 0.0000 0.0000
# 4 0.0000 0.0000 0.0000 -1.2438 0.0000 0.0000
# 5 0.0000 0.0000 0.0000 0.0000 17.5091 0.0000
# 6 0.0000 0.0000 0.0000 0.0000 0.0000 -0.6654
#
#
#
# Elastic Compliance Matrix: (Units=1/GPa)
#
#
# Indices 1 2 3 4 5 6 
#
# 1 0.012031 -0.004024 -0.001173 0.000000 0.000000 0.000000
# 2 -0.004024 0.014162 -0.001652 0.000000 0.000000 0.000000
# 3 -0.001173 -0.001652 0.011551 0.000000 0.000000 0.000000
# 4 0.000000 0.000000 0.000000 -0.803965 0.000000 0.000000
# 5 0.000000 0.000000 0.000000 0.000000 0.057113 0.000000
# 6 0.000000 0.000000 0.000000 0.000000 0.000000 -1.502754
#
#
# Mechanical properties :
#
#
# Convention : Reuss Voigt Hill
#
# Bulk Modulus (GPa) = 41.58586 41.84455 41.71520
# Shear Modulus (GPa) = -2.28295 16.98815 7.35260
#
# Velocity S-wave (km/s) = -1.18863 3.24245 2.13315
# Velocity P-wave (km/s) = 4.88390 6.31778 5.64654
#
# Compressibility (1/GPa) = 0.02404664
#
# Stress axis : x y z
#
# Youngs Moduli (GPa) = 83.11832 70.60960 86.57593
#
# Poissons Ratio (x) = 0.28413 0.10152
# Poissons Ratio (y) = 0.33446 0.14303
# Poissons Ratio (z) = 0.09747 0.11665
#
# Static dielectric constant tensor:
#      x y z
#    x 1.548040 0.000000 0.000000 
#    y 0.000000 1.544200 0.000000 
#    z 0.000000 0.000000 1.541030 
# 
# From -- ./inp_files/14162.got.cif
#   From: 2010.05.17/outbox.cif.g08.bks.cpg/sg59_8_cif.got.tgz:14162.got - 2010.06.03 14:40:33.
