data_PCOD9453455
_publ_section_title
;
Structure prediction by ZEFSAII (Michael W. Deem and Ramdas Pophale) SiO2 
 PCOD9453455
Probable space group: P M M N
;
_chemical_formula_sum "Si O2"
_cell_formula_units_Z 48
_cell_length_a 9.000000
_cell_length_b 21.000000
_cell_length_c 15.000000
_cell_angle_alpha 90.000000
_cell_angle_beta 90.000000
_cell_angle_gamma 90.000000
_cell_volume 2835.000000
_symmetry_space_group_name_H-M "P M M N"
_symmetry_group_IT_number 59
_space_group.IT_coordinate_system_code '2'
_symmetry_cell_setting 'orthorhombic'
loop_
_space_group_symop_operation_xyz
x,y,z
1/2-x,1/2-y,z
1/2+x,-y,-z
-x,1/2+y,-z
-x,-y,-z
1/2+x,1/2+y,-z
1/2-x,y,z
x,1/2-y,z
loop_
_atom_site_type_symbol
_atom_site_label
_atom_site_fract_x
_atom_site_fract_y
_atom_site_fract_z
Si Si1 0.925562 0.471186 0.224102
Si Si2 0.427950 0.323663 0.515236
Si Si3 0.429188 0.063069 0.044561
Si Si4 0.585188 0.325971 0.697951
Si Si5 0.069227 0.454822 0.421243
Si Si6 0.077848 0.386055 0.858503
O O1 0.750000 0.455662 0.232552
O O2 0.935013 0.542943 0.184142
O O3 0.001925 0.430106 0.143689
O O4 0.003420 0.467878 0.321617
O O5 0.250000 0.321188 0.518368
O O6 0.479287 0.250000 0.496134
O O7 0.486288 0.344273 0.612865
O O8 0.467244 0.381027 0.447927
O O9 0.250000 0.056490 0.051357
O O10 0.459674 0.113109 0.964038
O O11 0.500000 0.000000 0.000000
O O12 0.750000 0.353528 0.686890
O O13 0.592910 0.250000 0.694107
O O14 0.520837 0.344444 0.793319
O O15 0.250000 0.462142 0.420609
O O16 0.000000 0.500000 0.500000
O O17 0.250000 0.367012 0.850598
#
# Coordination Sequence:
#
# PCOD9453455 Si02
#       6
#     8   8   8   8   8   8
#     4  10  20  33  49  72 101 130 162 199 243 294
#     4   9  19  36  54  70  94 132 172 205 242 295
#     4   9  17  30  48  71  97 125 159 195 236 289
#     4  10  20  31  46  71  98 124 158 200 244 289
#     4  11  22  34  51  76 104 132 166 210 256 298
#     4   9  18  31  48  70  96 127 160 193 234 289
#
# _framework density 16.931217
#
# number of rings (size 3 to 8) (size 9 to 14) (size 15 to 20)
#    0.000    2.333    0.000    4.000    0.000   10.333 
#    0.000    0.000    0.000    1.000    0.000    2.333 
#    0.000    0.000    0.000    0.000    0.000    0.000 
#
# Total GULP energy -267266.829258 kJ/mol
# GULP energy per Si atom -5568.058943 kJ/mol
# Density = 1.689268 g / cm^3
# Si number density = 16.931217 Si / 1000 Ang^3
#
#
#
# Elastic Constant Matrix: (Units=GPa)
#
#
# Indices 1 2 3 4 5 6 
#
# 1 64.7878 23.1177 55.5810 0.0000 0.0000 0.0000
# 2 23.1177 34.4944 27.3346 0.0000 0.0000 0.0000
# 3 55.5810 27.3346 157.4912 0.0000 0.0000 0.0000
# 4 0.0000 0.0000 0.0000 29.3185 0.0000 0.0000
# 5 0.0000 0.0000 0.0000 0.0000 36.2683 0.0000
# 6 0.0000 0.0000 0.0000 0.0000 0.0000 20.5678
#
#
#
# Elastic Compliance Matrix: (Units=1/GPa)
#
#
# Indices 1 2 3 4 5 6 
#
# 1 0.025593 -0.011589 -0.007021 0.000000 0.000000 0.000000
# 2 -0.011589 0.038861 -0.002655 0.000000 0.000000 0.000000
# 3 -0.007021 -0.002655 0.009288 0.000000 0.000000 0.000000
# 4 0.000000 0.000000 0.000000 0.034108 0.000000 0.000000
# 5 0.000000 0.000000 0.000000 0.000000 0.027572 0.000000
# 6 0.000000 0.000000 0.000000 0.000000 0.000000 0.048620
#
#
# Mechanical properties :
#
#
# Convention : Reuss Voigt Hill
#
# Bulk Modulus (GPa) = 32.03786 52.09333 42.06559
# Shear Modulus (GPa) = 21.09922 27.28027 24.18974
#
# Velocity S-wave (km/s) = 3.53395 4.01838 3.78392
# Velocity P-wave (km/s) = 5.96784 7.23632 6.63247
#
# Compressibility (1/GPa) = 0.03121308
#
# Stress axis : x y z
#
# Youngs Moduli (GPa) = 39.07278 25.73292 107.66421
#
# Poissons Ratio (x) = 0.29821 0.75590
# Poissons Ratio (y) = 0.45280 0.28584
# Poissons Ratio (z) = 0.27433 0.06832
#
# Static dielectric constant tensor:
#      x y z
#    x 1.590710 0.000000 0.000000 
#    y 0.000000 1.607660 0.000000 
#    z 0.000000 0.000000 1.574490 
# 
# From -- ./inp_files/18595.got.cif
#   From: 2010.05.17/outbox.ucp.g08.bks.cvg/sg59_10_cif.got.tgz:18595.got - 2010.06.11 16:43:56.
