data_PCOD9453083
_publ_section_title
;
Structure prediction by ZEFSAII (Michael W. Deem and Ramdas Pophale) SiO2 
 PCOD9453083
Probable space group: P M M N
;
_chemical_formula_sum "Si O2"
_cell_formula_units_Z 48
_cell_length_a 7.844496
_cell_length_b 24.138877
_cell_length_c 11.169592
_cell_angle_alpha 90.000000
_cell_angle_beta 90.000000
_cell_angle_gamma 90.000000
_cell_volume 2115.044052
_symmetry_space_group_name_H-M "P M M N"
_symmetry_group_IT_number 59
_space_group.IT_coordinate_system_code '2'
_symmetry_cell_setting 'orthorhombic'
loop_
_space_group_symop_operation_xyz
x,y,z
1/2-x,1/2-y,z
1/2+x,-y,-z
-x,1/2+y,-z
-x,-y,-z
1/2+x,1/2+y,-z
1/2-x,y,z
x,1/2-y,z
loop_
_atom_site_type_symbol
_atom_site_label
_atom_site_fract_x
_atom_site_fract_y
_atom_site_fract_z
Si Si1 0.543338 0.811925 0.199837
Si Si2 0.050433 0.687111 0.691757
Si Si3 0.458889 0.081342 0.931786
Si Si4 0.947563 0.921418 0.807350
Si Si5 0.456071 0.126644 0.550789
Si Si6 0.547877 0.976559 0.312274
O O1 0.750000 0.809759 0.195093
O O2 0.476644 0.750000 0.186937
O O3 0.490446 0.855732 0.099428
O O4 0.504461 0.838341 0.329167
O O5 0.250000 0.689113 0.719887
O O6 0.982604 0.750000 0.692837
O O7 0.967054 0.643431 0.781749
O O8 0.029239 0.658928 0.561791
O O9 0.250000 0.078924 0.934632
O O10 0.516053 0.046369 0.816604
O O11 0.524726 0.064872 0.062380
O O12 0.750000 0.934919 0.811129
O O13 0.017710 0.958291 0.698480
O O14 0.250000 0.125566 0.533602
O O15 0.517548 0.064014 0.583385
O O16 0.750000 0.967774 0.313331
#
# Coordination Sequence:
#
# PCOD9453083 Si02
#       6
#     8   8   8   8   8   8
#     4   8  13  24  47  78 107 133 167 218 273 316
#     4  11  25  42  57  75 105 145 182 219 269 322
#     4   8  16  30  49  78 112 144 178 216 263 315
#     4  11  22  35  55  82 110 144 185 222 257 309
#     4   9  18  34  58  84 106 134 176 223 269 319
#     4   9  18  35  58  84 114 142 171 216 273 324
#
# _framework density 22.694564
#
# number of rings (size 3 to 8) (size 9 to 14) (size 15 to 20)
#    0.000    2.667    0.000    4.000    0.000    4.000 
#    0.000    2.500    0.000    2.000    0.000    9.333 
#    0.000    0.000    0.000    0.000    0.000    0.000 
#
# Total GULP energy -267883.937853 kJ/mol
# GULP energy per Si atom -5580.915372 kJ/mol
# Density = 2.264291 g / cm^3
# Si number density = 22.694564 Si / 1000 Ang^3
#
#
#
# Elastic Constant Matrix: (Units=GPa)
#
#
# Indices 1 2 3 4 5 6 
#
# 1 29.6412 -3.1241 -4.0806 0.0000 0.0000 0.0000
# 2 -3.1241 103.7203 9.3242 0.0000 0.0000 0.0000
# 3 -4.0806 9.3242 69.3899 0.0000 0.0000 0.0000
# 4 0.0000 0.0000 0.0000 21.4703 0.0000 0.0000
# 5 0.0000 0.0000 0.0000 0.0000 3.0881 0.0000
# 6 0.0000 0.0000 0.0000 0.0000 0.0000 16.5877
#
#
#
# Elastic Compliance Matrix: (Units=1/GPa)
#
#
# Indices 1 2 3 4 5 6 
#
# 1 0.034087 0.000857 0.001889 0.000000 0.000000 0.000000
# 2 0.000857 0.009781 -0.001264 0.000000 0.000000 0.000000
# 3 0.001889 -0.001264 0.014692 0.000000 0.000000 0.000000
# 4 0.000000 0.000000 0.000000 0.046576 0.000000 0.000000
# 5 0.000000 0.000000 0.000000 0.000000 0.323824 0.000000
# 6 0.000000 0.000000 0.000000 0.000000 0.000000 0.060286
#
#
# Mechanical properties :
#
#
# Convention : Reuss Voigt Hill
#
# Bulk Modulus (GPa) = 16.25350 22.99891 19.62621
# Shear Modulus (GPa) = 9.86604 21.60469 15.73536
#
# Velocity S-wave (km/s) = 2.08728 3.08876 2.63602
# Velocity P-wave (km/s) = 3.60366 4.78296 4.23456
#
# Compressibility (1/GPa) = 0.06152519
#
# Stress axis : x y z
#
# Youngs Moduli (GPa) = 29.33644 102.24168 68.06300
#
# Poissons Ratio (x) = -0.08761 -0.12860
# Poissons Ratio (y) = -0.02514 0.08602
# Poissons Ratio (z) = -0.05543 0.12922
#
# Static dielectric constant tensor:
#      x y z
#    x 1.820350 0.000000 0.000000 
#    y 0.000000 1.890610 0.000000 
#    z 0.000000 0.000000 1.853780 
# 
# From -- ./inp_files/14343.got.cif
#   From: 2010.05.17/outbox.cif.g08.bks.cpg/sg59_8_cif.got.tgz:14343.got - 2010.06.03 14:40:33.
