data_PCOD9453803
_publ_section_title
;
Structure prediction by ZEFSAII (Michael W. Deem and Ramdas Pophale) SiO2 
 PCOD9453803
Probable space group: P B C N
;
_chemical_formula_sum "Si O2"
_cell_formula_units_Z 60
_cell_length_a 26.185152
_cell_length_b 33.230602
_cell_length_c 5.541606
_cell_angle_alpha 90.000000
_cell_angle_beta 90.000000
_cell_angle_gamma 90.000000
_cell_volume 4822.019397
_symmetry_space_group_name_H-M "P B C N"
_symmetry_group_IT_number 60
_symmetry_cell_setting 'orthorhombic'
loop_
_space_group_symop_operation_xyz
x,y,z
1/2-x,1/2-y,1/2+z
1/2+x,1/2-y,-z
-x,y,1/2-z
-x,-y,-z
1/2+x,1/2+y,1/2-z
1/2-x,1/2+y,z
x,-y,1/2+z
loop_
_atom_site_type_symbol
_atom_site_label
_atom_site_fract_x
_atom_site_fract_y
_atom_site_fract_z
Si Si1 0.000000 0.669769 0.250000
Si Si2 0.409886 0.770696 0.678076
Si Si3 0.185273 0.332284 0.712974
Si Si4 0.046883 0.397852 0.084435
Si Si5 0.731442 0.270396 0.822424
Si Si6 0.616079 0.755195 0.318029
Si Si7 0.143077 0.350805 0.216443
Si Si8 0.058502 0.515466 0.463050
O O1 0.955355 0.697470 0.354252
O O2 0.026644 0.640421 0.439161
O O3 0.355815 0.794934 0.703296
O O4 0.407540 0.743911 0.439572
O O5 0.415530 0.749449 0.937094
O O6 0.241324 0.313153 0.716084
O O7 0.175208 0.354718 0.461267
O O8 0.172078 0.355338 0.960339
O O9 0.095837 0.381329 0.224762
O O10 0.000000 0.411381 0.250000
O O11 0.059464 0.436596 0.924023
O O12 0.746936 0.245977 0.578914
O O13 0.670762 0.266099 0.841328
O O14 0.624033 0.804021 0.293970
O O15 0.081478 0.505785 0.727103
O O16 0.000000 0.500000 0.500000
#
# Coordination Sequence:
#
# PCOD9453803 Si02
#       8
#     4   8   8   8   8   8   8   8
#     4  12  22  28  40  56  68 102 108 132 182 220
#     4  10  19  28  36  47  76  82 111 137 153 194
#     4  10  17  30  36  54  73  84 107 137 150 197
#     4  12  22  29  46  54  67  94 113 132 187 215
#     4  12  16  24  44  50  64  96 106 125 171 181
#     4  10  17  30  36  54  69  85 110 140 150 194
#     4  10  19  28  37  53  74  81 103 138 155 202
#     4  10  20  36  44  54  68  79 109 154 162 204
#
# _framework density 12.442919
#
# number of rings (size 3 to 8) (size 9 to 14) (size 15 to 20)
#    0.000    1.333    9.333    2.400    0.000    0.000 
#    0.000    0.000    0.000    0.000    0.000    0.000 
#    0.000    0.000    0.000    0.000    0.000    0.000 
#
# Total GULP energy -334007.156298 kJ/mol
# GULP energy per Si atom -5566.785938 kJ/mol
# Density = 1.241460 g / cm^3
# Si number density = 12.442919 Si / 1000 Ang^3
#
#
#
# Elastic Constant Matrix: (Units=GPa)
#
#
# Indices 1 2 3 4 5 6 
#
# 1 32.7844 25.8543 9.0355 0.0000 0.0000 0.0000
# 2 25.8543 22.4948 7.3415 0.0000 0.0000 0.0000
# 3 9.0355 7.3415 112.0223 0.0000 0.0000 0.0000
# 4 0.0000 0.0000 0.0000 4.5702 0.0000 0.0000
# 5 0.0000 0.0000 0.0000 0.0000 13.6509 0.0000
# 6 0.0000 0.0000 0.0000 0.0000 0.0000 -0.0144
#
#
#
# Elastic Compliance Matrix: (Units=1/GPa)
#
#
# Indices 1 2 3 4 5 6 
#
# 1 0.326212 -0.374351 -0.001778 0.000000 0.000000 0.000000
# 2 -0.374351 0.475020 -0.000937 0.000000 0.000000 0.000000
# 3 -0.001778 -0.000937 0.009132 0.000000 0.000000 0.000000
# 4 0.000000 0.000000 0.000000 0.218809 0.000000 0.000000
# 5 0.000000 0.000000 0.000000 0.000000 0.073255 0.000000
# 6 0.000000 0.000000 0.000000 0.000000 0.000000-69.490870
#
#
# Mechanical properties :
#
#
# Convention : Reuss Voigt Hill
#
# Bulk Modulus (GPa) = 17.78331 27.97378 22.87855
# Shear Modulus (GPa) = -0.07395 11.97936 5.95271
#
# Velocity S-wave (km/s) = -0.24405 3.10618 2.18961
# Velocity P-wave (km/s) = 3.77406 5.94937 4.98189
#
# Compressibility (1/GPa) = 0.05623250
#
# Stress axis : x y z
#
# Youngs Moduli (GPa) = 3.06549 2.10517 109.50994
#
# Poissons Ratio (x) = 0.78807 0.19471
# Poissons Ratio (y) = 1.14757 0.10257
# Poissons Ratio (z) = 0.00545 0.00197
#
# Static dielectric constant tensor:
#      x y z
#    x 1.405790 0.000000 0.000000 
#    y 0.000000 1.383730 0.000000 
#    z 0.000000 0.000000 1.507730 
# 
# From -- ./inp_files/2500.got.cif
#   From: 2010.05.17/outbox.cif.g08.bks.cpg/sg60_2_cif.got.tgz:2500.got - 2010.06.03 14:59:27.
