data_PCOD9453006
_publ_section_title
;
Structure prediction by ZEFSAII (Michael W. Deem and Ramdas Pophale) SiO2 
 PCOD9453006
Probable space group: P M M N
;
_chemical_formula_sum "Si O2"
_cell_formula_units_Z 56
_cell_length_a 8.761155
_cell_length_b 14.678587
_cell_length_c 24.476967
_cell_angle_alpha 90.000000
_cell_angle_beta 90.000000
_cell_angle_gamma 90.000000
_cell_volume 3147.771634
_symmetry_space_group_name_H-M "P M M N"
_symmetry_group_IT_number 59
_space_group.IT_coordinate_system_code '2'
_symmetry_cell_setting 'orthorhombic'
loop_
_space_group_symop_operation_xyz
x,y,z
1/2-x,1/2-y,z
1/2+x,-y,-z
-x,1/2+y,-z
-x,-y,-z
1/2+x,1/2+y,-z
1/2-x,y,z
x,1/2-y,z
loop_
_atom_site_type_symbol
_atom_site_label
_atom_site_fract_x
_atom_site_fract_y
_atom_site_fract_z
Si Si1 0.929045 0.359112 0.935593
Si Si2 0.065585 0.143935 0.356662
Si Si3 0.568385 0.997776 0.144748
Si Si4 0.934517 0.143908 0.644000
Si Si5 0.936204 0.354576 0.057440
Si Si6 0.566996 0.500633 0.734940
Si Si7 0.932239 0.999555 0.439454
O O1 0.750000 0.383699 0.930929
O O2 0.939307 0.250000 0.932219
O O3 0.019697 0.407796 0.887885
O O4 0.984989 0.384660 0.996615
O O5 0.250000 0.138261 0.362190
O O6 0.022549 0.250000 0.355226
O O7 0.024123 0.088725 0.301545
O O8 0.991163 0.087652 0.405991
O O9 0.750000 0.003523 0.147942
O O10 0.512103 0.080099 0.105802
O O11 0.502681 0.001093 0.205304
O O12 0.750000 0.138534 0.638808
O O13 0.977745 0.250000 0.645733
O O14 0.976643 0.087851 0.698785
O O15 0.007790 0.088144 0.594187
O O16 0.750000 0.355407 0.056208
O O17 0.983271 0.250000 0.065967
O O18 0.750000 0.500049 0.739901
O O19 0.750000 0.999082 0.441190
O O20 0.000000 0.000000 0.500000
#
# Coordination Sequence:
#
# PCOD9453006 Si02
#       7
#     8   8   8   8   8   8   8
#     4   9  18  34  54  71  92 129 172 210 254 312
#     4   9  19  38  61  81 105 140 180 222 265 305
#     4  11  21  31  49  77 105 132 164 210 262 305
#     4   9  19  38  61  80 102 138 182 225 267 308
#     4   8  16  32  51  71  97 130 167 206 254 313
#     4   9  19  35  53  76 106 139 175 212 254 310
#     4  11  22  36  56  84 117 147 177 215 258 308
#
# _framework density 17.790362999999999
#
# number of rings (size 3 to 8) (size 9 to 14) (size 15 to 20)
#    0.000    2.571    0.000    3.857    0.000    4.857 
#    0.000    2.143    0.000    3.000    0.000    0.000 
#    0.000    0.000    0.000    0.000    0.000    0.000 
#
# Total GULP energy -312395.086987 kJ/mol
# GULP energy per Si atom -5578.483696 kJ/mol
# Density = 1.774987 g / cm^3
# Si number density = 17.790363 Si / 1000 Ang^3
#
#
#
# Elastic Constant Matrix: (Units=GPa)
#
#
# Indices 1 2 3 4 5 6 
#
# 1 30.2620 42.0376 52.9568 0.0000 0.0000 0.0000
# 2 42.0376 139.1073 88.8924 0.0000 0.0000 0.0000
# 3 52.9568 88.8924 194.8384 0.0000 0.0000 0.0000
# 4 0.0000 0.0000 0.0000 16.1760 0.0000 0.0000
# 5 0.0000 0.0000 0.0000 0.0000 25.2869 0.0000
# 6 0.0000 0.0000 0.0000 0.0000 0.0000 21.9286
#
#
#
# Elastic Compliance Matrix: (Units=1/GPa)
#
#
# Indices 1 2 3 4 5 6 
#
# 1 0.079204 -0.014367 -0.014973 0.000000 0.000000 0.000000
# 2 -0.014367 0.012753 -0.001913 0.000000 0.000000 0.000000
# 3 -0.014973 -0.001913 0.010075 0.000000 0.000000 0.000000
# 4 0.000000 0.000000 0.000000 0.061820 0.000000 0.000000
# 5 0.000000 0.000000 0.000000 0.000000 0.039546 0.000000
# 6 0.000000 0.000000 0.000000 0.000000 0.000000 0.045603
#
#
# Mechanical properties :
#
#
# Convention : Reuss Voigt Hill
#
# Bulk Modulus (GPa) = 25.30029 81.33126 53.31578
# Shear Modulus (GPa) = 15.39969 24.69970 20.04970
#
# Velocity S-wave (km/s) = 2.94533 3.73013 3.36072
# Velocity P-wave (km/s) = 5.08123 8.02294 6.71515
#
# Compressibility (1/GPa) = 0.03952524
#
# Stress axis : x y z
#
# Youngs Moduli (GPa) = 12.62569 78.41203 99.25580
#
# Poissons Ratio (x) = 1.12656 1.48611
# Poissons Ratio (y) = 0.18140 0.18992
# Poissons Ratio (z) = 0.18904 0.15004
#
# Static dielectric constant tensor:
#      x y z
#    x 1.605100 0.000000 0.000000 
#    y 0.000000 1.608420 0.000000 
#    z 0.000000 0.000000 1.582500 
# 
# From -- ./inp_files/29052.got.cif
#   From: 2010.05.17/outbox.cif.g08.bks.cpg/sg59_15_cif.got.tgz:29052.got - 2010.06.03 14:40:33.
