data_PCOD9453795
_publ_section_title
;
Structure prediction by ZEFSAII (Michael W. Deem and Ramdas Pophale) SiO2 
 PCOD9453795
Probable space group: P B C N
;
_chemical_formula_sum "Si O2"
_cell_formula_units_Z 40
_cell_length_a 7.751205
_cell_length_b 24.893752
_cell_length_c 8.112794
_cell_angle_alpha 90.000000
_cell_angle_beta 90.000000
_cell_angle_gamma 90.000000
_cell_volume 1565.416944
_symmetry_space_group_name_H-M "P B C N"
_symmetry_group_IT_number 60
_symmetry_cell_setting 'orthorhombic'
loop_
_space_group_symop_operation_xyz
x,y,z
1/2-x,1/2-y,1/2+z
1/2+x,1/2-y,-z
-x,y,1/2-z
-x,-y,-z
1/2+x,1/2+y,1/2-z
1/2-x,1/2+y,z
x,-y,1/2+z
loop_
_atom_site_type_symbol
_atom_site_label
_atom_site_fract_x
_atom_site_fract_y
_atom_site_fract_z
Si Si1 0.289214 0.084184 0.203649
Si Si2 0.294523 0.012813 0.506348
Si Si3 0.687906 0.324645 0.013649
Si Si4 0.196943 0.379246 0.182219
Si Si5 0.557098 0.792722 0.556313
O O1 0.500000 0.091416 0.250000
O O2 0.231675 0.044698 0.347514
O O3 0.238205 0.046834 0.047808
O O4 0.197124 0.139229 0.151710
O O5 0.262438 0.059250 0.639243
O O6 0.500000 0.000000 0.500000
O O7 0.671017 0.357254 0.182349
O O8 0.594145 0.268345 0.007499
O O9 0.884185 0.306441 0.036761
O O10 0.000000 0.383394 0.250000
O O11 0.187281 0.338163 0.021867
O O12 0.500000 0.793603 0.750000
#
# Coordination Sequence:
#
# PCOD9453795 Si02
#       5
#     8   8   8   8   8
#     4  10  18  30  52  82 119 151 185 236 294 344
#     4  10  17  28  49  79 116 151 183 234 298 344
#     4  11  22  37  57  84 118 155 194 238 286 346
#     4  10  19  31  50  79 114 147 186 236 289 338
#     4  11  22  38  57  82 115 154 195 238 285 338
#
# _framework density 25.552295999999998
#
# number of rings (size 3 to 8) (size 9 to 14) (size 15 to 20)
#    0.000    1.600    0.000   10.800    0.000    0.000 
#    0.000    2.000    0.000    0.000    0.000   12.600 
#    0.000    0.000    0.000   16.800    0.000    0.000 
#
# Total GULP energy -222707.906372 kJ/mol
# GULP energy per Si atom -5567.697659 kJ/mol
# Density = 2.549414 g / cm^3
# Si number density = 25.552296 Si / 1000 Ang^3
#
#
#
# Elastic Constant Matrix: (Units=GPa)
#
#
# Indices 1 2 3 4 5 6 
#
# 1 21.3094 12.1552 9.6955 0.0000 0.0000 0.0000
# 2 12.1552 189.4229 47.8899 0.0000 0.0000 0.0000
# 3 9.6955 47.8899 105.1333 0.0000 0.0000 0.0000
# 4 0.0000 0.0000 0.0000 75.4803 0.0000 0.0000
# 5 0.0000 0.0000 0.0000 0.0000 6.9425 0.0000
# 6 0.0000 0.0000 0.0000 0.0000 0.0000 57.3887
#
#
#
# Elastic Compliance Matrix: (Units=1/GPa)
#
#
# Indices 1 2 3 4 5 6 
#
# 1 0.049855 -0.002302 -0.003549 0.000000 0.000000 0.000000
# 2 -0.002302 0.006073 -0.002554 0.000000 0.000000 0.000000
# 3 -0.003549 -0.002554 0.011002 0.000000 0.000000 0.000000
# 4 0.000000 0.000000 0.000000 0.013248 0.000000 0.000000
# 5 0.000000 0.000000 0.000000 0.000000 0.144040 0.000000
# 6 0.000000 0.000000 0.000000 0.000000 0.000000 0.017425
#
#
# Mechanical properties :
#
#
# Convention : Reuss Voigt Hill
#
# Bulk Modulus (GPa) = 19.95192 50.59409 35.27300
# Shear Modulus (GPa) = 18.17119 44.37064 31.27092
#
# Velocity S-wave (km/s) = 2.66961 4.17161 3.50208
# Velocity P-wave (km/s) = 4.16265 6.56097 5.49427
#
# Compressibility (1/GPa) = 0.05012049
#
# Stress axis : x y z
#
# Youngs Moduli (GPa) = 20.05798 164.67481 90.88950
#
# Poissons Ratio (x) = 0.37907 0.32258
# Poissons Ratio (y) = 0.04617 0.23212
# Poissons Ratio (z) = 0.07119 0.42056
#
# Static dielectric constant tensor:
#      x y z
#    x 2.056220 0.000000 0.000000 
#    y 0.000000 2.101920 0.000000 
#    z 0.000000 0.000000 2.913210 
# 
# From -- ./inp_files/4911.got.cif
#   From: 2010.05.17/outbox.cif.g08.bks.cpg/sg60_3_cif.got.tgz:4911.got - 2010.06.03 14:59:27.
