data_PCOD9453425
_publ_section_title
;
Structure prediction by ZEFSAII (Michael W. Deem and Ramdas Pophale) SiO2 
 PCOD9453425
Probable space group: P M M N
;
_chemical_formula_sum "Si O2"
_cell_formula_units_Z 64
_cell_length_a 15.000000
_cell_length_b 9.000000
_cell_length_c 24.000000
_cell_angle_alpha 90.000000
_cell_angle_beta 90.000000
_cell_angle_gamma 90.000000
_cell_volume 3240.000000
_symmetry_space_group_name_H-M "P M M N"
_symmetry_group_IT_number 59
_space_group.IT_coordinate_system_code '2'
_symmetry_cell_setting 'orthorhombic'
loop_
_space_group_symop_operation_xyz
x,y,z
1/2-x,1/2-y,z
1/2+x,-y,-z
-x,1/2+y,-z
-x,-y,-z
1/2+x,1/2+y,-z
1/2-x,y,z
x,1/2-y,z
loop_
_atom_site_type_symbol
_atom_site_label
_atom_site_fract_x
_atom_site_fract_y
_atom_site_fract_z
Si Si1 0.113266 0.581518 0.951828
Si Si2 0.526121 0.428230 0.243273
Si Si3 0.151484 0.068864 0.188322
Si Si4 0.149488 0.082508 0.842481
Si Si5 0.355949 0.075825 0.539034
Si Si6 0.532816 0.428928 0.364132
Si Si7 0.650405 0.930929 0.587183
Si Si8 0.101446 0.078875 0.062805
O O1 0.143035 0.750000 0.942782
O O2 0.150063 0.471398 0.905745
O O3 0.005960 0.578988 0.942912
O O4 0.135069 0.524655 0.013353
O O5 0.522965 0.250000 0.245502
O O6 0.426876 0.482049 0.228712
O O7 0.588483 0.475886 0.193270
O O8 0.560671 0.481539 0.302941
O O9 0.250000 0.017942 0.203551
O O10 0.151162 0.250000 0.189551
O O11 0.128928 0.029146 0.124415
O O12 0.250000 0.078630 0.820758
O O13 0.114901 0.250000 0.839198
O O14 0.250000 0.062799 0.548089
O O15 0.379308 0.250000 0.541198
O O16 0.372656 0.021781 0.475966
O O17 0.409306 0.991113 0.585922
O O18 0.537424 0.250000 0.366163
O O19 0.429857 0.473368 0.373111
O O20 0.750000 0.982053 0.601671
O O21 0.653595 0.750000 0.586108
O O22 0.131302 0.250000 0.055195
#
# Coordination Sequence:
#
# PCOD9453425 Si02
#       8
#     8   8   8   8   8   8   8   8
#     4  10  19  33  55  82 111 139 170 214 267 320
#     4  10  21  38  55  78 108 138 176 221 270 317
#     4   9  17  32  55  79 104 136 173 213 258 311
#     4  11  24  40  58  78 101 137 184 227 269 320
#     4   9  18  33  53  76 107 146 182 215 257 314
#     4  10  20  32  53  81 108 137 175 224 268 311
#     4   8  15  30  52  80 112 143 175 214 261 312
#     4   9  17  31  52  80 112 142 171 206 255 317
#
# _framework density 19.753086
#
# number of rings (size 3 to 8) (size 9 to 14) (size 15 to 20)
#    0.000    2.500    1.250    1.875    0.000    3.750 
#    0.000    6.250    0.000    2.250    0.000    1.750 
#    0.000    0.000    0.000    0.000    0.000    0.000 
#
# Total GULP energy -356900.835240 kJ/mol
# GULP energy per Si atom -5576.575551 kJ/mol
# Density = 1.970813 g / cm^3
# Si number density = 19.753086 Si / 1000 Ang^3
#
#
#
# Elastic Constant Matrix: (Units=GPa)
#
#
# Indices 1 2 3 4 5 6 
#
# 1 26.6520 9.3696 8.0543 0.0000 0.0000 0.0000
# 2 9.3696 6.6938 7.9962 0.0000 0.0000 0.0000
# 3 8.0543 7.9962 36.1737 0.0000 0.0000 0.0000
# 4 0.0000 0.0000 0.0000 19.3518 0.0000 0.0000
# 5 0.0000 0.0000 0.0000 0.0000 -39.4598 0.0000
# 6 0.0000 0.0000 0.0000 0.0000 0.0000 9.4931
#
#
#
# Elastic Compliance Matrix: (Units=1/GPa)
#
#
# Indices 1 2 3 4 5 6 
#
# 1 0.075948 -0.117005 0.008954 0.000000 0.000000 0.000000
# 2 -0.117005 0.383250 -0.058666 0.000000 0.000000 0.000000
# 3 0.008954 -0.058666 0.038619 0.000000 0.000000 0.000000
# 4 0.000000 0.000000 0.000000 0.051675 0.000000 0.000000
# 5 0.000000 0.000000 0.000000 0.000000 -0.025342 0.000000
# 6 0.000000 0.000000 0.000000 0.000000 0.000000 0.105340
#
#
# Mechanical properties :
#
#
# Convention : Reuss Voigt Hill
#
# Bulk Modulus (GPa) = 6.08334 13.37331 9.72832
# Shear Modulus (GPa) = 4.91295 0.81697 2.86496
#
# Velocity S-wave (km/s) = 1.57879 0.64381 1.20563
# Velocity P-wave (km/s) = 2.53176 2.70880 2.62177
#
# Compressibility (1/GPa) = 0.16438345
#
# Stress axis : x y z
#
# Youngs Moduli (GPa) = 13.16682 2.60926 25.89403
#
# Poissons Ratio (x) = 0.30530 -0.23184
# Poissons Ratio (y) = 1.54058 1.51910
# Poissons Ratio (z) = -0.11789 0.15307
#
# Static dielectric constant tensor:
#      x y z
#    x 1.723450 0.000000 0.000000 
#    y 0.000000 1.660640 0.000000 
#    z 0.000000 0.000000 1.667610 
# 
# From -- ./inp_files/32129.got.cif
#   From: 2010.05.17/outbox.ucp.g08.bks.cvg/sg59_17_cif.got.tgz:32129.got - 2010.06.11 16:43:56.
