data_PCOD9453056
_publ_section_title
;
Structure prediction by ZEFSAII (Michael W. Deem and Ramdas Pophale) SiO2 
 PCOD9453056
Probable space group: P M M N
;
_chemical_formula_sum "Si O2"
_cell_formula_units_Z 58
_cell_length_a 16.718316
_cell_length_b 30.042578
_cell_length_c 5.438208
_cell_angle_alpha 90.000000
_cell_angle_beta 90.000000
_cell_angle_gamma 90.000000
_cell_volume 2731.401488
_symmetry_space_group_name_H-M "P M M N"
_symmetry_group_IT_number 59
_space_group.IT_coordinate_system_code '2'
_symmetry_cell_setting 'orthorhombic'
loop_
_space_group_symop_operation_xyz
x,y,z
1/2-x,1/2-y,z
1/2+x,-y,-z
-x,1/2+y,-z
-x,-y,-z
1/2+x,1/2+y,-z
1/2-x,y,z
x,1/2-y,z
loop_
_atom_site_type_symbol
_atom_site_label
_atom_site_fract_x
_atom_site_fract_y
_atom_site_fract_z
Si Si1 0.339770 0.420706 0.682793
Si Si2 0.512127 0.801567 0.604447
Si Si3 0.470000 0.457465 0.352143
Si Si4 0.957152 0.645069 0.110882
Si Si5 0.335640 0.001333 0.033884
Si Si6 0.334623 0.681948 0.741294
Si Si7 0.250000 0.750000 0.035959
Si Si8 0.103281 0.907617 0.936098
O O1 0.250000 0.406388 0.616230
O O2 0.408140 0.424067 0.480096
O O3 0.380043 0.387377 0.880045
O O4 0.333411 0.471700 0.778481
O O5 0.536343 0.750000 0.617745
O O6 0.542847 0.824176 0.353401
O O7 0.414883 0.803850 0.606601
O O8 0.537413 0.827635 0.854690
O O9 0.500000 0.500000 0.500000
O O10 0.416416 0.479445 0.143017
O O11 0.545831 0.430277 0.264259
O O12 0.038610 0.615152 0.117997
O O13 0.250000 0.013076 0.156921
O O14 0.345062 0.948497 0.033470
O O15 0.250000 0.690795 0.601288
O O16 0.319229 0.711276 0.985543
O O17 0.344846 0.631157 0.817439
#
# Coordination Sequence:
#
# PCOD9453056 Si02
#       8
#     8   8   8   8   8   8   2   8
#     4  11  23  41  61  90 125 171 216 266 327 397
#     4  11  22  44  68  98 129 166 214 271 331 401
#     4  12  22  39  61  86 128 175 221 276 329 393
#     4  11  24  40  68  98 126 169 217 268 329 396
#     4  11  23  38  57  87 128 172 223 271 334 387
#     4   9  18  35  62  89 128 166 215 267 332 393
#     4   8  16  36  60  90 132 162 218 266 356 374
#     4  11  21  39  59  94 127 171 226 274 324 396
#
# _framework density 21.234518999999999
#
# number of rings (size 3 to 8) (size 9 to 14) (size 15 to 20)
#    0.414    0.828    3.448    4.138    0.000    0.000 
#    0.000    4.828    0.000    9.103    0.000    0.000 
#    0.000    0.000    0.000    0.000    0.000    0.000 
#
# Total GULP energy -322928.207300 kJ/mol
# GULP energy per Si atom -5567.727712 kJ/mol
# Density = 2.118619 g / cm^3
# Si number density = 21.234519 Si / 1000 Ang^3
#
#
#
# Elastic Constant Matrix: (Units=GPa)
#
#
# Indices 1 2 3 4 5 6 
#
# 1 103.9012 20.9775 16.9482 0.0000 0.0000 0.0000
# 2 20.9775 135.9634 27.6832 0.0000 0.0000 0.0000
# 3 16.9482 27.6832 66.6310 0.0000 0.0000 0.0000
# 4 0.0000 0.0000 0.0000 52.7478 0.0000 0.0000
# 5 0.0000 0.0000 0.0000 0.0000 10.9508 0.0000
# 6 0.0000 0.0000 0.0000 0.0000 0.0000 10.8506
#
#
#
# Elastic Compliance Matrix: (Units=1/GPa)
#
#
# Indices 1 2 3 4 5 6 
#
# 1 0.010201 -0.001142 -0.002120 0.000000 0.000000 0.000000
# 2 -0.001142 0.008162 -0.003101 0.000000 0.000000 0.000000
# 3 -0.002120 -0.003101 0.016836 0.000000 0.000000 0.000000
# 4 0.000000 0.000000 0.000000 0.018958 0.000000 0.000000
# 5 0.000000 0.000000 0.000000 0.000000 0.091317 0.000000
# 6 0.000000 0.000000 0.000000 0.000000 0.000000 0.092161
#
#
# Mechanical properties :
#
#
# Convention : Reuss Voigt Hill
#
# Bulk Modulus (GPa) = 44.49819 48.63482 46.56651
# Shear Modulus (GPa) = 19.39094 30.96896 25.17995
#
# Velocity S-wave (km/s) = 3.02516 3.82308 3.44728
# Velocity P-wave (km/s) = 5.76223 6.51470 6.14998
#
# Compressibility (1/GPa) = 0.02247283
#
# Stress axis : x y z
#
# Youngs Moduli (GPa) = 98.02979 122.51170 59.39801
#
# Poissons Ratio (x) = 0.13993 0.12593
# Poissons Ratio (y) = 0.11197 0.18418
# Poissons Ratio (z) = 0.20784 0.37988
#
# Static dielectric constant tensor:
#      x y z
#    x 2.198500 0.000000 0.000000 
#    y 0.000000 1.802640 0.000000 
#    z 0.000000 0.000000 1.936910 
# 
# From -- ./inp_files/2986.got.cif
#   From: 2010.05.17/outbox.cif.g08.bks.cpg/sg59_2_cif.got.tgz:2986.got - 2010.06.03 14:40:33.
