data_PCOD9453485
_publ_section_title
;
Structure prediction by ZEFSAII (Michael W. Deem and Ramdas Pophale) SiO2 
 PCOD9453485
Probable space group: P M M N
;
_chemical_formula_sum "Si O2"
_cell_formula_units_Z 64
_cell_length_a 18.000000
_cell_length_b 9.000000
_cell_length_c 21.000000
_cell_angle_alpha 90.000000
_cell_angle_beta 90.000000
_cell_angle_gamma 90.000000
_cell_volume 3402.000000
_symmetry_space_group_name_H-M "P M M N"
_symmetry_group_IT_number 59
_space_group.IT_coordinate_system_code '2'
_symmetry_cell_setting 'orthorhombic'
loop_
_space_group_symop_operation_xyz
x,y,z
1/2-x,1/2-y,z
1/2+x,-y,-z
-x,1/2+y,-z
-x,-y,-z
1/2+x,1/2+y,-z
1/2-x,y,z
x,1/2-y,z
loop_
_atom_site_type_symbol
_atom_site_label
_atom_site_fract_x
_atom_site_fract_y
_atom_site_fract_z
Si Si1 0.423881 0.571688 0.526163
Si Si2 0.662390 0.923087 0.583489
Si Si3 0.589359 0.430393 0.327993
Si Si4 0.437484 0.571041 0.913767
Si Si5 0.333106 0.931344 0.798035
Si Si6 0.165826 0.075139 0.169126
Si Si7 0.404589 0.926660 0.055200
Si Si8 0.923958 0.930771 0.709932
O O1 0.500000 0.500000 0.500000
O O2 0.431385 0.750000 0.526385
O O3 0.361855 0.518506 0.476825
O O4 0.405641 0.521715 0.598504
O O5 0.750000 0.927061 0.593095
O O6 0.639956 0.750000 0.572836
O O7 0.622012 0.976097 0.647651
O O8 0.592566 0.250000 0.329779
O O9 0.646864 0.479471 0.273815
O O10 0.508670 0.473057 0.301141
O O11 0.447520 0.750000 0.910104
O O12 0.392481 0.522226 0.851406
O O13 0.517480 0.496227 0.921347
O O14 0.395460 0.537663 0.980341
O O15 0.250000 0.977886 0.815226
O O16 0.334821 0.750000 0.798170
O O17 0.250000 0.062406 0.193024
O O18 0.150219 0.250000 0.158742
O O19 0.111056 0.016887 0.223968
O O20 0.155650 0.992358 0.102808
O O21 0.407653 0.750000 0.060703
O O22 0.920402 0.750000 0.712047
#
# Coordination Sequence:
#
# PCOD9453485 Si02
#       8
#     8   8   8   8   8   8   8   8
#     4  11  21  35  55  80 110 142 177 218 268 326
#     4  10  20  35  56  80 106 139 180 225 273 324
#     4   9  17  29  51  78 103 133 171 219 265 307
#     4   9  18  34  56  78 102 137 179 222 264 316
#     4   9  17  30  51  80 107 132 172 224 269 310
#     4  10  20  33  52  78 106 139 178 217 258 311
#     4  10  20  33  52  78 107 139 176 220 271 320
#     4   9  16  31  54  77 100 133 181 225 260 306
#
# _framework density 18.812463000000001
#
# number of rings (size 3 to 8) (size 9 to 14) (size 15 to 20)
#    0.000    2.375    1.250    1.875    0.000    5.500 
#    0.000    3.125    0.000    2.625    0.000    0.000 
#    0.000    0.000    0.000    0.000    0.000    0.000 
#
# Total GULP energy -356898.200627 kJ/mol
# GULP energy per Si atom -5576.534385 kJ/mol
# Density = 1.876965 g / cm^3
# Si number density = 18.812463 Si / 1000 Ang^3
#
#
#
# Elastic Constant Matrix: (Units=GPa)
#
#
# Indices 1 2 3 4 5 6 
#
# 1 36.7462 5.1282 19.2764 0.0000 0.0000 0.0000
# 2 5.1282 15.1321 16.2334 0.0000 0.0000 0.0000
# 3 19.2764 16.2334 100.9477 0.0000 0.0000 0.0000
# 4 0.0000 0.0000 0.0000 24.9041 0.0000 0.0000
# 5 0.0000 0.0000 0.0000 0.0000 -0.8040 0.0000
# 6 0.0000 0.0000 0.0000 0.0000 0.0000 17.8780
#
#
#
# Elastic Compliance Matrix: (Units=1/GPa)
#
#
# Indices 1 2 3 4 5 6 
#
# 1 0.030547 -0.004948 -0.005037 0.000000 0.000000 0.000000
# 2 -0.004948 0.080663 -0.012027 0.000000 0.000000 0.000000
# 3 -0.005037 -0.012027 0.012802 0.000000 0.000000 0.000000
# 4 0.000000 0.000000 0.000000 0.040154 0.000000 0.000000
# 5 0.000000 0.000000 0.000000 0.000000 -1.243760 0.000000
# 6 0.000000 0.000000 0.000000 0.000000 0.000000 0.055935
#
#
# Mechanical properties :
#
#
# Convention : Reuss Voigt Hill
#
# Bulk Modulus (GPa) = 12.50189 26.01133 19.25661
# Shear Modulus (GPa) = -5.24674 15.87483 5.31405
#
# Velocity S-wave (km/s) = -1.67183 2.90806 1.68252
# Velocity P-wave (km/s) = 1.71268 5.01322 3.74604
#
# Compressibility (1/GPa) = 0.07998792
#
# Stress axis : x y z
#
# Youngs Moduli (GPa) = 32.73675 12.39719 78.11266
#
# Poissons Ratio (x) = 0.06134 0.39348
# Poissons Ratio (y) = 0.16199 0.93943
# Poissons Ratio (z) = 0.16490 0.14910
#
# Static dielectric constant tensor:
#      x y z
#    x 1.675110 0.000000 0.000000 
#    y 0.000000 1.639680 0.000000 
#    z 0.000000 0.000000 1.661480 
# 
# From -- ./inp_files/30829.got.cif
#   From: 2010.05.17/outbox.ucp.g08.bks.cvg/sg59_16_cif.got.tgz:30829.got - 2010.06.11 16:43:56.
