data_PCOD9453414
_publ_section_title
;
Structure prediction by ZEFSAII (Michael W. Deem and Ramdas Pophale) SiO2 
 PCOD9453414
Probable space group: P M M N
;
_chemical_formula_sum "Si O2"
_cell_formula_units_Z 64
_cell_length_a 15.000000
_cell_length_b 18.000000
_cell_length_c 12.000000
_cell_angle_alpha 90.000000
_cell_angle_beta 90.000000
_cell_angle_gamma 90.000000
_cell_volume 3240.000000
_symmetry_space_group_name_H-M "P M M N"
_symmetry_group_IT_number 59
_space_group.IT_coordinate_system_code '2'
_symmetry_cell_setting 'orthorhombic'
loop_
_space_group_symop_operation_xyz
x,y,z
1/2-x,1/2-y,z
1/2+x,-y,-z
-x,1/2+y,-z
-x,-y,-z
1/2+x,1/2+y,-z
1/2-x,y,z
x,1/2-y,z
loop_
_atom_site_type_symbol
_atom_site_label
_atom_site_fract_x
_atom_site_fract_y
_atom_site_fract_z
Si Si1 0.650033 0.035574 0.750611
Si Si2 0.150200 0.339924 0.633565
Si Si3 0.357136 0.902950 0.881350
Si Si4 0.108499 0.670495 0.102686
Si Si5 0.643405 0.963078 0.963491
Si Si6 0.602166 0.834292 0.120390
Si Si7 0.026030 0.580405 0.454497
Si Si8 0.857171 0.339148 0.357327
O O1 0.750000 0.015826 0.710525
O O2 0.656474 0.104624 0.835197
O O3 0.585569 0.062342 0.653840
O O4 0.610880 0.974471 0.836822
O O5 0.250000 0.359762 0.592328
O O6 0.141851 0.250000 0.629733
O O7 0.143415 0.362517 0.763910
O O8 0.065656 0.376387 0.573629
O O9 0.250000 0.909682 0.875599
O O10 0.385306 0.880845 0.757323
O O11 0.391877 0.976983 0.945165
O O12 0.380275 0.839522 0.970742
O O13 0.142502 0.750000 0.139176
O O14 0.004428 0.665502 0.132389
O O15 0.750000 0.973457 0.956222
O O16 0.624970 0.884064 0.015757
O O17 0.632374 0.750000 0.104489
O O18 0.085929 0.626759 0.541676
O O19 0.000000 0.500000 0.500000
O O20 0.750000 0.350709 0.373630
O O21 0.870638 0.250000 0.347442
#
# Coordination Sequence:
#
# PCOD9453414 Si02
#       8
#     8   8   8   8   8   8   8   8
#     4  10  22  40  58  84 120 158 197 244 303 366
#     4  10  22  42  65  87 117 157 203 259 313 366
#     4   9  19  34  55  87 123 159 193 228 287 365
#     4  10  19  32  55  88 123 154 188 234 291 363
#     4   9  19  35  58  85 119 156 191 237 296 361
#     4  10  20  34  57  89 120 151 196 248 302 361
#     4  12  26  41  62  89 119 160 212 260 311 361
#     4  10  22  40  62  89 125 165 205 254 304 358
#
# _framework density 19.753086
#
# number of rings (size 3 to 8) (size 9 to 14) (size 15 to 20)
#    0.000    2.000    1.250    2.625    1.750    6.750 
#    0.000    0.000    0.000    0.750    0.000    0.000 
#    0.000    0.000    0.000    0.000    0.000    0.000 
#
# Total GULP energy -357038.965213 kJ/mol
# GULP energy per Si atom -5578.733831 kJ/mol
# Density = 1.970813 g / cm^3
# Si number density = 19.753086 Si / 1000 Ang^3
#
#
#
# Elastic Constant Matrix: (Units=GPa)
#
#
# Indices 1 2 3 4 5 6 
#
# 1 95.9733 22.1495 60.2024 0.0000 0.0000 0.0000
# 2 22.1495 50.8173 30.9032 0.0000 0.0000 0.0000
# 3 60.2024 30.9032 117.4307 0.0000 0.0000 0.0000
# 4 0.0000 0.0000 0.0000 -21.6969 0.0000 0.0000
# 5 0.0000 0.0000 0.0000 0.0000 20.6855 0.0000
# 6 0.0000 0.0000 0.0000 0.0000 0.0000 20.5815
#
#
#
# Elastic Compliance Matrix: (Units=1/GPa)
#
#
# Indices 1 2 3 4 5 6 
#
# 1 0.015582 -0.002302 -0.007382 0.000000 0.000000 0.000000
# 2 -0.002302 0.023768 -0.005074 0.000000 0.000000 0.000000
# 3 -0.007382 -0.005074 0.013636 0.000000 0.000000 0.000000
# 4 0.000000 0.000000 0.000000 -0.046090 0.000000 0.000000
# 5 0.000000 0.000000 0.000000 0.000000 0.048343 0.000000
# 6 0.000000 0.000000 0.000000 0.000000 0.000000 0.048587
#
#
# Mechanical properties :
#
#
# Convention : Reuss Voigt Hill
#
# Bulk Modulus (GPa) = 42.61279 54.52571 48.56925
# Shear Modulus (GPa) = 35.41929 13.97845 24.69887
#
# Velocity S-wave (km/s) = 4.23910 2.66307 3.53991
# Velocity P-wave (km/s) = 6.75126 6.09258 6.43036
#
# Compressibility (1/GPa) = 0.02346713
#
# Stress axis : x y z
#
# Youngs Moduli (GPa) = 64.17796 42.07398 73.33680
#
# Poissons Ratio (x) = 0.09686 0.54140
# Poissons Ratio (y) = 0.14775 0.37215
# Poissons Ratio (z) = 0.47378 0.21350
#
# Static dielectric constant tensor:
#      x y z
#    x 1.761980 0.000000 0.000000 
#    y 0.000000 1.741500 0.000000 
#    z 0.000000 0.000000 1.722050 
# 
# From -- ./inp_files/17211.got.cif
#   From: 2010.05.17/outbox.ucp.g08.bks.cvg/sg59_9_cif.got.tgz:17211.got - 2010.06.11 16:43:56.
