data_PCOD9453001
_publ_section_title
;
Structure prediction by ZEFSAII (Michael W. Deem and Ramdas Pophale) SiO2 
 PCOD9453001
Probable space group: P M M N
;
_chemical_formula_sum "Si O2"
_cell_formula_units_Z 48
_cell_length_a 15.030810
_cell_length_b 17.794571
_cell_length_c 7.259043
_cell_angle_alpha 90.000000
_cell_angle_beta 90.000000
_cell_angle_gamma 90.000000
_cell_volume 1941.553116
_symmetry_space_group_name_H-M "P M M N"
_symmetry_group_IT_number 59
_space_group.IT_coordinate_system_code '2'
_symmetry_cell_setting 'orthorhombic'
loop_
_space_group_symop_operation_xyz
x,y,z
1/2-x,1/2-y,z
1/2+x,-y,-z
-x,1/2+y,-z
-x,-y,-z
1/2+x,1/2+y,-z
1/2-x,y,z
x,1/2-y,z
loop_
_atom_site_type_symbol
_atom_site_label
_atom_site_fract_x
_atom_site_fract_y
_atom_site_fract_z
Si Si1 0.412785 0.889722 0.296614
Si Si2 0.651296 0.750000 0.353642
Si Si3 0.100121 0.077148 0.552230
Si Si4 0.849059 0.535301 0.863388
Si Si5 0.004614 0.130970 0.049118
Si Si6 0.652321 0.413604 0.322064
Si Si7 0.648251 0.750000 0.912191
O O1 0.496637 0.930641 0.394638
O O2 0.357171 0.871497 0.478714
O O3 0.356514 0.946697 0.170941
O O4 0.459434 0.839418 0.138999
O O5 0.750000 0.750000 0.431585
O O6 0.616449 0.833886 0.404773
O O7 0.654700 0.750000 0.132942
O O8 0.130292 0.065029 0.342191
O O9 0.146555 0.004411 0.647646
O O10 0.750000 0.558399 0.924080
O O11 0.930507 0.560251 0.992517
O O12 0.928669 0.113184 0.195287
O O13 0.081830 0.182807 0.132489
O O14 0.750000 0.396954 0.244922
O O15 0.750000 0.750000 0.843762
#
# Coordination Sequence:
#
# PCOD9453001 Si02
#       7
#     8   4   8   8   8   8   4
#     4  11  21  41  65  95 139 175 227 293 350 409
#     4  11  22  37  63 101 138 184 233 270 342 426
#     4  11  20  41  65  96 142 187 227 290 353 414
#     4  11  22  39  65 101 139 176 228 291 351 418
#     4  12  24  44  69  98 138 187 230 285 360 419
#     4  11  24  44  72 103 136 180 240 301 353 413
#     4  11  26  45  66 101 148 184 222 282 349 432
#
# _framework density 24.722477000000001
#
# number of rings (size 3 to 8) (size 9 to 14) (size 15 to 20)
#    0.000    0.833    5.000    5.000    0.000    2.000 
#    0.000    2.917    0.000    1.000    0.000    1.750 
#    0.000    0.000    0.000    0.000    0.000    0.000 
#
# Total GULP energy -267622.943592 kJ/mol
# GULP energy per Si atom -5575.477991 kJ/mol
# Density = 2.466621 g / cm^3
# Si number density = 24.722477 Si / 1000 Ang^3
#
#
#
# Elastic Constant Matrix: (Units=GPa)
#
#
# Indices 1 2 3 4 5 6 
#
# 1 204.5000 51.9388 41.7042 0.0000 0.0000 0.0000
# 2 51.9388 86.8689 34.5620 0.0000 0.0000 0.0000
# 3 41.7042 34.5620 111.5969 0.0000 0.0000 0.0000
# 4 0.0000 0.0000 0.0000 -0.5762 0.0000 0.0000
# 5 0.0000 0.0000 0.0000 0.0000 26.5574 0.0000
# 6 0.0000 0.0000 0.0000 0.0000 0.0000 24.9639
#
#
#
# Elastic Compliance Matrix: (Units=1/GPa)
#
#
# Indices 1 2 3 4 5 6 
#
# 1 0.005920 -0.003033 -0.001273 0.000000 0.000000 0.000000
# 2 -0.003033 0.014683 -0.003414 0.000000 0.000000 0.000000
# 3 -0.001273 -0.003414 0.010494 0.000000 0.000000 0.000000
# 4 0.000000 0.000000 0.000000 -1.735500 0.000000 0.000000
# 5 0.000000 0.000000 0.000000 0.000000 0.037654 0.000000
# 6 0.000000 0.000000 0.000000 0.000000 0.000000 0.040058
#
#
# Mechanical properties :
#
#
# Convention : Reuss Voigt Hill
#
# Bulk Modulus (GPa) = 63.86882 73.26398 68.56640
# Shear Modulus (GPa) = -3.11326 28.50640 12.69657
#
# Velocity S-wave (km/s) = -1.12340 3.39935 2.26865
# Velocity P-wave (km/s) = 4.92013 6.71613 5.88702
#
# Compressibility (1/GPa) = 0.01565709
#
# Stress axis : x y z
#
# Youngs Moduli (GPa) = 168.92167 68.10424 95.29381
#
# Poissons Ratio (x) = 0.20656 0.12130
# Poissons Ratio (y) = 0.51235 0.32534
# Poissons Ratio (z) = 0.21503 0.23251
#
# Static dielectric constant tensor:
#      x y z
#    x 1.954280 0.000000 0.000000 
#    y 0.000000 1.013300 0.000000 
#    z 0.000000 0.000000 2.004370 
# 
# From -- ./inp_files/9074.got.cif
#   From: 2010.05.17/outbox.cif.g08.bks.cpg/sg59_5_cif.got.tgz:9074.got - 2010.06.03 14:40:33.
