data_PCOD9453092
_publ_section_title
;
Structure prediction by ZEFSAII (Michael W. Deem and Ramdas Pophale) SiO2 
 PCOD9453092
Probable space group: P M M N
;
_chemical_formula_sum "Si O2"
_cell_formula_units_Z 56
_cell_length_a 9.022205
_cell_length_b 14.225177
_cell_length_c 22.140587
_cell_angle_alpha 90.000000
_cell_angle_beta 90.000000
_cell_angle_gamma 90.000000
_cell_volume 2841.577469
_symmetry_space_group_name_H-M "P M M N"
_symmetry_group_IT_number 59
_space_group.IT_coordinate_system_code '2'
_symmetry_cell_setting 'orthorhombic'
loop_
_space_group_symop_operation_xyz
x,y,z
1/2-x,1/2-y,z
1/2+x,-y,-z
-x,1/2+y,-z
-x,-y,-z
1/2+x,1/2+y,-z
1/2-x,y,z
x,1/2-y,z
loop_
_atom_site_type_symbol
_atom_site_label
_atom_site_fract_x
_atom_site_fract_y
_atom_site_fract_z
Si Si1 0.928440 0.642502 0.963067
Si Si2 0.076615 0.482284 0.564072
Si Si3 0.427895 0.456739 0.912228
Si Si4 0.575644 0.361451 0.664179
Si Si5 0.080780 0.355706 0.228491
Si Si6 0.075449 0.046459 0.780644
Si Si7 0.084579 0.356431 0.374027
O O1 0.750000 0.639973 0.956596
O O2 0.976619 0.750000 0.950715
O O3 0.997150 0.558184 0.923751
O O4 0.965093 0.611634 0.032032
O O5 0.250000 0.465968 0.556872
O O6 0.000000 0.500000 0.500000
O O7 0.003415 0.400714 0.604372
O O8 0.041184 0.575861 0.602332
O O9 0.250000 0.470324 0.912615
O O10 0.466786 0.414573 0.846748
O O11 0.750000 0.383109 0.660457
O O12 0.555594 0.250000 0.669033
O O13 0.510500 0.410698 0.723947
O O14 0.250000 0.377910 0.208438
O O15 0.045142 0.250000 0.207424
O O16 0.084122 0.353900 0.301543
O O17 0.966388 0.436693 0.213327
O O18 0.250000 0.059039 0.770444
O O19 0.250000 0.389629 0.392729
O O20 0.065989 0.250000 0.396025
#
# Coordination Sequence:
#
# PCOD9453092 Si02
#       7
#     8   8   8   8   8   8   8
#     4   9  18  35  58  81 109 151 200 246 292 344
#     4  12  25  41  64  91 120 155 195 242 294 349
#     4   9  20  36  54  82 118 153 192 240 295 350
#     4  11  25  45  66  88 119 158 200 247 295 346
#     4   9  18  33  55  81 112 151 189 229 282 344
#     4  11  22  36  58  88 121 157 195 241 297 357
#     4   9  18  35  59  85 114 148 185 229 283 340
#
# _framework density 19.707362
#
# number of rings (size 3 to 8) (size 9 to 14) (size 15 to 20)
#    0.000    2.000    1.429    3.000    0.000    4.857 
#    0.000    5.714    0.000    0.000    0.000    0.000 
#    0.000    0.000    0.000    0.000    0.000    0.000 
#
# Total GULP energy -312612.859891 kJ/mol
# GULP energy per Si atom -5582.372498 kJ/mol
# Density = 1.966251 g / cm^3
# Si number density = 19.707362 Si / 1000 Ang^3
#
#
#
# Elastic Constant Matrix: (Units=GPa)
#
#
# Indices 1 2 3 4 5 6 
#
# 1 79.1289 32.6939 48.4150 0.0000 0.0000 0.0000
# 2 32.6939 74.0793 26.1237 0.0000 0.0000 0.0000
# 3 48.4150 26.1237 111.5292 0.0000 0.0000 0.0000
# 4 0.0000 0.0000 0.0000 1.3327 0.0000 0.0000
# 5 0.0000 0.0000 0.0000 0.0000 24.3692 0.0000
# 6 0.0000 0.0000 0.0000 0.0000 0.0000 8.8556
#
#
#
# Elastic Compliance Matrix: (Units=1/GPa)
#
#
# Indices 1 2 3 4 5 6 
#
# 1 0.019454 -0.006113 -0.007013 0.000000 0.000000 0.000000
# 2 -0.006113 0.016635 -0.001243 0.000000 0.000000 0.000000
# 3 -0.007013 -0.001243 0.012302 0.000000 0.000000 0.000000
# 4 0.000000 0.000000 0.000000 0.750360 0.000000 0.000000
# 5 0.000000 0.000000 0.000000 0.000000 0.041035 0.000000
# 6 0.000000 0.000000 0.000000 0.000000 0.000000 0.112924
#
#
# Mechanical properties :
#
#
# Convention : Reuss Voigt Hill
#
# Bulk Modulus (GPa) = 50.88189 53.24474 52.06331
# Shear Modulus (GPa) = 5.06073 17.41182 11.23627
#
# Velocity S-wave (km/s) = 1.60422 2.97563 2.39038
# Velocity P-wave (km/s) = 5.41351 6.23556 5.83902
#
# Compressibility (1/GPa) = 0.01965336
#
# Stress axis : x y z
#
# Youngs Moduli (GPa) = 51.40248 60.11387 81.28814
#
# Poissons Ratio (x) = 0.36746 0.57010
# Poissons Ratio (y) = 0.31421 0.10104
# Poissons Ratio (z) = 0.36050 0.07472
#
# Static dielectric constant tensor:
#      x y z
#    x 1.669810 0.000000 0.000000 
#    y 0.000000 1.688670 0.000000 
#    z 0.000000 0.000000 1.730540 
# 
# From -- ./inp_files/29075.got.cif
#   From: 2010.05.17/outbox.cif.g08.bks.cpg/sg59_15_cif.got.tgz:29075.got - 2010.06.03 14:40:33.
