data_PCOD9453680
_publ_section_title
;
Structure prediction by ZEFSAII (Michael W. Deem and Ramdas Pophale) SiO2 
 PCOD9453680
Probable space group: P M M N
;
_chemical_formula_sum "Si O2"
_cell_formula_units_Z 40
_cell_length_a 15.000000
_cell_length_b 9.000000
_cell_length_c 15.000000
_cell_angle_alpha 90.000000
_cell_angle_beta 90.000000
_cell_angle_gamma 90.000000
_cell_volume 2025.000000
_symmetry_space_group_name_H-M "P M M N"
_symmetry_group_IT_number 59
_space_group.IT_coordinate_system_code '2'
_symmetry_cell_setting 'orthorhombic'
loop_
_space_group_symop_operation_xyz
x,y,z
1/2-x,1/2-y,z
1/2+x,-y,-z
-x,1/2+y,-z
-x,-y,-z
1/2+x,1/2+y,-z
1/2-x,y,z
x,1/2-y,z
loop_
_atom_site_type_symbol
_atom_site_label
_atom_site_fract_x
_atom_site_fract_y
_atom_site_fract_z
Si Si1 0.420526 0.071118 0.223669
Si Si2 0.250000 0.070683 0.748956
Si Si3 0.074002 0.070378 0.434982
Si Si4 0.587295 0.929603 0.122466
Si Si5 0.250000 0.430142 0.543703
Si Si6 0.851550 0.079344 0.942739
O O1 0.412881 0.250000 0.220760
O O2 0.423514 0.027645 0.329194
O O3 0.506637 0.010430 0.171801
O O4 0.350947 0.995937 0.155269
O O5 0.250000 0.250000 0.741460
O O6 0.167260 0.029933 0.810621
O O7 0.250000 0.014267 0.646494
O O8 0.064539 0.250000 0.436162
O O9 0.164880 0.027843 0.485244
O O10 0.000000 0.000000 0.500000
O O11 0.580483 0.750000 0.120904
O O12 0.599998 0.988663 0.021709
O O13 0.250000 0.250000 0.548791
O O14 0.750000 0.084967 0.973756
O O15 0.885097 0.250000 0.936744
#
# Coordination Sequence:
#
# PCOD9453680 Si02
#       6
#     8   4   8   8   4   8
#     4  11  24  39  60  89 122 163 205 248 302 361
#     4   9  18  32  58  89 114 150 199 247 300 357
#     4  10  22  40  64  91 124 162 207 258 309 363
#     4  11  21  38  62  89 120 158 202 252 303 361
#     4   9  18  36  60  87 118 158 203 249 302 365
#     4  11  24  41  61  88 122 160 199 249 305 363
#
# _framework density 19.753086
#
# number of rings (size 3 to 8) (size 9 to 14) (size 15 to 20)
#    0.000    1.600    1.000    3.600    1.400    4.400 
#    0.000    0.500    0.000    3.600    0.000    0.000 
#    0.000    0.000    0.000    0.000    0.000    0.000 
#
# Total GULP energy -222883.377493 kJ/mol
# GULP energy per Si atom -5572.084437 kJ/mol
# Density = 1.970813 g / cm^3
# Si number density = 19.753086 Si / 1000 Ang^3
#
#
#
# Elastic Constant Matrix: (Units=GPa)
#
#
# Indices 1 2 3 4 5 6 
#
# 1 131.9328 14.7692 56.8642 0.0000 0.0000 0.0000
# 2 14.7692 65.8168 50.6707 0.0000 0.0000 0.0000
# 3 56.8642 50.6707 222.4798 0.0000 0.0000 0.0000
# 4 0.0000 0.0000 0.0000 36.7150 0.0000 0.0000
# 5 0.0000 0.0000 0.0000 0.0000 28.1137 0.0000
# 6 0.0000 0.0000 0.0000 0.0000 0.0000 -5.5895
#
#
#
# Elastic Compliance Matrix: (Units=1/GPa)
#
#
# Indices 1 2 3 4 5 6 
#
# 1 0.008522 -0.000285 -0.002113 0.000000 0.000000 0.000000
# 2 -0.000285 0.018434 -0.004125 0.000000 0.000000 0.000000
# 3 -0.002113 -0.004125 0.005975 0.000000 0.000000 0.000000
# 4 0.000000 0.000000 0.000000 0.027237 0.000000 0.000000
# 5 0.000000 0.000000 0.000000 0.000000 0.035570 0.000000
# 6 0.000000 0.000000 0.000000 0.000000 0.000000 -0.178906
#
#
# Mechanical properties :
#
#
# Convention : Reuss Voigt Hill
#
# Bulk Modulus (GPa) = 50.29562 73.87083 62.08323
# Shear Modulus (GPa) = -78.74923 31.70950 -23.51986
#
# Velocity S-wave (km/s) = -6.32087 4.01096 -3.45439
# Velocity P-wave (km/s) = 5.26818 7.67650 3.94810
#
# Compressibility (1/GPa) = 0.01988245
#
# Stress axis : x y z
#
# Youngs Moduli (GPa) = 117.33778 54.24813 167.37800
#
# Poissons Ratio (x) = 0.01549 0.35371
# Poissons Ratio (y) = 0.03350 0.69050
# Poissons Ratio (z) = 0.24796 0.22380
#
# Static dielectric constant tensor:
#      x y z
#    x 2.053030 0.000000 0.000000 
#    y 0.000000 1.677460 0.000000 
#    z 0.000000 0.000000 1.649320 
# 
# From -- ./inp_files/22997.got.cif
#   From: 2010.05.17/outbox.ucp.g08.bks.cvg/sg59_12_cif.got.tgz:22997.got - 2010.06.11 16:43:56.
