data_PCOD9453738
_publ_section_title
;
Structure prediction by ZEFSAII (Michael W. Deem and Ramdas Pophale) SiO2 
 PCOD9453738
Probable space group: P B C N
;
_chemical_formula_sum "Si O2"
_cell_formula_units_Z 56
_cell_length_a 11.676261
_cell_length_b 18.417258
_cell_length_c 12.618451
_cell_angle_alpha 90.000000
_cell_angle_beta 90.000000
_cell_angle_gamma 90.000000
_cell_volume 2713.531153
_symmetry_space_group_name_H-M "P B C N"
_symmetry_group_IT_number 60
_symmetry_cell_setting 'orthorhombic'
loop_
_space_group_symop_operation_xyz
x,y,z
1/2-x,1/2-y,1/2+z
1/2+x,1/2-y,-z
-x,y,1/2-z
-x,-y,-z
1/2+x,1/2+y,1/2-z
1/2-x,1/2+y,z
x,-y,1/2+z
loop_
_atom_site_type_symbol
_atom_site_label
_atom_site_fract_x
_atom_site_fract_y
_atom_site_fract_z
Si Si1 0.282996 0.655149 0.976485
Si Si2 0.250162 0.642773 0.601500
Si Si3 0.896148 0.710200 0.093607
Si Si4 0.713147 0.997607 0.499078
Si Si5 0.399293 0.149872 0.808714
Si Si6 0.147692 0.289844 0.661048
Si Si7 0.982726 0.510426 0.135107
O O1 0.282134 0.568315 0.965681
O O2 0.249728 0.671703 0.097447
O O3 0.386741 0.703798 0.935737
O O4 0.175739 0.682079 0.902856
O O5 0.167728 0.674683 0.507775
O O6 0.285181 0.563822 0.559254
O O7 0.184512 0.630083 0.712309
O O8 0.339987 0.704884 0.630047
O O9 0.844779 0.701660 0.212429
O O10 0.026569 0.685395 0.111706
O O11 0.600544 0.020170 0.428602
O O12 0.638933 0.961933 0.593356
O O13 0.500000 0.194231 0.750000
O O14 0.458519 0.076703 0.854471
O O15 0.000000 0.541227 0.250000
#
# Coordination Sequence:
#
# PCOD9453738 Si02
#       7
#     8   8   8   8   8   8   8
#     4  10  21  37  56  83 114 145 185 233 284 330
#     4  11  20  36  57  82 111 146 188 227 278 342
#     4  10  22  39  56  81 112 151 189 227 276 337
#     4  10  20  31  51  85 108 142 178 230 278 335
#     4  10  16  30  53  80 113 143 176 213 275 333
#     4  10  22  39  57  78 112 151 189 228 275 335
#     4   9  17  28  46  78 116 137 168 209 286 328
#
# _framework density 20.637315999999998
#
# number of rings (size 3 to 8) (size 9 to 14) (size 15 to 20)
#    0.000    2.000    4.286    0.857    4.000    1.143 
#    0.000    0.714    0.000    0.000    0.000    0.000 
#    0.000    0.000    0.000    0.000    0.000    0.000 
#
# Total GULP energy -311861.022682 kJ/mol
# GULP energy per Si atom -5568.946834 kJ/mol
# Density = 2.059034 g / cm^3
# Si number density = 20.637316 Si / 1000 Ang^3
#
#
#
# Elastic Constant Matrix: (Units=GPa)
#
#
# Indices 1 2 3 4 5 6 
#
# 1 15.9518 2.9780 6.1916 0.0000 0.0000 0.0000
# 2 2.9780 68.7874 8.1902 0.0000 0.0000 0.0000
# 3 6.1916 8.1902 124.5299 0.0000 0.0000 0.0000
# 4 0.0000 0.0000 0.0000 27.2864 0.0000 0.0000
# 5 0.0000 0.0000 0.0000 0.0000 23.8099 0.0000
# 6 0.0000 0.0000 0.0000 0.0000 0.0000 12.3990
#
#
#
# Elastic Compliance Matrix: (Units=1/GPa)
#
#
# Indices 1 2 3 4 5 6 
#
# 1 0.064321 -0.002423 -0.003039 0.000000 0.000000 0.000000
# 2 -0.002423 0.014744 -0.000849 0.000000 0.000000 0.000000
# 3 -0.003039 -0.000849 0.008237 0.000000 0.000000 0.000000
# 4 0.000000 0.000000 0.000000 0.036648 0.000000 0.000000
# 5 0.000000 0.000000 0.000000 0.000000 0.041999 0.000000
# 6 0.000000 0.000000 0.000000 0.000000 0.000000 0.080652
#
#
# Mechanical properties :
#
#
# Convention : Reuss Voigt Hill
#
# Bulk Modulus (GPa) = 13.39046 27.10986 20.25016
# Shear Modulus (GPa) = 17.59848 25.49300 21.54574
#
# Velocity S-wave (km/s) = 2.92336 3.51848 3.23463
# Velocity P-wave (km/s) = 4.23051 5.44712 4.87690
#
# Compressibility (1/GPa) = 0.07468002
#
# Stress axis : x y z
#
# Youngs Moduli (GPa) = 15.54708 67.82627 121.40148
#
# Poissons Ratio (x) = 0.16433 0.36890
# Poissons Ratio (y) = 0.03767 0.10309
# Poissons Ratio (z) = 0.04724 0.05760
#
# Static dielectric constant tensor:
#      x y z
#    x 1.746300 0.000000 0.000000 
#    y 0.000000 1.806370 0.000000 
#    z 0.000000 0.000000 1.806780 
# 
# From -- ./inp_files/11210.got.cif
#   From: 2010.05.17/outbox.cif.g08.bks.cpg/sg60_6_cif.got.tgz:11210.got - 2010.06.03 14:59:27.
