data_PCOD9453972
_publ_section_title
;
Structure prediction by ZEFSAII (Michael W. Deem and Ramdas Pophale) SiO2 
 PCOD9453972
Probable space group: P B C N
;
_chemical_formula_sum "Si O2"
_cell_formula_units_Z 40
_cell_length_a 18.442925
_cell_length_b 9.455405
_cell_length_c 9.634332
_cell_angle_alpha 90.000000
_cell_angle_beta 90.000000
_cell_angle_gamma 90.000000
_cell_volume 1680.086119
_symmetry_space_group_name_H-M "P B C N"
_symmetry_group_IT_number 60
_symmetry_cell_setting 'orthorhombic'
loop_
_space_group_symop_operation_xyz
x,y,z
1/2-x,1/2-y,1/2+z
1/2+x,1/2-y,-z
-x,y,1/2-z
-x,-y,-z
1/2+x,1/2+y,1/2-z
1/2-x,1/2+y,z
x,-y,1/2+z
loop_
_atom_site_type_symbol
_atom_site_label
_atom_site_fract_x
_atom_site_fract_y
_atom_site_fract_z
Si Si1 0.161467 0.141738 0.099574
Si Si2 0.800571 0.529838 0.881402
Si Si3 0.974748 0.797583 0.098348
Si Si4 0.567362 0.689911 0.160425
Si Si5 0.394986 0.004273 0.367685
O O1 0.195068 0.300513 0.102564
O O2 0.133771 0.120833 0.258394
O O3 0.223640 0.029488 0.072584
O O4 0.095706 0.141832 0.986409
O O5 0.825426 0.471164 0.731503
O O6 0.863515 0.473687 0.981428
O O7 0.950345 0.633457 0.118842
O O8 0.000000 0.845246 0.250000
O O9 0.043257 0.823785 0.997657
O O10 0.500000 0.640604 0.250000
O O11 0.573455 0.858173 0.187258
#
# Coordination Sequence:
#
# PCOD9453972 Si02
#       5
#     8   8   8   8   8
#     4   9  21  38  57  85 118 155 191 235 293 350
#     4  10  21  36  54  86 121 152 191 231 291 353
#     4  10  18  31  56  90 117 144 192 253 298 332
#     4   9  17  31  52  81 113 145 185 238 289 335
#     4  10  19  32  56  86 117 148 187 241 295 338
#
# _framework density 23.808302000000001
#
# number of rings (size 3 to 8) (size 9 to 14) (size 15 to 20)
#    0.000    2.400    0.000    3.600    0.000    6.400 
#    0.000    2.000    0.000    0.000    0.000  144.200 
#    0.000    0.000    0.000    0.000    0.000    0.000 
#
# Total GULP energy -223316.163395 kJ/mol
# GULP energy per Si atom -5582.904085 kJ/mol
# Density = 2.375411 g / cm^3
# Si number density = 23.808302 Si / 1000 Ang^3
#
#
#
# Elastic Constant Matrix: (Units=GPa)
#
#
# Indices 1 2 3 4 5 6 
#
# 1 94.9896 57.4756 43.2622 0.0000 0.0000 0.0000
# 2 57.4756 94.1388 24.9941 0.0000 0.0000 0.0000
# 3 43.2622 24.9941 146.2035 0.0000 0.0000 0.0000
# 4 0.0000 0.0000 0.0000 -27.1579 0.0000 0.0000
# 5 0.0000 0.0000 0.0000 0.0000 38.1049 0.0000
# 6 0.0000 0.0000 0.0000 0.0000 0.0000 -17.5014
#
#
#
# Elastic Compliance Matrix: (Units=1/GPa)
#
#
# Indices 1 2 3 4 5 6 
#
# 1 0.018423 -0.010267 -0.003696 0.000000 0.000000 0.000000
# 2 -0.010267 0.016849 0.000158 0.000000 0.000000 0.000000
# 3 -0.003696 0.000158 0.007907 0.000000 0.000000 0.000000
# 4 0.000000 0.000000 0.000000 -0.036822 0.000000 0.000000
# 5 0.000000 0.000000 0.000000 0.000000 0.026243 0.000000
# 6 0.000000 0.000000 0.000000 0.000000 0.000000 -0.057138
#
#
# Mechanical properties :
#
#
# Convention : Reuss Voigt Hill
#
# Bulk Modulus (GPa) = 64.23525 65.19951 64.71738
# Shear Modulus (GPa) = 605.20500 12.66246 308.93373
#
# Velocity S-wave (km/s) = 15.96092 2.30869 11.40353
# Velocity P-wave (km/s) = 19.14959 5.87804 14.16436
#
# Compressibility (1/GPa) = 0.01556778
#
# Stress axis : x y z
#
# Youngs Moduli (GPa) = 54.28019 59.35088 126.47653
#
# Poissons Ratio (x) = 0.60933 0.46750
# Poissons Ratio (y) = 0.55727 -0.01992
# Poissons Ratio (z) = 0.20064 -0.00935
#
# Static dielectric constant tensor:
#      x y z
#    x 1.920200 0.000000 0.000000 
#    y 0.000000 1.934750 0.000000 
#    z 0.000000 0.000000 1.970040 
# 
# From -- ./inp_files/6499.got.cif
#   From: 2010.05.17/outbox.cif.g08.bks.cpg/sg60_4_cif.got.tgz:6499.got - 2010.06.03 14:59:27.
