data_PCOD9453565
_publ_section_title
;
Structure prediction by ZEFSAII (Michael W. Deem and Ramdas Pophale) SiO2 
 PCOD9453565
Probable space group: P M M N
;
_chemical_formula_sum "Si O2"
_cell_formula_units_Z 64
_cell_length_a 9.000000
_cell_length_b 24.000000
_cell_length_c 15.000000
_cell_angle_alpha 90.000000
_cell_angle_beta 90.000000
_cell_angle_gamma 90.000000
_cell_volume 3240.000000
_symmetry_space_group_name_H-M "P M M N"
_symmetry_group_IT_number 59
_space_group.IT_coordinate_system_code '2'
_symmetry_cell_setting 'orthorhombic'
loop_
_space_group_symop_operation_xyz
x,y,z
1/2-x,1/2-y,z
1/2+x,-y,-z
-x,1/2+y,-z
-x,-y,-z
1/2+x,1/2+y,-z
1/2-x,y,z
x,1/2-y,z
loop_
_atom_site_type_symbol
_atom_site_label
_atom_site_fract_x
_atom_site_fract_y
_atom_site_fract_z
Si Si1 0.074766 0.814852 0.488091
Si Si2 0.074908 0.878099 0.161163
Si Si3 0.073746 0.113539 0.660739
Si Si4 0.427746 0.506978 0.595983
Si Si5 0.572032 0.992806 0.097336
Si Si6 0.426175 0.872290 0.672091
Si Si7 0.924554 0.686163 0.008693
Si Si8 0.424504 0.395986 0.156027
O O1 0.250000 0.826220 0.469882
O O2 0.045507 0.750000 0.470731
O O3 0.050425 0.829972 0.591292
O O4 0.974893 0.854924 0.428353
O O5 0.250000 0.887639 0.158786
O O6 0.018434 0.861327 0.258312
O O7 0.989810 0.935299 0.136420
O O8 0.025756 0.831914 0.090555
O O9 0.250000 0.118117 0.675495
O O10 0.034736 0.048014 0.652148
O O11 0.500000 0.500000 0.500000
O O12 0.250000 0.507686 0.585730
O O13 0.469978 0.565887 0.638064
O O14 0.750000 0.990809 0.092635
O O15 0.518685 0.047177 0.151009
O O16 0.500000 0.000000 0.000000
O O17 0.250000 0.872939 0.693442
O O18 0.522567 0.861520 0.758730
O O19 0.750000 0.681301 0.033878
O O20 0.950848 0.750000 0.981149
O O21 0.951267 0.641798 0.930537
O O22 0.250000 0.409622 0.159910
#
# Coordination Sequence:
#
# PCOD9453565 Si02
#       8
#     8   8   8   8   8   8   8   8
#     4  10  22  41  63  87 119 163 213 260 306 361
#     4  12  25  41  65  95 125 163 206 255 310 371
#     4  11  23  39  62  92 124 161 201 251 311 372
#     4  10  20  35  59  88 118 155 195 240 299 360
#     4  12  23  39  64  94 129 165 202 249 307 372
#     4  10  21  38  60  88 124 162 200 252 310 366
#     4  10  23  44  66  88 121 164 209 261 313 362
#     4  11  23  39  63  94 126 164 207 253 307 370
#
# _framework density 19.753086
#
# number of rings (size 3 to 8) (size 9 to 14) (size 15 to 20)
#    0.000    1.250    2.500    3.750    0.000    4.500 
#    0.000    0.000    0.000    0.000    0.000    0.000 
#    0.000    0.000    0.000    0.000    0.000    0.000 
#
# Total GULP energy -357772.882885 kJ/mol
# GULP energy per Si atom -5590.201295 kJ/mol
# Density = 1.970813 g / cm^3
# Si number density = 19.753086 Si / 1000 Ang^3
#
#
#
# Elastic Constant Matrix: (Units=GPa)
#
#
# Indices 1 2 3 4 5 6 
#
# 1 53.4491 16.6750 20.2539 0.0000 0.0000 0.0000
# 2 16.6750 51.9750 -16.5979 0.0000 0.0000 0.0000
# 3 20.2539 -16.5979 60.9292 0.0000 0.0000 0.0000
# 4 0.0000 0.0000 0.0000 4.6442 0.0000 0.0000
# 5 0.0000 0.0000 0.0000 0.0000 34.3133 0.0000
# 6 0.0000 0.0000 0.0000 0.0000 0.0000 23.7004
#
#
#
# Elastic Compliance Matrix: (Units=1/GPa)
#
#
# Indices 1 2 3 4 5 6 
#
# 1 0.027520 -0.012870 -0.012654 0.000000 0.000000 0.000000
# 2 -0.012870 0.027092 0.011658 0.000000 0.000000 0.000000
# 3 -0.012654 0.011658 0.023795 0.000000 0.000000 0.000000
# 4 0.000000 0.000000 0.000000 0.215321 0.000000 0.000000
# 5 0.000000 0.000000 0.000000 0.000000 0.029143 0.000000
# 6 0.000000 0.000000 0.000000 0.000000 0.000000 0.042193
#
#
# Mechanical properties :
#
#
# Convention : Reuss Voigt Hill
#
# Bulk Modulus (GPa) = 19.73339 23.00170 21.36755
# Shear Modulus (GPa) = 12.20445 22.26641 17.23543
#
# Velocity S-wave (km/s) = 2.48836 3.36108 2.95709
# Velocity P-wave (km/s) = 4.27406 5.17033 4.74341
#
# Compressibility (1/GPa) = 0.05067554
#
# Stress axis : x y z
#
# Youngs Moduli (GPa) = 36.33766 36.91106 42.02600
#
# Poissons Ratio (x) = 0.47505 0.53180
# Poissons Ratio (y) = 0.46767 -0.48996
# Poissons Ratio (z) = 0.45982 -0.43033
#
# Static dielectric constant tensor:
#      x y z
#    x 1.655340 0.000000 0.000000 
#    y 0.000000 1.691120 0.000000 
#    z 0.000000 0.000000 1.740920 
# 
# From -- ./inp_files/21519.got.cif
#   From: 2010.05.17/outbox.ucp.g08.bks.cvg/sg59_11_cif.got.tgz:21519.got - 2010.06.11 16:43:56.
