data_PCOD9453045
_publ_section_title
;
Structure prediction by ZEFSAII (Michael W. Deem and Ramdas Pophale) SiO2 
 PCOD9453045
Probable space group: P M M N
;
_chemical_formula_sum "Si O2"
_cell_formula_units_Z 64
_cell_length_a 18.217784
_cell_length_b 7.958507
_cell_length_c 22.076222
_cell_angle_alpha 90.000000
_cell_angle_beta 90.000000
_cell_angle_gamma 90.000000
_cell_volume 3200.751103
_symmetry_space_group_name_H-M "P M M N"
_symmetry_group_IT_number 59
_space_group.IT_coordinate_system_code '2'
_symmetry_cell_setting 'orthorhombic'
loop_
_space_group_symop_operation_xyz
x,y,z
1/2-x,1/2-y,z
1/2+x,-y,-z
-x,1/2+y,-z
-x,-y,-z
1/2+x,1/2+y,-z
1/2-x,y,z
x,1/2-y,z
loop_
_atom_site_type_symbol
_atom_site_label
_atom_site_fract_x
_atom_site_fract_y
_atom_site_fract_z
Si Si1 0.020079 0.047634 0.567715
Si Si2 0.551623 0.454575 0.689896
Si Si3 0.167570 0.443481 0.007250
Si Si4 0.440209 0.945082 0.106380
Si Si5 0.894733 0.060443 0.112397
Si Si6 0.830280 0.955162 0.372805
Si Si7 0.100780 0.452445 0.752361
Si Si8 0.333630 0.955568 0.214926
O O1 0.020618 0.250000 0.571025
O O2 0.101416 0.988016 0.586707
O O3 0.965477 0.988603 0.621478
O O4 0.000000 0.000000 0.500000
O O5 0.552296 0.250000 0.688997
O O6 0.481573 0.502307 0.731462
O O7 0.625570 0.508674 0.723329
O O8 0.250000 0.508970 0.017992
O O9 0.165095 0.250000 0.027459
O O10 0.147653 0.450135 0.936549
O O11 0.105621 0.539783 0.044743
O O12 0.457710 0.750000 0.119300
O O13 0.385819 0.007047 0.159332
O O14 0.517726 0.037183 0.103971
O O15 0.873582 0.250000 0.098603
O O16 0.879140 0.020794 0.182291
O O17 0.750000 0.013081 0.391947
O O18 0.830685 0.750000 0.374131
O O19 0.847344 0.002900 0.303355
O O20 0.101416 0.250000 0.755993
O O21 0.250000 0.014093 0.209420
O O22 0.331946 0.750000 0.213809
#
# Coordination Sequence:
#
# PCOD9453045 Si02
#       8
#     8   8   8   8   8   8   8   8
#     4   9  17  30  51  75 104 141 180 218 257 308
#     4   8  14  28  48  71 101 134 169 212 259 314
#     4  11  25  43  59  77 106 143 181 224 275 326
#     4  11  21  37  60  82 107 138 180 228 272 323
#     4  12  24  37  56  82 111 143 180 220 268 328
#     4   8  15  29  52  79 104 136 180 224 264 315
#     4   9  16  31  54  77 101 132 173 220 270 318
#     4   9  16  27  50  81 105 130 169 218 268 316
#
# _framework density 19.995305999999999
#
# number of rings (size 3 to 8) (size 9 to 14) (size 15 to 20)
#    0.000    2.375    1.250    4.125    0.000    2.000 
#    0.000    4.375    0.000    1.875    0.000    0.000 
#    0.000    0.000    0.000    0.000    0.000    0.000 
#
# Total GULP energy -357218.014439 kJ/mol
# GULP energy per Si atom -5581.531476 kJ/mol
# Density = 1.994980 g / cm^3
# Si number density = 19.995306 Si / 1000 Ang^3
#
#
#
# Elastic Constant Matrix: (Units=GPa)
#
#
# Indices 1 2 3 4 5 6 
#
# 1 55.2812 -1.6474 14.8641 0.0000 0.0000 0.0000
# 2 -1.6474 24.0027 -4.5329 0.0000 0.0000 0.0000
# 3 14.8641 -4.5329 106.4154 0.0000 0.0000 0.0000
# 4 0.0000 0.0000 0.0000 21.1882 0.0000 0.0000
# 5 0.0000 0.0000 0.0000 0.0000 16.1312 0.0000
# 6 0.0000 0.0000 0.0000 0.0000 0.0000 8.0472
#
#
#
# Elastic Compliance Matrix: (Units=1/GPa)
#
#
# Indices 1 2 3 4 5 6 
#
# 1 0.018810 0.000801 -0.002593 0.000000 0.000000 0.000000
# 2 0.000801 0.042034 0.001679 0.000000 0.000000 0.000000
# 3 -0.002593 0.001679 0.009831 0.000000 0.000000 0.000000
# 4 0.000000 0.000000 0.000000 0.047196 0.000000 0.000000
# 5 0.000000 0.000000 0.000000 0.000000 0.061992 0.000000
# 6 0.000000 0.000000 0.000000 0.000000 0.000000 0.124267
#
#
# Mechanical properties :
#
#
# Convention : Reuss Voigt Hill
#
# Bulk Modulus (GPa) = 14.19475 22.56297 18.37886
# Shear Modulus (GPa) = 15.25135 20.87436 18.06285
#
# Velocity S-wave (km/s) = 2.76478 3.23455 3.00885
# Velocity P-wave (km/s) = 4.16011 5.02577 4.61329
#
# Compressibility (1/GPa) = 0.07044857
#
# Stress axis : x y z
#
# Youngs Moduli (GPa) = 53.16181 23.79023 101.72041
#
# Poissons Ratio (x) = -0.01906 0.26379
# Poissons Ratio (y) = -0.04260 -0.17074
# Poissons Ratio (z) = 0.13786 -0.03993
#
# Static dielectric constant tensor:
#      x y z
#    x 1.696630 0.000000 0.000000 
#    y 0.000000 1.711280 0.000000 
#    z 0.000000 0.000000 1.698210 
# 
# From -- ./inp_files/30719.got.cif
#   From: 2010.05.17/outbox.cif.g08.bks.cpg/sg59_16_cif.got.tgz:30719.got - 2010.06.03 14:40:33.
