data_PCOD9453676
_publ_section_title
;
Structure prediction by ZEFSAII (Michael W. Deem and Ramdas Pophale) SiO2 
 PCOD9453676
Probable space group: P M M N
;
_chemical_formula_sum "Si O2"
_cell_formula_units_Z 56
_cell_length_a 21.000000
_cell_length_b 9.000000
_cell_length_c 15.000000
_cell_angle_alpha 90.000000
_cell_angle_beta 90.000000
_cell_angle_gamma 90.000000
_cell_volume 2835.000000
_symmetry_space_group_name_H-M "P M M N"
_symmetry_group_IT_number 59
_space_group.IT_coordinate_system_code '2'
_symmetry_cell_setting 'orthorhombic'
loop_
_space_group_symop_operation_xyz
x,y,z
1/2-x,1/2-y,z
1/2+x,-y,-z
-x,1/2+y,-z
-x,-y,-z
1/2+x,1/2+y,-z
1/2-x,y,z
x,1/2-y,z
loop_
_atom_site_type_symbol
_atom_site_label
_atom_site_fract_x
_atom_site_fract_y
_atom_site_fract_z
Si Si1 0.322029 0.922403 0.935698
Si Si2 0.556124 0.074397 0.442354
Si Si3 0.008826 0.424140 0.721044
Si Si4 0.823358 0.412010 0.850646
Si Si5 0.957681 0.572808 0.078590
Si Si6 0.881523 0.580695 0.704795
Si Si7 0.819362 0.076889 0.553691
O O1 0.250000 0.972457 0.909165
O O2 0.329178 0.750000 0.906624
O O3 0.384863 0.015408 0.913252
O O4 0.323119 0.920926 0.043434
O O5 0.545339 0.250000 0.442295
O O6 0.623380 0.042393 0.487876
O O7 0.500000 0.000000 0.500000
O O8 0.556086 0.013211 0.342189
O O9 0.019228 0.250000 0.710504
O O10 0.940029 0.472529 0.686030
O O11 0.012038 0.461665 0.825129
O O12 0.750000 0.413550 0.821546
O O13 0.851455 0.250000 0.825110
O O14 0.859317 0.545381 0.804412
O O15 0.958114 0.750000 0.065171
O O16 0.000000 0.500000 0.000000
O O17 0.899854 0.750000 0.692055
O O18 0.826785 0.529020 0.638316
O O19 0.750000 0.059108 0.512176
O O20 0.825315 0.250000 0.582053
#
# Coordination Sequence:
#
# PCOD9453676 Si02
#       7
#     8   8   8   8   8   8   8
#     4   9  19  37  60  84 113 155 203 251 308 371
#     4  11  22  39  65  92 119 155 200 247 294 351
#     4  11  24  41  60  84 117 159 203 246 302 367
#     4   9  18  33  52  75 109 153 194 234 292 364
#     4  11  24  40  61  90 124 162 206 260 315 367
#     4  12  23  33  52  84 117 150 193 245 301 358
#     4  10  22  40  61  85 118 159 196 237 296 361
#
# _framework density 19.753086
#
# number of rings (size 3 to 8) (size 9 to 14) (size 15 to 20)
#    0.000    1.571    1.429    4.714    0.000    9.429 
#    0.000    2.143    0.000    2.571    0.000    0.000 
#    0.000    0.000    0.000    0.000    0.000    0.000 
#
# Total GULP energy -312461.616631 kJ/mol
# GULP energy per Si atom -5579.671726 kJ/mol
# Density = 1.970813 g / cm^3
# Si number density = 19.753086 Si / 1000 Ang^3
#
#
#
# Elastic Constant Matrix: (Units=GPa)
#
#
# Indices 1 2 3 4 5 6 
#
# 1 111.5631 42.4823 36.9920 0.0000 0.0000 0.0000
# 2 42.4823 39.8857 43.4129 0.0000 0.0000 0.0000
# 3 36.9920 43.4129 66.0309 0.0000 0.0000 0.0000
# 4 0.0000 0.0000 0.0000 27.4707 0.0000 0.0000
# 5 0.0000 0.0000 0.0000 0.0000 26.8956 0.0000
# 6 0.0000 0.0000 0.0000 0.0000 0.0000 25.7728
#
#
#
# Elastic Compliance Matrix: (Units=1/GPa)
#
#
# Indices 1 2 3 4 5 6 
#
# 1 0.016191 -0.025923 0.007973 0.000000 0.000000 0.000000
# 2 -0.025923 0.129663 -0.070726 0.000000 0.000000 0.000000
# 3 0.007973 -0.070726 0.057177 0.000000 0.000000 0.000000
# 4 0.000000 0.000000 0.000000 0.036402 0.000000 0.000000
# 5 0.000000 0.000000 0.000000 0.000000 0.037181 0.000000
# 6 0.000000 0.000000 0.000000 0.000000 0.000000 0.038801
#
#
# Mechanical properties :
#
#
# Convention : Reuss Voigt Hill
#
# Bulk Modulus (GPa) = 38.94197 51.47266 45.20732
# Shear Modulus (GPa) = 9.97352 22.33398 16.15375
#
# Velocity S-wave (km/s) = 2.24946 3.36617 2.86279
# Velocity P-wave (km/s) = 5.14820 6.42050 5.81922
#
# Compressibility (1/GPa) = 0.02567923
#
# Stress axis : x y z
#
# Youngs Moduli (GPa) = 61.76163 7.71231 17.48946
#
# Poissons Ratio (x) = 0.19993 -0.13944
# Poissons Ratio (y) = 1.60107 1.23695
# Poissons Ratio (z) = -0.49242 0.54546
#
# Static dielectric constant tensor:
#      x y z
#    x 1.748050 0.000000 0.000000 
#    y 0.000000 1.685500 0.000000 
#    z 0.000000 0.000000 1.704660 
# 
# From -- ./inp_files/24296.got.cif
#   From: 2010.05.17/outbox.ucp.g08.bks.cvg/sg59_13_cif.got.tgz:24296.got - 2010.06.11 16:43:56.
