data_PCOD9453732
_publ_section_title
;
Structure prediction by ZEFSAII (Michael W. Deem and Ramdas Pophale) SiO2 
 PCOD9453732
Probable space group: P B C N
;
_chemical_formula_sum "Si O2"
_cell_formula_units_Z 48
_cell_length_a 7.959849
_cell_length_b 15.565374
_cell_length_c 13.866441
_cell_angle_alpha 90.000000
_cell_angle_beta 90.000000
_cell_angle_gamma 90.000000
_cell_volume 1718.024677
_symmetry_space_group_name_H-M "P B C N"
_symmetry_group_IT_number 60
_symmetry_cell_setting 'orthorhombic'
loop_
_space_group_symop_operation_xyz
x,y,z
1/2-x,1/2-y,1/2+z
1/2+x,1/2-y,-z
-x,y,1/2-z
-x,-y,-z
1/2+x,1/2+y,1/2-z
1/2-x,1/2+y,z
x,-y,1/2+z
loop_
_atom_site_type_symbol
_atom_site_label
_atom_site_fract_x
_atom_site_fract_y
_atom_site_fract_z
Si Si1 0.399739 0.297970 0.891716
Si Si2 0.833713 0.967437 0.550212
Si Si3 0.740293 0.828659 0.811738
Si Si4 0.438233 0.658484 0.639543
Si Si5 0.684499 0.880426 0.088641
Si Si6 0.263105 0.983968 0.236894
O O1 0.317280 0.366024 0.964272
O O2 0.283645 0.294769 0.796291
O O3 0.579176 0.335202 0.862226
O O4 0.421273 0.202804 0.930810
O O5 0.685567 0.033447 0.525861
O O6 0.848575 0.980198 0.669220
O O7 0.000000 0.000000 0.500000
O O8 0.641019 0.753523 0.865729
O O9 0.667854 0.925334 0.802844
O O10 0.500000 0.656978 0.750000
O O11 0.618008 0.649177 0.585411
O O12 0.314783 0.574604 0.651836
O O13 0.640294 0.915911 0.194918
#
# Coordination Sequence:
#
# PCOD9453732 Si02
#       6
#     8   8   8   8   8   8
#     4  10  18  29  50  75  99 126 162 206 243 293
#     4   9  18  32  51  68  91 134 180 196 237 291
#     4  10  17  28  48  74 101 126 153 194 247 304
#     4  10  16  30  47  72 102 127 154 192 249 301
#     4   9  18  31  51  72 101 125 162 208 244 290
#     4   8  17  28  48  69  98 128 162 194 232 295
#
# _framework density 27.939062
#
# number of rings (size 3 to 8) (size 9 to 14) (size 15 to 20)
#    1.000    1.667    3.333    1.000    7.000    0.000 
#    0.000    5.000    0.000    0.000    0.000    3.500 
#    0.000    0.000    0.000    0.000    0.000    0.000 
#
# Total GULP energy -267739.270163 kJ/mol
# GULP energy per Si atom -5577.901462 kJ/mol
# Density = 2.787547 g / cm^3
# Si number density = 27.939062 Si / 1000 Ang^3
#
#
#
# Elastic Constant Matrix: (Units=GPa)
#
#
# Indices 1 2 3 4 5 6 
#
# 1 58.8420 44.0486 32.5182 0.0000 0.0000 0.0000
# 2 44.0486 271.1138 25.1156 0.0000 0.0000 0.0000
# 3 32.5182 25.1156 48.9368 0.0000 0.0000 0.0000
# 4 0.0000 0.0000 0.0000 39.4949 0.0000 0.0000
# 5 0.0000 0.0000 0.0000 0.0000 9.8111 0.0000
# 6 0.0000 0.0000 0.0000 0.0000 0.0000 32.6844
#
#
#
# Elastic Compliance Matrix: (Units=1/GPa)
#
#
# Indices 1 2 3 4 5 6 
#
# 1 0.029125 -0.003086 -0.017770 0.000000 0.000000 0.000000
# 2 -0.003086 0.004200 -0.000105 0.000000 0.000000 0.000000
# 3 -0.017770 -0.000105 0.032296 0.000000 0.000000 0.000000
# 4 0.000000 0.000000 0.000000 0.025320 0.000000 0.000000
# 5 0.000000 0.000000 0.000000 0.000000 0.101925 0.000000
# 6 0.000000 0.000000 0.000000 0.000000 0.000000 0.030596
#
#
# Mechanical properties :
#
#
# Convention : Reuss Voigt Hill
#
# Bulk Modulus (GPa) = 42.19397 64.69528 53.44463
# Shear Modulus (GPa) = 18.29615 34.87876 26.58745
#
# Velocity S-wave (km/s) = 2.56180 3.53708 3.08819
# Velocity P-wave (km/s) = 4.88726 6.31565 5.64680
#
# Compressibility (1/GPa) = 0.02370007
#
# Stress axis : x y z
#
# Youngs Moduli (GPa) = 34.33503 238.12012 30.96356
#
# Poissons Ratio (x) = 0.73480 0.55021
# Poissons Ratio (y) = 0.10595 0.00324
# Poissons Ratio (z) = 0.61012 0.02495
#
# Static dielectric constant tensor:
#      x y z
#    x 2.220950 0.000000 0.000000 
#    y 0.000000 2.293020 0.000000 
#    z 0.000000 0.000000 2.406960 
# 
# From -- ./inp_files/19322.got.cif
#   From: 2010.05.17/outbox.cif.g08.bks.cpg/sg60_10_cif.got.tgz:19322.got - 2010.06.03 14:59:27.
