data_PCOD9453762
_publ_section_title
;
Structure prediction by ZEFSAII (Michael W. Deem and Ramdas Pophale) SiO2 
 PCOD9453762
Probable space group: P B C N
;
_chemical_formula_sum "Si O2"
_cell_formula_units_Z 56
_cell_length_a 11.772722
_cell_length_b 20.420175
_cell_length_c 10.864258
_cell_angle_alpha 90.000000
_cell_angle_beta 90.000000
_cell_angle_gamma 90.000000
_cell_volume 2611.778960
_symmetry_space_group_name_H-M "P B C N"
_symmetry_group_IT_number 60
_symmetry_cell_setting 'orthorhombic'
loop_
_space_group_symop_operation_xyz
x,y,z
1/2-x,1/2-y,1/2+z
1/2+x,1/2-y,-z
-x,y,1/2-z
-x,-y,-z
1/2+x,1/2+y,1/2-z
1/2-x,1/2+y,z
x,-y,1/2+z
loop_
_atom_site_type_symbol
_atom_site_label
_atom_site_fract_x
_atom_site_fract_y
_atom_site_fract_z
Si Si1 0.379736 0.055085 0.398873
Si Si2 0.014812 0.214382 0.462484
Si Si3 0.383951 0.175239 0.801383
Si Si4 0.773691 0.148459 0.468423
Si Si5 0.594282 0.194637 0.149709
Si Si6 0.306806 0.282138 0.154358
Si Si7 0.354330 0.971451 0.630288
O O1 0.337222 0.129232 0.375970
O O2 0.518199 0.055929 0.399857
O O3 0.351091 0.013373 0.275920
O O4 0.337882 0.026771 0.527533
O O5 0.081467 0.250062 0.349357
O O6 0.103020 0.186514 0.563195
O O7 0.908894 0.164211 0.457154
O O8 0.963603 0.279354 0.527630
O O9 0.500000 0.143685 0.750000
O O10 0.302975 0.143831 0.906051
O O11 0.304969 0.178849 0.682070
O O12 0.722950 0.213338 0.406994
O O13 0.737822 0.084610 0.394278
O O14 0.500000 0.175936 0.250000
O O15 0.649268 0.258764 0.211456
#
# Coordination Sequence:
#
# PCOD9453762 Si02
#       7
#     8   8   8   8   8   8   8
#     4  10  18  35  55  81 114 161 210 250 332 358
#     4  10  21  32  56  83 114 160 197 239 306 375
#     4  11  21  33  48  84 123 149 191 248 290 367
#     4  11  20  36  53  81 120 157 198 244 310 372
#     4  10  16  33  56  74 109 161 195 234 295 378
#     4  10  19  33  54  78 116 156 194 236 295 366
#     4  10  20  34  55  82 116 158 203 267 306 385
#
# _framework density 21.441324999999999
#
# number of rings (size 3 to 8) (size 9 to 14) (size 15 to 20)
#    0.000    1.714    5.714    1.714    0.000    0.000 
#    7.714    0.000    0.000    0.000    0.000    1.000 
#    4.286    0.000    0.000    0.000    0.000    0.000 
#
# Total GULP energy -312010.018354 kJ/mol
# GULP energy per Si atom -5571.607471 kJ/mol
# Density = 2.139252 g / cm^3
# Si number density = 21.441325 Si / 1000 Ang^3
#
#
#
# Elastic Constant Matrix: (Units=GPa)
#
#
# Indices 1 2 3 4 5 6 
#
# 1 110.3630 16.0282 31.9304 0.0000 0.0000 0.0000
# 2 16.0282 34.6435 16.5809 0.0000 0.0000 0.0000
# 3 31.9304 16.5809 78.7068 0.0000 0.0000 0.0000
# 4 0.0000 0.0000 0.0000 22.8169 0.0000 0.0000
# 5 0.0000 0.0000 0.0000 0.0000 37.3573 0.0000
# 6 0.0000 0.0000 0.0000 0.0000 0.0000 14.6696
#
#
#
# Elastic Compliance Matrix: (Units=1/GPa)
#
#
# Indices 1 2 3 4 5 6 
#
# 1 0.010567 -0.003155 -0.003622 0.000000 0.000000 0.000000
# 2 -0.003155 0.033044 -0.005681 0.000000 0.000000 0.000000
# 3 -0.003622 -0.005681 0.015372 0.000000 0.000000 0.000000
# 4 0.000000 0.000000 0.000000 0.043827 0.000000 0.000000
# 5 0.000000 0.000000 0.000000 0.000000 0.026769 0.000000
# 6 0.000000 0.000000 0.000000 0.000000 0.000000 0.068168
#
#
# Mechanical properties :
#
#
# Convention : Reuss Voigt Hill
#
# Bulk Modulus (GPa) = 29.35510 39.19914 34.27712
# Shear Modulus (GPa) = 21.36565 25.58035 23.47300
#
# Velocity S-wave (km/s) = 3.16012 3.45779 3.31230
# Velocity P-wave (km/s) = 5.19959 5.85350 5.53621
#
# Compressibility (1/GPa) = 0.03406563
#
# Stress axis : x y z
#
# Youngs Moduli (GPa) = 94.63180 30.26230 65.05437
#
# Poissons Ratio (x) = 0.09549 0.23565
# Poissons Ratio (y) = 0.29860 0.36959
# Poissons Ratio (z) = 0.34278 0.17193
#
# Static dielectric constant tensor:
#      x y z
#    x 1.869330 0.000000 0.000000 
#    y 0.000000 1.782330 0.000000 
#    z 0.000000 0.000000 1.907720 
# 
# From -- ./inp_files/11196.got.cif
#   From: 2010.05.17/outbox.cif.g08.bks.cpg/sg60_6_cif.got.tgz:11196.got - 2010.06.03 14:59:27.
