data_PCOD9453630
_publ_section_title
;
Structure prediction by ZEFSAII (Michael W. Deem and Ramdas Pophale) SiO2 
 PCOD9453630
Probable space group: P M M N
;
_chemical_formula_sum "Si O2"
_cell_formula_units_Z 48
_cell_length_a 9.000000
_cell_length_b 9.000000
_cell_length_c 30.000000
_cell_angle_alpha 90.000000
_cell_angle_beta 90.000000
_cell_angle_gamma 90.000000
_cell_volume 2430.000000
_symmetry_space_group_name_H-M "P M M N"
_symmetry_group_IT_number 59
_space_group.IT_coordinate_system_code '2'
_symmetry_cell_setting 'orthorhombic'
loop_
_space_group_symop_operation_xyz
x,y,z
1/2-x,1/2-y,z
1/2+x,-y,-z
-x,1/2+y,-z
-x,-y,-z
1/2+x,1/2+y,-z
1/2-x,y,z
x,1/2-y,z
loop_
_atom_site_type_symbol
_atom_site_label
_atom_site_fract_x
_atom_site_fract_y
_atom_site_fract_z
Si Si1 0.418372 0.919366 0.207262
Si Si2 0.425187 0.413207 0.700401
Si Si3 0.076961 0.575050 0.458869
Si Si4 0.422676 0.079341 0.372879
Si Si5 0.916122 0.072488 0.131057
Si Si6 0.077504 0.429467 0.042211
O O1 0.250000 0.948751 0.221835
O O2 0.424855 0.750000 0.190209
O O3 0.525847 0.929732 0.249066
O O4 0.472911 0.028009 0.169673
O O5 0.250000 0.413555 0.696444
O O6 0.482390 0.250000 0.684969
O O7 0.493160 0.543461 0.671810
O O8 0.250000 0.530959 0.458899
O O9 0.066584 0.750000 0.462251
O O10 0.012310 0.519301 0.412372
O O11 0.000000 0.500000 0.500000
O O12 0.250000 0.041037 0.365864
O O13 0.432400 0.250000 0.386124
O O14 0.750000 0.013358 0.138890
O O15 0.907387 0.250000 0.128906
O O16 0.985217 0.019455 0.084978
O O17 0.250000 0.471984 0.045686
O O18 0.071077 0.250000 0.039802
O O19 0.000000 0.500000 0.000000
#
# Coordination Sequence:
#
# PCOD9453630 Si02
#       6
#     8   8   8   8   8   8
#     4  10  21  37  58  83 110 143 183 225 270 322
#     4  10  21  37  57  81 109 142 180 223 271 321
#     4  10  21  37  58  83 111 145 184 226 273 324
#     4  10  21  37  57  81 109 143 183 225 270 322
#     4  10  21  37  57  81 110 144 181 223 272 324
#     4  10  21  37  57  81 109 143 183 226 273 325
#
# _framework density 19.753086
#
# number of rings (size 3 to 8) (size 9 to 14) (size 15 to 20)
#    0.000    2.000    0.000    3.000    0.000    8.000 
#    0.000    0.000    0.000    0.000    0.000    0.000 
#    0.000    0.000    0.000    0.000    0.000    0.000 
#
# Total GULP energy -267707.687659 kJ/mol
# GULP energy per Si atom -5577.243493 kJ/mol
# Density = 1.970813 g / cm^3
# Si number density = 19.753086 Si / 1000 Ang^3
#
#
#
# Elastic Constant Matrix: (Units=GPa)
#
#
# Indices 1 2 3 4 5 6 
#
# 1 11.7296 27.8611 6.0571 0.0000 0.0000 0.0000
# 2 27.8611 -13.7490 26.4830 0.0000 0.0000 0.0000
# 3 6.0571 26.4830 46.4121 0.0000 0.0000 0.0000
# 4 0.0000 0.0000 0.0000 29.3903 0.0000 0.0000
# 5 0.0000 0.0000 0.0000 0.0000 28.3177 0.0000
# 6 0.0000 0.0000 0.0000 0.0000 0.0000 24.4677
#
#
#
# Elastic Compliance Matrix: (Units=1/GPa)
#
#
# Indices 1 2 3 4 5 6 
#
# 1 0.031669 0.026780 -0.019414 0.000000 0.000000 0.000000
# 2 0.026780 -0.012004 0.003354 0.000000 0.000000 0.000000
# 3 -0.019414 0.003354 0.022166 0.000000 0.000000 0.000000
# 4 0.000000 0.000000 0.000000 0.034025 0.000000 0.000000
# 5 0.000000 0.000000 0.000000 0.000000 0.035314 0.000000
# 6 0.000000 0.000000 0.000000 0.000000 0.000000 0.040870
#
#
# Mechanical properties :
#
#
# Convention : Reuss Voigt Hill
#
# Bulk Modulus (GPa) = 15.80468 18.35502 17.07985
# Shear Modulus (GPa) = 32.96208 15.36790 24.16499
#
# Velocity S-wave (km/s) = 4.08941 2.79229 3.50144
# Velocity P-wave (km/s) = 5.50601 4.43940 5.00122
#
# Compressibility (1/GPa) = 0.06327239
#
# Stress axis : x y z
#
# Youngs Moduli (GPa) = 31.57638 -83.30703 45.11467
#
# Poissons Ratio (x) = 2.23098 0.87586
# Poissons Ratio (y) = -0.84562 -0.15133
# Poissons Ratio (z) = 0.61302 0.27944
#
# Static dielectric constant tensor:
#      x y z
#    x 1.677680 0.000000 0.000000 
#    y 0.000000 1.701340 0.000000 
#    z 0.000000 0.000000 1.659960 
# 
# From -- ./inp_files/32776.got.cif
#   From: 2010.05.17/outbox.ucp.g08.bks.cvg/sg59_17_cif.got.tgz:32776.got - 2010.06.11 16:43:56.
