data_PCOD9453493
_publ_section_title
;
Structure prediction by ZEFSAII (Michael W. Deem and Ramdas Pophale) SiO2 
 PCOD9453493
Probable space group: P M M N
;
_chemical_formula_sum "Si O2"
_cell_formula_units_Z 64
_cell_length_a 9.000000
_cell_length_b 24.000000
_cell_length_c 15.000000
_cell_angle_alpha 90.000000
_cell_angle_beta 90.000000
_cell_angle_gamma 90.000000
_cell_volume 3240.000000
_symmetry_space_group_name_H-M "P M M N"
_symmetry_group_IT_number 59
_space_group.IT_coordinate_system_code '2'
_symmetry_cell_setting 'orthorhombic'
loop_
_space_group_symop_operation_xyz
x,y,z
1/2-x,1/2-y,z
1/2+x,-y,-z
-x,1/2+y,-z
-x,-y,-z
1/2+x,1/2+y,-z
1/2-x,y,z
x,1/2-y,z
loop_
_atom_site_type_symbol
_atom_site_label
_atom_site_fract_x
_atom_site_fract_y
_atom_site_fract_z
Si Si1 0.578947 0.816757 0.306490
Si Si2 0.075594 0.994872 0.594015
Si Si3 0.920846 0.439722 0.014661
Si Si4 0.077085 0.116851 0.863849
Si Si5 0.088252 0.406230 0.178385
Si Si6 0.917961 0.183084 0.514813
Si Si7 0.423110 0.381406 0.365618
Si Si8 0.914930 0.032342 0.754909
O O1 0.750000 0.835902 0.319053
O O2 0.579332 0.750000 0.305116
O O3 0.528665 0.839136 0.210673
O O4 0.479750 0.835220 0.389178
O O5 0.250000 0.006326 0.595542
O O6 0.038244 0.931946 0.622754
O O7 0.000000 0.000000 0.500000
O O8 0.982373 0.035238 0.657554
O O9 0.750000 0.450049 0.996681
O O10 0.955784 0.414776 0.110946
O O11 0.000000 0.500000 0.000000
O O12 0.982482 0.391025 0.951405
O O13 0.250000 0.124134 0.883071
O O14 0.040379 0.058350 0.816588
O O15 0.250000 0.395282 0.134491
O O16 0.067759 0.365256 0.261564
O O17 0.100609 0.467794 0.221093
O O18 0.750000 0.162535 0.500545
O O19 0.914753 0.250000 0.515612
O O20 0.027629 0.163301 0.437554
O O21 0.250000 0.398409 0.381231
O O22 0.750000 0.057622 0.764672
#
# Coordination Sequence:
#
# PCOD9453493 Si02
#       8
#     8   8   8   8   8   8   8   8
#     4   9  20  39  60  82 110 145 187 234 281 332
#     4  11  22  35  50  71 105 146 187 225 270 328
#     4  12  23  35  55  81 113 149 187 230 277 333
#     4  11  22  35  56  82 109 145 188 233 283 334
#     4   9  19  36  55  77 109 144 181 226 272 323
#     4  10  21  37  59  87 116 147 186 233 284 338
#     4  10  21  37  57  80 109 144 184 229 280 334
#     4  10  20  34  51  74 107 144 182 225 273 324
#
# _framework density 19.753086
#
# number of rings (size 3 to 8) (size 9 to 14) (size 15 to 20)
#    0.000    1.750    1.250    4.500    1.750    4.250 
#    0.000    0.000    0.000    0.750    0.000    1.750 
#    0.000    0.000    0.000    0.000    0.000    0.000 
#
# Total GULP energy -356462.981173 kJ/mol
# GULP energy per Si atom -5569.734081 kJ/mol
# Density = 1.970813 g / cm^3
# Si number density = 19.753086 Si / 1000 Ang^3
#
#
#
# Elastic Constant Matrix: (Units=GPa)
#
#
# Indices 1 2 3 4 5 6 
#
# 1 80.9393 14.2618 41.2622 0.0000 0.0000 0.0000
# 2 14.2618 24.0795 18.7425 0.0000 0.0000 0.0000
# 3 41.2622 18.7425 90.5712 0.0000 0.0000 0.0000
# 4 0.0000 0.0000 0.0000 3.4143 0.0000 0.0000
# 5 0.0000 0.0000 0.0000 0.0000 22.3073 0.0000
# 6 0.0000 0.0000 0.0000 0.0000 0.0000 17.7221
#
#
#
# Elastic Compliance Matrix: (Units=1/GPa)
#
#
# Indices 1 2 3 4 5 6 
#
# 1 0.016524 -0.004681 -0.006559 0.000000 0.000000 0.000000
# 2 -0.004681 0.050829 -0.008386 0.000000 0.000000 0.000000
# 3 -0.006559 -0.008386 0.015764 0.000000 0.000000 0.000000
# 4 0.000000 0.000000 0.000000 0.292886 0.000000 0.000000
# 5 0.000000 0.000000 0.000000 0.000000 0.044828 0.000000
# 6 0.000000 0.000000 0.000000 0.000000 0.000000 0.056427
#
#
# Mechanical properties :
#
#
# Convention : Reuss Voigt Hill
#
# Bulk Modulus (GPa) = 22.79729 38.23588 30.51659
# Shear Modulus (GPa) = 9.41387 16.77698 13.09543
#
# Velocity S-wave (km/s) = 2.18543 2.91750 2.57759
# Velocity P-wave (km/s) = 4.23490 5.54509 4.93368
#
# Compressibility (1/GPa) = 0.04386486
#
# Stress axis : x y z
#
# Youngs Moduli (GPa) = 60.51977 19.67392 63.43377
#
# Poissons Ratio (x) = 0.09210 0.41606
# Poissons Ratio (y) = 0.28331 0.53193
# Poissons Ratio (z) = 0.39695 0.16498
#
# Static dielectric constant tensor:
#      x y z
#    x 1.689050 0.000000 0.000000 
#    y 0.000000 1.738710 0.000000 
#    z 0.000000 0.000000 1.652920 
# 
# From -- ./inp_files/21514.got.cif
#   From: 2010.05.17/outbox.ucp.g08.bks.cvg/sg59_11_cif.got.tgz:21514.got - 2010.06.11 16:43:56.
