data_PCOD9453988
_publ_section_title
;
Structure prediction by ZEFSAII (Michael W. Deem and Ramdas Pophale) SiO2 
 PCOD9453988
Probable space group: P B C N
;
_chemical_formula_sum "Si O2"
_cell_formula_units_Z 64
_cell_length_a 5.209476
_cell_length_b 27.476151
_cell_length_c 21.896566
_cell_angle_alpha 90.000000
_cell_angle_beta 90.000000
_cell_angle_gamma 90.000000
_cell_volume 3134.194517
_symmetry_space_group_name_H-M "P B C N"
_symmetry_group_IT_number 60
_symmetry_cell_setting 'orthorhombic'
loop_
_space_group_symop_operation_xyz
x,y,z
1/2-x,1/2-y,1/2+z
1/2+x,1/2-y,-z
-x,y,1/2-z
-x,-y,-z
1/2+x,1/2+y,1/2-z
1/2-x,1/2+y,z
x,-y,1/2+z
loop_
_atom_site_type_symbol
_atom_site_label
_atom_site_fract_x
_atom_site_fract_y
_atom_site_fract_z
Si Si1 0.000738 0.275668 0.822986
Si Si2 0.496908 0.221081 0.676767
Si Si3 0.413741 0.888108 0.649639
Si Si4 0.987540 0.613858 0.873423
Si Si5 0.091385 0.053978 0.339085
Si Si6 0.866022 0.049647 0.015918
Si Si7 0.013069 0.060515 0.821068
Si Si8 0.629915 0.900320 0.997375
O O1 0.755493 0.247298 0.848126
O O2 0.975070 0.332866 0.833803
O O3 0.000000 0.268874 0.750000
O O4 0.256184 0.250048 0.847320
O O5 0.500000 0.226469 0.750000
O O6 0.491332 0.164174 0.662990
O O7 0.635399 0.922726 0.677753
O O8 0.403878 0.887852 0.574492
O O9 0.143880 0.909470 0.673713
O O10 0.229666 0.581187 0.852324
O O11 0.027710 0.629388 0.944438
O O12 0.732750 0.582614 0.856869
O O13 0.118587 0.052665 0.411853
O O14 0.027884 0.998543 0.320886
O O15 0.573251 0.054930 0.995541
O O16 0.069719 0.089598 0.992305
O O17 0.000000 0.000000 0.000000
O O18 0.000000 0.076364 0.750000
#
# Coordination Sequence:
#
# PCOD9453988 Si02
#       8
#     8   8   8   8   8   8   8   8
#     4  10  21  38  61  84 108 143 189 237 288 340
#     4  10  21  38  59  83 107 141 191 238 284 339
#     4  10  21  38  58  85 118 149 185 236 281 331
#     4  12  23  40  60  83 116 154 187 235 287 332
#     4  10  21  35  55  82 115 151 184 222 277 332
#     4  10  18  32  52  77 107 145 188 229 260 313
#     4  12  25  39  57  85 118 153 193 234 281 339
#     4  10  21  34  54  81 111 146 188 225 275 340
#
# _framework density 20.419917999999999
#
# number of rings (size 3 to 8) (size 9 to 14) (size 15 to 20)
#    0.000    1.500    0.000    6.000    0.000    4.000 
#    0.000    1.250    0.000    0.000    0.000    0.000 
#    0.000    0.000    0.000    0.000    0.000    0.000 
#
# Total GULP energy -356879.791670 kJ/mol
# GULP energy per Si atom -5576.246745 kJ/mol
# Density = 2.037344 g / cm^3
# Si number density = 20.419918 Si / 1000 Ang^3
#
#
#
# Elastic Constant Matrix: (Units=GPa)
#
#
# Indices 1 2 3 4 5 6 
#
# 1 147.4735 50.3001 24.1071 0.0000 0.0000 0.0000
# 2 50.3001 100.4384 -13.6876 0.0000 0.0000 0.0000
# 3 24.1071 -13.6876 37.2128 0.0000 0.0000 0.0000
# 4 0.0000 0.0000 0.0000 66.7059 0.0000 0.0000
# 5 0.0000 0.0000 0.0000 0.0000 2.9011 0.0000
# 6 0.0000 0.0000 0.0000 0.0000 0.0000 27.8447
#
#
#
# Elastic Compliance Matrix: (Units=1/GPa)
#
#
# Indices 1 2 3 4 5 6 
#
# 1 0.010508 -0.006517 -0.009205 0.000000 0.000000 0.000000
# 2 -0.006517 0.014523 0.009564 0.000000 0.000000 0.000000
# 3 -0.009205 0.009564 0.036353 0.000000 0.000000 0.000000
# 4 0.000000 0.000000 0.000000 0.014991 0.000000 0.000000
# 5 0.000000 0.000000 0.000000 0.000000 0.344701 0.000000
# 6 0.000000 0.000000 0.000000 0.000000 0.000000 0.035913
#
#
# Mechanical properties :
#
#
# Convention : Reuss Voigt Hill
#
# Bulk Modulus (GPa) = 20.37929 45.17378 32.77654
# Shear Modulus (GPa) = 10.29522 34.45067 22.37294
#
# Velocity S-wave (km/s) = 2.24782 4.11190 3.31364
# Velocity P-wave (km/s) = 4.09130 6.68686 5.54314
#
# Compressibility (1/GPa) = 0.04906943
#
# Stress axis : x y z
#
# Youngs Moduli (GPa) = 95.16237 68.85407 27.50795
#
# Poissons Ratio (x) = 0.44872 0.25320
# Poissons Ratio (y) = 0.62018 -0.26308
# Poissons Ratio (z) = 0.87593 -0.65851
#
# Static dielectric constant tensor:
#      x y z
#    x 1.723970 0.000000 0.000000 
#    y 0.000000 1.697580 0.000000 
#    z 0.000000 0.000000 1.763370 
# 
# From -- ./inp_files/23760.got.cif
#   From: 2010.05.17/outbox.cif.g08.bks.cpg/sg60_12_cif.got.tgz:23760.got - 2010.06.03 14:59:27.
