data_PCOD9453859
_publ_section_title
;
Structure prediction by ZEFSAII (Michael W. Deem and Ramdas Pophale) SiO2 
 PCOD9453859
Probable space group: P B C N
;
_chemical_formula_sum "Si O2"
_cell_formula_units_Z 44
_cell_length_a 11.949271
_cell_length_b 10.559769
_cell_length_c 12.891056
_cell_angle_alpha 90.000000
_cell_angle_beta 90.000000
_cell_angle_gamma 90.000000
_cell_volume 1626.613317
_symmetry_space_group_name_H-M "P B C N"
_symmetry_group_IT_number 60
_symmetry_cell_setting 'orthorhombic'
loop_
_space_group_symop_operation_xyz
x,y,z
1/2-x,1/2-y,1/2+z
1/2+x,1/2-y,-z
-x,y,1/2-z
-x,-y,-z
1/2+x,1/2+y,1/2-z
1/2-x,1/2+y,z
x,-y,1/2+z
loop_
_atom_site_type_symbol
_atom_site_label
_atom_site_fract_x
_atom_site_fract_y
_atom_site_fract_z
Si Si1 0.199460 0.838003 0.349892
Si Si2 0.000000 0.296277 0.750000
Si Si3 0.745302 0.608992 0.911927
Si Si4 0.594457 0.279534 0.577112
Si Si5 0.109820 0.506006 0.399378
Si Si6 0.138437 0.143400 0.097066
O O1 0.290225 0.725131 0.360208
O O2 0.282506 0.956332 0.333078
O O3 0.152413 0.853764 0.469168
O O4 0.104542 0.798496 0.269771
O O5 0.973155 0.397337 0.657320
O O6 0.703224 0.478515 0.865034
O O7 0.807763 0.727183 0.861217
O O8 0.635299 0.669143 0.966872
O O9 0.834110 0.562926 0.998759
O O10 0.558046 0.132041 0.573927
O O11 0.492656 0.359366 0.619368
#
# Coordination Sequence:
#
# PCOD9453859 Si02
#       6
#     8   4   8   8   8   8
#     4   8  20  33  56  95 108 164 208 241 315 375
#     4  12  16  38  70  74 128 174 204 256 318 360
#     4  10  17  35  53  94 114 162 194 235 320 374
#     4   9  18  34  56  89 123 152 203 251 310 364
#     4   9  18  34  58  87 117 153 209 252 294 358
#     4  10  18  33  59  86 129 160 195 256 311 378
#
# _framework density 27.050068
#
# number of rings (size 3 to 8) (size 9 to 14) (size 15 to 20)
#    1.091    1.455    5.455    0.545    0.000    0.727 
#    0.000    0.000   12.000    9.818    0.000    0.000 
#    0.000    0.000    0.000    0.000    0.000    0.000 
#
# Total GULP energy -245725.586438 kJ/mol
# GULP energy per Si atom -5584.672419 kJ/mol
# Density = 2.698850 g / cm^3
# Si number density = 27.050068 Si / 1000 Ang^3
#
#
#
# Elastic Constant Matrix: (Units=GPa)
#
#
# Indices 1 2 3 4 5 6 
#
# 1 175.9260 27.6759 44.3880 0.0000 0.0000 0.0000
# 2 27.6759 144.2973 26.1148 0.0000 0.0000 0.0000
# 3 44.3880 26.1148 113.2048 0.0000 0.0000 0.0000
# 4 0.0000 0.0000 0.0000 5.3291 0.0000 0.0000
# 5 0.0000 0.0000 0.0000 0.0000 24.3995 0.0000
# 6 0.0000 0.0000 0.0000 0.0000 0.0000 51.1493
#
#
#
# Elastic Compliance Matrix: (Units=1/GPa)
#
#
# Indices 1 2 3 4 5 6 
#
# 1 0.006397 -0.000807 -0.002322 0.000000 0.000000 0.000000
# 2 -0.000807 0.007334 -0.001376 0.000000 0.000000 0.000000
# 3 -0.002322 -0.001376 0.010061 0.000000 0.000000 0.000000
# 4 0.000000 0.000000 0.000000 0.187649 0.000000 0.000000
# 5 0.000000 0.000000 0.000000 0.000000 0.040985 0.000000
# 6 0.000000 0.000000 0.000000 0.000000 0.000000 0.019551
#
#
# Mechanical properties :
#
#
# Convention : Reuss Voigt Hill
#
# Bulk Modulus (GPa) = 67.64318 69.97617 68.80968
# Shear Modulus (GPa) = 17.48784 38.52552 28.00668
#
# Velocity S-wave (km/s) = 2.54539 3.77799 3.22120
# Velocity P-wave (km/s) = 5.80514 6.70494 6.27120
#
# Compressibility (1/GPa) = 0.01478346
#
# Stress axis : x y z
#
# Youngs Moduli (GPa) = 156.32257 136.35508 99.38966
#
# Poissons Ratio (x) = 0.10999 0.23080
# Poissons Ratio (y) = 0.12610 0.13671
# Poissons Ratio (z) = 0.36301 0.18756
#
# Static dielectric constant tensor:
#      x y z
#    x 2.079440 0.000000 0.000000 
#    y 0.000000 2.099800 0.000000 
#    z 0.000000 0.000000 2.201830 
# 
# From -- ./inp_files/20439.got.cif
#   From: 2010.05.17/outbox.cif.g08.bks.cpg/sg60_11_cif.got.tgz:20439.got - 2010.06.03 14:59:27.
