data_PCOD9453195
_publ_section_title
;
Structure prediction by ZEFSAII (Michael W. Deem and Ramdas Pophale) SiO2 
 PCOD9453195
Probable space group: P M M N
;
_chemical_formula_sum "Si O2"
_cell_formula_units_Z 56
_cell_length_a 19.586495
_cell_length_b 9.260269
_cell_length_c 16.992784
_cell_angle_alpha 90.000000
_cell_angle_beta 90.000000
_cell_angle_gamma 90.000000
_cell_volume 3082.086801
_symmetry_space_group_name_H-M "P M M N"
_symmetry_group_IT_number 59
_space_group.IT_coordinate_system_code '2'
_symmetry_cell_setting 'orthorhombic'
loop_
_space_group_symop_operation_xyz
x,y,z
1/2-x,1/2-y,z
1/2+x,-y,-z
-x,1/2+y,-z
-x,-y,-z
1/2+x,1/2+y,-z
1/2-x,y,z
x,1/2-y,z
loop_
_atom_site_type_symbol
_atom_site_label
_atom_site_fract_x
_atom_site_fract_y
_atom_site_fract_z
Si Si1 0.416474 0.425383 0.813793
Si Si2 0.951735 0.586506 0.441285
Si Si3 0.328729 0.425859 0.659231
Si Si4 0.670985 0.585865 0.916419
Si Si5 0.824751 0.918518 0.727145
Si Si6 0.429514 0.577949 0.976480
Si Si7 0.542901 0.088051 0.715106
O O1 0.414707 0.250000 0.823785
O O2 0.363891 0.462729 0.743181
O O3 0.404102 0.508850 0.894274
O O4 0.492992 0.465718 0.784263
O O5 0.941806 0.750000 0.471496
O O6 0.878376 0.525599 0.412307
O O7 0.000000 0.500000 0.500000
O O8 0.993875 0.594895 0.360039
O O9 0.250000 0.472787 0.654167
O O10 0.329855 0.250000 0.656047
O O11 0.750000 0.573294 0.941022
O O12 0.647679 0.750000 0.936040
O O13 0.669842 0.572067 0.822046
O O14 0.624828 0.467984 0.957605
O O15 0.750000 0.976413 0.703938
O O16 0.826700 0.750000 0.706359
O O17 0.890944 0.996879 0.695579
O O18 0.437916 0.750000 0.971043
O O19 0.500000 0.500000 0.000000
O O20 0.564933 0.250000 0.736125
#
# Coordination Sequence:
#
# PCOD9453195 Si02
#       7
#     8   8   8   8   8   8   8
#     4   9  18  33  52  74  98 127 168 214 259 306
#     4   9  18  33  53  78 106 134 166 201 240 291
#     4   8  15  31  56  81 103 132 171 211 251 302
#     4   9  19  36  54  71  96 131 168 208 257 308
#     4   9  18  32  50  72  95 121 160 207 248 290
#     4  12  24  35  49  72 103 136 174 219 263 309
#     4   9  18  32  50  72  98 128 162 200 242 294
#
# _framework density 18.169508
#
# number of rings (size 3 to 8) (size 9 to 14) (size 15 to 20)
#    0.000    2.714    0.000    4.714    0.000    5.143 
#    0.000    5.714    0.000    3.857    0.000    0.000 
#    0.000    0.000    0.000    0.000    0.000    0.000 
#
# Total GULP energy -312024.695596 kJ/mol
# GULP energy per Si atom -5571.869564 kJ/mol
# Density = 1.812815 g / cm^3
# Si number density = 18.169508 Si / 1000 Ang^3
#
#
#
# Elastic Constant Matrix: (Units=GPa)
#
#
# Indices 1 2 3 4 5 6 
#
# 1 121.6120 29.8731 10.4926 0.0000 0.0000 0.0000
# 2 29.8731 43.0601 9.1518 0.0000 0.0000 0.0000
# 3 10.4926 9.1518 23.7913 0.0000 0.0000 0.0000
# 4 0.0000 0.0000 0.0000 23.9704 0.0000 0.0000
# 5 0.0000 0.0000 0.0000 0.0000 17.5065 0.0000
# 6 0.0000 0.0000 0.0000 0.0000 0.0000 26.3322
#
#
#
# Elastic Compliance Matrix: (Units=1/GPa)
#
#
# Indices 1 2 3 4 5 6 
#
# 1 0.009990 -0.006528 -0.001895 0.000000 0.000000 0.000000
# 2 -0.006528 0.029557 -0.008491 0.000000 0.000000 0.000000
# 3 -0.001895 -0.008491 0.046134 0.000000 0.000000 0.000000
# 4 0.000000 0.000000 0.000000 0.041718 0.000000 0.000000
# 5 0.000000 0.000000 0.000000 0.000000 0.057122 0.000000
# 6 0.000000 0.000000 0.000000 0.000000 0.000000 0.037976
#
#
# Mechanical properties :
#
#
# Convention : Reuss Voigt Hill
#
# Bulk Modulus (GPa) = 19.28490 31.94427 25.61459
# Shear Modulus (GPa) = 18.27436 22.82487 20.54962
#
# Velocity S-wave (km/s) = 3.17483 3.54816 3.36667
# Velocity P-wave (km/s) = 4.90676 5.86561 5.40748
#
# Compressibility (1/GPa) = 0.05185404
#
# Stress axis : x y z
#
# Youngs Moduli (GPa) = 100.10151 33.83338 21.67606
#
# Poissons Ratio (x) = 0.22086 0.04107
# Poissons Ratio (y) = 0.65344 0.18404
# Poissons Ratio (z) = 0.18967 0.28726
#
# Static dielectric constant tensor:
#      x y z
#    x 1.654330 0.000000 0.000000 
#    y 0.000000 1.627130 0.000000 
#    z 0.000000 0.000000 1.643140 
# 
# From -- ./inp_files/28116.got.cif
#   From: 2010.05.17/outbox.cif.g08.bks.cpg/sg59_15_cif.got.tgz:28116.got - 2010.06.03 14:40:33.
