data_PCOD9453281
_publ_section_title
;
Structure prediction by ZEFSAII (Michael W. Deem and Ramdas Pophale) SiO2 
 PCOD9453281
Probable space group: P M M N
;
_chemical_formula_sum "Si O2"
_cell_formula_units_Z 64
_cell_length_a 7.488455
_cell_length_b 18.254418
_cell_length_c 23.442041
_cell_angle_alpha 90.000000
_cell_angle_beta 90.000000
_cell_angle_gamma 90.000000
_cell_volume 3204.465768
_symmetry_space_group_name_H-M "P M M N"
_symmetry_group_IT_number 59
_space_group.IT_coordinate_system_code '2'
_symmetry_cell_setting 'orthorhombic'
loop_
_space_group_symop_operation_xyz
x,y,z
1/2-x,1/2-y,z
1/2+x,-y,-z
-x,1/2+y,-z
-x,-y,-z
1/2+x,1/2+y,-z
1/2-x,y,z
x,1/2-y,z
loop_
_atom_site_type_symbol
_atom_site_label
_atom_site_fract_x
_atom_site_fract_y
_atom_site_fract_z
Si Si1 0.038698 0.064752 0.545133
Si Si2 0.534236 0.830219 0.205267
Si Si3 0.968901 0.666456 0.551681
Si Si4 0.957588 0.957086 0.639718
Si Si5 0.468389 0.330453 0.045569
Si Si6 0.957959 0.868886 0.079283
Si Si7 0.466832 0.028584 0.115301
Si Si8 0.461470 0.509964 0.241254
O O1 0.250000 0.071650 0.553397
O O2 0.974788 0.136117 0.510693
O O3 0.000000 0.000000 0.500000
O O4 0.963998 0.032760 0.603713
O O5 0.750000 0.830731 0.203525
O O6 0.476738 0.750000 0.225950
O O7 0.467742 0.841466 0.139908
O O8 0.482648 0.902069 0.240421
O O9 0.750000 0.664131 0.551646
O O10 0.023013 0.750000 0.561740
O O11 0.031422 0.608471 0.599949
O O12 0.750000 0.938140 0.647469
O O13 0.036741 0.972468 0.701935
O O14 0.250000 0.333395 0.044384
O O15 0.519610 0.250000 0.066458
O O16 0.526756 0.397382 0.084955
O O17 0.531864 0.340652 0.980397
O O18 0.750000 0.847215 0.079783
O O19 0.972422 0.956681 0.081303
O O20 0.250000 0.027256 0.115677
O O21 0.531103 0.018914 0.180449
O O22 0.250000 0.495586 0.240917
#
# Coordination Sequence:
#
# PCOD9453281 Si02
#       8
#     8   8   8   8   8   8   8   8
#     4   9  16  27  46  69  92 117 143 174 214 258
#     4   9  17  29  45  65  86 109 144 188 227 266
#     4   8  14  26  45  68  90 111 138 174 213 247
#     4   9  17  30  47  65  88 119 153 184 212 252
#     4   9  16  26  42  64  88 113 142 180 227 274
#     4   9  16  27  45  65  84 109 142 181 226 275
#     4   9  17  29  44  62  86 115 146 181 221 267
#     4   9  18  31  45  63  89 120 151 182 219 260
#
# _framework density 19.972125999999999
#
# number of rings (size 3 to 8) (size 9 to 14) (size 15 to 20)
#    0.000    3.125    0.000    1.875    0.000    2.250 
#    0.000    1.250    0.000   17.625    0.000    0.000 
#    0.000    5.000    0.000    0.000    0.000    0.000 
#
# Total GULP energy -356632.471511 kJ/mol
# GULP energy per Si atom -5572.382367 kJ/mol
# Density = 1.992667 g / cm^3
# Si number density = 19.972126 Si / 1000 Ang^3
#
#
#
# Elastic Constant Matrix: (Units=GPa)
#
#
# Indices 1 2 3 4 5 6 
#
# 1 54.4707 -5.8330 -2.2841 0.0000 0.0000 0.0000
# 2 -5.8330 128.0649 47.9068 0.0000 0.0000 0.0000
# 3 -2.2841 47.9068 70.6332 0.0000 0.0000 0.0000
# 4 0.0000 0.0000 0.0000 19.4783 0.0000 0.0000
# 5 0.0000 0.0000 0.0000 0.0000 3.2278 0.0000
# 6 0.0000 0.0000 0.0000 0.0000 0.0000 14.0642
#
#
#
# Elastic Compliance Matrix: (Units=1/GPa)
#
#
# Indices 1 2 3 4 5 6 
#
# 1 0.018449 0.000827 0.000036 0.000000 0.000000 0.000000
# 2 0.000827 0.010500 -0.007095 0.000000 0.000000 0.000000
# 3 0.000036 -0.007095 0.018971 0.000000 0.000000 0.000000
# 4 0.000000 0.000000 0.000000 0.051339 0.000000 0.000000
# 5 0.000000 0.000000 0.000000 0.000000 0.309804 0.000000
# 6 0.000000 0.000000 0.000000 0.000000 0.000000 0.071103
#
#
# Mechanical properties :
#
#
# Convention : Reuss Voigt Hill
#
# Bulk Modulus (GPa) = 28.20478 36.97204 32.58841
# Shear Modulus (GPa) = 9.91180 21.57933 15.74557
#
# Velocity S-wave (km/s) = 2.23016 3.29062 2.81085
# Velocity P-wave (km/s) = 4.55897 5.74366 5.18526
#
# Compressibility (1/GPa) = 0.03545498
#
# Stress axis : x y z
#
# Youngs Moduli (GPa) = 54.20486 95.23485 52.71191
#
# Poissons Ratio (x) = -0.07875 -0.00188
# Poissons Ratio (y) = -0.04482 0.37400
# Poissons Ratio (z) = -0.00194 0.67570
#
# Static dielectric constant tensor:
#      x y z
#    x 1.811460 0.000000 0.000000 
#    y 0.000000 1.695230 0.000000 
#    z 0.000000 0.000000 1.710380 
# 
# From -- ./inp_files/31730.got.cif
#   From: 2010.05.17/outbox.cif.g08.bks.cpg/sg59_16_cif.got.tgz:31730.got - 2010.06.03 14:40:33.
