data_PCOD9453784
_publ_section_title
;
Structure prediction by ZEFSAII (Michael W. Deem and Ramdas Pophale) SiO2 
 PCOD9453784
Probable space group: P B C N
;
_chemical_formula_sum "Si O2"
_cell_formula_units_Z 36
_cell_length_a 7.725189
_cell_length_b 23.916522
_cell_length_c 8.689240
_cell_angle_alpha 90.000000
_cell_angle_beta 90.000000
_cell_angle_gamma 90.000000
_cell_volume 1605.420964
_symmetry_space_group_name_H-M "P B C N"
_symmetry_group_IT_number 60
_symmetry_cell_setting 'orthorhombic'
loop_
_space_group_symop_operation_xyz
x,y,z
1/2-x,1/2-y,1/2+z
1/2+x,1/2-y,-z
-x,y,1/2-z
-x,-y,-z
1/2+x,1/2+y,1/2-z
1/2-x,1/2+y,z
x,-y,1/2+z
loop_
_atom_site_type_symbol
_atom_site_label
_atom_site_fract_x
_atom_site_fract_y
_atom_site_fract_z
Si Si1 0.785604 0.077715 0.247969
Si Si2 0.226401 0.701367 0.288966
Si Si3 0.500000 0.384517 0.250000
Si Si4 0.181956 0.026729 0.935514
Si Si5 0.050309 0.787858 0.497036
O O1 0.703873 0.135238 0.193601
O O2 0.739560 0.059033 0.420466
O O3 0.000000 0.085039 0.250000
O O4 0.731900 0.027508 0.136582
O O5 0.085416 0.737856 0.378884
O O6 0.394613 0.719612 0.386058
O O7 0.284430 0.707063 0.110754
O O8 0.351336 0.428685 0.298477
O O9 0.500767 0.342816 0.103912
O O10 0.000000 0.000000 0.000000
#
# Coordination Sequence:
#
# PCOD9453784 Si02
#       5
#     8   8   4   8   8
#     4  10  17  31  50  78 117 140 183 234 294 335
#     4  11  22  38  54  82 119 152 195 237 284 347
#     4  12  18  32  52  80 114 142 186 228 290 330
#     4  10  17  26  50  79 109 141 176 233 291 329
#     4  11  23  36  56  79 118 155 193 235 283 346
#
# _framework density 22.424022000000001
#
# number of rings (size 3 to 8) (size 9 to 14) (size 15 to 20)
#    0.000    1.333    7.778    2.667    0.000    0.000 
#    0.000    0.000    0.000    0.000    0.000    1.556 
#   13.333    0.000    0.000    0.000    0.000    0.000 
#
# Total GULP energy -200642.327065 kJ/mol
# GULP energy per Si atom -5573.397974 kJ/mol
# Density = 2.237298 g / cm^3
# Si number density = 22.424022 Si / 1000 Ang^3
#
#
#
# Elastic Constant Matrix: (Units=GPa)
#
#
# Indices 1 2 3 4 5 6 
#
# 1 48.3855 13.2134 24.0932 0.0000 0.0000 0.0000
# 2 13.2134 186.7607 86.1377 0.0000 0.0000 0.0000
# 3 24.0932 86.1377 153.9259 0.0000 0.0000 0.0000
# 4 0.0000 0.0000 0.0000 8.2365 0.0000 0.0000
# 5 0.0000 0.0000 0.0000 0.0000 22.6055 0.0000
# 6 0.0000 0.0000 0.0000 0.0000 0.0000 23.3287
#
#
#
# Elastic Compliance Matrix: (Units=1/GPa)
#
#
# Indices 1 2 3 4 5 6 
#
# 1 0.022415 0.000044 -0.003533 0.000000 0.000000 0.000000
# 2 0.000044 0.007217 -0.004046 0.000000 0.000000 0.000000
# 3 -0.003533 -0.004046 0.009314 0.000000 0.000000 0.000000
# 4 0.000000 0.000000 0.000000 0.121411 0.000000 0.000000
# 5 0.000000 0.000000 0.000000 0.000000 0.044237 0.000000
# 6 0.000000 0.000000 0.000000 0.000000 0.000000 0.042866
#
#
# Mechanical properties :
#
#
# Convention : Reuss Voigt Hill
#
# Bulk Modulus (GPa) = 41.88371 70.66231 56.27301
# Shear Modulus (GPa) = 18.48512 28.54266 23.51389
#
# Velocity S-wave (km/s) = 2.87425 3.57159 3.24173
# Velocity P-wave (km/s) = 5.45286 6.97055 6.25789
#
# Compressibility (1/GPa) = 0.02387563
#
# Stress axis : x y z
#
# Youngs Moduli (GPa) = 44.61385 138.55598 107.37020
#
# Poissons Ratio (x) = -0.00603 0.37932
# Poissons Ratio (y) = -0.00194 0.43438
# Poissons Ratio (z) = 0.15761 0.56055
#
# Static dielectric constant tensor:
#      x y z
#    x 2.066300 0.000000 0.000000 
#    y 0.000000 1.832680 0.000000 
#    z 0.000000 0.000000 2.006750 
# 
# From -- ./inp_files/4884.got.cif
#   From: 2010.05.17/outbox.cif.g08.bks.cpg/sg60_3_cif.got.tgz:4884.got - 2010.06.03 14:59:27.
