data_PCOD9453600
_publ_section_title
;
Structure prediction by ZEFSAII (Michael W. Deem and Ramdas Pophale) SiO2 
 PCOD9453600
Probable space group: P M M N
;
_chemical_formula_sum "Si O2"
_cell_formula_units_Z 40
_cell_length_a 27.000000
_cell_length_b 9.000000
_cell_length_c 9.000000
_cell_angle_alpha 90.000000
_cell_angle_beta 90.000000
_cell_angle_gamma 90.000000
_cell_volume 2187.000000
_symmetry_space_group_name_H-M "P M M N"
_symmetry_group_IT_number 59
_space_group.IT_coordinate_system_code '2'
_symmetry_cell_setting 'orthorhombic'
loop_
_space_group_symop_operation_xyz
x,y,z
1/2-x,1/2-y,z
1/2+x,-y,-z
-x,1/2+y,-z
-x,-y,-z
1/2+x,1/2+y,-z
1/2-x,y,z
x,1/2-y,z
loop_
_atom_site_type_symbol
_atom_site_label
_atom_site_fract_x
_atom_site_fract_y
_atom_site_fract_z
Si Si1 0.608223 0.577742 0.161028
Si Si2 0.999716 0.927212 0.163538
Si Si3 0.195770 0.070776 0.356334
Si Si4 0.195264 0.575637 0.676967
Si Si5 0.402444 0.076038 0.194883
O O1 0.618891 0.750000 0.197895
O O2 0.554445 0.537478 0.228227
O O3 0.651700 0.475691 0.217514
O O4 0.603325 0.567118 0.983155
O O5 0.002420 0.750000 0.147781
O O6 0.048322 0.989290 0.242302
O O7 0.000000 0.000000 0.000000
O O8 0.250000 0.022621 0.298579
O O9 0.195102 0.250000 0.353476
O O10 0.148094 0.018387 0.266406
O O11 0.191586 0.014281 0.523945
O O12 0.250000 0.546033 0.741562
O O13 0.191820 0.750000 0.644517
O O14 0.408837 0.250000 0.232110
#
# Coordination Sequence:
#
# PCOD9453600 Si02
#       5
#     8   8   8   8   8
#     4   9  18  32  51  75 100 128 163 200 239 289
#     4   9  17  30  49  73 101 131 162 198 243 291
#     4   9  18  34  54  73  97 131 166 201 245 295
#     4  10  21  35  50  71  99 130 165 204 246 291
#     4   9  18  32  52  78 102 126 162 204 244 290
#
# _framework density 18.289895000000001
#
# number of rings (size 3 to 8) (size 9 to 14) (size 15 to 20)
#    0.000    2.800    0.000    2.400    0.000    6.800 
#    0.000    3.000    0.000    2.400    0.000    0.000 
#    0.000    0.000    0.000    0.000    0.000    0.000 
#
# Total GULP energy -222740.611689 kJ/mol
# GULP energy per Si atom -5568.515292 kJ/mol
# Density = 1.824827 g / cm^3
# Si number density = 18.289895 Si / 1000 Ang^3
#
#
#
# Elastic Constant Matrix: (Units=GPa)
#
#
# Indices 1 2 3 4 5 6 
#
# 1 140.1025 47.0412 22.0728 0.0000 0.0000 0.0000
# 2 47.0412 14.1662 6.8835 0.0000 0.0000 0.0000
# 3 22.0728 6.8835 -0.6943 0.0000 0.0000 0.0000
# 4 0.0000 0.0000 0.0000 13.1544 0.0000 0.0000
# 5 0.0000 0.0000 0.0000 0.0000 38.3161 0.0000
# 6 0.0000 0.0000 0.0000 0.0000 0.0000 27.3539
#
#
#
# Elastic Compliance Matrix: (Units=1/GPa)
#
#
# Indices 1 2 3 4 5 6 
#
# 1 -0.062682 0.202228 0.012182 0.000000 0.000000 0.000000
# 2 0.202228 -0.640301 0.081001 0.000000 0.000000 0.000000
# 3 0.012182 0.081001 -0.249954 0.000000 0.000000 0.000000
# 4 0.000000 0.000000 0.000000 0.076020 0.000000 0.000000
# 5 0.000000 0.000000 0.000000 0.000000 0.026099 0.000000
# 6 0.000000 0.000000 0.000000 0.000000 0.000000 0.036558
#
#
# Mechanical properties :
#
#
# Convention : Reuss Voigt Hill
#
# Bulk Modulus (GPa) = -2.76155 33.95215 15.59530
# Shear Modulus (GPa) = -3.27699 20.93669 8.82985
#
# Velocity S-wave (km/s) = -1.33999 3.38703 2.19959
# Velocity P-wave (km/s) = 1.97668 5.82234 3.87249
#
# Compressibility (1/GPa) = -0.36211497
#
# Stress axis : x y z
#
# Youngs Moduli (GPa) = -15.95349 -1.56177 -4.00073
#
# Poissons Ratio (x) = 0.31583 0.04874
# Poissons Ratio (y) = 3.22624 0.32406
# Poissons Ratio (z) = 0.19435 0.12650
#
# Static dielectric constant tensor:
#      x y z
#    x 1.686320 0.000000 0.000000 
#    y 0.000000 1.686360 0.000000 
#    z 0.000000 0.000000 1.602740 
# 
# From -- ./inp_files/5823.got.cif
#   From: 2010.05.17/outbox.ucp.g08.bks.cvg/sg59_3_cif.got.tgz:5823.got - 2010.06.11 16:43:56.
