data_PCOD9453794
_publ_section_title
;
Structure prediction by ZEFSAII (Michael W. Deem and Ramdas Pophale) SiO2 
 PCOD9453794
Probable space group: P B C N
;
_chemical_formula_sum "Si O2"
_cell_formula_units_Z 48
_cell_length_a 9.165012
_cell_length_b 31.520565
_cell_length_c 8.277437
_cell_angle_alpha 90.000000
_cell_angle_beta 90.000000
_cell_angle_gamma 90.000000
_cell_volume 2391.238616
_symmetry_space_group_name_H-M "P B C N"
_symmetry_group_IT_number 60
_symmetry_cell_setting 'orthorhombic'
loop_
_space_group_symop_operation_xyz
x,y,z
1/2-x,1/2-y,1/2+z
1/2+x,1/2-y,-z
-x,y,1/2-z
-x,-y,-z
1/2+x,1/2+y,1/2-z
1/2-x,1/2+y,z
x,-y,1/2+z
loop_
_atom_site_type_symbol
_atom_site_label
_atom_site_fract_x
_atom_site_fract_y
_atom_site_fract_z
Si Si1 0.165180 0.644103 0.188284
Si Si2 0.667296 0.030620 0.811165
Si Si3 0.166553 0.443866 0.814595
Si Si4 0.163689 0.196838 0.686912
Si Si5 0.165975 0.381931 0.314492
Si Si6 0.663153 0.276057 0.685580
O O1 0.228409 0.602904 0.282636
O O2 0.259532 0.685735 0.218458
O O3 0.000000 0.652575 0.250000
O O4 0.163289 0.631383 0.000767
O O5 0.500000 0.026155 0.750000
O O6 0.727498 0.070574 0.711238
O O7 0.733585 0.984189 0.779602
O O8 0.666094 0.043631 0.997956
O O9 0.000000 0.439148 0.750000
O O10 0.244810 0.152431 0.713577
O O11 0.163950 0.210989 0.501317
O O12 0.248361 0.232934 0.786787
O O13 0.000000 0.193505 0.750000
O O14 0.000000 0.382354 0.250000
O O15 0.500000 0.270079 0.750000
#
# Coordination Sequence:
#
# PCOD9453794 Si02
#       6
#     8   8   8   8   8   8
#     4  11  21  36  57  85 117 153 192 237 285 337
#     4  10  17  28  47  76 111 149 189 235 282 332
#     4  10  17  28  47  76 111 149 189 235 282 332
#     4  12  25  43  63  87 115 149 188 233 283 339
#     4  11  21  36  57  85 117 153 192 237 285 337
#     4  12  25  43  63  87 115 149 188 233 283 339
#
# _framework density 20.073278999999999
#
# number of rings (size 3 to 8) (size 9 to 14) (size 15 to 20)
#    0.000    1.000    0.000   13.000    0.000    0.000 
#    0.000    0.000    0.000    1.000    0.000    7.000 
#    0.000    0.000    0.000    0.000    0.000    0.000 
#
# Total GULP energy -268376.424757 kJ/mol
# GULP energy per Si atom -5591.175516 kJ/mol
# Density = 2.002759 g / cm^3
# Si number density = 20.073279 Si / 1000 Ang^3
#
#
#
# Elastic Constant Matrix: (Units=GPa)
#
#
# Indices 1 2 3 4 5 6 
#
# 1 65.8792 32.3857 -5.5912 0.0000 0.0000 0.0000
# 2 32.3857 111.9738 -41.9085 0.0000 0.0000 0.0000
# 3 -5.5912 -41.9085 64.4420 0.0000 0.0000 0.0000
# 4 0.0000 0.0000 0.0000 39.8792 0.0000 0.0000
# 5 0.0000 0.0000 0.0000 0.0000 20.6358 0.0000
# 6 0.0000 0.0000 0.0000 0.0000 0.0000 52.6027
#
#
#
# Elastic Compliance Matrix: (Units=1/GPa)
#
#
# Indices 1 2 3 4 5 6 
#
# 1 0.017973 -0.006099 -0.002407 0.000000 0.000000 0.000000
# 2 -0.006099 0.013873 0.008493 0.000000 0.000000 0.000000
# 3 -0.002407 0.008493 0.020832 0.000000 0.000000 0.000000
# 4 0.000000 0.000000 0.000000 0.025076 0.000000 0.000000
# 5 0.000000 0.000000 0.000000 0.000000 0.048459 0.000000
# 6 0.000000 0.000000 0.000000 0.000000 0.000000 0.019010
#
#
# Mechanical properties :
#
#
# Convention : Reuss Voigt Hill
#
# Bulk Modulus (GPa) = 18.99240 23.56300 21.27770
# Shear Modulus (GPa) = 30.71214 39.78415 35.24814
#
# Velocity S-wave (km/s) = 3.91577 4.45673 4.19498
# Velocity P-wave (km/s) = 5.47050 6.18444 5.83839
#
# Compressibility (1/GPa) = 0.05265264
#
# Stress axis : x y z
#
# Youngs Moduli (GPa) = 55.63789 72.08001 48.00233
#
# Poissons Ratio (x) = 0.43964 0.11555
# Poissons Ratio (y) = 0.33935 -0.40769
# Poissons Ratio (z) = 0.13393 -0.61219
#
# Static dielectric constant tensor:
#      x y z
#    x 1.679890 0.000000 0.000000 
#    y 0.000000 1.746610 0.000000 
#    z 0.000000 0.000000 1.706950 
# 
# From -- ./inp_files/4197.got.cif
#   From: 2010.05.17/outbox.cif.g08.bks.cpg/sg60_3_cif.got.tgz:4197.got - 2010.06.03 14:59:27.
