data_PCOD9453054
_publ_section_title
;
Structure prediction by ZEFSAII (Michael W. Deem and Ramdas Pophale) SiO2 
 PCOD9453054
Probable space group: P M M N
;
_chemical_formula_sum "Si O2"
_cell_formula_units_Z 48
_cell_length_a 15.104271
_cell_length_b 8.372871
_cell_length_c 20.231329
_cell_angle_alpha 90.000000
_cell_angle_beta 90.000000
_cell_angle_gamma 90.000000
_cell_volume 2558.577532
_symmetry_space_group_name_H-M "P M M N"
_symmetry_group_IT_number 59
_space_group.IT_coordinate_system_code '2'
_symmetry_cell_setting 'orthorhombic'
loop_
_space_group_symop_operation_xyz
x,y,z
1/2-x,1/2-y,z
1/2+x,-y,-z
-x,1/2+y,-z
-x,-y,-z
1/2+x,1/2+y,-z
1/2-x,y,z
x,1/2-y,z
loop_
_atom_site_type_symbol
_atom_site_label
_atom_site_fract_x
_atom_site_fract_y
_atom_site_fract_z
Si Si1 0.250000 0.444744 0.976473
Si Si2 0.943702 0.941138 0.062908
Si Si3 0.750000 0.944714 0.869456
Si Si4 0.148028 0.944572 0.441922
Si Si5 0.514539 0.059818 0.671499
Si Si6 0.560627 0.559381 0.816491
Si Si7 0.646854 0.057444 0.408959
O O1 0.250000 0.250000 0.975017
O O2 0.158004 0.498511 0.943747
O O3 0.250000 0.492034 0.053618
O O4 0.942368 0.750000 0.060607
O O5 0.991984 0.994852 0.129463
O O6 0.000000 0.000000 0.000000
O O7 0.750000 0.750000 0.868059
O O8 0.840358 0.999371 0.834787
O O9 0.250000 0.992227 0.430332
O O10 0.146384 0.750000 0.442223
O O11 0.122153 0.995088 0.516213
O O12 0.083358 0.000805 0.384382
O O13 0.523973 0.250000 0.676124
O O14 0.534554 0.988044 0.742730
O O15 0.417886 0.017295 0.644268
O O16 0.561327 0.750000 0.822242
O O17 0.750000 0.017222 0.398945
O O18 0.639347 0.250000 0.406284
#
# Coordination Sequence:
#
# PCOD9453054 Si02
#       7
#     4   8   4   8   8   8   8
#     4   9  18  36  62  86 112 145 180 225 282 332
#     4  11  21  38  62  88 116 149 188 232 280 335
#     4   9  18  36  60  84 112 149 182 221 282 332
#     4   8  16  32  55  83 114 146 183 230 283 337
#     4  11  22  35  55  84 116 150 185 230 287 339
#     4  11  23  40  59  82 116 153 190 231 276 337
#     4   9  18  36  60  81 106 147 193 235 281 335
#
# _framework density 18.760425000000001
#
# number of rings (size 3 to 8) (size 9 to 14) (size 15 to 20)
#    0.000    2.167    1.667    3.000    1.167    0.333 
#    1.500    4.583    0.000    2.000    0.000    0.000 
#    0.000    0.000    0.000    0.000    0.000    0.000 
#
# Total GULP energy -267984.563741 kJ/mol
# GULP energy per Si atom -5583.011745 kJ/mol
# Density = 1.871773 g / cm^3
# Si number density = 18.760425 Si / 1000 Ang^3
#
#
#
# Elastic Constant Matrix: (Units=GPa)
#
#
# Indices 1 2 3 4 5 6 
#
# 1 153.2408 25.2715 98.0408 0.0000 0.0000 0.0000
# 2 25.2715 25.1590 19.0726 0.0000 0.0000 0.0000
# 3 98.0408 19.0726 141.4726 0.0000 0.0000 0.0000
# 4 0.0000 0.0000 0.0000 20.2708 0.0000 0.0000
# 5 0.0000 0.0000 0.0000 0.0000 7.3679 0.0000
# 6 0.0000 0.0000 0.0000 0.0000 0.0000 20.4774
#
#
#
# Elastic Compliance Matrix: (Units=1/GPa)
#
#
# Indices 1 2 3 4 5 6 
#
# 1 0.012680 -0.006767 -0.007875 0.000000 0.000000 0.000000
# 2 -0.006767 0.047883 -0.001766 0.000000 0.000000 0.000000
# 3 -0.007875 -0.001766 0.012764 0.000000 0.000000 0.000000
# 4 0.000000 0.000000 0.000000 0.049332 0.000000 0.000000
# 5 0.000000 0.000000 0.000000 0.000000 0.135723 0.000000
# 6 0.000000 0.000000 0.000000 0.000000 0.000000 0.048834
#
#
# Mechanical properties :
#
#
# Convention : Reuss Voigt Hill
#
# Bulk Modulus (GPa) = 24.68436 67.18248 45.93342
# Shear Modulus (GPa) = 14.14286 21.45574 17.79930
#
# Velocity S-wave (km/s) = 2.74864 3.38549 3.08355
# Velocity P-wave (km/s) = 4.82282 7.15336 6.10042
#
# Compressibility (1/GPa) = 0.04051147
#
# Stress axis : x y z
#
# Youngs Moduli (GPa) = 78.86560 20.88427 78.34603
#
# Poissons Ratio (x) = 0.14132 0.61696
# Poissons Ratio (y) = 0.53366 0.13836
# Poissons Ratio (z) = 0.62106 0.03688
#
# Static dielectric constant tensor:
#      x y z
#    x 1.670580 0.000000 0.000000 
#    y 0.000000 1.649960 0.000000 
#    z 0.000000 0.000000 1.615860 
# 
# From -- ./inp_files/27486.got.cif
#   From: 2010.05.17/outbox.cif.g08.bks.cpg/sg59_14_cif.got.tgz:27486.got - 2010.06.03 14:40:33.
