data_PCOD9453835
_publ_section_title
;
Structure prediction by ZEFSAII (Michael W. Deem and Ramdas Pophale) SiO2 
 PCOD9453835
Probable space group: P B C N
;
_chemical_formula_sum "Si O2"
_cell_formula_units_Z 44
_cell_length_a 12.666242
_cell_length_b 22.986983
_cell_length_c 8.557078
_cell_angle_alpha 90.000000
_cell_angle_beta 90.000000
_cell_angle_gamma 90.000000
_cell_volume 2491.467617
_symmetry_space_group_name_H-M "P B C N"
_symmetry_group_IT_number 60
_symmetry_cell_setting 'orthorhombic'
loop_
_space_group_symop_operation_xyz
x,y,z
1/2-x,1/2-y,1/2+z
1/2+x,1/2-y,-z
-x,y,1/2-z
-x,-y,-z
1/2+x,1/2+y,1/2-z
1/2-x,1/2+y,z
x,-y,1/2+z
loop_
_atom_site_type_symbol
_atom_site_label
_atom_site_fract_x
_atom_site_fract_y
_atom_site_fract_z
Si Si1 0.713328 0.670627 0.038540
Si Si2 0.510815 0.310651 0.063955
Si Si3 0.727476 0.295522 0.900709
Si Si4 0.460434 0.822995 0.569713
Si Si5 0.500000 0.995750 0.750000
Si Si6 0.895703 0.580167 0.978825
O O1 0.719614 0.693270 0.216201
O O2 0.786773 0.614770 0.005845
O O3 0.590604 0.657378 0.006589
O O4 0.753119 0.726658 0.936772
O O5 0.500000 0.317878 0.250000
O O6 0.491326 0.242526 0.028792
O O7 0.626403 0.320433 0.992671
O O8 0.835606 0.327495 0.946945
O O9 0.500000 0.831196 0.750000
O O10 0.519666 0.868207 0.462822
O O11 0.414090 0.035928 0.662279
O O12 0.564610 0.955961 0.629400
#
# Coordination Sequence:
#
# PCOD9453835 Si02
#       6
#     8   8   8   8   4   8
#     4  11  21  33  57  76 124 149 189 225 290 341
#     4  10  21  34  50  85 118 157 189 218 272 376
#     4  11  19  33  53  85 115 164 180 219 280 372
#     4  10  17  33  55  75 121 148 178 225 287 331
#     4  10  24  34  60  78 112 138 220 234 304 318
#     4  11  20  40  53  87 107 156 182 260 278 337
#
# _framework density 17.660274000000001
#
# number of rings (size 3 to 8) (size 9 to 14) (size 15 to 20)
#    0.000    1.455    4.545    2.727    0.000    4.364 
#    0.000    0.000    0.000    0.000    0.000   31.818 
#    0.000    0.000    0.000    0.000    0.000    0.000 
#
# Total GULP energy -245350.282802 kJ/mol
# GULP energy per Si atom -5576.142791 kJ/mol
# Density = 1.762008 g / cm^3
# Si number density = 17.660274 Si / 1000 Ang^3
#
#
#
# Elastic Constant Matrix: (Units=GPa)
#
#
# Indices 1 2 3 4 5 6 
#
# 1 166.2828 31.7997 31.9913 0.0000 0.0000 0.0000
# 2 31.7997 51.4976 23.2439 0.0000 0.0000 0.0000
# 3 31.9913 23.2439 48.8069 0.0000 0.0000 0.0000
# 4 0.0000 0.0000 0.0000 -0.4729 0.0000 0.0000
# 5 0.0000 0.0000 0.0000 0.0000 19.8969 0.0000
# 6 0.0000 0.0000 0.0000 0.0000 0.0000 -3.5702
#
#
#
# Elastic Compliance Matrix: (Units=1/GPa)
#
#
# Indices 1 2 3 4 5 6 
#
# 1 0.007219 -0.002958 -0.003323 0.000000 0.000000 0.000000
# 2 -0.002958 0.025947 -0.010418 0.000000 0.000000 0.000000
# 3 -0.003323 -0.010418 0.027629 0.000000 0.000000 0.000000
# 4 0.000000 0.000000 0.000000 -2.114538 0.000000 0.000000
# 5 0.000000 0.000000 0.000000 0.000000 0.050259 0.000000
# 6 0.000000 0.000000 0.000000 0.000000 0.000000 -0.280093
#
#
# Mechanical properties :
#
#
# Convention : Reuss Voigt Hill
#
# Bulk Modulus (GPa) = 36.50129 48.96187 42.73158
# Shear Modulus (GPa) = -2.23110 15.14091 6.45491
#
# Velocity S-wave (km/s) = -1.12521 2.93122 1.91389
# Velocity P-wave (km/s) = 4.36181 6.26423 5.39749
#
# Compressibility (1/GPa) = 0.02739629
#
# Stress axis : x y z
#
# Youngs Moduli (GPa) = 138.52698 38.53978 36.19411
#
# Poissons Ratio (x) = 0.11399 0.12028
# Poissons Ratio (y) = 0.40972 0.37709
# Poissons Ratio (z) = 0.46034 0.40153
#
# Static dielectric constant tensor:
#      x y z
#    x 1.640700 0.000000 0.000000 
#    y 0.000000 1.586240 0.000000 
#    z 0.000000 0.000000 1.682500 
# 
# From -- ./inp_files/4985.got.cif
#   From: 2010.05.17/outbox.cif.g08.bks.cpg/sg60_3_cif.got.tgz:4985.got - 2010.06.03 14:59:27.
