data_PCOD9453885
_publ_section_title
;
Structure prediction by ZEFSAII (Michael W. Deem and Ramdas Pophale) SiO2 
 PCOD9453885
Probable space group: P B C N
;
_chemical_formula_sum "Si O2"
_cell_formula_units_Z 40
_cell_length_a 7.308828
_cell_length_b 15.419283
_cell_length_c 13.801981
_cell_angle_alpha 90.000000
_cell_angle_beta 90.000000
_cell_angle_gamma 90.000000
_cell_volume 1555.440298
_symmetry_space_group_name_H-M "P B C N"
_symmetry_group_IT_number 60
_symmetry_cell_setting 'orthorhombic'
loop_
_space_group_symop_operation_xyz
x,y,z
1/2-x,1/2-y,1/2+z
1/2+x,1/2-y,-z
-x,y,1/2-z
-x,-y,-z
1/2+x,1/2+y,1/2-z
1/2-x,1/2+y,z
x,-y,1/2+z
loop_
_atom_site_type_symbol
_atom_site_label
_atom_site_fract_x
_atom_site_fract_y
_atom_site_fract_z
Si Si1 0.247923 0.623298 0.945467
Si Si2 0.887094 0.892406 0.339088
Si Si3 0.263933 0.803696 0.851982
Si Si4 0.198696 0.715908 0.130100
Si Si5 0.677234 0.016159 0.191853
O O1 0.446767 0.588995 0.910407
O O2 0.187637 0.718949 0.905521
O O3 0.122330 0.553547 0.890685
O O4 0.267543 0.642761 0.057974
O O5 0.766417 0.818295 0.389981
O O6 0.788197 0.967011 0.277980
O O7 0.000000 0.846300 0.250000
O O8 0.228619 0.794858 0.737722
O O9 0.479607 0.795164 0.876224
O O10 0.222674 0.905369 0.863707
O O11 0.500000 0.050097 0.250000
#
# Coordination Sequence:
#
# PCOD9453885 Si02
#       5
#     8   8   8   8   8
#     4  10  22  39  66  92 125 169 220 272 329 381
#     4   9  18  40  64  82 130 171 204 266 329 364
#     4  10  20  42  63  89 132 173 210 265 332 395
#     4  10  17  39  68  88 120 178 216 255 330 391
#     4  11  21  37  65  93 124 175 216 266 323 397
#
# _framework density 25.716190000000001
#
# number of rings (size 3 to 8) (size 9 to 14) (size 15 to 20)
#    0.000    2.000    8.000    0.000    0.000    4.000 
#    3.600    4.000    0.000    0.000    0.000    0.000 
#    0.000    0.000    0.000    0.000    0.000    0.000 
#
# Total GULP energy -222932.859578 kJ/mol
# GULP energy per Si atom -5573.321489 kJ/mol
# Density = 2.565766 g / cm^3
# Si number density = 25.716190 Si / 1000 Ang^3
#
#
#
# Elastic Constant Matrix: (Units=GPa)
#
#
# Indices 1 2 3 4 5 6 
#
# 1 38.8577 -3.2841 1.4652 0.0000 0.0000 0.0000
# 2 -3.2841 159.7838 10.0626 0.0000 0.0000 0.0000
# 3 1.4652 10.0626 65.0648 0.0000 0.0000 0.0000
# 4 0.0000 0.0000 0.0000 16.7185 0.0000 0.0000
# 5 0.0000 0.0000 0.0000 0.0000 21.6658 0.0000
# 6 0.0000 0.0000 0.0000 0.0000 0.0000 5.7881
#
#
#
# Elastic Compliance Matrix: (Units=1/GPa)
#
#
# Indices 1 2 3 4 5 6 
#
# 1 0.025809 0.000573 -0.000670 0.000000 0.000000 0.000000
# 2 0.000573 0.006333 -0.000992 0.000000 0.000000 0.000000
# 3 -0.000670 -0.000992 0.015538 0.000000 0.000000 0.000000
# 4 0.000000 0.000000 0.000000 0.059814 0.000000 0.000000
# 5 0.000000 0.000000 0.000000 0.000000 0.046156 0.000000
# 6 0.000000 0.000000 0.000000 0.000000 0.000000 0.172769
#
#
# Mechanical properties :
#
#
# Convention : Reuss Voigt Hill
#
# Bulk Modulus (GPa) = 21.97787 31.13264 26.55525
# Shear Modulus (GPa) = 14.54487 25.86532 20.20509
#
# Velocity S-wave (km/s) = 2.38080 3.17487 2.80607
# Velocity P-wave (km/s) = 4.01528 5.05691 4.56589
#
# Compressibility (1/GPa) = 0.04550032
#
# Stress axis : x y z
#
# Youngs Moduli (GPa) = 38.74685 157.91013 64.35904
#
# Poissons Ratio (x) = -0.09042 0.04310
# Poissons Ratio (y) = -0.02219 0.06386
# Poissons Ratio (z) = 0.02595 0.15669
#
# Static dielectric constant tensor:
#      x y z
#    x 2.124750 0.000000 0.000000 
#    y 0.000000 2.135060 0.000000 
#    z 0.000000 0.000000 2.166900 
# 
# From -- ./inp_files/14661.got.cif
#   From: 2010.05.17/outbox.cif.g08.bks.cpg/sg60_8_cif.got.tgz:14661.got - 2010.06.03 14:59:27.
