data_PCOD9453136
_publ_section_title
;
Structure prediction by ZEFSAII (Michael W. Deem and Ramdas Pophale) SiO2 
 PCOD9453136
Probable space group: P M M N
;
_chemical_formula_sum "Si O2"
_cell_formula_units_Z 40
_cell_length_a 7.614555
_cell_length_b 15.080075
_cell_length_c 15.775269
_cell_angle_alpha 90.000000
_cell_angle_beta 90.000000
_cell_angle_gamma 90.000000
_cell_volume 1811.443543
_symmetry_space_group_name_H-M "P M M N"
_symmetry_group_IT_number 59
_space_group.IT_coordinate_system_code '2'
_symmetry_cell_setting 'orthorhombic'
loop_
_space_group_symop_operation_xyz
x,y,z
1/2-x,1/2-y,z
1/2+x,-y,-z
-x,1/2+y,-z
-x,-y,-z
1/2+x,1/2+y,-z
1/2-x,y,z
x,1/2-y,z
loop_
_atom_site_type_symbol
_atom_site_label
_atom_site_fract_x
_atom_site_fract_y
_atom_site_fract_z
Si Si1 0.960609 0.101651 0.270674
Si Si2 0.460807 0.400494 0.724134
Si Si3 0.958102 0.750000 0.595093
Si Si4 0.951279 0.384057 0.089627
Si Si5 0.534043 0.750000 0.402862
Si Si6 0.539492 0.090727 0.910269
O O1 0.750000 0.095539 0.259596
O O2 0.030549 0.140097 0.180844
O O3 0.992234 0.164687 0.349537
O O4 0.027826 0.001518 0.283520
O O5 0.250000 0.403584 0.717796
O O6 0.523693 0.335575 0.650759
O O7 0.503080 0.367358 0.819098
O O8 0.750000 0.750000 0.587733
O O9 0.028713 0.750000 0.499524
O O10 0.750000 0.352911 0.089035
O O11 0.956753 0.492082 0.092221
O O12 0.025397 0.362590 0.996612
O O13 0.750000 0.750000 0.403345
O O14 0.750000 0.079981 0.918334
#
# Coordination Sequence:
#
# PCOD9453136 Si02
#       6
#     8   8   4   8   4   8
#     4   9  18  34  55  77 103 138 174 205 248 309
#     4   9  18  35  57  77 102 139 174 204 251 314
#     4  11  23  37  54  77 102 130 171 223 268 303
#     4   8  15  28  47  72 104 142 174 200 244 304
#     4   9  20  39  58  75 100 134 171 213 264 319
#     4   9  15  25  46  77 108 135 168 210 248 289
#
# _framework density 22.081837
#
# number of rings (size 3 to 8) (size 9 to 14) (size 15 to 20)
#    0.000    3.000    0.000    2.100    0.000    4.800 
#    0.000    3.500    0.000    3.600    0.000    0.000 
#    0.000    0.000    0.000    0.000    0.000    0.000 
#
# Total GULP energy -223062.966102 kJ/mol
# GULP energy per Si atom -5576.574153 kJ/mol
# Density = 2.203158 g / cm^3
# Si number density = 22.081837 Si / 1000 Ang^3
#
#
#
# Elastic Constant Matrix: (Units=GPa)
#
#
# Indices 1 2 3 4 5 6 
#
# 1 53.9834 7.4233 -0.3305 0.0000 0.0000 0.0000
# 2 7.4233 105.2859 96.1572 0.0000 0.0000 0.0000
# 3 -0.3305 96.1572 271.8835 0.0000 0.0000 0.0000
# 4 0.0000 0.0000 0.0000 30.6001 0.0000 0.0000
# 5 0.0000 0.0000 0.0000 0.0000 25.6623 0.0000
# 6 0.0000 0.0000 0.0000 0.0000 0.0000 -3.2641
#
#
#
# Elastic Compliance Matrix: (Units=1/GPa)
#
#
# Indices 1 2 3 4 5 6 
#
# 1 0.018802 -0.001989 0.000726 0.000000 0.000000 0.000000
# 2 -0.001989 0.014240 -0.005039 0.000000 0.000000 0.000000
# 3 0.000726 -0.005039 0.005461 0.000000 0.000000 0.000000
# 4 0.000000 0.000000 0.000000 0.032680 0.000000 0.000000
# 5 0.000000 0.000000 0.000000 0.000000 0.038968 0.000000
# 6 0.000000 0.000000 0.000000 0.000000 0.000000 -0.306365
#
#
# Mechanical properties :
#
#
# Convention : Reuss Voigt Hill
#
# Bulk Modulus (GPa) = 38.60949 70.85031 54.72990
# Shear Modulus (GPa) = -28.57496 32.45985 1.94244
#
# Velocity S-wave (km/s) = -3.60119 3.83819 0.93892
# Velocity P-wave (km/s) = 0.48089 7.19703 5.10042
#
# Compressibility (1/GPa) = 0.02590036
#
# Stress axis : x y z
#
# Youngs Moduli (GPa) = 53.18535 70.22472 183.11793
#
# Poissons Ratio (x) = 0.13968 -0.13300
# Poissons Ratio (y) = 0.10579 0.92267
# Poissons Ratio (z) = -0.03863 0.35384
#
# Static dielectric constant tensor:
#      x y z
#    x 1.801650 0.000000 0.000000 
#    y 0.000000 1.863650 0.000000 
#    z 0.000000 0.000000 1.847510 
# 
# From -- ./inp_files/19983.got.cif
#   From: 2010.05.17/outbox.cif.g08.bks.cpg/sg59_10_cif.got.tgz:19983.got - 2010.06.03 14:40:33.
