data_PCOD9453250
_publ_section_title
;
Structure prediction by ZEFSAII (Michael W. Deem and Ramdas Pophale) SiO2 
 PCOD9453250
Probable space group: P M M N
;
_chemical_formula_sum "Si O2"
_cell_formula_units_Z 48
_cell_length_a 14.741222
_cell_length_b 7.425932
_cell_length_c 22.016456
_cell_angle_alpha 90.000000
_cell_angle_beta 90.000000
_cell_angle_gamma 90.000000
_cell_volume 2410.082262
_symmetry_space_group_name_H-M "P M M N"
_symmetry_group_IT_number 59
_space_group.IT_coordinate_system_code '2'
_symmetry_cell_setting 'orthorhombic'
loop_
_space_group_symop_operation_xyz
x,y,z
1/2-x,1/2-y,z
1/2+x,-y,-z
-x,1/2+y,-z
-x,-y,-z
1/2+x,1/2+y,-z
1/2-x,y,z
x,1/2-y,z
loop_
_atom_site_type_symbol
_atom_site_label
_atom_site_fract_x
_atom_site_fract_y
_atom_site_fract_z
Si Si1 0.499973 0.469525 0.735478
Si Si2 0.501757 0.034906 0.597743
Si Si3 0.853334 0.530104 0.166619
Si Si4 0.999954 0.535274 0.071149
Si Si5 0.647053 0.466011 0.500122
Si Si6 0.146705 0.530177 0.166418
O O1 0.499270 0.250000 0.734519
O O2 0.500819 0.533952 0.666400
O O3 0.411972 0.523832 0.774534
O O4 0.588030 0.522708 0.774666
O O5 0.513488 0.250000 0.601499
O O6 0.583649 0.965303 0.555218
O O7 0.408709 0.002727 0.561331
O O8 0.750000 0.467980 0.166908
O O9 0.851404 0.750000 0.166328
O O10 0.911259 0.470918 0.107832
O O11 0.999999 0.750000 0.078388
O O12 0.088725 0.470735 0.107720
O O13 0.000000 0.500000 0.000000
O O14 0.750000 0.534307 0.500084
O O15 0.651437 0.250000 0.506234
O O16 0.250000 0.467790 0.166803
O O17 0.148782 0.750000 0.166044
#
# Coordination Sequence:
#
# PCOD9453250 Si02
#       6
#     8   8   8   8   8   8
#     4   8  14  24  40  63  85 105 135 174 212 246
#     4   9  17  29  46  68  89 110 144 186 218 249
#     4   8  14  25  40  59  84 109 132 164 206 246
#     4   9  17  28  42  61  83 108 138 168 201 243
#     4   9  18  31  44  61  90 123 147 171 212 263
#     4   8  14  25  41  62  87 110 133 168 213 254
#
# _framework density 19.916332000000001
#
# number of rings (size 3 to 8) (size 9 to 14) (size 15 to 20)
#    0.000    3.500    0.000    2.000    0.000    2.333 
#    0.000    5.000    0.000    4.000    0.000    0.000 
#    0.000    0.000    0.000    0.000    0.000    0.000 
#
# Total GULP energy -267621.669079 kJ/mol
# GULP energy per Si atom -5575.451439 kJ/mol
# Density = 1.987100 g / cm^3
# Si number density = 19.916332 Si / 1000 Ang^3
#
#
#
# Elastic Constant Matrix: (Units=GPa)
#
#
# Indices 1 2 3 4 5 6 
#
# 1 231.0710 5.8427 130.3324 0.0000 0.0000 0.0000
# 2 5.8427 61.6554 3.4840 0.0000 0.0000 0.0000
# 3 130.3324 3.4840 218.9294 0.0000 0.0000 0.0000
# 4 0.0000 0.0000 0.0000 13.2036 0.0000 0.0000
# 5 0.0000 0.0000 0.0000 0.0000 7.4514 0.0000
# 6 0.0000 0.0000 0.0000 0.0000 0.0000 0.7317
#
#
#
# Elastic Compliance Matrix: (Units=1/GPa)
#
#
# Indices 1 2 3 4 5 6 
#
# 1 0.006525 -0.000399 -0.003878 0.000000 0.000000 0.000000
# 2 -0.000399 0.016258 -0.000021 0.000000 0.000000 0.000000
# 3 -0.003878 -0.000021 0.006877 0.000000 0.000000 0.000000
# 4 0.000000 0.000000 0.000000 0.075737 0.000000 0.000000
# 5 0.000000 0.000000 0.000000 0.000000 0.134203 0.000000
# 6 0.000000 0.000000 0.000000 0.000000 0.000000 1.366662
#
#
# Mechanical properties :
#
#
# Convention : Reuss Voigt Hill
#
# Bulk Modulus (GPa) = 47.47618 87.88601 67.68110
# Shear Modulus (GPa) = 3.08284 29.07712 16.07998
#
# Velocity S-wave (km/s) = 1.24549 3.82509 2.84452
# Velocity P-wave (km/s) = 5.09489 7.98322 6.69663
#
# Compressibility (1/GPa) = 0.02106319
#
# Stress axis : x y z
#
# Youngs Moduli (GPa) = 153.25129 61.50747 145.41658
#
# Poissons Ratio (x) = 0.02455 0.56396
# Poissons Ratio (y) = 0.06118 0.00306
# Poissons Ratio (z) = 0.59434 0.00130
#
# Static dielectric constant tensor:
#      x y z
#    x 1.678960 0.000000 0.000000 
#    y 0.000000 1.775330 0.000000 
#    z 0.000000 0.000000 1.681830 
# 
# From -- ./inp_files/26957.got.cif
#   From: 2010.05.17/outbox.cif.g08.bks.cpg/sg59_14_cif.got.tgz:26957.got - 2010.06.03 14:40:33.
