data_PCOD9453882
_publ_section_title
;
Structure prediction by ZEFSAII (Michael W. Deem and Ramdas Pophale) SiO2 
 PCOD9453882
Probable space group: P B C N
;
_chemical_formula_sum "Si O2"
_cell_formula_units_Z 40
_cell_length_a 11.430901
_cell_length_b 8.512836
_cell_length_c 14.472103
_cell_angle_alpha 90.000000
_cell_angle_beta 90.000000
_cell_angle_gamma 90.000000
_cell_volume 1408.271450
_symmetry_space_group_name_H-M "P B C N"
_symmetry_group_IT_number 60
_symmetry_cell_setting 'orthorhombic'
loop_
_space_group_symop_operation_xyz
x,y,z
1/2-x,1/2-y,1/2+z
1/2+x,1/2-y,-z
-x,y,1/2-z
-x,-y,-z
1/2+x,1/2+y,1/2-z
1/2-x,1/2+y,z
x,-y,1/2+z
loop_
_atom_site_type_symbol
_atom_site_label
_atom_site_fract_x
_atom_site_fract_y
_atom_site_fract_z
Si Si1 0.704362 0.987009 0.961976
Si Si2 0.514997 0.817024 0.553704
Si Si3 0.000000 0.759016 0.750000
Si Si4 0.742108 0.325999 0.771047
Si Si5 0.500000 0.833153 0.750000
Si Si6 0.608188 0.513518 0.114212
O O1 0.818222 0.019089 0.021142
O O2 0.618834 0.133529 0.985887
O O3 0.610952 0.849684 0.991118
O O4 0.748265 0.926762 0.863810
O O5 0.512253 0.920185 0.650390
O O6 0.538308 0.647730 0.596756
O O7 0.984805 0.866163 0.657350
O O8 0.866585 0.703462 0.765042
O O9 0.871878 0.254899 0.759587
O O10 0.710667 0.445654 0.688297
#
# Coordination Sequence:
#
# PCOD9453882 Si02
#       6
#     8   8   4   8   4   8
#     4  10  21  38  61  93 121 162 221 255 306 379
#     4  10  20  36  61  88 121 166 209 259 315 371
#     4   8  19  36  56  89 118 164 195 250 324 363
#     4   9  20  37  61  89 122 166 206 256 316 366
#     4  10  17  38  66  81 118 168 209 262 300 385
#     4  10  20  39  58  90 127 159 208 259 317 375
#
# _framework density 28.403616
#
# number of rings (size 3 to 8) (size 9 to 14) (size 15 to 20)
#    1.200    1.200    2.000    0.600    0.000    2.400 
#    3.600    2.000    0.000    4.800    0.000    0.000 
#    0.000    0.000    0.000    0.000    0.000    0.000 
#
# Total GULP energy -222836.819346 kJ/mol
# GULP energy per Si atom -5570.920484 kJ/mol
# Density = 2.833897 g / cm^3
# Si number density = 28.403616 Si / 1000 Ang^3
#
#
#
# Elastic Constant Matrix: (Units=GPa)
#
#
# Indices 1 2 3 4 5 6 
#
# 1 246.8746 51.2820 37.7263 0.0000 0.0000 0.0000
# 2 51.2820 73.0737 20.1995 0.0000 0.0000 0.0000
# 3 37.7263 20.1995 87.5630 0.0000 0.0000 0.0000
# 4 0.0000 0.0000 0.0000 20.9522 0.0000 0.0000
# 5 0.0000 0.0000 0.0000 0.0000 55.5333 0.0000
# 6 0.0000 0.0000 0.0000 0.0000 0.0000 25.2296
#
#
#
# Elastic Compliance Matrix: (Units=1/GPa)
#
#
# Indices 1 2 3 4 5 6 
#
# 1 0.004899 -0.003049 -0.001407 0.000000 0.000000 0.000000
# 2 -0.003049 0.016515 -0.002496 0.000000 0.000000 0.000000
# 3 -0.001407 -0.002496 0.012603 0.000000 0.000000 0.000000
# 4 0.000000 0.000000 0.000000 0.047728 0.000000 0.000000
# 5 0.000000 0.000000 0.000000 0.000000 0.018007 0.000000
# 6 0.000000 0.000000 0.000000 0.000000 0.000000 0.039636
#
#
# Mechanical properties :
#
#
# Convention : Reuss Voigt Hill
#
# Bulk Modulus (GPa) = 49.72333 69.54742 59.63537
# Shear Modulus (GPa) = 31.25087 40.22993 35.74040
#
# Velocity S-wave (km/s) = 3.32059 3.76755 3.55111
# Velocity P-wave (km/s) = 5.67853 6.59276 6.15265
#
# Compressibility (1/GPa) = 0.02011128
#
# Stress axis : x y z
#
# Youngs Moduli (GPa) = 204.12020 60.55272 79.34929
#
# Poissons Ratio (x) = 0.18463 0.11167
# Poissons Ratio (y) = 0.62237 0.19805
# Poissons Ratio (z) = 0.28728 0.15114
#
# Static dielectric constant tensor:
#      x y z
#    x 2.112150 0.000000 0.000000 
#    y 0.000000 2.377270 0.000000 
#    z 0.000000 0.000000 2.247770 
# 
# From -- ./inp_files/15954.got.cif
#   From: 2010.05.17/outbox.cif.g08.bks.cpg/sg60_8_cif.got.tgz:15954.got - 2010.06.03 14:59:27.
