data_PCOD9453202
_publ_section_title
;
Structure prediction by ZEFSAII (Michael W. Deem and Ramdas Pophale) SiO2 
 PCOD9453202
Probable space group: P M M N
;
_chemical_formula_sum "Si O2"
_cell_formula_units_Z 64
_cell_length_a 19.429567
_cell_length_b 7.360126
_cell_length_c 21.706745
_cell_angle_alpha 90.000000
_cell_angle_beta 90.000000
_cell_angle_gamma 90.000000
_cell_volume 3104.152691
_symmetry_space_group_name_H-M "P M M N"
_symmetry_group_IT_number 59
_space_group.IT_coordinate_system_code '2'
_symmetry_cell_setting 'orthorhombic'
loop_
_space_group_symop_operation_xyz
x,y,z
1/2-x,1/2-y,z
1/2+x,-y,-z
-x,1/2+y,-z
-x,-y,-z
1/2+x,1/2+y,-z
1/2-x,y,z
x,1/2-y,z
loop_
_atom_site_type_symbol
_atom_site_label
_atom_site_fract_x
_atom_site_fract_y
_atom_site_fract_z
Si Si1 0.582064 0.037164 0.749309
Si Si2 0.670159 0.027794 0.132078
Si Si3 0.089676 0.536339 0.616620
Si Si4 0.577937 0.030307 0.245812
Si Si5 0.169875 0.972375 0.136204
Si Si6 0.833445 0.464234 0.997860
Si Si7 0.070806 0.969422 0.388324
Si Si8 0.170763 0.972390 0.497883
O O1 0.599893 0.250000 0.745436
O O2 0.626583 0.962540 0.805499
O O3 0.590835 0.963108 0.680055
O O4 0.501404 0.020082 0.763924
O O5 0.750000 0.975402 0.139249
O O6 0.669036 0.250000 0.131030
O O7 0.625144 0.967557 0.189762
O O8 0.644300 0.964676 0.064663
O O9 0.105073 0.750000 0.620422
O O10 0.098681 0.463191 0.685939
O O11 0.137090 0.464241 0.562015
O O12 0.008897 0.517860 0.600117
O O13 0.581252 0.250000 0.247138
O O14 0.250000 0.021690 0.142741
O O15 0.167387 0.750000 0.134787
O O16 0.143946 0.035709 0.068804
O O17 0.750000 0.479355 0.997810
O O18 0.849876 0.250000 0.997972
O O19 0.072972 0.750000 0.386961
O O20 0.122289 0.030967 0.441464
O O21 0.250000 0.027404 0.491422
O O22 0.169647 0.750000 0.497880
#
# Coordination Sequence:
#
# PCOD9453202 Si02
#       8
#     8   8   8   8   8   8   8   8
#     4   9  17  28  42  61  84 108 134 165 200 238
#     4   8  13  22  38  59  80 103 134 170 203 235
#     4   9  17  29  45  62  81 109 139 164 195 238
#     4   9  17  28  42  61  84 108 134 165 200 238
#     4   8  13  22  38  59  80 103 134 170 203 235
#     4   7  10  18  33  54  79 103 128 163 204 238
#     4   9  17  29  45  62  81 109 139 164 195 238
#     4   9  17  28  43  65  88 105 128 168 210 239
#
# _framework density 20.617543999999999
#
# number of rings (size 3 to 8) (size 9 to 14) (size 15 to 20)
#    0.000    3.500    0.000    1.875    0.000    1.000 
#    0.000    5.625    0.000    2.250    0.000    7.000 
#    0.000    3.000    0.000    0.000    0.000    0.000 
#
# Total GULP energy -356755.237545 kJ/mol
# GULP energy per Si atom -5574.300587 kJ/mol
# Density = 2.057062 g / cm^3
# Si number density = 20.617544 Si / 1000 Ang^3
#
#
#
# Elastic Constant Matrix: (Units=GPa)
#
#
# Indices 1 2 3 4 5 6 
#
# 1 36.3419 -15.8651 55.3901 0.0000 0.0000 0.0000
# 2 -15.8651 70.7600 -7.9524 0.0000 0.0000 0.0000
# 3 55.3901 -7.9524 136.9547 0.0000 0.0000 0.0000
# 4 0.0000 0.0000 0.0000 -1.7171 0.0000 0.0000
# 5 0.0000 0.0000 0.0000 0.0000 39.3866 0.0000
# 6 0.0000 0.0000 0.0000 0.0000 0.0000 11.8711
#
#
#
# Elastic Compliance Matrix: (Units=1/GPa)
#
#
# Indices 1 2 3 4 5 6 
#
# 1 0.085735 0.015426 -0.033779 0.000000 0.000000 0.000000
# 2 0.015426 0.017001 -0.005252 0.000000 0.000000 0.000000
# 3 -0.033779 -0.005252 0.020658 0.000000 0.000000 0.000000
# 4 0.000000 0.000000 0.000000 -0.582383 0.000000 0.000000
# 5 0.000000 0.000000 0.000000 0.000000 0.025389 0.000000
# 6 0.000000 0.000000 0.000000 0.000000 0.000000 0.084238
#
#
# Mechanical properties :
#
#
# Convention : Reuss Voigt Hill
#
# Bulk Modulus (GPa) = 13.12596 34.13353 23.62974
# Shear Modulus (GPa) = -18.06634 24.07372 3.00369
#
# Velocity S-wave (km/s) = -2.96338 3.42077 1.20831
# Velocity P-wave (km/s) = 2.30838 5.67395 3.66505
#
# Compressibility (1/GPa) = 0.07618491
#
# Stress axis : x y z
#
# Youngs Moduli (GPa) = 11.66390 58.82080 48.40673
#
# Poissons Ratio (x) = -0.90739 1.63512
# Poissons Ratio (y) = -0.17993 0.25423
# Poissons Ratio (z) = 0.39399 0.30892
#
# Static dielectric constant tensor:
#      x y z
#    x 1.665710 0.000000 0.000000 
#    y 0.000000 1.799590 0.000000 
#    z 0.000000 0.000000 1.765400 
# 
# From -- ./inp_files/30860.got.cif
#   From: 2010.05.17/outbox.cif.g08.bks.cpg/sg59_16_cif.got.tgz:30860.got - 2010.06.03 14:40:33.
