data_PCOD9453907
_publ_section_title
;
Structure prediction by ZEFSAII (Michael W. Deem and Ramdas Pophale) SiO2 
 PCOD9453907
Probable space group: P B C N
;
_chemical_formula_sum "Si O2"
_cell_formula_units_Z 52
_cell_length_a 14.441457
_cell_length_b 26.633557
_cell_length_c 8.999378
_cell_angle_alpha 90.000000
_cell_angle_beta 90.000000
_cell_angle_gamma 90.000000
_cell_volume 3461.407075
_symmetry_space_group_name_H-M "P B C N"
_symmetry_group_IT_number 60
_symmetry_cell_setting 'orthorhombic'
loop_
_space_group_symop_operation_xyz
x,y,z
1/2-x,1/2-y,1/2+z
1/2+x,1/2-y,-z
-x,y,1/2-z
-x,-y,-z
1/2+x,1/2+y,1/2-z
1/2-x,1/2+y,z
x,-y,1/2+z
loop_
_atom_site_type_symbol
_atom_site_label
_atom_site_fract_x
_atom_site_fract_y
_atom_site_fract_z
Si Si1 0.097738 0.022255 0.945254
Si Si2 0.598813 0.787792 0.698704
Si Si3 0.886406 0.931621 0.751904
Si Si4 0.938260 0.753929 0.883693
Si Si5 0.407467 0.307010 0.079367
Si Si6 0.701072 0.676927 0.201603
Si Si7 0.500000 0.603438 0.750000
O O1 0.070452 0.066809 0.834331
O O2 0.142227 0.974467 0.865618
O O3 0.143084 0.046649 0.088598
O O4 0.000000 0.000000 0.000000
O O5 0.500000 0.809806 0.750000
O O6 0.595263 0.779651 0.521012
O O7 0.603747 0.734491 0.790204
O O8 0.690719 0.818396 0.735836
O O9 0.841736 0.878027 0.723995
O O10 0.000000 0.926691 0.750000
O O11 0.855748 0.784568 0.806372
O O12 0.000000 0.730318 0.750000
O O13 0.009103 0.791087 0.969130
O O14 0.439421 0.359869 0.146751
O O15 0.319956 0.309215 0.970479
#
# Coordination Sequence:
#
# PCOD9453907 Si02
#       7
#     8   8   8   8   8   8   4
#     4  10  18  29  44  68 101 128 159 190 239 297
#     4  10  20  35  47  70  98 132 170 214 240 281
#     4  10  19  31  45  71 101 132 157 197 242 298
#     4   9  17  32  48  69  96 129 160 197 242 295
#     4  10  19  30  49  70 102 131 165 196 243 299
#     4  11  20  30  50  71  98 134 172 199 245 294
#     4  12  16  28  50  66  98 138 154 188 244 298
#
# _framework density 15.022792000000001
#
# number of rings (size 3 to 8) (size 9 to 14) (size 15 to 20)
#    0.000    1.846    4.615    5.077    0.000    0.000 
#    0.000    0.000    0.000    0.000    0.000    1.077 
#    0.000    0.000    0.000    0.000    0.000    0.000 
#
# Total GULP energy -289539.020241 kJ/mol
# GULP energy per Si atom -5568.058082 kJ/mol
# Density = 1.498860 g / cm^3
# Si number density = 15.022792 Si / 1000 Ang^3
#
#
#
# Elastic Constant Matrix: (Units=GPa)
#
#
# Indices 1 2 3 4 5 6 
#
# 1 79.4181 27.9398 22.5486 0.0000 0.0000 0.0000
# 2 27.9398 45.2673 19.5219 0.0000 0.0000 0.0000
# 3 22.5486 19.5219 88.4100 0.0000 0.0000 0.0000
# 4 0.0000 0.0000 0.0000 16.3976 0.0000 0.0000
# 5 0.0000 0.0000 0.0000 0.0000 12.4714 0.0000
# 6 0.0000 0.0000 0.0000 0.0000 0.0000 7.1096
#
#
#
# Elastic Compliance Matrix: (Units=1/GPa)
#
#
# Indices 1 2 3 4 5 6 
#
# 1 0.016449 -0.009221 -0.002159 0.000000 0.000000 0.000000
# 2 -0.009221 0.029586 -0.004181 0.000000 0.000000 0.000000
# 3 -0.002159 -0.004181 0.012785 0.000000 0.000000 0.000000
# 4 0.000000 0.000000 0.000000 0.060984 0.000000 0.000000
# 5 0.000000 0.000000 0.000000 0.000000 0.080183 0.000000
# 6 0.000000 0.000000 0.000000 0.000000 0.000000 0.140654
#
#
# Mechanical properties :
#
#
# Convention : Reuss Voigt Hill
#
# Bulk Modulus (GPa) = 36.10563 39.23511 37.67037
# Shear Modulus (GPa) = 13.12350 16.73474 14.92912
#
# Velocity S-wave (km/s) = 2.95883 3.34122 3.15582
# Velocity P-wave (km/s) = 5.97988 6.40771 6.19749
#
# Compressibility (1/GPa) = 0.02769651
#
# Stress axis : x y z
#
# Youngs Moduli (GPa) = 60.79496 33.80015 78.21793
#
# Poissons Ratio (x) = 0.31168 0.16887
# Poissons Ratio (y) = 0.56061 0.32703
# Poissons Ratio (z) = 0.13126 0.14132
#
# Static dielectric constant tensor:
#      x y z
#    x 1.494320 0.000000 0.000000 
#    y 0.000000 1.489390 0.000000 
#    z 0.000000 0.000000 1.559660 
# 
# From -- ./inp_files/6349.got.cif
#   From: 2010.05.17/outbox.cif.g08.bks.cpg/sg60_4_cif.got.tgz:6349.got - 2010.06.03 14:59:27.
