data_PCOD9453553
_publ_section_title
;
Structure prediction by ZEFSAII (Michael W. Deem and Ramdas Pophale) SiO2 
 PCOD9453553
Probable space group: P M M N
;
_chemical_formula_sum "Si O2"
_cell_formula_units_Z 56
_cell_length_a 21.000000
_cell_length_b 9.000000
_cell_length_c 15.000000
_cell_angle_alpha 90.000000
_cell_angle_beta 90.000000
_cell_angle_gamma 90.000000
_cell_volume 2835.000000
_symmetry_space_group_name_H-M "P M M N"
_symmetry_group_IT_number 59
_space_group.IT_coordinate_system_code '2'
_symmetry_cell_setting 'orthorhombic'
loop_
_space_group_symop_operation_xyz
x,y,z
1/2-x,1/2-y,z
1/2+x,-y,-z
-x,1/2+y,-z
-x,-y,-z
1/2+x,1/2+y,-z
1/2-x,y,z
x,1/2-y,z
loop_
_atom_site_type_symbol
_atom_site_label
_atom_site_fract_x
_atom_site_fract_y
_atom_site_fract_z
Si Si1 0.326166 0.921036 0.747844
Si Si2 0.250000 0.075414 0.287753
Si Si3 0.250000 0.423094 0.072989
Si Si4 0.382924 0.928205 0.050010
Si Si5 0.826154 0.926900 0.439550
Si Si6 0.957114 0.070340 0.773205
Si Si7 0.418163 0.072347 0.874761
Si Si8 0.871021 0.429424 0.617369
O O1 0.250000 0.921139 0.752513
O O2 0.348091 0.750000 0.752291
O O3 0.343393 0.996831 0.653830
O O4 0.354380 0.015765 0.828186
O O5 0.250000 0.250000 0.314965
O O6 0.250000 0.069141 0.180901
O O7 0.188975 0.991839 0.327183
O O8 0.250000 0.250000 0.046981
O O9 0.187214 0.505523 0.040038
O O10 0.382641 0.750000 0.044832
O O11 0.424393 0.995873 0.970415
O O12 0.409369 0.973368 0.147022
O O13 0.750000 0.952644 0.455395
O O14 0.835829 0.750000 0.435041
O O15 0.864866 0.998931 0.520418
O O16 0.956995 0.250000 0.771515
O O17 0.931900 0.023844 0.676748
O O18 0.026147 0.024172 0.806896
O O19 0.419682 0.250000 0.884838
O O20 0.868030 0.250000 0.611564
#
# Coordination Sequence:
#
# PCOD9453553 Si02
#       8
#     8   4   4   8   8   8   8   8
#     4  10  22  41  63  87 114 148 195 245 295 350
#     4  11  21  33  51  82 121 154 191 241 291 340
#     4  11  23  37  55  86 121 154 193 243 297 342
#     4  11  22  39  61  86 118 156 199 242 291 347
#     4  10  20  35  57  88 122 151 187 240 297 347
#     4   9  21  39  59  85 118 158 198 240 286 343
#     4  11  23  41  62  85 116 153 198 245 294 345
#     4  11  20  34  58  86 118 158 197 233 286 348
#
# _framework density 19.753086
#
# number of rings (size 3 to 8) (size 9 to 14) (size 15 to 20)
#    0.000    1.571    2.143    3.000    1.000    2.000 
#    0.000    5.714    0.000    0.000    0.000    0.000 
#    0.000    0.000    0.000    0.000    0.000    0.000 
#
# Total GULP energy -312822.818879 kJ/mol
# GULP energy per Si atom -5586.121766 kJ/mol
# Density = 1.970813 g / cm^3
# Si number density = 19.753086 Si / 1000 Ang^3
#
#
#
# Elastic Constant Matrix: (Units=GPa)
#
#
# Indices 1 2 3 4 5 6 
#
# 1 29.8956 16.3738 9.6661 0.0000 0.0000 0.0000
# 2 16.3738 84.1160 19.4048 0.0000 0.0000 0.0000
# 3 9.6661 19.4048 71.8856 0.0000 0.0000 0.0000
# 4 0.0000 0.0000 0.0000 32.2044 0.0000 0.0000
# 5 0.0000 0.0000 0.0000 0.0000 -18.1016 0.0000
# 6 0.0000 0.0000 0.0000 0.0000 0.0000 11.9797
#
#
#
# Elastic Compliance Matrix: (Units=1/GPa)
#
#
# Indices 1 2 3 4 5 6 
#
# 1 0.038177 -0.006662 -0.003335 0.000000 0.000000 0.000000
# 2 -0.006662 0.013840 -0.002840 0.000000 0.000000 0.000000
# 3 -0.003335 -0.002840 0.015126 0.000000 0.000000 0.000000
# 4 0.000000 0.000000 0.000000 0.031052 0.000000 0.000000
# 5 0.000000 0.000000 0.000000 0.000000 -0.055244 0.000000
# 6 0.000000 0.000000 0.000000 0.000000 0.000000 0.083475
#
#
# Mechanical properties :
#
#
# Convention : Reuss Voigt Hill
#
# Bulk Modulus (GPa) = 24.11463 30.75405 27.43434
# Shear Modulus (GPa) = 30.13434 14.58000 22.35717
#
# Velocity S-wave (km/s) = 3.91007 2.71977 3.36792
# Velocity P-wave (km/s) = 5.71134 5.04638 5.38912
#
# Compressibility (1/GPa) = 0.04146861
#
# Stress axis : x y z
#
# Youngs Moduli (GPa) = 26.19390 72.25235 66.11073
#
# Poissons Ratio (x) = 0.48135 0.22048
# Poissons Ratio (y) = 0.17450 0.18777
# Poissons Ratio (z) = 0.08736 0.20522
#
# Static dielectric constant tensor:
#      x y z
#    x 1.721500 0.000000 0.000000 
#    y 0.000000 1.655480 0.000000 
#    z 0.000000 0.000000 1.689720 
# 
# From -- ./inp_files/24378.got.cif
#   From: 2010.05.17/outbox.ucp.g08.bks.cvg/sg59_13_cif.got.tgz:24378.got - 2010.06.11 16:43:56.
