data_PCOD9453182
_publ_section_title
;
Structure prediction by ZEFSAII (Michael W. Deem and Ramdas Pophale) SiO2 
 PCOD9453182
Probable space group: P M M N
;
_chemical_formula_sum "Si O2"
_cell_formula_units_Z 32
_cell_length_a 12.133221
_cell_length_b 13.955886
_cell_length_c 10.196200
_cell_angle_alpha 90.000000
_cell_angle_beta 90.000000
_cell_angle_gamma 90.000000
_cell_volume 1726.521007
_symmetry_space_group_name_H-M "P M M N"
_symmetry_group_IT_number 59
_space_group.IT_coordinate_system_code '2'
_symmetry_cell_setting 'orthorhombic'
loop_
_space_group_symop_operation_xyz
x,y,z
1/2-x,1/2-y,z
1/2+x,-y,-z
-x,1/2+y,-z
-x,-y,-z
1/2+x,1/2+y,-z
1/2-x,y,z
x,1/2-y,z
loop_
_atom_site_type_symbol
_atom_site_label
_atom_site_fract_x
_atom_site_fract_y
_atom_site_fract_z
Si Si1 0.750000 0.134505 0.718391
Si Si2 0.022262 0.565541 0.873484
Si Si3 0.118431 0.250000 0.529846
Si Si4 0.250000 0.636846 0.979291
Si Si5 0.986915 0.433161 0.624970
Si Si6 0.617439 0.750000 0.786072
O O1 0.750000 0.250000 0.717278
O O2 0.639284 0.098504 0.648800
O O3 0.750000 0.098635 0.870258
O O4 0.142260 0.607916 0.900439
O O5 0.020906 0.495154 0.750158
O O6 0.938216 0.654142 0.847374
O O7 0.000000 0.500000 0.000000
O O8 0.250000 0.250000 0.546321
O O9 0.096429 0.250000 0.372003
O O10 0.062812 0.341569 0.597581
O O11 0.250000 0.750000 0.994528
O O12 0.000000 0.500000 0.500000
O O13 0.750000 0.750000 0.805568
#
# Coordination Sequence:
#
# PCOD9453182 Si02
#       6
#     4   8   4   4   8   4
#     4  11  24  45  71  96 139 183 230 288 343 404
#     4  12  26  44  71 104 139 181 232 280 348 412
#     4  11  26  48  67 102 144 179 230 287 346 411
#     4  11  24  45  69  98 141 183 230 288 341 404
#     4  12  26  44  72 104 137 183 230 283 348 409
#     4  11  26  48  71 100 142 183 226 285 346 415
#
# _framework density 18.534382000000001
#
# number of rings (size 3 to 8) (size 9 to 14) (size 15 to 20)
#    0.000    0.500    7.500    0.000    7.000    1.000 
#    0.000    3.750    0.000    0.000    0.000    0.000 
#    0.000    0.000    0.000    0.000    0.000    0.000 
#
# Total GULP energy -178839.340989 kJ/mol
# GULP energy per Si atom -5588.729406 kJ/mol
# Density = 1.849220 g / cm^3
# Si number density = 18.534382 Si / 1000 Ang^3
#
#
#
# Elastic Constant Matrix: (Units=GPa)
#
#
# Indices 1 2 3 4 5 6 
#
# 1 186.2828 84.4682 81.1582 0.0000 0.0000 0.0000
# 2 84.4682 165.0054 93.8751 0.0000 0.0000 0.0000
# 3 81.1582 93.8751 167.2163 0.0000 0.0000 0.0000
# 4 0.0000 0.0000 0.0000 44.2618 0.0000 0.0000
# 5 0.0000 0.0000 0.0000 0.0000 35.6861 0.0000
# 6 0.0000 0.0000 0.0000 0.0000 0.0000 39.4113
#
#
#
# Elastic Compliance Matrix: (Units=1/GPa)
#
#
# Indices 1 2 3 4 5 6 
#
# 1 0.007495 -0.002597 -0.002180 0.000000 0.000000 0.000000
# 2 -0.002597 0.009804 -0.004244 0.000000 0.000000 0.000000
# 3 -0.002180 -0.004244 0.009421 0.000000 0.000000 0.000000
# 4 0.000000 0.000000 0.000000 0.022593 0.000000 0.000000
# 5 0.000000 0.000000 0.000000 0.000000 0.028022 0.000000
# 6 0.000000 0.000000 0.000000 0.000000 0.000000 0.025373
#
#
# Mechanical properties :
#
#
# Convention : Reuss Voigt Hill
#
# Bulk Modulus (GPa) = 115.21687 115.27861 115.24774
# Shear Modulus (GPa) = 40.43911 41.13869 40.78890
#
# Velocity S-wave (km/s) = 4.67609 4.71636 4.69627
# Velocity P-wave (km/s) = 9.56312 9.59119 9.57716
#
# Compressibility (1/GPa) = 0.00867928
#
# Stress axis : x y z
#
# Youngs Moduli (GPa) = 133.41433 101.99929 106.14822
#
# Poissons Ratio (x) = 0.26486 0.23142
# Poissons Ratio (y) = 0.34643 0.45046
# Poissons Ratio (z) = 0.29086 0.43285
#
# Static dielectric constant tensor:
#      x y z
#    x 1.606590 0.000000 0.000000 
#    y 0.000000 1.725370 0.000000 
#    z 0.000000 0.000000 1.620530 
# 
# From -- ./inp_files/6883.got.cif
#   From: 2010.05.17/outbox.cif.g08.bks.cpg/sg59_4_cif.got.tgz:6883.got - 2010.06.03 14:40:33.
