data_PCOD9453230
_publ_section_title
;
Structure prediction by ZEFSAII (Michael W. Deem and Ramdas Pophale) SiO2 
 PCOD9453230
Probable space group: P M M N
;
_chemical_formula_sum "Si O2"
_cell_formula_units_Z 64
_cell_length_a 22.030153
_cell_length_b 29.397846
_cell_length_c 7.486884
_cell_angle_alpha 90.000000
_cell_angle_beta 90.000000
_cell_angle_gamma 90.000000
_cell_volume 4848.798406
_symmetry_space_group_name_H-M "P M M N"
_symmetry_group_IT_number 59
_space_group.IT_coordinate_system_code '2'
_symmetry_cell_setting 'orthorhombic'
loop_
_space_group_symop_operation_xyz
x,y,z
1/2-x,1/2-y,z
1/2+x,-y,-z
-x,1/2+y,-z
-x,-y,-z
1/2+x,1/2+y,-z
1/2-x,y,z
x,1/2-y,z
loop_
_atom_site_type_symbol
_atom_site_label
_atom_site_fract_x
_atom_site_fract_y
_atom_site_fract_z
Si Si1 0.679187 0.977831 0.210608
Si Si2 0.597745 0.481530 0.500000
Si Si3 0.820813 0.522169 0.789393
Si Si4 0.819318 0.801596 0.782450
Si Si5 0.518195 0.574326 0.500000
Si Si6 0.398450 0.386751 0.787989
Si Si7 0.180682 0.301596 0.782450
Si Si8 0.898450 0.886751 0.787989
O O1 0.750000 0.977322 0.259764
O O2 0.649529 0.928008 0.239451
O O3 0.640705 0.012892 0.328235
O O4 0.674178 0.987649 0.000001
O O5 0.640705 0.487108 0.671767
O O6 0.555156 0.526567 0.500000
O O7 0.552222 0.439109 0.500000
O O8 0.750000 0.522677 0.740236
O O9 0.850471 0.571992 0.760550
O O10 0.750000 0.811706 0.726315
O O11 0.834116 0.750000 0.727116
O O12 0.866165 0.840299 0.727551
O O13 0.818942 0.802191 0.000000
O O14 0.542618 0.601069 0.327169
O O15 0.542618 0.601069 0.672832
O O16 0.366165 0.340299 0.727551
O O17 0.411205 0.384525 1.000000
O O18 0.250000 0.311706 0.726315
O O19 0.165884 0.250000 0.727116
#
# Coordination Sequence:
#
# PCOD9453230 Si02
#       8
#     8   8   8   8   8   8   8   8
#     4   9  16  25  39  57  73  92 119 150 186 223
#     4   9  17  28  38  50  71  93 117 154 189 216
#     4   9  16  25  39  57  73  92 119 150 186 223
#     4   8  13  22  37  55  74  97 124 155 191 222
#     4   9  18  28  37  51  68  92 126 155 183 218
#     4   9  16  26  39  53  72  97 124 155 185 213
#     4   8  13  22  37  55  74  97 124 155 191 222
#     4   9  16  26  39  53  72  97 124 155 185 213
#
# _framework density 13.199146000000001
#
# number of rings (size 3 to 8) (size 9 to 14) (size 15 to 20)
#    0.000    3.250    0.000    1.875    0.000    4.000 
#    0.000    7.500    0.000    1.500    0.000    0.000 
#    0.000    0.000    0.000    0.000    0.000   10.000 
#
# Total GULP energy -356387.186966 kJ/mol
# GULP energy per Si atom -5568.549796 kJ/mol
# Density = 1.316910 g / cm^3
# Si number density = 13.199146 Si / 1000 Ang^3
#
#
#
# Elastic Constant Matrix: (Units=GPa)
#
#
# Indices 1 2 3 4 5 6 
#
# 1 78.3545 49.3274 43.4113 0.0000 0.0000 0.0000
# 2 49.3274 68.6808 33.2062 0.0000 0.0000 0.0000
# 3 43.4113 33.2062 56.8746 0.0000 0.0000 0.0000
# 4 0.0000 0.0000 0.0000 6.0191 0.0000 0.0000
# 5 0.0000 0.0000 0.0000 0.0000 15.7405 0.0000
# 6 0.0000 0.0000 0.0000 0.0000 0.0000 26.2066
#
#
#
# Elastic Compliance Matrix: (Units=1/GPa)
#
#
# Indices 1 2 3 4 5 6 
#
# 1 0.029804 -0.014500 -0.014283 0.000000 0.000000 0.000000
# 2 -0.014500 0.027341 -0.004895 0.000000 0.000000 0.000000
# 3 -0.014283 -0.004895 0.031343 0.000000 0.000000 0.000000
# 4 0.000000 0.000000 0.000000 0.166139 0.000000 0.000000
# 5 0.000000 0.000000 0.000000 0.000000 0.063530 0.000000
# 6 0.000000 0.000000 0.000000 0.000000 0.000000 0.038158
#
#
# Mechanical properties :
#
#
# Convention : Reuss Voigt Hill
#
# Bulk Modulus (GPa) = 47.32428 50.64441 48.98435
# Shear Modulus (GPa) = 11.60854 14.79090 13.19972
#
# Velocity S-wave (km/s) = 2.96884 3.35116 3.16578
# Velocity P-wave (km/s) = 6.90535 7.30934 7.11022
#
# Compressibility (1/GPa) = 0.02113080
#
# Stress axis : x y z
#
# Youngs Moduli (GPa) = 33.55207 36.57489 31.90522
#
# Poissons Ratio (x) = 0.53034 0.45571
# Poissons Ratio (y) = 0.48651 0.15619
# Poissons Ratio (z) = 0.47923 0.17905
#
# Static dielectric constant tensor:
#      x y z
#    x 1.410340 0.000000 0.000000 
#    y 0.000000 1.417660 0.000000 
#    z 0.000000 0.000000 1.476330 
# 
# From -- ./inp_files/11782.got.cif
#   From: 2010.05.17/outbox.cif.g08.bks.cpg/sg59_6_cif.got.tgz:11782.got - 2010.06.03 14:40:33.
