data_PCOD9453909
_publ_section_title
;
Structure prediction by ZEFSAII (Michael W. Deem and Ramdas Pophale) SiO2 
 PCOD9453909
Probable space group: P B C N
;
_chemical_formula_sum "Si O2"
_cell_formula_units_Z 64
_cell_length_a 31.236594
_cell_length_b 13.544771
_cell_length_c 9.568729
_cell_angle_alpha 90.000000
_cell_angle_beta 90.000000
_cell_angle_gamma 90.000000
_cell_volume 4048.457595
_symmetry_space_group_name_H-M "P B C N"
_symmetry_group_IT_number 60
_symmetry_cell_setting 'orthorhombic'
loop_
_space_group_symop_operation_xyz
x,y,z
1/2-x,1/2-y,1/2+z
1/2+x,1/2-y,-z
-x,y,1/2-z
-x,-y,-z
1/2+x,1/2+y,1/2-z
1/2-x,1/2+y,z
x,-y,1/2+z
loop_
_atom_site_type_symbol
_atom_site_label
_atom_site_fract_x
_atom_site_fract_y
_atom_site_fract_z
Si Si1 0.099438 0.384391 0.431004
Si Si2 0.457993 0.122152 0.174478
Si Si3 0.459457 0.107722 0.671201
Si Si4 0.683518 0.773455 0.461549
Si Si5 0.684688 0.771039 0.131558
Si Si6 0.770353 0.100535 0.961428
Si Si7 0.099276 0.615755 0.436981
Si Si8 0.728732 0.397146 0.131295
O O1 0.062071 0.341103 0.530088
O O2 0.080199 0.387948 0.276321
O O3 0.142482 0.322280 0.429466
O O4 0.107331 0.499517 0.470260
O O5 0.500000 0.165832 0.250000
O O6 0.417768 0.123151 0.279933
O O7 0.470237 0.007532 0.144012
O O8 0.500000 0.152373 0.750000
O O9 0.441714 0.149798 0.528182
O O10 0.678574 0.747869 0.296787
O O11 0.722984 0.850832 0.470335
O O12 0.640840 0.823011 0.522674
O O13 0.697132 0.679801 0.554720
O O14 0.724241 0.847537 0.123042
O O15 0.698344 0.676882 0.040332
O O16 0.780839 0.089285 0.796485
O O17 0.771270 0.998377 0.045208
#
# Coordination Sequence:
#
# PCOD9453909 Si02
#       8
#     8   8   8   8   8   8   8   8
#     4  10  18  29  45  69  99 133 167 203 236 284
#     4   9  18  28  42  65  97 133 167 201 240 284
#     4   9  16  28  44  63  93 133 167 195 238 286
#     4  10  20  34  50  73  99 129 167 202 238 285
#     4  10  20  34  50  73  99 129 167 202 238 285
#     4  10  21  36  53  72  98 130 161 201 246 287
#     4  10  18  29  45  69  99 133 167 203 236 284
#     4  10  21  36  53  72  98 130 161 201 246 287
#
# _framework density 15.808489
#
# number of rings (size 3 to 8) (size 9 to 14) (size 15 to 20)
#    0.000    2.250    1.250    2.250    1.750    4.000 
#    0.000    0.000    0.000    0.000    0.000    0.000 
#    0.000    6.000    0.000    0.000    0.000    0.000 
#
# Total GULP energy -356532.130537 kJ/mol
# GULP energy per Si atom -5570.814540 kJ/mol
# Density = 1.577251 g / cm^3
# Si number density = 15.808489 Si / 1000 Ang^3
#
#
#
# Elastic Constant Matrix: (Units=GPa)
#
#
# Indices 1 2 3 4 5 6 
#
# 1 60.2906 23.3957 22.6415 0.0000 0.0000 0.0000
# 2 23.3957 75.0683 44.7719 0.0000 0.0000 0.0000
# 3 22.6415 44.7719 106.0177 0.0000 0.0000 0.0000
# 4 0.0000 0.0000 0.0000 21.9744 0.0000 0.0000
# 5 0.0000 0.0000 0.0000 0.0000 27.6306 0.0000
# 6 0.0000 0.0000 0.0000 0.0000 0.0000 21.2736
#
#
#
# Elastic Compliance Matrix: (Units=1/GPa)
#
#
# Indices 1 2 3 4 5 6 
#
# 1 0.019213 -0.004733 -0.002105 0.000000 0.000000 0.000000
# 2 -0.004733 0.018972 -0.007001 0.000000 0.000000 0.000000
# 3 -0.002105 -0.007001 0.012838 0.000000 0.000000 0.000000
# 4 0.000000 0.000000 0.000000 0.045508 0.000000 0.000000
# 5 0.000000 0.000000 0.000000 0.000000 0.036192 0.000000
# 6 0.000000 0.000000 0.000000 0.000000 0.000000 0.047007
#
#
# Mechanical properties :
#
#
# Convention : Reuss Voigt Hill
#
# Bulk Modulus (GPa) = 42.83293 46.99941 44.91617
# Shear Modulus (GPa) = 23.23542 24.21354 23.72448
#
# Velocity S-wave (km/s) = 3.83796 3.91791 3.87815
# Velocity P-wave (km/s) = 6.84059 7.08955 6.96618
#
# Compressibility (1/GPa) = 0.02334652
#
# Stress axis : x y z
#
# Youngs Moduli (GPa) = 52.04743 52.70979 77.89089
#
# Poissons Ratio (x) = 0.24946 0.16393
# Poissons Ratio (y) = 0.24633 0.54533
# Poissons Ratio (z) = 0.10954 0.36903
#
# Static dielectric constant tensor:
#      x y z
#    x 1.537760 0.000000 0.000000 
#    y 0.000000 1.491490 0.000000 
#    z 0.000000 0.000000 1.561150 
# 
# From -- ./inp_files/8512.got.cif
#   From: 2010.05.17/outbox.cif.g08.bks.cpg/sg60_5_cif.got.tgz:8512.got - 2010.06.03 14:59:27.
