data_PCOD9453514
_publ_section_title
;
Structure prediction by ZEFSAII (Michael W. Deem and Ramdas Pophale) SiO2 
 PCOD9453514
Probable space group: P M M N
;
_chemical_formula_sum "Si O2"
_cell_formula_units_Z 64
_cell_length_a 30.000000
_cell_length_b 9.000000
_cell_length_c 12.000000
_cell_angle_alpha 90.000000
_cell_angle_beta 90.000000
_cell_angle_gamma 90.000000
_cell_volume 3240.000000
_symmetry_space_group_name_H-M "P M M N"
_symmetry_group_IT_number 59
_space_group.IT_coordinate_system_code '2'
_symmetry_cell_setting 'orthorhombic'
loop_
_space_group_symop_operation_xyz
x,y,z
1/2-x,1/2-y,z
1/2+x,-y,-z
-x,1/2+y,-z
-x,-y,-z
1/2+x,1/2+y,-z
1/2-x,y,z
x,1/2-y,z
loop_
_atom_site_type_symbol
_atom_site_label
_atom_site_fract_x
_atom_site_fract_y
_atom_site_fract_z
Si Si1 0.799830 0.423273 0.883637
Si Si2 0.832377 0.077245 0.128749
Si Si3 0.422787 0.422598 0.942637
Si Si4 0.448975 0.574282 0.360434
Si Si5 0.033130 0.574303 0.754830
Si Si6 0.799238 0.069916 0.373644
Si Si7 0.111146 0.423399 0.187413
Si Si8 0.896383 0.429822 0.426923
O O1 0.750000 0.460980 0.846332
O O2 0.808989 0.250000 0.854589
O O3 0.838383 0.528300 0.837771
O O4 0.802565 0.431316 0.018126
O O5 0.847545 0.250000 0.139832
O O6 0.807059 0.039424 0.242245
O O7 0.874984 0.976734 0.103805
O O8 0.429451 0.250000 0.918579
O O9 0.460556 0.513840 0.879041
O O10 0.417776 0.442589 0.074706
O O11 0.456785 0.750000 0.367056
O O12 0.492699 0.496551 0.312864
O O13 0.409365 0.533445 0.276741
O O14 0.430313 0.517405 0.478322
O O15 0.027224 0.750000 0.756168
O O16 0.078946 0.538286 0.688877
O O17 0.750000 0.015537 0.408572
O O18 0.798536 0.250000 0.385539
O O19 0.845209 0.016212 0.431315
O O20 0.108442 0.250000 0.219980
O O21 0.894254 0.250000 0.436877
#
# Coordination Sequence:
#
# PCOD9453514 Si02
#       8
#     8   8   8   8   8   8   8   8
#     4   9  17  30  52  83 113 144 187 234 278 326
#     4   9  15  27  49  79 114 147 177 218 269 325
#     4  10  20  34  54  82 114 146 179 221 274 331
#     4  11  23  39  58  80 109 145 191 239 280 328
#     4  11  21  37  61  86 112 141 179 226 283 343
#     4   9  15  26  50  83 114 143 176 215 265 324
#     4  10  22  39  56  78 112 152 191 229 277 335
#     4   9  19  35  55  83 115 145 181 228 275 326
#
# _framework density 19.753086
#
# number of rings (size 3 to 8) (size 9 to 14) (size 15 to 20)
#    0.000    2.250    1.250    2.250    0.000    3.750 
#    0.000    2.500    0.000    3.375    0.000    0.000 
#    0.000    0.000    0.000    0.000    0.000    0.000 
#
# Total GULP energy -356946.268562 kJ/mol
# GULP energy per Si atom -5577.285446 kJ/mol
# Density = 1.970813 g / cm^3
# Si number density = 19.753086 Si / 1000 Ang^3
#
#
#
# Elastic Constant Matrix: (Units=GPa)
#
#
# Indices 1 2 3 4 5 6 
#
# 1 25.9262 -7.3686 -9.6815 0.0000 0.0000 0.0000
# 2 -7.3686 27.7702 14.2117 0.0000 0.0000 0.0000
# 3 -9.6815 14.2117 16.7389 0.0000 0.0000 0.0000
# 4 0.0000 0.0000 0.0000 9.9781 0.0000 0.0000
# 5 0.0000 0.0000 0.0000 0.0000 14.0030 0.0000
# 6 0.0000 0.0000 0.0000 0.0000 0.0000 14.5929
#
#
#
# Elastic Compliance Matrix: (Units=1/GPa)
#
#
# Indices 1 2 3 4 5 6 
#
# 1 0.049309 -0.002673 0.030789 0.000000 0.000000 0.000000
# 2 -0.002673 0.063822 -0.055733 0.000000 0.000000 0.000000
# 3 0.030789 -0.055733 0.124868 0.000000 0.000000 0.000000
# 4 0.000000 0.000000 0.000000 0.100219 0.000000 0.000000
# 5 0.000000 0.000000 0.000000 0.000000 0.071413 0.000000
# 6 0.000000 0.000000 0.000000 0.000000 0.000000 0.068527
#
#
# Mechanical properties :
#
#
# Convention : Reuss Voigt Hill
#
# Bulk Modulus (GPa) = 5.47150 7.19538 6.33344
# Shear Modulus (GPa) = 8.41306 12.59971 10.50639
#
# Velocity S-wave (km/s) = 2.06600 2.52833 2.30877
# Velocity P-wave (km/s) = 2.90983 3.48910 3.21255
#
# Compressibility (1/GPa) = 0.18276539
#
# Stress axis : x y z
#
# Youngs Moduli (GPa) = 20.28035 15.66846 8.00847
#
# Poissons Ratio (x) = 0.04188 -0.24657
# Poissons Ratio (y) = 0.05421 0.44634
# Poissons Ratio (z) = -0.62441 0.87325
#
# Static dielectric constant tensor:
#      x y z
#    x 1.706550 0.000000 0.000000 
#    y 0.000000 1.663230 0.000000 
#    z 0.000000 0.000000 1.753500 
# 
# From -- ./inp_files/19202.got.cif
#   From: 2010.05.17/outbox.ucp.g08.bks.cvg/sg59_10_cif.got.tgz:19202.got - 2010.06.11 16:43:56.
