data_PCOD9453102
_publ_section_title
;
Structure prediction by ZEFSAII (Michael W. Deem and Ramdas Pophale) SiO2 
 PCOD9453102
Probable space group: P M M N
;
_chemical_formula_sum "Si O2"
_cell_formula_units_Z 40
_cell_length_a 8.777898
_cell_length_b 15.927088
_cell_length_c 14.863903
_cell_angle_alpha 90.000000
_cell_angle_beta 90.000000
_cell_angle_gamma 90.000000
_cell_volume 2078.068083
_symmetry_space_group_name_H-M "P M M N"
_symmetry_group_IT_number 59
_space_group.IT_coordinate_system_code '2'
_symmetry_cell_setting 'orthorhombic'
loop_
_space_group_symop_operation_xyz
x,y,z
1/2-x,1/2-y,z
1/2+x,-y,-z
-x,1/2+y,-z
-x,-y,-z
1/2+x,1/2+y,-z
1/2-x,y,z
x,1/2-y,z
loop_
_atom_site_type_symbol
_atom_site_label
_atom_site_fract_x
_atom_site_fract_y
_atom_site_fract_z
Si Si1 0.570534 0.648595 0.104881
Si Si2 0.068561 0.588572 0.288201
Si Si3 0.567957 0.412988 0.279036
Si Si4 0.064111 0.750000 0.402240
Si Si5 0.066691 0.150689 0.096928
Si Si6 0.064228 0.750000 0.609127
O O1 0.750000 0.628416 0.115374
O O2 0.556769 0.750000 0.109931
O O3 0.477924 0.608378 0.185605
O O4 0.521523 0.623888 0.003989
O O5 0.250000 0.582701 0.294979
O O6 0.015047 0.666711 0.349024
O O7 0.995453 0.500505 0.315109
O O8 0.750000 0.414699 0.279514
O O9 0.510319 0.398927 0.177420
O O10 0.515159 0.333309 0.337820
O O11 0.250000 0.750000 0.401287
O O12 0.014500 0.750000 0.505659
O O13 0.250000 0.143182 0.102874
O O14 0.029664 0.250000 0.106634
O O15 0.250000 0.750000 0.609400
#
# Coordination Sequence:
#
# PCOD9453102 Si02
#       6
#     8   8   8   4   8   4
#     4   9  18  34  57  84 116 153 190 232 281 332
#     4  11  22  37  59  87 116 151 191 234 283 336
#     4  11  22  37  59  87 116 151 191 234 283 336
#     4   9  20  40  62  83 112 148 187 235 290 343
#     4   9  18  34  57  84 116 153 190 232 281 332
#     4   9  20  40  62  83 112 148 187 235 290 343
#
# _framework density 19.248646000000001
#
# number of rings (size 3 to 8) (size 9 to 14) (size 15 to 20)
#    0.000    2.200    2.000    2.400    0.000    2.400 
#    0.000    2.000    0.000    8.400    0.000    0.000 
#    0.000    0.000    0.000    0.000    0.000    0.000 
#
# Total GULP energy -223388.892531 kJ/mol
# GULP energy per Si atom -5584.722313 kJ/mol
# Density = 1.920484 g / cm^3
# Si number density = 19.248646 Si / 1000 Ang^3
#
#
#
# Elastic Constant Matrix: (Units=GPa)
#
#
# Indices 1 2 3 4 5 6 
#
# 1 17.2735 19.2838 21.0120 0.0000 0.0000 0.0000
# 2 19.2838 121.0450 72.0363 0.0000 0.0000 0.0000
# 3 21.0120 72.0363 126.9429 0.0000 0.0000 0.0000
# 4 0.0000 0.0000 0.0000 -1.3765 0.0000 0.0000
# 5 0.0000 0.0000 0.0000 0.0000 12.4625 0.0000
# 6 0.0000 0.0000 0.0000 0.0000 0.0000 26.9709
#
#
#
# Elastic Compliance Matrix: (Units=1/GPa)
#
#
# Indices 1 2 3 4 5 6 
#
# 1 0.076221 -0.006998 -0.008645 0.000000 0.000000 0.000000
# 2 -0.006998 0.013117 -0.006285 0.000000 0.000000 0.000000
# 3 -0.008645 -0.006285 0.012875 0.000000 0.000000 0.000000
# 4 0.000000 0.000000 0.000000 -0.726478 0.000000 0.000000
# 5 0.000000 0.000000 0.000000 0.000000 0.080241 0.000000
# 6 0.000000 0.000000 0.000000 0.000000 0.000000 0.037077
#
#
# Mechanical properties :
#
#
# Convention : Reuss Voigt Hill
#
# Bulk Modulus (GPa) = 17.13606 54.43617 35.78612
# Shear Modulus (GPa) = -11.27042 17.80666 3.26812
#
# Velocity S-wave (km/s) = -2.42237 3.04482 1.30443
# Velocity P-wave (km/s) = 1.04783 6.37990 4.57171
#
# Compressibility (1/GPa) = 0.05835646
#
# Stress axis : x y z
#
# Youngs Moduli (GPa) = 13.11974 76.23972 77.66956
#
# Poissons Ratio (x) = 0.53352 0.67147
# Poissons Ratio (y) = 0.09181 0.48815
# Poissons Ratio (z) = 0.11342 0.47916
#
# Static dielectric constant tensor:
#      x y z
#    x 1.649420 0.000000 0.000000 
#    y 0.000000 1.681490 0.000000 
#    z 0.000000 0.000000 1.650670 
# 
# From -- ./inp_files/19902.got.cif
#   From: 2010.05.17/outbox.cif.g08.bks.cpg/sg59_10_cif.got.tgz:19902.got - 2010.06.03 14:40:33.
