data_PCOD9453431
_publ_section_title
;
Structure prediction by ZEFSAII (Michael W. Deem and Ramdas Pophale) SiO2 
 PCOD9453431
Probable space group: P M M N
;
_chemical_formula_sum "Si O2"
_cell_formula_units_Z 56
_cell_length_a 21.000000
_cell_length_b 9.000000
_cell_length_c 15.000000
_cell_angle_alpha 90.000000
_cell_angle_beta 90.000000
_cell_angle_gamma 90.000000
_cell_volume 2835.000000
_symmetry_space_group_name_H-M "P M M N"
_symmetry_group_IT_number 59
_space_group.IT_coordinate_system_code '2'
_symmetry_cell_setting 'orthorhombic'
loop_
_space_group_symop_operation_xyz
x,y,z
1/2-x,1/2-y,z
1/2+x,-y,-z
-x,1/2+y,-z
-x,-y,-z
1/2+x,1/2+y,-z
1/2-x,y,z
x,1/2-y,z
loop_
_atom_site_type_symbol
_atom_site_label
_atom_site_fract_x
_atom_site_fract_y
_atom_site_fract_z
Si Si1 0.030740 0.413583 0.616483
Si Si2 0.323529 0.927514 0.306788
Si Si3 0.895750 0.083978 0.514607
Si Si4 0.319798 0.072492 0.828736
Si Si5 0.085523 0.428644 0.160567
Si Si6 0.320893 0.926647 0.023219
Si Si7 0.549887 0.077922 0.216430
O O1 0.038394 0.250000 0.658561
O O2 0.091611 0.456001 0.556766
O O3 0.024004 0.548154 0.684769
O O4 0.964947 0.406867 0.562344
O O5 0.250000 0.972489 0.291986
O O6 0.328223 0.750000 0.288292
O O7 0.344260 0.948431 0.409434
O O8 0.375056 0.009310 0.245235
O O9 0.882870 0.250000 0.477063
O O10 0.250000 0.036474 0.787233
O O11 0.323581 0.250000 0.836256
O O12 0.384198 0.010305 0.786470
O O13 0.319587 0.997343 0.925841
O O14 0.086998 0.250000 0.161894
O O15 0.124396 0.494732 0.078516
O O16 0.010930 0.473915 0.158483
O O17 0.250000 0.950412 0.063790
O O18 0.331150 0.750000 0.018694
O O19 0.562223 0.250000 0.197626
#
# Coordination Sequence:
#
# PCOD9453431 Si02
#       7
#     8   8   8   8   8   8   8
#     4  10  19  33  56  81 107 143 186 233 282 329
#     4  10  20  35  55  80 113 152 191 232 283 340
#     4   9  18  33  53  78 108 144 186 231 280 335
#     4  10  22  41  64  87 111 142 183 233 288 341
#     4  11  23  36  54  83 117 151 191 234 278 329
#     4  10  21  38  60  84 113 152 193 230 276 337
#     4  11  23  38  58  85 116 150 189 232 281 338
#
# _framework density 19.753086
#
# number of rings (size 3 to 8) (size 9 to 14) (size 15 to 20)
#    0.000    1.857    1.429    2.571    0.000    7.143 
#    0.000    0.714    0.000    2.571    0.000    0.000 
#    0.000    0.000    0.000    0.000    0.000    0.000 
#
# Total GULP energy -312134.593703 kJ/mol
# GULP energy per Si atom -5573.832030 kJ/mol
# Density = 1.970813 g / cm^3
# Si number density = 19.753086 Si / 1000 Ang^3
#
#
#
# Elastic Constant Matrix: (Units=GPa)
#
#
# Indices 1 2 3 4 5 6 
#
# 1 111.7087 42.0053 0.3252 0.0000 0.0000 0.0000
# 2 42.0053 40.5436 1.7288 0.0000 0.0000 0.0000
# 3 0.3252 1.7288 6.2668 0.0000 0.0000 0.0000
# 4 0.0000 0.0000 0.0000 29.4244 0.0000 0.0000
# 5 0.0000 0.0000 0.0000 0.0000 26.8088 0.0000
# 6 0.0000 0.0000 0.0000 0.0000 0.0000 26.2472
#
#
#
# Elastic Compliance Matrix: (Units=1/GPa)
#
#
# Indices 1 2 3 4 5 6 
#
# 1 0.014740 -0.015420 0.003489 0.000000 0.000000 0.000000
# 2 -0.015420 0.041090 -0.010535 0.000000 0.000000 0.000000
# 3 0.003489 -0.010535 0.162295 0.000000 0.000000 0.000000
# 4 0.000000 0.000000 0.000000 0.033985 0.000000 0.000000
# 5 0.000000 0.000000 0.000000 0.000000 0.037301 0.000000
# 6 0.000000 0.000000 0.000000 0.000000 0.000000 0.038099
#
#
# Mechanical properties :
#
#
# Convention : Reuss Voigt Hill
#
# Bulk Modulus (GPa) = 5.77391 27.40421 16.58906
# Shear Modulus (GPa) = 11.62318 24.12673 17.87496
#
# Velocity S-wave (km/s) = 2.42838 3.49867 3.01145
# Velocity P-wave (km/s) = 3.28513 5.49767 4.52860
#
# Compressibility (1/GPa) = 0.17319271
#
# Stress axis : x y z
#
# Youngs Moduli (GPa) = 67.84197 24.33663 6.16162
#
# Poissons Ratio (x) = 0.37528 -0.02150
# Poissons Ratio (y) = 1.04615 0.06491
# Poissons Ratio (z) = -0.23669 0.25638
#
# Static dielectric constant tensor:
#      x y z
#    x 1.718320 0.000000 0.000000 
#    y 0.000000 1.609290 0.000000 
#    z 0.000000 0.000000 1.762660 
# 
# From -- ./inp_files/24245.got.cif
#   From: 2010.05.17/outbox.ucp.g08.bks.cvg/sg59_13_cif.got.tgz:24245.got - 2010.06.11 16:43:56.
