data_PCOD9453380
_publ_section_title
;
Structure prediction by ZEFSAII (Michael W. Deem and Ramdas Pophale) SiO2 
 PCOD9453380
Probable space group: P M M N
;
_chemical_formula_sum "Si O2"
_cell_formula_units_Z 56
_cell_length_a 9.000000
_cell_length_b 21.000000
_cell_length_c 15.000000
_cell_angle_alpha 90.000000
_cell_angle_beta 90.000000
_cell_angle_gamma 90.000000
_cell_volume 2835.000000
_symmetry_space_group_name_H-M "P M M N"
_symmetry_group_IT_number 59
_space_group.IT_coordinate_system_code '2'
_symmetry_cell_setting 'orthorhombic'
loop_
_space_group_symop_operation_xyz
x,y,z
1/2-x,1/2-y,z
1/2+x,-y,-z
-x,1/2+y,-z
-x,-y,-z
1/2+x,1/2+y,-z
1/2-x,y,z
x,1/2-y,z
loop_
_atom_site_type_symbol
_atom_site_label
_atom_site_fract_x
_atom_site_fract_y
_atom_site_fract_z
Si Si1 0.070049 0.250000 0.851547
Si Si2 0.428984 0.636169 0.461428
Si Si3 0.075460 0.880357 0.657497
Si Si4 0.425280 0.033017 0.652589
Si Si5 0.922404 0.880134 0.837723
Si Si6 0.576254 0.466319 0.837592
Si Si7 0.569525 0.871490 0.034273
Si Si8 0.428986 0.250000 0.647488
O O1 0.250000 0.250000 0.852157
O O2 0.024444 0.186805 0.903127
O O3 0.022396 0.250000 0.749988
O O4 0.250000 0.638752 0.457358
O O5 0.477068 0.647093 0.563543
O O6 0.485288 0.568565 0.424491
O O7 0.504285 0.688567 0.400092
O O8 0.250000 0.868370 0.664891
O O9 0.000347 0.857918 0.747990
O O10 0.055173 0.956908 0.649334
O O11 0.250000 0.047325 0.646411
O O12 0.489181 0.054669 0.748439
O O13 0.750000 0.862985 0.831441
O O14 0.933900 0.957177 0.841804
O O15 0.979807 0.857857 0.933398
O O16 0.750000 0.449537 0.831038
O O17 0.502077 0.433973 0.922917
O O18 0.750000 0.878112 0.033762
O O19 0.250000 0.250000 0.643069
#
# Coordination Sequence:
#
# PCOD9453380 Si02
#       8
#     4   8   8   8   8   8   8   4
#     4   9  20  37  56  75 100 132 171 213 256 309
#     4  11  22  37  56  80 109 143 180 225 275 320
#     4   9  20  36  55  79 110 144 177 216 270 326
#     4  10  19  33  54  81 110 143 179 218 266 327
#     4   9  19  33  52  78 108 139 175 218 266 317
#     4  10  19  31  49  78 110 140 174 217 266 320
#     4  10  19  34  54  76 103 139 177 219 268 317
#     4  11  23  39  58  81 106 142 185 221 264 325
#
# _framework density 19.753086
#
# number of rings (size 3 to 8) (size 9 to 14) (size 15 to 20)
#    0.000    2.143    0.000    3.214    0.000    4.000 
#    0.000    1.786    0.000    0.857    0.000    0.000 
#    0.000    0.000    0.000    0.000    0.000    0.000 
#
# Total GULP energy -312647.106525 kJ/mol
# GULP energy per Si atom -5582.984045 kJ/mol
# Density = 1.970813 g / cm^3
# Si number density = 19.753086 Si / 1000 Ang^3
#
#
#
# Elastic Constant Matrix: (Units=GPa)
#
#
# Indices 1 2 3 4 5 6 
#
# 1 45.8571 23.6987 48.9246 0.0000 0.0000 0.0000
# 2 23.6987 2.3501 27.7306 0.0000 0.0000 0.0000
# 3 48.9246 27.7306 196.5133 0.0000 0.0000 0.0000
# 4 0.0000 0.0000 0.0000 11.3361 0.0000 0.0000
# 5 0.0000 0.0000 0.0000 0.0000 31.8820 0.0000
# 6 0.0000 0.0000 0.0000 0.0000 0.0000 15.9790
#
#
#
# Elastic Compliance Matrix: (Units=1/GPa)
#
#
# Indices 1 2 3 4 5 6 
#
# 1 0.004670 0.050178 -0.008243 0.000000 0.000000 0.000000
# 2 0.050178 -0.100616 0.001706 0.000000 0.000000 0.000000
# 3 -0.008243 0.001706 0.006900 0.000000 0.000000 0.000000
# 4 0.000000 0.000000 0.000000 0.088214 0.000000 0.000000
# 5 0.000000 0.000000 0.000000 0.000000 0.031366 0.000000
# 6 0.000000 0.000000 0.000000 0.000000 0.000000 0.062582
#
#
# Mechanical properties :
#
#
# Convention : Reuss Voigt Hill
#
# Bulk Modulus (GPa) = -566.57944 49.49204 -258.54370
# Shear Modulus (GPa) = 952.85232 21.46385 487.15808
#
# Velocity S-wave (km/s) = 21.98701 3.29995 15.72130
# Velocity P-wave (km/s) = 18.89757 6.29518 14.08452
#
# Compressibility (1/GPa) = -0.00176498
#
# Stress axis : x y z
#
# Youngs Moduli (GPa) = 214.13237 -9.93881 144.92078
#
# Poissons Ratio (x) = 0.49871 1.19464
# Poissons Ratio (y) = -10.74470 -0.24720
# Poissons Ratio (z) = 1.76518 0.01695
#
# Static dielectric constant tensor:
#      x y z
#    x 1.661720 0.000000 0.000000 
#    y 0.000000 1.739230 0.000000 
#    z 0.000000 0.000000 1.708650 
# 
# From -- ./inp_files/21228.got.cif
#   From: 2010.05.17/outbox.ucp.g08.bks.cvg/sg59_11_cif.got.tgz:21228.got - 2010.06.11 16:43:56.
