data_PCOD9453240
_publ_section_title
;
Structure prediction by ZEFSAII (Michael W. Deem and Ramdas Pophale) SiO2 
 PCOD9453240
Probable space group: P M M N
;
_chemical_formula_sum "Si O2"
_cell_formula_units_Z 56
_cell_length_a 14.523162
_cell_length_b 7.321060
_cell_length_c 21.237944
_cell_angle_alpha 90.000000
_cell_angle_beta 90.000000
_cell_angle_gamma 90.000000
_cell_volume 2258.123130
_symmetry_space_group_name_H-M "P M M N"
_symmetry_group_IT_number 59
_space_group.IT_coordinate_system_code '2'
_symmetry_cell_setting 'orthorhombic'
loop_
_space_group_symop_operation_xyz
x,y,z
1/2-x,1/2-y,z
1/2+x,-y,-z
-x,1/2+y,-z
-x,-y,-z
1/2+x,1/2+y,-z
1/2-x,y,z
x,1/2-y,z
loop_
_atom_site_type_symbol
_atom_site_label
_atom_site_fract_x
_atom_site_fract_y
_atom_site_fract_z
Si Si1 0.651829 0.041434 0.878033
Si Si2 0.944184 0.526800 0.148200
Si Si3 0.944314 0.526451 0.286526
Si Si4 0.106853 0.034759 0.984502
Si Si5 0.847504 0.037156 0.691832
Si Si6 0.604372 0.971000 0.552894
Si Si7 0.892029 0.543076 0.419274
O O1 0.750000 0.958853 0.858296
O O2 0.650873 0.250000 0.855048
O O3 0.551472 0.964986 0.859274
O O4 0.653434 0.045680 0.954093
O O5 0.946771 0.750000 0.144875
O O6 0.909217 0.476462 0.217355
O O7 0.885097 0.468108 0.087410
O O8 0.945252 0.750000 0.290584
O O9 0.051601 0.464592 0.289878
O O10 0.889650 0.462863 0.348882
O O11 0.127569 0.250000 0.985275
O O12 0.000000 0.000000 0.000000
O O13 0.750000 0.959704 0.715211
O O14 0.849166 0.250000 0.709329
O O15 0.845127 0.023272 0.616286
O O16 0.600250 0.750000 0.550023
O O17 0.642891 0.036144 0.485528
O O18 0.501546 0.044750 0.565442
O O19 0.857005 0.750000 0.414747
#
# Coordination Sequence:
#
# PCOD9453240 Si02
#       7
#     8   8   8   8   8   8   8
#     4   9  17  28  42  62  86 110 138 170 203 241
#     4   8  14  24  40  62  84 106 133 167 204 240
#     4   8  13  23  39  58  79 101 127 159 194 232
#     4   9  16  27  43  62  83 107 137 171 206 243
#     4   9  17  27  38  54  77 105 134 160 189 230
#     4   9  15  23  37  55  74  97 125 158 192 222
#     4   8  14  24  38  56  75  95 122 156 192 228
#
# _framework density 24.799354999999998
#
# number of rings (size 3 to 8) (size 9 to 14) (size 15 to 20)
#    0.000    3.429    0.000    2.571    0.000    1.714 
#    0.000    2.857    0.000   17.143    0.000    9.000 
#    0.000    8.000    0.000    0.000    0.000    0.000 
#
# Total GULP energy -311993.744684 kJ/mol
# GULP energy per Si atom -5571.316869 kJ/mol
# Density = 2.474291 g / cm^3
# Si number density = 24.799355 Si / 1000 Ang^3
#
#
#
# Elastic Constant Matrix: (Units=GPa)
#
#
# Indices 1 2 3 4 5 6 
#
# 1 43.9828 -1.3113 6.0859 0.0000 0.0000 0.0000
# 2 -1.3113 111.4463 5.9764 0.0000 0.0000 0.0000
# 3 6.0859 5.9764 261.6978 0.0000 0.0000 0.0000
# 4 0.0000 0.0000 0.0000 2.6693 0.0000 0.0000
# 5 0.0000 0.0000 0.0000 0.0000 -45.0326 0.0000
# 6 0.0000 0.0000 0.0000 0.0000 0.0000 -11.1992
#
#
#
# Elastic Compliance Matrix: (Units=1/GPa)
#
#
# Indices 1 2 3 4 5 6 
#
# 1 0.022819 0.000297 -0.000537 0.000000 0.000000 0.000000
# 2 0.000297 0.008988 -0.000212 0.000000 0.000000 0.000000
# 3 -0.000537 -0.000212 0.003839 0.000000 0.000000 0.000000
# 4 0.000000 0.000000 0.000000 0.374633 0.000000 0.000000
# 5 0.000000 0.000000 0.000000 0.000000 -0.022206 0.000000
# 6 0.000000 0.000000 0.000000 0.000000 0.000000 -0.089292
#
#
# Mechanical properties :
#
#
# Convention : Reuss Voigt Hill
#
# Bulk Modulus (GPa) = 28.78435 48.73655 38.76045
# Shear Modulus (GPa) = 16.06345 16.37920 16.22133
#
# Velocity S-wave (km/s) = 2.54783 2.57275 2.56032
# Velocity P-wave (km/s) = 4.50415 5.34045 4.94003
#
# Compressibility (1/GPa) = 0.03474110
#
# Stress axis : x y z
#
# Youngs Moduli (GPa) = 43.82239 111.26186 260.51528
#
# Poissons Ratio (x) = -0.03308 0.14002
# Poissons Ratio (y) = -0.01303 0.05527
# Poissons Ratio (z) = 0.02355 0.02361
#
# Static dielectric constant tensor:
#      x y z
#    x 1.951900 0.000000 0.000000 
#    y 0.000000 1.966690 0.000000 
#    z 0.000000 0.000000 2.015700 
# 
# From -- ./inp_files/32283.got.cif
#   From: 2010.05.17/outbox.cif.g08.bks.cpg/sg59_17_cif.got.tgz:32283.got - 2010.06.03 14:40:33.
