data_PCOD9453328
_publ_section_title
;
Structure prediction by ZEFSAII (Michael W. Deem and Ramdas Pophale) SiO2 
 PCOD9453328
Probable space group: P M M N
;
_chemical_formula_sum "Si O2"
_cell_formula_units_Z 64
_cell_length_a 9.000000
_cell_length_b 18.000000
_cell_length_c 21.000000
_cell_angle_alpha 90.000000
_cell_angle_beta 90.000000
_cell_angle_gamma 90.000000
_cell_volume 3402.000000
_symmetry_space_group_name_H-M "P M M N"
_symmetry_group_IT_number 59
_space_group.IT_coordinate_system_code '2'
_symmetry_cell_setting 'orthorhombic'
loop_
_space_group_symop_operation_xyz
x,y,z
1/2-x,1/2-y,z
1/2+x,-y,-z
-x,1/2+y,-z
-x,-y,-z
1/2+x,1/2+y,-z
1/2-x,y,z
x,1/2-y,z
loop_
_atom_site_type_symbol
_atom_site_label
_atom_site_fract_x
_atom_site_fract_y
_atom_site_fract_z
Si Si1 0.582733 0.838025 0.600926
Si Si2 0.928464 0.162500 0.529363
Si Si3 0.573485 0.419363 0.293252
Si Si4 0.928566 0.948053 0.843482
Si Si5 0.071604 0.936604 0.348576
Si Si6 0.926096 0.604898 0.117085
Si Si7 0.072021 0.421276 0.019093
Si Si8 0.920222 0.168205 0.769608
O O1 0.750000 0.868768 0.607251
O O2 0.593121 0.750000 0.593038
O O3 0.504608 0.864453 0.535888
O O4 0.489083 0.852658 0.664355
O O5 0.750000 0.159225 0.521865
O O6 0.965666 0.250000 0.541083
O O7 0.969262 0.110746 0.589130
O O8 0.750000 0.418855 0.287471
O O9 0.501819 0.423894 0.222850
O O10 0.517761 0.488707 0.336030
O O11 0.750000 0.948151 0.835855
O O12 0.970034 0.902086 0.908155
O O13 0.986389 0.030551 0.861229
O O14 0.250000 0.949905 0.350630
O O15 0.041080 0.888895 0.285256
O O16 0.750000 0.590234 0.120354
O O17 0.962748 0.626652 0.043964
O O18 0.975008 0.662990 0.169760
O O19 0.250000 0.430259 0.020920
O O20 0.000000 0.500000 0.000000
O O21 0.750000 0.153845 0.790355
O O22 0.924907 0.250000 0.740857
#
# Coordination Sequence:
#
# PCOD9453328 Si02
#       8
#     8   8   8   8   8   8   8   8
#     4  10  22  41  63  84 106 137 177 219 269 333
#     4   9  18  35  59  84 110 143 183 226 269 314
#     4  12  24  36  55  83 114 144 176 224 276 324
#     4  10  18  32  52  75 105 140 176 219 269 322
#     4  10  20  35  55  79 111 147 184 225 269 321
#     4  10  18  30  48  74 105 136 176 225 271 316
#     4   8  16  28  46  71  99 132 171 214 263 315
#     4  10  20  33  50  73 105 150 194 227 267 321
#
# _framework density 18.812463000000001
#
# number of rings (size 3 to 8) (size 9 to 14) (size 15 to 20)
#    0.000    2.125    1.250    2.625    0.000    4.500 
#    0.000    0.000    0.000    3.000    0.000    1.750 
#    0.000    0.000    0.000    0.000    0.000    0.000 
#
# Total GULP energy -356600.204669 kJ/mol
# GULP energy per Si atom -5571.878198 kJ/mol
# Density = 1.876965 g / cm^3
# Si number density = 18.812463 Si / 1000 Ang^3
#
#
#
# Elastic Constant Matrix: (Units=GPa)
#
#
# Indices 1 2 3 4 5 6 
#
# 1 60.0965 9.5602 53.6747 0.0000 0.0000 0.0000
# 2 9.5602 23.1317 20.0475 0.0000 0.0000 0.0000
# 3 53.6747 20.0475 154.5226 0.0000 0.0000 0.0000
# 4 0.0000 0.0000 0.0000 -21.5788 0.0000 0.0000
# 5 0.0000 0.0000 0.0000 0.0000 26.9439 0.0000
# 6 0.0000 0.0000 0.0000 0.0000 0.0000 15.8802
#
#
#
# Elastic Compliance Matrix: (Units=1/GPa)
#
#
# Indices 1 2 3 4 5 6 
#
# 1 0.024317 -0.003075 -0.008048 0.000000 0.000000 0.000000
# 2 -0.003075 0.049096 -0.005301 0.000000 0.000000 0.000000
# 3 -0.008048 -0.005301 0.009955 0.000000 0.000000 0.000000
# 4 0.000000 0.000000 0.000000 -0.046342 0.000000 0.000000
# 5 0.000000 0.000000 0.000000 0.000000 0.037114 0.000000
# 6 0.000000 0.000000 0.000000 0.000000 0.000000 0.062971
#
#
# Mechanical properties :
#
#
# Convention : Reuss Voigt Hill
#
# Bulk Modulus (GPa) = 19.79453 44.92396 32.35925
# Shear Modulus (GPa) = 26.76659 14.54696 20.65677
#
# Velocity S-wave (km/s) = 3.77611 2.78378 3.31726
# Velocity P-wave (km/s) = 5.43662 5.85357 5.64894
#
# Compressibility (1/GPa) = 0.05051900
#
# Stress axis : x y z
#
# Youngs Moduli (GPa) = 41.12381 20.36817 100.45434
#
# Poissons Ratio (x) = 0.06264 0.80842
# Poissons Ratio (y) = 0.12647 0.53255
# Poissons Ratio (z) = 0.33095 0.10798
#
# Static dielectric constant tensor:
#      x y z
#    x 1.647580 0.000000 0.000000 
#    y 0.000000 1.674960 0.000000 
#    z 0.000000 0.000000 1.666390 
# 
# From -- ./inp_files/29441.got.cif
#   From: 2010.05.17/outbox.ucp.g08.bks.cvg/sg59_15_cif.got.tgz:29441.got - 2010.06.11 16:43:56.
