data_PCOD9453641
_publ_section_title
;
Structure prediction by ZEFSAII (Michael W. Deem and Ramdas Pophale) SiO2 
 PCOD9453641
Probable space group: P M M N
;
_chemical_formula_sum "Si O2"
_cell_formula_units_Z 64
_cell_length_a 9.000000
_cell_length_b 24.000000
_cell_length_c 15.000000
_cell_angle_alpha 90.000000
_cell_angle_beta 90.000000
_cell_angle_gamma 90.000000
_cell_volume 3240.000000
_symmetry_space_group_name_H-M "P M M N"
_symmetry_group_IT_number 59
_space_group.IT_coordinate_system_code '2'
_symmetry_cell_setting 'orthorhombic'
loop_
_space_group_symop_operation_xyz
x,y,z
1/2-x,1/2-y,z
1/2+x,-y,-z
-x,1/2+y,-z
-x,-y,-z
1/2+x,1/2+y,-z
1/2-x,y,z
x,1/2-y,z
loop_
_atom_site_type_symbol
_atom_site_label
_atom_site_fract_x
_atom_site_fract_y
_atom_site_fract_z
Si Si1 0.926795 0.605378 0.078602
Si Si2 0.072000 0.486765 0.774986
Si Si3 0.923953 0.814903 0.764668
Si Si4 0.579758 0.509851 0.593524
Si Si5 0.078992 0.816810 0.205623
Si Si6 0.421521 0.141007 0.422506
Si Si7 0.928947 0.315222 0.597260
Si Si8 0.427216 0.903816 0.886940
O O1 0.750000 0.604892 0.067662
O O2 0.969001 0.560605 0.154391
O O3 0.983431 0.662164 0.123192
O O4 0.001120 0.592559 0.984347
O O5 0.250000 0.485756 0.762761
O O6 0.030759 0.544459 0.823576
O O7 0.996810 0.482518 0.678972
O O8 0.750000 0.832755 0.767006
O O9 0.930599 0.750000 0.784591
O O10 0.978191 0.825467 0.663469
O O11 0.015422 0.849642 0.835728
O O12 0.500000 0.500000 0.500000
O O13 0.750000 0.491303 0.587742
O O14 0.574997 0.576575 0.605452
O O15 0.250000 0.836054 0.195071
O O16 0.081275 0.750000 0.208755
O O17 0.021780 0.834749 0.303984
O O18 0.250000 0.157329 0.438599
O O19 0.508621 0.151419 0.513614
O O20 0.750000 0.317718 0.597863
O O21 0.971294 0.250000 0.586308
O O22 0.250000 0.903675 0.896129
#
# Coordination Sequence:
#
# PCOD9453641 Si02
#       8
#     8   8   8   8   8   8   8   8
#     4  11  24  40  63  91 119 152 197 248 299 360
#     4  10  23  43  64  90 122 156 198 247 296 353
#     4  10  21  39  62  88 121 160 203 251 303 358
#     4  11  24  40  61  89 124 162 199 242 295 353
#     4   9  20  40  61  85 120 157 197 245 295 351
#     4  10  21  37  58  85 118 157 198 243 293 350
#     4   9  19  35  56  83 115 152 193 238 288 344
#     4  11  23  41  64  89 119 155 197 247 302 358
#
# _framework density 19.753086
#
# number of rings (size 3 to 8) (size 9 to 14) (size 15 to 20)
#    0.000    1.875    1.250    2.625    1.750    5.250 
#    0.000    1.250    0.000    0.000    0.000    0.000 
#    0.000    0.000    0.000    0.000    0.000    0.000 
#
# Total GULP energy -357457.920971 kJ/mol
# GULP energy per Si atom -5585.280015 kJ/mol
# Density = 1.970813 g / cm^3
# Si number density = 19.753086 Si / 1000 Ang^3
#
#
#
# Elastic Constant Matrix: (Units=GPa)
#
#
# Indices 1 2 3 4 5 6 
#
# 1 44.1274 20.2607 56.9459 0.0000 0.0000 0.0000
# 2 20.2607 39.7029 24.6134 0.0000 0.0000 0.0000
# 3 56.9459 24.6134 151.3991 0.0000 0.0000 0.0000
# 4 0.0000 0.0000 0.0000 -95.1172 0.0000 0.0000
# 5 0.0000 0.0000 0.0000 0.0000 38.8398 0.0000
# 6 0.0000 0.0000 0.0000 0.0000 0.0000 22.8546
#
#
#
# Elastic Compliance Matrix: (Units=1/GPa)
#
#
# Indices 1 2 3 4 5 6 
#
# 1 0.051767 -0.015954 -0.016877 0.000000 0.000000 0.000000
# 2 -0.015954 0.032927 0.000648 0.000000 0.000000 0.000000
# 3 -0.016877 0.000648 0.012848 0.000000 0.000000 0.000000
# 4 0.000000 0.000000 0.000000 -0.010513 0.000000 0.000000
# 5 0.000000 0.000000 0.000000 0.000000 0.025747 0.000000
# 6 0.000000 0.000000 0.000000 0.000000 0.000000 0.043755
#
#
# Mechanical properties :
#
#
# Convention : Reuss Voigt Hill
#
# Bulk Modulus (GPa) = 30.14377 48.76325 39.45351
# Shear Modulus (GPa) = 21.55581 2.20940 11.88261
#
# Velocity S-wave (km/s) = 3.30701 1.05874 2.45533
# Velocity P-wave (km/s) = 5.46582 5.12197 5.29669
#
# Compressibility (1/GPa) = 0.03317435
#
# Stress axis : x y z
#
# Youngs Moduli (GPa) = 19.31730 30.37022 77.83380
#
# Poissons Ratio (x) = 0.48453 1.31364
# Poissons Ratio (y) = 0.30819 -0.05042
# Poissons Ratio (z) = 0.32603 -0.01967
#
# Static dielectric constant tensor:
#      x y z
#    x 1.670450 0.000000 0.000000 
#    y 0.000000 1.741580 0.000000 
#    z 0.000000 0.000000 1.656530 
# 
# From -- ./inp_files/21609.got.cif
#   From: 2010.05.17/outbox.ucp.g08.bks.cvg/sg59_11_cif.got.tgz:21609.got - 2010.06.11 16:43:56.
