data_PCOD9453554
_publ_section_title
;
Structure prediction by ZEFSAII (Michael W. Deem and Ramdas Pophale) SiO2 
 PCOD9453554
Probable space group: P M M N
;
_chemical_formula_sum "Si O2"
_cell_formula_units_Z 64
_cell_length_a 9.000000
_cell_length_b 24.000000
_cell_length_c 15.000000
_cell_angle_alpha 90.000000
_cell_angle_beta 90.000000
_cell_angle_gamma 90.000000
_cell_volume 3240.000000
_symmetry_space_group_name_H-M "P M M N"
_symmetry_group_IT_number 59
_space_group.IT_coordinate_system_code '2'
_symmetry_cell_setting 'orthorhombic'
loop_
_space_group_symop_operation_xyz
x,y,z
1/2-x,1/2-y,z
1/2+x,-y,-z
-x,1/2+y,-z
-x,-y,-z
1/2+x,1/2+y,-z
1/2-x,y,z
x,1/2-y,z
loop_
_atom_site_type_symbol
_atom_site_label
_atom_site_fract_x
_atom_site_fract_y
_atom_site_fract_z
Si Si1 0.069602 0.314537 0.334793
Si Si2 0.077961 0.090976 0.473106
Si Si3 0.079399 0.416314 0.765721
Si Si4 0.083914 0.973705 0.375785
Si Si5 0.571741 0.003278 0.096288
Si Si6 0.927776 0.614901 0.839654
Si Si7 0.924401 0.315399 0.007028
Si Si8 0.927369 0.310612 0.799076
O O1 0.250000 0.312734 0.332269
O O2 0.017768 0.250000 0.337489
O O3 0.032928 0.353619 0.419571
O O4 0.023580 0.348270 0.245758
O O5 0.250000 0.097695 0.506699
O O6 0.962314 0.069363 0.546499
O O7 0.083553 0.037308 0.407922
O O8 0.250000 0.401636 0.767692
O O9 0.035005 0.444514 0.857965
O O10 0.042833 0.463965 0.695701
O O11 0.988079 0.361662 0.744025
O O12 0.250000 0.961484 0.341790
O O13 0.750000 0.008988 0.092617
O O14 0.503728 0.054784 0.151165
O O15 0.500000 0.000000 0.000000
O O16 0.750000 0.607985 0.835425
O O17 0.975944 0.648396 0.927939
O O18 0.750000 0.331759 0.014793
O O19 0.934972 0.250000 0.031242
O O20 0.968307 0.319131 0.903139
O O21 0.750000 0.310018 0.796287
O O22 0.983011 0.250000 0.770455
#
# Coordination Sequence:
#
# PCOD9453554 Si02
#       8
#     8   8   8   8   8   8   8   8
#     4   9  18  33  54  81 113 148 185 227 277 334
#     4   9  18  35  58  82 107 137 178 224 271 327
#     4  11  23  37  55  81 109 138 177 222 266 318
#     4  10  20  35  58  84 109 140 176 220 275 331
#     4  11  24  39  55  79 112 149 189 234 283 331
#     4  11  21  33  52  79 111 147 188 230 274 330
#     4   9  18  33  52  74 103 142 186 229 273 319
#     4   9  19  36  56  76 101 136 175 216 264 316
#
# _framework density 19.753086
#
# number of rings (size 3 to 8) (size 9 to 14) (size 15 to 20)
#    0.000    2.125    0.000    4.125    0.000    7.000 
#    0.000    3.125    0.000    4.125    0.000    0.000 
#    0.000    0.000    0.000    0.000    0.000    0.000 
#
# Total GULP energy -356935.674641 kJ/mol
# GULP energy per Si atom -5577.119916 kJ/mol
# Density = 1.970813 g / cm^3
# Si number density = 19.753086 Si / 1000 Ang^3
#
#
#
# Elastic Constant Matrix: (Units=GPa)
#
#
# Indices 1 2 3 4 5 6 
#
# 1 -11.8951 31.7676 -7.4716 0.0000 0.0000 0.0000
# 2 31.7676 117.2627 22.2081 0.0000 0.0000 0.0000
# 3 -7.4716 22.2081 20.8815 0.0000 0.0000 0.0000
# 4 0.0000 0.0000 0.0000 26.0509 0.0000 0.0000
# 5 0.0000 0.0000 0.0000 0.0000 17.0119 0.0000
# 6 0.0000 0.0000 0.0000 0.0000 0.0000 22.6772
#
#
#
# Elastic Compliance Matrix: (Units=1/GPa)
#
#
# Indices 1 2 3 4 5 6 
#
# 1 -0.031836 0.013502 -0.025750 0.000000 0.000000 0.000000
# 2 0.013502 0.004953 -0.000437 0.000000 0.000000 0.000000
# 3 -0.025750 -0.000437 0.039140 0.000000 0.000000 0.000000
# 4 0.000000 0.000000 0.000000 0.038386 0.000000 0.000000
# 5 0.000000 0.000000 0.000000 0.000000 0.058783 0.000000
# 6 0.000000 0.000000 0.000000 0.000000 0.000000 0.044097
#
#
# Mechanical properties :
#
#
# Convention : Reuss Voigt Hill
#
# Bulk Modulus (GPa) = -76.25220 24.36193 -25.94513
# Shear Modulus (GPa) = 28.64970 18.46434 23.55702
#
# Velocity S-wave (km/s) = 3.81253 3.06070 3.45711
# Velocity P-wave (km/s) = 4.39385 4.98503 1.66501
#
# Compressibility (1/GPa) = -0.01311438
#
# Stress axis : x y z
#
# Youngs Moduli (GPa) = -31.41087 201.90384 25.54944
#
# Poissons Ratio (x) = -2.72601 0.65791
# Poissons Ratio (y) = 0.42409 0.01115
# Poissons Ratio (z) = -0.80884 0.08814
#
# Static dielectric constant tensor:
#      x y z
#    x 1.669190 0.000000 0.000000 
#    y 0.000000 1.701580 0.000000 
#    z 0.000000 0.000000 1.763520 
# 
# From -- ./inp_files/21495.got.cif
#   From: 2010.05.17/outbox.ucp.g08.bks.cvg/sg59_11_cif.got.tgz:21495.got - 2010.06.11 16:43:56.
