data_PCOD9453887
_publ_section_title
;
Structure prediction by ZEFSAII (Michael W. Deem and Ramdas Pophale) SiO2 
 PCOD9453887
Probable space group: P B C N
;
_chemical_formula_sum "Si O2"
_cell_formula_units_Z 56
_cell_length_a 5.938318
_cell_length_b 15.208049
_cell_length_c 28.467667
_cell_angle_alpha 90.000000
_cell_angle_beta 90.000000
_cell_angle_gamma 90.000000
_cell_volume 2570.921586
_symmetry_space_group_name_H-M "P B C N"
_symmetry_group_IT_number 60
_symmetry_cell_setting 'orthorhombic'
loop_
_space_group_symop_operation_xyz
x,y,z
1/2-x,1/2-y,1/2+z
1/2+x,1/2-y,-z
-x,y,1/2-z
-x,-y,-z
1/2+x,1/2+y,1/2-z
1/2-x,1/2+y,z
x,-y,1/2+z
loop_
_atom_site_type_symbol
_atom_site_label
_atom_site_fract_x
_atom_site_fract_y
_atom_site_fract_z
Si Si1 0.381881 0.033938 0.350896
Si Si2 0.590146 0.292889 0.647755
Si Si3 0.869785 0.977014 0.061352
Si Si4 0.163698 0.695183 0.940402
Si Si5 0.250062 0.096883 0.084360
Si Si6 0.500000 0.935073 0.750000
Si Si7 0.373177 0.863273 0.983075
Si Si8 0.000000 0.166902 0.250000
O O1 0.290642 0.135042 0.350794
O O2 0.604073 0.036423 0.381513
O O3 0.445386 0.011854 0.297692
O O4 0.200833 0.984301 0.383327
O O5 0.652779 0.211495 0.615125
O O6 0.393217 0.340239 0.618087
O O7 0.524506 0.279701 0.701634
O O8 0.856161 0.875944 0.048152
O O9 0.700249 0.039757 0.032532
O O10 0.097307 0.029711 0.055841
O O11 0.203040 0.789392 0.964395
O O12 0.942823 0.652450 0.963587
O O13 0.403861 0.151294 0.048875
O O14 0.750637 0.884452 0.756061
#
# Coordination Sequence:
#
# PCOD9453887 Si02
#       8
#     8   8   8   8   8   4   8   4
#     4   9  18  36  59  92 121 161 211 264 322 387
#     4  10  19  37  60  90 126 163 210 262 318 390
#     4  10  23  41  61  90 124 166 211 268 321 391
#     4  12  23  42  63  89 129 169 212 266 327 383
#     4  10  17  40  60  84 125 154 213 263 311 387
#     4  10  18  32  65  96 125 176 222 268 339 398
#     4  11  24  42  60  91 124 165 212 257 315 398
#     4  10  20  32  63  98 125 172 226 270 331 398
#
# _framework density 21.782070999999998
#
# number of rings (size 3 to 8) (size 9 to 14) (size 15 to 20)
#    0.000    1.714    5.714    1.286    0.000    0.571 
#   10.286    0.714    0.000    0.000    3.714    0.000 
#    0.000    0.000    0.000    0.000    0.000    0.000 
#
# Total GULP energy -312152.212347 kJ/mol
# GULP energy per Si atom -5574.146649 kJ/mol
# Density = 2.173249 g / cm^3
# Si number density = 21.782071 Si / 1000 Ang^3
#
#
#
# Elastic Constant Matrix: (Units=GPa)
#
#
# Indices 1 2 3 4 5 6 
#
# 1 72.1113 4.2083 18.9010 0.0000 0.0000 0.0000
# 2 4.2083 68.3132 34.1317 0.0000 0.0000 0.0000
# 3 18.9010 34.1317 141.9439 0.0000 0.0000 0.0000
# 4 0.0000 0.0000 0.0000 21.4155 0.0000 0.0000
# 5 0.0000 0.0000 0.0000 0.0000 37.5870 0.0000
# 6 0.0000 0.0000 0.0000 0.0000 0.0000 9.3823
#
#
#
# Elastic Compliance Matrix: (Units=1/GPa)
#
#
# Indices 1 2 3 4 5 6 
#
# 1 0.014369 0.000080 -0.001933 0.000000 0.000000 0.000000
# 2 0.000080 0.016638 -0.004011 0.000000 0.000000 0.000000
# 3 -0.001933 -0.004011 0.008267 0.000000 0.000000 0.000000
# 4 0.000000 0.000000 0.000000 0.046695 0.000000 0.000000
# 5 0.000000 0.000000 0.000000 0.000000 0.026605 0.000000
# 6 0.000000 0.000000 0.000000 0.000000 0.000000 0.106584
#
#
# Mechanical properties :
#
#
# Convention : Reuss Voigt Hill
#
# Bulk Modulus (GPa) = 36.30198 44.09449 40.19823
# Shear Modulus (GPa) = 20.82748 28.68546 24.75647
#
# Velocity S-wave (km/s) = 3.09556 3.63289 3.37494
# Velocity P-wave (km/s) = 5.42944 6.15505 5.80360
#
# Compressibility (1/GPa) = 0.02754671
#
# Stress axis : x y z
#
# Youngs Moduli (GPa) = 69.59258 60.10430 120.96321
#
# Poissons Ratio (x) = -0.00484 0.23379
# Poissons Ratio (y) = -0.00560 0.48523
# Poissons Ratio (z) = 0.13451 0.24110
#
# Static dielectric constant tensor:
#      x y z
#    x 1.892600 0.000000 0.000000 
#    y 0.000000 1.770770 0.000000 
#    z 0.000000 0.000000 1.830840 
# 
# From -- ./inp_files/25742.got.cif
#   From: 2010.05.17/outbox.cif.g08.bks.cpg/sg60_13_cif.got.tgz:25742.got - 2010.06.03 14:59:27.
