data_PCOD9453853
_publ_section_title
;
Structure prediction by ZEFSAII (Michael W. Deem and Ramdas Pophale) SiO2 
 PCOD9453853
Probable space group: P B C N
;
_chemical_formula_sum "Si O2"
_cell_formula_units_Z 44
_cell_length_a 6.557034
_cell_length_b 23.250066
_cell_length_c 14.529264
_cell_angle_alpha 90.000000
_cell_angle_beta 90.000000
_cell_angle_gamma 90.000000
_cell_volume 2215.007702
_symmetry_space_group_name_H-M "P B C N"
_symmetry_group_IT_number 60
_symmetry_cell_setting 'orthorhombic'
loop_
_space_group_symop_operation_xyz
x,y,z
1/2-x,1/2-y,1/2+z
1/2+x,1/2-y,-z
-x,y,1/2-z
-x,-y,-z
1/2+x,1/2+y,1/2-z
1/2-x,1/2+y,z
x,-y,1/2+z
loop_
_atom_site_type_symbol
_atom_site_label
_atom_site_fract_x
_atom_site_fract_y
_atom_site_fract_z
Si Si1 0.398614 0.451589 0.903108
Si Si2 0.229977 0.695920 0.107272
Si Si3 0.442229 0.315371 0.058189
Si Si4 0.500000 0.640506 0.250000
Si Si5 0.442976 0.110089 0.496971
Si Si6 0.337237 0.574476 0.916164
O O1 0.417506 0.401988 0.828331
O O2 0.182829 0.442019 0.953381
O O3 0.399454 0.516213 0.864816
O O4 0.571333 0.439719 0.980739
O O5 0.110093 0.755752 0.106349
O O6 0.329241 0.679831 0.203788
O O7 0.081105 0.644947 0.075077
O O8 0.411935 0.697955 0.030125
O O9 0.558482 0.365894 0.113143
O O10 0.229299 0.345148 0.029926
O O11 0.598323 0.086968 0.573686
#
# Coordination Sequence:
#
# PCOD9453853 Si02
#       6
#     8   8   8   4   8   8
#     4  10  20  35  56  85 119 145 195 247 301 350
#     4  11  21  35  58  91 122 151 202 251 300 359
#     4  10  19  35  60  83 115 161 202 233 288 377
#     4  12  22  38  56  94 124 150 196 274 306 334
#     4  10  17  34  59  84 109 156 200 236 290 348
#     4   9  19  36  58  84 109 156 199 239 287 370
#
# _framework density 19.864491999999998
#
# number of rings (size 3 to 8) (size 9 to 14) (size 15 to 20)
#    0.000    1.818    7.273    0.545    0.000    0.727 
#    0.000    0.000    4.000    0.000    0.000    0.000 
#    0.000    0.000    0.000    0.000    0.000    0.000 
#
# Total GULP energy -245350.446644 kJ/mol
# GULP energy per Si atom -5576.146515 kJ/mol
# Density = 1.981928 g / cm^3
# Si number density = 19.864492 Si / 1000 Ang^3
#
#
#
# Elastic Constant Matrix: (Units=GPa)
#
#
# Indices 1 2 3 4 5 6 
#
# 1 93.0643 14.2042 4.9873 0.0000 0.0000 0.0000
# 2 14.2042 131.4350 9.2091 0.0000 0.0000 0.0000
# 3 4.9873 9.2091 23.2865 0.0000 0.0000 0.0000
# 4 0.0000 0.0000 0.0000 24.0811 0.0000 0.0000
# 5 0.0000 0.0000 0.0000 0.0000 8.0283 0.0000
# 6 0.0000 0.0000 0.0000 0.0000 0.0000 21.5458
#
#
#
# Elastic Compliance Matrix: (Units=1/GPa)
#
#
# Indices 1 2 3 4 5 6 
#
# 1 0.011010 -0.001054 -0.001941 0.000000 0.000000 0.000000
# 2 -0.001054 0.007926 -0.002909 0.000000 0.000000 0.000000
# 3 -0.001941 -0.002909 0.044510 0.000000 0.000000 0.000000
# 4 0.000000 0.000000 0.000000 0.041526 0.000000 0.000000
# 5 0.000000 0.000000 0.000000 0.000000 0.124559 0.000000
# 6 0.000000 0.000000 0.000000 0.000000 0.000000 0.046413
#
#
# Mechanical properties :
#
#
# Convention : Reuss Voigt Hill
#
# Bulk Modulus (GPa) = 19.36566 33.84301 26.60433
# Shear Modulus (GPa) = 16.39537 25.35672 20.87605
#
# Velocity S-wave (km/s) = 2.87603 3.57667 3.24531
# Velocity P-wave (km/s) = 4.56056 5.84215 5.24068
#
# Compressibility (1/GPa) = 0.05163779
#
# Stress axis : x y z
#
# Youngs Moduli (GPa) = 90.82541 126.16676 22.46710
#
# Poissons Ratio (x) = 0.13296 0.04362
# Poissons Ratio (y) = 0.09572 0.06535
# Poissons Ratio (z) = 0.17632 0.36699
#
# Static dielectric constant tensor:
#      x y z
#    x 1.709580 0.000000 0.000000 
#    y 0.000000 1.745180 0.000000 
#    z 0.000000 0.000000 1.713490 
# 
# From -- ./inp_files/18656.got.cif
#   From: 2010.05.17/outbox.cif.g08.bks.cpg/sg60_10_cif.got.tgz:18656.got - 2010.06.03 14:59:27.
