data_PCOD9453524
_publ_section_title
;
Structure prediction by ZEFSAII (Michael W. Deem and Ramdas Pophale) SiO2 
 PCOD9453524
Probable space group: P M M N
;
_chemical_formula_sum "Si O2"
_cell_formula_units_Z 56
_cell_length_a 15.000000
_cell_length_b 9.000000
_cell_length_c 21.000000
_cell_angle_alpha 90.000000
_cell_angle_beta 90.000000
_cell_angle_gamma 90.000000
_cell_volume 2835.000000
_symmetry_space_group_name_H-M "P M M N"
_symmetry_group_IT_number 59
_space_group.IT_coordinate_system_code '2'
_symmetry_cell_setting 'orthorhombic'
loop_
_space_group_symop_operation_xyz
x,y,z
1/2-x,1/2-y,z
1/2+x,-y,-z
-x,1/2+y,-z
-x,-y,-z
1/2+x,1/2+y,-z
1/2-x,y,z
x,1/2-y,z
loop_
_atom_site_type_symbol
_atom_site_label
_atom_site_fract_x
_atom_site_fract_y
_atom_site_fract_z
Si Si1 0.647730 0.427721 0.686705
Si Si2 0.145256 0.929298 0.579123
Si Si3 0.856932 0.917220 0.551291
Si Si4 0.023294 0.074646 0.913383
Si Si5 0.853666 0.420792 0.183773
Si Si6 0.027660 0.922074 0.696023
Si Si7 0.645046 0.571035 0.964043
O O1 0.750000 0.473391 0.705538
O O2 0.645988 0.250000 0.687685
O O3 0.630770 0.491055 0.615757
O O4 0.559940 0.492208 0.721097
O O5 0.250000 0.970794 0.591899
O O6 0.143687 0.750000 0.577593
O O7 0.073993 0.980041 0.631684
O O8 0.115962 0.995567 0.511632
O O9 0.750000 0.903834 0.545806
O O10 0.894485 0.750000 0.554700
O O11 0.008575 0.250000 0.918600
O O12 0.081015 0.028760 0.853322
O O13 0.091586 0.030505 0.970963
O O14 0.926521 0.995896 0.914392
O O15 0.750000 0.461721 0.179077
O O16 0.863070 0.250000 0.159758
O O17 0.890380 0.422177 0.254973
O O18 0.000228 0.750000 0.687569
O O19 0.750000 0.522909 0.962263
O O20 0.646007 0.750000 0.958978
#
# Coordination Sequence:
#
# PCOD9453524 Si02
#       7
#     8   8   8   8   8   8   8
#     4  10  21  37  55  74  98 130 169 215 267 320
#     4   9  17  31  51  75 104 134 164 205 258 312
#     4   9  17  30  50  75 101 130 166 208 256 314
#     4  10  20  34  55  85 118 150 187 229 273 320
#     4  10  21  38  59  82 110 145 183 220 261 316
#     4  10  21  36  55  78 102 133 175 218 260 309
#     4   9  18  34  56  83 117 154 190 229 272 318
#
# _framework density 19.753086
#
# number of rings (size 3 to 8) (size 9 to 14) (size 15 to 20)
#    0.000    2.429    0.000    2.143    0.000    7.714 
#    0.000    0.714    0.000    3.429    0.000    0.000 
#    0.000    0.000    0.000    0.000    0.000    0.000 
#
# Total GULP energy -312019.003021 kJ/mol
# GULP energy per Si atom -5571.767911 kJ/mol
# Density = 1.970813 g / cm^3
# Si number density = 19.753086 Si / 1000 Ang^3
#
#
#
# Elastic Constant Matrix: (Units=GPa)
#
#
# Indices 1 2 3 4 5 6 
#
# 1 152.9453 28.6322 12.1983 0.0000 0.0000 0.0000
# 2 28.6322 19.8207 -2.1227 0.0000 0.0000 0.0000
# 3 12.1983 -2.1227 21.1101 0.0000 0.0000 0.0000
# 4 0.0000 0.0000 0.0000 18.6174 0.0000 0.0000
# 5 0.0000 0.0000 0.0000 0.0000 27.9446 0.0000
# 6 0.0000 0.0000 0.0000 0.0000 0.0000 27.6197
#
#
#
# Elastic Compliance Matrix: (Units=1/GPa)
#
#
# Indices 1 2 3 4 5 6 
#
# 1 0.009958 -0.015164 -0.007279 0.000000 0.000000 0.000000
# 2 -0.015164 0.074093 0.016213 0.000000 0.000000 0.000000
# 3 -0.007279 0.016213 0.053207 0.000000 0.000000 0.000000
# 4 0.000000 0.000000 0.000000 0.053713 0.000000 0.000000
# 5 0.000000 0.000000 0.000000 0.000000 0.035785 0.000000
# 6 0.000000 0.000000 0.000000 0.000000 0.000000 0.036206
#
#
# Mechanical properties :
#
#
# Convention : Reuss Voigt Hill
#
# Bulk Modulus (GPa) = 8.01294 30.14353 19.07824
# Shear Modulus (GPa) = 15.77182 25.18090 20.47636
#
# Velocity S-wave (km/s) = 2.82875 3.57428 3.22314
# Velocity P-wave (km/s) = 3.83855 5.68571 4.85086
#
# Compressibility (1/GPa) = 0.12479811
#
# Stress axis : x y z
#
# Youngs Moduli (GPa) = 100.42645 13.49647 18.79460
#
# Poissons Ratio (x) = 0.20466 0.13680
# Poissons Ratio (y) = 1.52284 -0.30471
# Poissons Ratio (z) = 0.73097 -0.21881
#
# Static dielectric constant tensor:
#      x y z
#    x 1.713700 0.000000 0.000000 
#    y 0.000000 1.687220 0.000000 
#    z 0.000000 0.000000 1.783690 
# 
# From -- ./inp_files/29139.got.cif
#   From: 2010.05.17/outbox.ucp.g08.bks.cvg/sg59_15_cif.got.tgz:29139.got - 2010.06.11 16:43:56.
