data_PCOD9453756
_publ_section_title
;
Structure prediction by ZEFSAII (Michael W. Deem and Ramdas Pophale) SiO2 
 PCOD9453756
Probable space group: P B C N
;
_chemical_formula_sum "Si O2"
_cell_formula_units_Z 40
_cell_length_a 27.354584
_cell_length_b 12.871657
_cell_length_c 5.197508
_cell_angle_alpha 90.000000
_cell_angle_beta 90.000000
_cell_angle_gamma 90.000000
_cell_volume 1830.036447
_symmetry_space_group_name_H-M "P B C N"
_symmetry_group_IT_number 60
_symmetry_cell_setting 'orthorhombic'
loop_
_space_group_symop_operation_xyz
x,y,z
1/2-x,1/2-y,1/2+z
1/2+x,1/2-y,-z
-x,y,1/2-z
-x,-y,-z
1/2+x,1/2+y,1/2-z
1/2-x,1/2+y,z
x,-y,1/2+z
loop_
_atom_site_type_symbol
_atom_site_label
_atom_site_fract_x
_atom_site_fract_y
_atom_site_fract_z
Si Si1 0.448139 0.568119 0.314200
Si Si2 0.976837 0.617488 0.001634
Si Si3 0.861933 0.571294 0.017342
Si Si4 0.652310 0.570545 0.317205
Si Si5 0.780110 0.748520 0.942786
O O1 0.500000 0.615815 0.250000
O O2 0.446332 0.529122 0.608656
O O3 0.399388 0.628138 0.235704
O O4 0.918360 0.610703 0.005940
O O5 0.000000 0.665257 0.750000
O O6 0.000000 0.670617 0.250000
O O7 0.000000 0.500000 0.000000
O O8 0.855827 0.489028 0.786039
O O9 0.821486 0.661068 0.987221
O O10 0.653917 0.514191 0.591698
O O11 0.695239 0.651582 0.312061
O O12 0.741385 0.718197 0.720699
#
# Coordination Sequence:
#
# PCOD9453756 Si02
#       5
#     8   8   8   8   8
#     4   8  14  27  52  84 110 141 180 230 290 356
#     4  10  16  32  60  94 130 161 195 249 318 397
#     4  12  23  40  67  96 128 176 207 260 337 396
#     4  10  21  40  67  87 117 162 203 256 320 362
#     4  12  28  45  61  91 127 162 226 280 304 376
#
# _framework density 21.857489000000001
#
# number of rings (size 3 to 8) (size 9 to 14) (size 15 to 20)
#    0.000    1.600    4.000    2.400    0.000    4.800 
#    0.000    1.000    0.000    9.600    0.000    0.000 
#    0.000    0.000    0.000    0.000    0.000    0.000 
#
# Total GULP energy -223223.229412 kJ/mol
# GULP energy per Si atom -5580.580735 kJ/mol
# Density = 2.180774 g / cm^3
# Si number density = 21.857489 Si / 1000 Ang^3
#
#
#
# Elastic Constant Matrix: (Units=GPa)
#
#
# Indices 1 2 3 4 5 6 
#
# 1 119.0633 35.3267 27.4050 0.0000 0.0000 0.0000
# 2 35.3267 38.7856 8.5580 0.0000 0.0000 0.0000
# 3 27.4050 8.5580 148.4919 0.0000 0.0000 0.0000
# 4 0.0000 0.0000 0.0000 10.2361 0.0000 0.0000
# 5 0.0000 0.0000 0.0000 0.0000 36.8252 0.0000
# 6 0.0000 0.0000 0.0000 0.0000 0.0000 202.3072
#
#
#
# Elastic Compliance Matrix: (Units=1/GPa)
#
#
# Indices 1 2 3 4 5 6 
#
# 1 0.011867 -0.010459 -0.001587 0.000000 0.000000 0.000000
# 2 -0.010459 0.035332 -0.000106 0.000000 0.000000 0.000000
# 3 -0.001587 -0.000106 0.007033 0.000000 0.000000 0.000000
# 4 0.000000 0.000000 0.000000 0.097693 0.000000 0.000000
# 5 0.000000 0.000000 0.000000 0.000000 0.027155 0.000000
# 6 0.000000 0.000000 0.000000 0.000000 0.000000 0.004943
#
#
# Mechanical properties :
#
#
# Convention : Reuss Voigt Hill
#
# Bulk Modulus (GPa) = 33.41293 49.88003 41.64648
# Shear Modulus (GPa) = 22.90366 65.54378 44.22372
#
# Velocity S-wave (km/s) = 3.24058 5.48197 4.50296
# Velocity P-wave (km/s) = 5.41496 7.93344 6.79195
#
# Compressibility (1/GPa) = 0.02992853
#
# Stress axis : x y z
#
# Youngs Moduli (GPa) = 84.26389 28.30269 142.17763
#
# Poissons Ratio (x) = 0.29601 0.22570
# Poissons Ratio (y) = 0.88131 0.01508
# Poissons Ratio (z) = 0.13376 0.00300
#
# Static dielectric constant tensor:
#      x y z
#    x 1.851720 0.000000 0.000000 
#    y 0.000000 1.741630 0.000000 
#    z 0.000000 0.000000 1.844800 
# 
# From -- ./inp_files/2514.got.cif
#   From: 2010.05.17/outbox.cif.g08.bks.cpg/sg60_2_cif.got.tgz:2514.got - 2010.06.03 14:59:27.
