data_PCOD9453490
_publ_section_title
;
Structure prediction by ZEFSAII (Michael W. Deem and Ramdas Pophale) SiO2 
 PCOD9453490
Probable space group: P M M N
;
_chemical_formula_sum "Si O2"
_cell_formula_units_Z 64
_cell_length_a 9.000000
_cell_length_b 15.000000
_cell_length_c 24.000000
_cell_angle_alpha 90.000000
_cell_angle_beta 90.000000
_cell_angle_gamma 90.000000
_cell_volume 3240.000000
_symmetry_space_group_name_H-M "P M M N"
_symmetry_group_IT_number 59
_space_group.IT_coordinate_system_code '2'
_symmetry_cell_setting 'orthorhombic'
loop_
_space_group_symop_operation_xyz
x,y,z
1/2-x,1/2-y,z
1/2+x,-y,-z
-x,1/2+y,-z
-x,-y,-z
1/2+x,1/2+y,-z
1/2-x,y,z
x,1/2-y,z
loop_
_atom_site_type_symbol
_atom_site_label
_atom_site_fract_x
_atom_site_fract_y
_atom_site_fract_z
Si Si1 0.928414 0.475521 0.258236
Si Si2 0.422297 0.855855 0.300014
Si Si3 0.430998 0.349900 0.913462
Si Si4 0.423912 0.143909 0.040140
Si Si5 0.928922 0.147012 0.360148
Si Si6 0.929022 0.467917 0.136806
Si Si7 0.075546 0.087025 0.474738
Si Si8 0.910622 0.851835 0.406021
O O1 0.750000 0.473284 0.259310
O O2 0.981366 0.416711 0.310243
O O3 0.978214 0.439143 0.198313
O O4 0.979014 0.577558 0.264245
O O5 0.250000 0.872571 0.290147
O O6 0.448246 0.750000 0.290688
O O7 0.463802 0.883487 0.364008
O O8 0.250000 0.347125 0.913999
O O9 0.482189 0.250000 0.899096
O O10 0.477029 0.429958 0.873931
O O11 0.476891 0.372665 0.976868
O O12 0.250000 0.119577 0.042769
O O13 0.435545 0.250000 0.048848
O O14 0.510503 0.091506 0.087091
O O15 0.750000 0.140299 0.364124
O O16 0.966265 0.250000 0.348590
O O17 0.997279 0.119049 0.419113
O O18 0.750000 0.465541 0.135147
O O19 0.250000 0.074172 0.464094
O O20 0.059417 0.149517 0.528665
O O21 0.000000 0.000000 0.500000
O O22 0.750000 0.898858 0.397128
O O23 0.893435 0.750000 0.389156
#
# Coordination Sequence:
#
# PCOD9453490 Si02
#       8
#     8   8   8   8   8   8   8   8
#     4  10  22  38  55  78 107 143 187 229 272 322
#     4  10  21  36  55  80 109 141 178 222 272 326
#     4   8  15  30  52  79 111 143 175 215 267 327
#     4   9  18  33  53  77 108 145 178 212 265 329
#     4  10  22  40  58  76 106 149 191 232 280 329
#     4  10  20  33  54  82 107 137 182 232 272 310
#     4  11  22  35  54  81 109 135 170 218 271 328
#     4   9  18  33  52  73  98 127 159 201 256 316
#
# _framework density 19.753086
#
# number of rings (size 3 to 8) (size 9 to 14) (size 15 to 20)
#    0.000    2.375    0.000    3.000    0.000    7.750 
#    0.000    3.750    0.000    1.125    0.000    0.000 
#    0.000    0.000    0.000    0.000    0.000    0.000 
#
# Total GULP energy -356634.527189 kJ/mol
# GULP energy per Si atom -5572.414487 kJ/mol
# Density = 1.970813 g / cm^3
# Si number density = 19.753086 Si / 1000 Ang^3
#
#
#
# Elastic Constant Matrix: (Units=GPa)
#
#
# Indices 1 2 3 4 5 6 
#
# 1 0.3795 20.6418 10.7038 0.0000 0.0000 0.0000
# 2 20.6418 49.2053 28.9670 0.0000 0.0000 0.0000
# 3 10.7038 28.9670 64.8226 0.0000 0.0000 0.0000
# 4 0.0000 0.0000 0.0000 3.9341 0.0000 0.0000
# 5 0.0000 0.0000 0.0000 0.0000 20.5338 0.0000
# 6 0.0000 0.0000 0.0000 0.0000 0.0000 21.0136
#
#
#
# Elastic Compliance Matrix: (Units=1/GPa)
#
#
# Indices 1 2 3 4 5 6 
#
# 1 -0.120138 0.052542 -0.003642 0.000000 0.000000 0.000000
# 2 0.052542 0.004598 -0.010731 0.000000 0.000000 0.000000
# 3 -0.003642 -0.010731 0.020823 0.000000 0.000000 0.000000
# 4 0.000000 0.000000 0.000000 0.254188 0.000000 0.000000
# 5 0.000000 0.000000 0.000000 0.000000 0.048700 0.000000
# 6 0.000000 0.000000 0.000000 0.000000 0.000000 0.047588
#
#
# Mechanical properties :
#
#
# Convention : Reuss Voigt Hill
#
# Bulk Modulus (GPa) = -54.41614 26.11472 -14.15071
# Shear Modulus (GPa) = 28.85261 12.70262 20.77762
#
# Velocity S-wave (km/s) = 3.82601 2.53863 3.24677
# Velocity P-wave (km/s) = 2.84432 4.67356 2.62221
#
# Compressibility (1/GPa) = -0.01837690
#
# Stress axis : x y z
#
# Youngs Moduli (GPa) = -8.32373 217.46292 48.02305
#
# Poissons Ratio (x) = -11.42603 0.17488
# Poissons Ratio (y) = 0.43735 0.51533
# Poissons Ratio (z) = -0.03031 2.33358
#
# Static dielectric constant tensor:
#      x y z
#    x 1.681500 0.000000 0.000000 
#    y 0.000000 1.672750 0.000000 
#    z 0.000000 0.000000 1.746150 
# 
# From -- ./inp_files/31480.got.cif
#   From: 2010.05.17/outbox.ucp.g08.bks.cvg/sg59_16_cif.got.tgz:31480.got - 2010.06.11 16:43:56.
