data_PCOD9453584
_publ_section_title
;
Structure prediction by ZEFSAII (Michael W. Deem and Ramdas Pophale) SiO2 
 PCOD9453584
Probable space group: P M M N
;
_chemical_formula_sum "Si O2"
_cell_formula_units_Z 48
_cell_length_a 15.000000
_cell_length_b 9.000000
_cell_length_c 18.000000
_cell_angle_alpha 90.000000
_cell_angle_beta 90.000000
_cell_angle_gamma 90.000000
_cell_volume 2430.000000
_symmetry_space_group_name_H-M "P M M N"
_symmetry_group_IT_number 59
_space_group.IT_coordinate_system_code '2'
_symmetry_cell_setting 'orthorhombic'
loop_
_space_group_symop_operation_xyz
x,y,z
1/2-x,1/2-y,z
1/2+x,-y,-z
-x,1/2+y,-z
-x,-y,-z
1/2+x,1/2+y,-z
1/2-x,y,z
x,1/2-y,z
loop_
_atom_site_type_symbol
_atom_site_label
_atom_site_fract_x
_atom_site_fract_y
_atom_site_fract_z
Si Si1 0.075243 0.414427 0.301854
Si Si2 0.750000 0.928647 0.479582
Si Si3 0.750000 0.926346 0.307367
Si Si4 0.344575 0.917710 0.177346
Si Si5 0.018974 0.077259 0.922607
Si Si6 0.923316 0.425535 0.547879
Si Si7 0.606038 0.082451 0.208095
O O1 0.092185 0.250000 0.332780
O O2 0.149308 0.468804 0.244776
O O3 0.062904 0.531464 0.366826
O O4 0.987620 0.409620 0.251081
O O5 0.750000 0.750000 0.483266
O O6 0.750000 0.974849 0.392990
O O7 0.665930 0.997726 0.519981
O O8 0.750000 0.750000 0.307098
O O9 0.667055 0.987954 0.262069
O O10 0.250000 0.933280 0.137825
O O11 0.350299 0.750000 0.208517
O O12 0.426562 0.933532 0.122603
O O13 0.042239 0.250000 0.931670
O O14 0.090613 0.994375 0.871069
O O15 0.000000 0.000000 0.000000
O O16 0.921265 0.250000 0.537167
O O17 0.000000 0.500000 0.500000
O O18 0.639756 0.250000 0.199044
#
# Coordination Sequence:
#
# PCOD9453584 Si02
#       7
#     8   4   4   8   8   8   8
#     4  10  21  37  59  85 116 153 196 244 295 352
#     4  11  25  43  63  89 122 161 206 257 311 365
#     4  11  23  39  61  87 116 149 194 247 297 349
#     4   9  19  36  58  84 113 150 194 236 288 348
#     4  10  20  37  60  85 119 155 192 240 290 345
#     4  12  25  41  61  87 121 161 204 253 309 365
#     4  10  21  38  61  87 115 155 199 240 291 350
#
# _framework density 19.753086
#
# number of rings (size 3 to 8) (size 9 to 14) (size 15 to 20)
#    0.000    1.667    0.000    4.500    1.167    7.000 
#    1.500    0.000    0.000    0.000    0.000    0.000 
#    0.000    0.000    0.000    0.000    0.000    0.000 
#
# Total GULP energy -267779.208856 kJ/mol
# GULP energy per Si atom -5578.733518 kJ/mol
# Density = 1.970813 g / cm^3
# Si number density = 19.753086 Si / 1000 Ang^3
#
#
#
# Elastic Constant Matrix: (Units=GPa)
#
#
# Indices 1 2 3 4 5 6 
#
# 1 60.8179 29.2566 -0.3016 0.0000 0.0000 0.0000
# 2 29.2566 106.9625 49.2810 0.0000 0.0000 0.0000
# 3 -0.3016 49.2810 82.8427 0.0000 0.0000 0.0000
# 4 0.0000 0.0000 0.0000 36.9116 0.0000 0.0000
# 5 0.0000 0.0000 0.0000 0.0000 9.6490 0.0000
# 6 0.0000 0.0000 0.0000 0.0000 0.0000 29.9100
#
#
#
# Elastic Compliance Matrix: (Units=1/GPa)
#
#
# Indices 1 2 3 4 5 6 
#
# 1 0.020138 -0.007634 0.004615 0.000000 0.000000 0.000000
# 2 -0.007634 0.015773 -0.009411 0.000000 0.000000 0.000000
# 3 0.004615 -0.009411 0.017686 0.000000 0.000000 0.000000
# 4 0.000000 0.000000 0.000000 0.027092 0.000000 0.000000
# 5 0.000000 0.000000 0.000000 0.000000 0.103638 0.000000
# 6 0.000000 0.000000 0.000000 0.000000 0.000000 0.033434
#
#
# Mechanical properties :
#
#
# Convention : Reuss Voigt Hill
#
# Bulk Modulus (GPa) = 34.79904 45.23277 40.01591
# Shear Modulus (GPa) = 19.82554 26.78659 23.30607
#
# Velocity S-wave (km/s) = 3.17151 3.68648 3.43865
# Velocity P-wave (km/s) = 5.57374 6.40851 6.00565
#
# Compressibility (1/GPa) = 0.02873643
#
# Stress axis : x y z
#
# Youngs Moduli (GPa) = 49.65756 63.39916 56.54157
#
# Poissons Ratio (x) = 0.48401 -0.26093
# Poissons Ratio (y) = 0.37910 0.53210
# Poissons Ratio (z) = -0.22916 0.59664
#
# Static dielectric constant tensor:
#      x y z
#    x 1.819860 0.000000 0.000000 
#    y 0.000000 1.702750 0.000000 
#    z 0.000000 0.000000 1.648350 
# 
# From -- ./inp_files/27432.got.cif
#   From: 2010.05.17/outbox.ucp.g08.bks.cvg/sg59_14_cif.got.tgz:27432.got - 2010.06.11 16:43:56.
