data_PCOD9453566
_publ_section_title
;
Structure prediction by ZEFSAII (Michael W. Deem and Ramdas Pophale) SiO2 
 PCOD9453566
Probable space group: P M M N
;
_chemical_formula_sum "Si O2"
_cell_formula_units_Z 56
_cell_length_a 21.000000
_cell_length_b 9.000000
_cell_length_c 15.000000
_cell_angle_alpha 90.000000
_cell_angle_beta 90.000000
_cell_angle_gamma 90.000000
_cell_volume 2835.000000
_symmetry_space_group_name_H-M "P M M N"
_symmetry_group_IT_number 59
_space_group.IT_coordinate_system_code '2'
_symmetry_cell_setting 'orthorhombic'
loop_
_space_group_symop_operation_xyz
x,y,z
1/2-x,1/2-y,z
1/2+x,-y,-z
-x,1/2+y,-z
-x,-y,-z
1/2+x,1/2+y,-z
1/2-x,y,z
x,1/2-y,z
loop_
_atom_site_type_symbol
_atom_site_label
_atom_site_fract_x
_atom_site_fract_y
_atom_site_fract_z
Si Si1 0.250000 0.929177 0.450596
Si Si2 0.129871 0.078150 0.353503
Si Si3 0.498439 0.070595 0.597688
Si Si4 0.426598 0.921450 0.072721
Si Si5 0.380666 0.571450 0.702891
Si Si6 0.250000 0.428657 0.645488
Si Si7 0.675017 0.590768 0.849182
Si Si8 0.957212 0.074131 0.123578
O O1 0.250000 0.750000 0.451700
O O2 0.185921 0.991588 0.404707
O O3 0.250000 0.000124 0.547774
O O4 0.123104 0.250000 0.386306
O O5 0.153058 0.085892 0.252316
O O6 0.063299 0.991944 0.358902
O O7 0.497367 0.250000 0.597435
O O8 0.500000 0.000000 0.500000
O O9 0.435248 0.003977 0.643002
O O10 0.441858 0.750000 0.073424
O O11 0.355712 0.954842 0.100604
O O12 0.474616 0.001483 0.139933
O O13 0.436121 0.981672 0.973168
O O14 0.377187 0.750000 0.685822
O O15 0.313566 0.492963 0.689833
O O16 0.405350 0.545489 0.802621
O O17 0.250000 0.250000 0.643041
O O18 0.750000 0.586914 0.852579
O O19 0.652345 0.750000 0.887515
O O20 0.966573 0.250000 0.120229
#
# Coordination Sequence:
#
# PCOD9453566 Si02
#       8
#     4   8   8   8   8   4   8   8
#     4  12  24  40  62  89 120 159 204 249 302 363
#     4  11  22  40  62  87 121 162 203 247 298 358
#     4  12  25  41  61  91 124 157 200 252 305 358
#     4  10  20  35  59  91 121 153 195 244 292 345
#     4  11  23  43  66  89 119 160 205 250 303 362
#     4  12  26  44  64  87 118 155 198 251 306 359
#     4  10  21  38  57  82 119 162 199 234 290 355
#     4   9  20  39  62  87 118 157 196 239 297 357
#
# _framework density 19.753086
#
# number of rings (size 3 to 8) (size 9 to 14) (size 15 to 20)
#    0.000    1.286    0.714    5.571    0.000    6.571 
#    1.286    0.000    0.000    0.000    0.000    0.000 
#    0.000    0.000    0.000    0.000    0.000    0.000 
#
# Total GULP energy -312584.413576 kJ/mol
# GULP energy per Si atom -5581.864528 kJ/mol
# Density = 1.970813 g / cm^3
# Si number density = 19.753086 Si / 1000 Ang^3
#
#
#
# Elastic Constant Matrix: (Units=GPa)
#
#
# Indices 1 2 3 4 5 6 
#
# 1 160.6198 79.7599 55.7302 0.0000 0.0000 0.0000
# 2 79.7599 114.0025 62.7080 0.0000 0.0000 0.0000
# 3 55.7302 62.7080 66.4345 0.0000 0.0000 0.0000
# 4 0.0000 0.0000 0.0000 22.4219 0.0000 0.0000
# 5 0.0000 0.0000 0.0000 0.0000 32.5688 0.0000
# 6 0.0000 0.0000 0.0000 0.0000 0.0000 38.3924
#
#
#
# Elastic Compliance Matrix: (Units=1/GPa)
#
#
# Indices 1 2 3 4 5 6 
#
# 1 0.009959 -0.004934 -0.003697 0.000000 0.000000 0.000000
# 2 -0.004934 0.020689 -0.015389 0.000000 0.000000 0.000000
# 3 -0.003697 -0.015389 0.032680 0.000000 0.000000 0.000000
# 4 0.000000 0.000000 0.000000 0.044599 0.000000 0.000000
# 5 0.000000 0.000000 0.000000 0.000000 0.030704 0.000000
# 6 0.000000 0.000000 0.000000 0.000000 0.000000 0.026047
#
#
# Mechanical properties :
#
#
# Convention : Reuss Voigt Hill
#
# Bulk Modulus (GPa) = 65.41563 81.93920 73.67741
# Shear Modulus (GPa) = 22.95552 28.20056 25.57804
#
# Velocity S-wave (km/s) = 3.41269 3.78253 3.60236
# Velocity P-wave (km/s) = 6.97977 7.78771 7.39478
#
# Compressibility (1/GPa) = 0.01528687
#
# Stress axis : x y z
#
# Youngs Moduli (GPa) = 100.41530 48.33587 30.60011
#
# Poissons Ratio (x) = 0.23848 0.11313
# Poissons Ratio (y) = 0.49544 0.47091
# Poissons Ratio (z) = 0.37123 0.74385
#
# Static dielectric constant tensor:
#      x y z
#    x 1.645400 0.000000 0.000000 
#    y 0.000000 1.769000 0.000000 
#    z 0.000000 0.000000 1.750370 
# 
# From -- ./inp_files/24423.got.cif
#   From: 2010.05.17/outbox.ucp.g08.bks.cvg/sg59_13_cif.got.tgz:24423.got - 2010.06.11 16:43:56.
