data_PCOD9453419
_publ_section_title
;
Structure prediction by ZEFSAII (Michael W. Deem and Ramdas Pophale) SiO2 
 PCOD9453419
Probable space group: P M M N
;
_chemical_formula_sum "Si O2"
_cell_formula_units_Z 64
_cell_length_a 21.000000
_cell_length_b 9.000000
_cell_length_c 18.000000
_cell_angle_alpha 90.000000
_cell_angle_beta 90.000000
_cell_angle_gamma 90.000000
_cell_volume 3402.000000
_symmetry_space_group_name_H-M "P M M N"
_symmetry_group_IT_number 59
_space_group.IT_coordinate_system_code '2'
_symmetry_cell_setting 'orthorhombic'
loop_
_space_group_symop_operation_xyz
x,y,z
1/2-x,1/2-y,z
1/2+x,-y,-z
-x,1/2+y,-z
-x,-y,-z
1/2+x,1/2+y,-z
1/2-x,y,z
x,1/2-y,z
loop_
_atom_site_type_symbol
_atom_site_label
_atom_site_fract_x
_atom_site_fract_y
_atom_site_fract_z
Si Si1 0.820765 0.922167 0.667845
Si Si2 0.318265 0.571656 0.019248
Si Si3 0.053018 0.928695 0.947647
Si Si4 0.357017 0.078682 0.166975
Si Si5 0.999285 0.427483 0.210754
Si Si6 0.916148 0.073691 0.569994
Si Si7 0.451670 0.071557 0.638845
Si Si8 0.825918 0.929413 0.443862
O O1 0.750000 0.959150 0.638064
O O2 0.835252 0.750000 0.646074
O O3 0.819160 0.924594 0.756505
O O4 0.877058 0.031100 0.644012
O O5 0.250000 0.516607 0.992228
O O6 0.318486 0.750000 0.015312
O O7 0.328367 0.522390 0.103664
O O8 0.378400 0.516749 0.973629
O O9 0.048858 0.750000 0.956050
O O10 0.041602 0.961863 0.861860
O O11 0.000000 0.000000 0.000000
O O12 0.358977 0.250000 0.140246
O O13 0.428764 0.033200 0.187840
O O14 0.999026 0.250000 0.225125
O O15 0.973204 0.509068 0.282452
O O16 0.916374 0.250000 0.555448
O O17 0.990081 0.023929 0.582527
O O18 0.868315 0.993206 0.512015
O O19 0.454101 0.250000 0.638155
O O20 0.377975 0.030316 0.620578
O O21 0.750000 0.976439 0.439571
O O22 0.824041 0.750000 0.449190
#
# Coordination Sequence:
#
# PCOD9453419 Si02
#       8
#     8   8   8   8   8   8   8   8
#     4  10  20  33  49  72 107 150 185 215 261 321
#     4  10  21  35  52  77 110 146 181 223 278 334
#     4  10  20  35  55  79 108 142 183 226 271 322
#     4  10  19  33  53  77 108 144 184 226 267 321
#     4  10  20  35  57  84 110 141 184 230 274 322
#     4  11  22  35  55  84 114 141 175 222 272 322
#     4  10  22  39  59  84 112 144 182 226 275 324
#     4  10  22  41  62  82 108 145 186 226 272 326
#
# _framework density 18.812463000000001
#
# number of rings (size 3 to 8) (size 9 to 14) (size 15 to 20)
#    0.000    1.875    2.500    1.500    0.000    5.250 
#    0.000    0.625    0.000    0.750    0.000    0.000 
#    0.000    0.000    0.000    0.000    0.000    0.000 
#
# Total GULP energy -356557.986589 kJ/mol
# GULP energy per Si atom -5571.218540 kJ/mol
# Density = 1.876965 g / cm^3
# Si number density = 18.812463 Si / 1000 Ang^3
#
#
#
# Elastic Constant Matrix: (Units=GPa)
#
#
# Indices 1 2 3 4 5 6 
#
# 1 179.7737 21.9126 53.7706 0.0000 0.0000 0.0000
# 2 21.9126 -0.9678 11.4470 0.0000 0.0000 0.0000
# 3 53.7706 11.4470 67.9978 0.0000 0.0000 0.0000
# 4 0.0000 0.0000 0.0000 22.1704 0.0000 0.0000
# 5 0.0000 0.0000 0.0000 0.0000 9.6967 0.0000
# 6 0.0000 0.0000 0.0000 0.0000 0.0000 20.8135
#
#
#
# Elastic Compliance Matrix: (Units=1/GPa)
#
#
# Indices 1 2 3 4 5 6 
#
# 1 0.005144 0.022854 -0.007915 0.000000 0.000000 0.000000
# 2 0.022854 -0.243909 0.022988 0.000000 0.000000 0.000000
# 3 -0.007915 0.022988 0.017096 0.000000 0.000000 0.000000
# 4 0.000000 0.000000 0.000000 0.045105 0.000000 0.000000
# 5 0.000000 0.000000 0.000000 0.000000 0.103128 0.000000
# 6 0.000000 0.000000 0.000000 0.000000 0.000000 0.048046
#
#
# Mechanical properties :
#
#
# Convention : Reuss Voigt Hill
#
# Bulk Modulus (GPa) = -6.85800 46.78492 19.96346
# Shear Modulus (GPa) = -33.36673 21.18100 -6.09286
#
# Velocity S-wave (km/s) = -4.21604 3.35909 -1.80160
# Velocity P-wave (km/s) = 5.23005 6.32200 2.51141
#
# Compressibility (1/GPa) = -0.14581518
#
# Stress axis : x y z
#
# Youngs Moduli (GPa) = 194.38877 -4.09988 58.49421
#
# Poissons Ratio (x) = 0.09370 0.46300
# Poissons Ratio (y) = -4.44263 -1.34467
# Poissons Ratio (z) = 1.53866 0.09425
#
# Static dielectric constant tensor:
#      x y z
#    x 1.676110 0.000000 0.000000 
#    y 0.000000 1.636280 0.000000 
#    z 0.000000 0.000000 1.704740 
# 
# From -- ./inp_files/28169.got.cif
#   From: 2010.05.17/outbox.ucp.g08.bks.cvg/sg59_15_cif.got.tgz:28169.got - 2010.06.11 16:43:56.
