data_PCOD9453798
_publ_section_title
;
Structure prediction by ZEFSAII (Michael W. Deem and Ramdas Pophale) SiO2 
 PCOD9453798
Probable space group: P B C N
;
_chemical_formula_sum "Si O2"
_cell_formula_units_Z 56
_cell_length_a 16.368977
_cell_length_b 20.541117
_cell_length_c 9.660578
_cell_angle_alpha 90.000000
_cell_angle_beta 90.000000
_cell_angle_gamma 90.000000
_cell_volume 3248.244458
_symmetry_space_group_name_H-M "P B C N"
_symmetry_group_IT_number 60
_symmetry_cell_setting 'orthorhombic'
loop_
_space_group_symop_operation_xyz
x,y,z
1/2-x,1/2-y,1/2+z
1/2+x,1/2-y,-z
-x,y,1/2-z
-x,-y,-z
1/2+x,1/2+y,1/2-z
1/2-x,1/2+y,z
x,-y,1/2+z
loop_
_atom_site_type_symbol
_atom_site_label
_atom_site_fract_x
_atom_site_fract_y
_atom_site_fract_z
Si Si1 0.697786 0.811704 0.221672
Si Si2 0.351331 0.779916 0.722720
Si Si3 0.570145 0.727402 0.043814
Si Si4 0.386444 0.765323 0.032447
Si Si5 0.569901 0.425247 0.560449
Si Si6 0.889746 0.966182 0.865698
Si Si7 0.735806 0.639060 0.458151
O O1 0.780197 0.773612 0.258708
O O2 0.636559 0.764914 0.135800
O O3 0.651236 0.819959 0.366188
O O4 0.724282 0.865687 0.110819
O O5 0.414506 0.750487 0.613228
O O6 0.386398 0.790003 0.875062
O O7 0.305768 0.840859 0.651339
O O8 0.586447 0.651066 0.061189
O O9 0.476801 0.744425 0.079019
O O10 0.327797 0.700921 0.040257
O O11 0.606834 0.461320 0.427218
O O12 0.471873 0.434239 0.568312
O O13 0.602133 0.459467 0.700619
O O14 0.813326 0.924426 0.915606
#
# Coordination Sequence:
#
# PCOD9453798 Si02
#       7
#     8   8   8   8   8   8   8
#     4   9  19  29  47  68  94 131 170 201 262 319
#     4   9  19  30  44  70  95 128 169 207 262 312
#     4  11  19  31  49  69  98 138 169 209 258 308
#     4  10  17  29  46  70  95 124 170 209 251 313
#     4  10  21  33  47  70  94 138 185 217 249 287
#     4  10  20  34  48  66  98 137 182 222 245 295
#     4   9  17  33  47  64  96 134 164 215 261 299
#
# _framework density 17.240082000000001
#
# number of rings (size 3 to 8) (size 9 to 14) (size 15 to 20)
#    0.000    2.286    1.429    3.429    2.000    2.286 
#    5.143    0.000    0.000    0.000    0.000    0.000 
#    0.000    0.000    0.000  501.429    0.000    0.000 
#
# Total GULP energy -312107.582877 kJ/mol
# GULP energy per Si atom -5573.349694 kJ/mol
# Density = 1.720084 g / cm^3
# Si number density = 17.240082 Si / 1000 Ang^3
#
#
#
# Elastic Constant Matrix: (Units=GPa)
#
#
# Indices 1 2 3 4 5 6 
#
# 1 56.2625 12.6575 17.5844 0.0000 0.0000 0.0000
# 2 12.6575 17.2646 12.1087 0.0000 0.0000 0.0000
# 3 17.5844 12.1087 89.8814 0.0000 0.0000 0.0000
# 4 0.0000 0.0000 0.0000 3.7874 0.0000 0.0000
# 5 0.0000 0.0000 0.0000 0.0000 28.4607 0.0000
# 6 0.0000 0.0000 0.0000 0.0000 0.0000 18.3875
#
#
#
# Elastic Compliance Matrix: (Units=1/GPa)
#
#
# Indices 1 2 3 4 5 6 
#
# 1 0.021715 -0.014291 -0.002323 0.000000 0.000000 0.000000
# 2 -0.014291 0.073371 -0.007089 0.000000 0.000000 0.000000
# 3 -0.002323 -0.007089 0.012535 0.000000 0.000000 0.000000
# 4 0.000000 0.000000 0.000000 0.264037 0.000000 0.000000
# 5 0.000000 0.000000 0.000000 0.000000 0.035136 0.000000
# 6 0.000000 0.000000 0.000000 0.000000 0.000000 0.054385
#
#
# Mechanical properties :
#
#
# Convention : Reuss Voigt Hill
#
# Bulk Modulus (GPa) = 16.60689 27.56775 22.08732
# Shear Modulus (GPa) = 9.45795 18.19764 13.82779
#
# Velocity S-wave (km/s) = 2.34477 3.25244 2.83516
# Velocity P-wave (km/s) = 4.12119 5.48905 4.85355
#
# Compressibility (1/GPa) = 0.06021596
#
# Stress axis : x y z
#
# Youngs Moduli (GPa) = 46.05123 13.62938 79.77526
#
# Poissons Ratio (x) = 0.19478 0.18532
# Poissons Ratio (y) = 0.65812 0.56549
# Poissons Ratio (z) = 0.10698 0.09661
#
# Static dielectric constant tensor:
#      x y z
#    x 1.579580 0.000000 0.000000 
#    y 0.000000 1.551710 0.000000 
#    z 0.000000 0.000000 1.649420 
# 
# From -- ./inp_files/6148.got.cif
#   From: 2010.05.17/outbox.cif.g08.bks.cpg/sg60_4_cif.got.tgz:6148.got - 2010.06.03 14:59:27.
