data_PCOD9453502
_publ_section_title
;
Structure prediction by ZEFSAII (Michael W. Deem and Ramdas Pophale) SiO2 
 PCOD9453502
Probable space group: P M M N
;
_chemical_formula_sum "Si O2"
_cell_formula_units_Z 64
_cell_length_a 9.000000
_cell_length_b 15.000000
_cell_length_c 24.000000
_cell_angle_alpha 90.000000
_cell_angle_beta 90.000000
_cell_angle_gamma 90.000000
_cell_volume 3240.000000
_symmetry_space_group_name_H-M "P M M N"
_symmetry_group_IT_number 59
_space_group.IT_coordinate_system_code '2'
_symmetry_cell_setting 'orthorhombic'
loop_
_space_group_symop_operation_xyz
x,y,z
1/2-x,1/2-y,z
1/2+x,-y,-z
-x,1/2+y,-z
-x,-y,-z
1/2+x,1/2+y,-z
1/2-x,y,z
x,1/2-y,z
loop_
_atom_site_type_symbol
_atom_site_label
_atom_site_fract_x
_atom_site_fract_y
_atom_site_fract_z
Si Si1 0.925490 0.642792 0.909547
Si Si2 0.927978 0.852238 0.139224
Si Si3 0.071175 0.955576 0.618898
Si Si4 0.926833 0.034178 0.189266
Si Si5 0.081446 0.858192 0.022956
Si Si6 0.424244 0.649235 0.510727
Si Si7 0.071502 0.152211 0.608804
Si Si8 0.927383 0.851235 0.715464
O O1 0.750000 0.627044 0.902621
O O2 0.950094 0.750000 0.902690
O O3 0.018505 0.586903 0.865300
O O4 0.980149 0.615492 0.970978
O O5 0.750000 0.853495 0.129804
O O6 0.968744 0.750000 0.153781
O O7 0.009002 0.879106 0.082108
O O8 0.962429 0.929319 0.183236
O O9 0.250000 0.949887 0.625925
O O10 0.038236 0.925934 0.555657
O O11 0.991670 0.884121 0.657287
O O12 0.022568 0.056771 0.633300
O O13 0.750000 0.042959 0.195257
O O14 0.008477 0.081090 0.239683
O O15 0.250000 0.891973 0.018041
O O16 0.087440 0.750000 0.021166
O O17 0.250000 0.639152 0.495392
O O18 0.439880 0.750000 0.534904
O O19 0.522343 0.646489 0.455547
O O20 0.250000 0.152722 0.612522
O O21 0.018642 0.250000 0.629976
O O22 0.750000 0.853851 0.715453
O O23 0.974309 0.750000 0.728358
#
# Coordination Sequence:
#
# PCOD9453502 Si02
#       8
#     8   8   8   8   8   8   8   8
#     4  10  20  34  53  78 111 148 181 218 267 320
#     4   9  19  37  58  80 108 140 175 216 263 316
#     4  10  20  35  56  80 108 146 188 227 269 317
#     4  11  23  38  59  83 105 137 179 221 268 320
#     4   9  17  30  51  80 111 143 180 220 262 312
#     4   9  17  29  48  77 111 146 185 228 273 320
#     4   9  18  32  51  79 115 151 186 224 266 314
#     4  11  25  43  61  82 108 137 172 219 273 324
#
# _framework density 19.753086
#
# number of rings (size 3 to 8) (size 9 to 14) (size 15 to 20)
#    0.000    2.250    0.000    2.625    0.000    7.750 
#    0.000    1.875    0.000    3.750    0.000    0.000 
#    0.000    0.000    0.000    0.000    0.000    0.000 
#
# Total GULP energy -357138.734210 kJ/mol
# GULP energy per Si atom -5580.292722 kJ/mol
# Density = 1.970813 g / cm^3
# Si number density = 19.753086 Si / 1000 Ang^3
#
#
#
# Elastic Constant Matrix: (Units=GPa)
#
#
# Indices 1 2 3 4 5 6 
#
# 1 11.9683 19.0689 8.6742 0.0000 0.0000 0.0000
# 2 19.0689 63.5547 10.5098 0.0000 0.0000 0.0000
# 3 8.6742 10.5098 33.0821 0.0000 0.0000 0.0000
# 4 0.0000 0.0000 0.0000 25.8544 0.0000 0.0000
# 5 0.0000 0.0000 0.0000 0.0000 25.0014 0.0000
# 6 0.0000 0.0000 0.0000 0.0000 0.0000 20.4546
#
#
#
# Elastic Compliance Matrix: (Units=1/GPa)
#
#
# Indices 1 2 3 4 5 6 
#
# 1 0.189593 -0.051363 -0.033394 0.000000 0.000000 0.000000
# 2 -0.051363 0.030522 0.003771 0.000000 0.000000 0.000000
# 3 -0.033394 0.003771 0.037786 0.000000 0.000000 0.000000
# 4 0.000000 0.000000 0.000000 0.038678 0.000000 0.000000
# 5 0.000000 0.000000 0.000000 0.000000 0.039998 0.000000
# 6 0.000000 0.000000 0.000000 0.000000 0.000000 0.048889
#
#
# Mechanical properties :
#
#
# Convention : Reuss Voigt Hill
#
# Bulk Modulus (GPa) = 10.42446 20.56787 15.49617
# Shear Modulus (GPa) = 8.62942 18.95223 13.79082
#
# Velocity S-wave (km/s) = 2.09240 3.10087 2.64514
# Velocity P-wave (km/s) = 3.33562 4.82241 4.14620
#
# Compressibility (1/GPa) = 0.09592819
#
# Stress axis : x y z
#
# Youngs Moduli (GPa) = 5.27446 32.76339 26.46501
#
# Poissons Ratio (x) = 1.68283 0.88377
# Poissons Ratio (y) = 0.27091 -0.09980
# Poissons Ratio (z) = 0.17614 -0.12355
#
# Static dielectric constant tensor:
#      x y z
#    x 1.655180 0.000000 0.000000 
#    y 0.000000 1.745010 0.000000 
#    z 0.000000 0.000000 1.715080 
# 
# From -- ./inp_files/31590.got.cif
#   From: 2010.05.17/outbox.ucp.g08.bks.cvg/sg59_16_cif.got.tgz:31590.got - 2010.06.11 16:43:56.
