data_PCOD9453653
_publ_section_title
;
Structure prediction by ZEFSAII (Michael W. Deem and Ramdas Pophale) SiO2 
 PCOD9453653
Probable space group: P M M N
;
_chemical_formula_sum "Si O2"
_cell_formula_units_Z 40
_cell_length_a 9.000000
_cell_length_b 9.000000
_cell_length_c 24.000000
_cell_angle_alpha 90.000000
_cell_angle_beta 90.000000
_cell_angle_gamma 90.000000
_cell_volume 1944.000000
_symmetry_space_group_name_H-M "P M M N"
_symmetry_group_IT_number 59
_space_group.IT_coordinate_system_code '2'
_symmetry_cell_setting 'orthorhombic'
loop_
_space_group_symop_operation_xyz
x,y,z
1/2-x,1/2-y,z
1/2+x,-y,-z
-x,1/2+y,-z
-x,-y,-z
1/2+x,1/2+y,-z
1/2-x,y,z
x,1/2-y,z
loop_
_atom_site_type_symbol
_atom_site_label
_atom_site_fract_x
_atom_site_fract_y
_atom_site_fract_z
Si Si1 0.579062 0.078071 0.848085
Si Si2 0.074000 0.578752 0.947905
Si Si3 0.920030 0.916231 0.358833
Si Si4 0.085116 0.075766 0.450503
Si Si5 0.916104 0.420885 0.244264
O O1 0.750000 0.066499 0.866046
O O2 0.549595 0.250000 0.833712
O O3 0.472797 0.020073 0.895949
O O4 0.543618 0.971660 0.796824
O O5 0.250000 0.580931 0.954744
O O6 0.023372 0.750000 0.941055
O O7 0.000000 0.500000 0.000000
O O8 0.750000 0.915938 0.379212
O O9 0.979976 0.750000 0.365761
O O10 0.918446 0.967089 0.295500
O O11 0.008926 0.035580 0.393127
O O12 0.250000 0.015403 0.449447
O O13 0.087152 0.250000 0.459564
O O14 0.000000 0.000000 0.500000
O O15 0.750000 0.431750 0.217996
O O16 0.933185 0.250000 0.262236
#
# Coordination Sequence:
#
# PCOD9453653 Si02
#       5
#     8   8   8   8   8
#     4  11  24  40  59  86 119 155 196 240 287 341
#     4  11  24  41  62  89 119 152 193 239 288 344
#     4  10  21  38  61  88 117 151 192 237 287 343
#     4  11  24  40  59  85 116 151 192 237 287 343
#     4  10  21  38  61  88 117 152 194 238 287 343
#
# _framework density 20.576132000000001
#
# number of rings (size 3 to 8) (size 9 to 14) (size 15 to 20)
#    0.000    1.400    0.000    4.800    0.000   15.200 
#    0.000    0.000    0.000    0.000    0.000    0.000 
#    0.000    0.000    0.000    0.000    0.000    0.000 
#
# Total GULP energy -223254.188714 kJ/mol
# GULP energy per Si atom -5581.354718 kJ/mol
# Density = 2.052930 g / cm^3
# Si number density = 20.576132 Si / 1000 Ang^3
#
#
#
# Elastic Constant Matrix: (Units=GPa)
#
#
# Indices 1 2 3 4 5 6 
#
# 1 55.7643 27.2467 29.4020 0.0000 0.0000 0.0000
# 2 27.2467 53.8058 -5.3540 0.0000 0.0000 0.0000
# 3 29.4020 -5.3540 37.0511 0.0000 0.0000 0.0000
# 4 0.0000 0.0000 0.0000 31.2460 0.0000 0.0000
# 5 0.0000 0.0000 0.0000 0.0000 27.0350 0.0000
# 6 0.0000 0.0000 0.0000 0.0000 0.0000 27.7568
#
#
#
# Elastic Compliance Matrix: (Units=1/GPa)
#
#
# Indices 1 2 3 4 5 6 
#
# 1 0.072847 -0.043263 -0.064060 0.000000 0.000000 0.000000
# 2 -0.043263 0.044550 0.040769 0.000000 0.000000 0.000000
# 3 -0.064060 0.040769 0.083716 0.000000 0.000000 0.000000
# 4 0.000000 0.000000 0.000000 0.032004 0.000000 0.000000
# 5 0.000000 0.000000 0.000000 0.000000 0.036989 0.000000
# 6 0.000000 0.000000 0.000000 0.000000 0.000000 0.036027
#
#
# Mechanical properties :
#
#
# Convention : Reuss Voigt Hill
#
# Bulk Modulus (GPa) = 14.70459 27.69006 21.19733
# Shear Modulus (GPa) = 10.82463 23.56266 17.19364
#
# Velocity S-wave (km/s) = 2.29612 3.38767 2.89383
# Velocity P-wave (km/s) = 3.76717 5.36548 4.63572
#
# Compressibility (1/GPa) = 0.06800596
#
# Stress axis : x y z
#
# Youngs Moduli (GPa) = 13.72738 22.44649 11.94518
#
# Poissons Ratio (x) = 0.97111 0.76520
# Poissons Ratio (y) = 0.59389 -0.48700
# Poissons Ratio (z) = 0.87937 -0.91513
#
# Static dielectric constant tensor:
#      x y z
#    x 1.893910 0.000000 0.000000 
#    y 0.000000 1.691300 0.000000 
#    z 0.000000 0.000000 1.794650 
# 
# From -- ./inp_files/31130.got.cif
#   From: 2010.05.17/outbox.ucp.g08.bks.cvg/sg59_16_cif.got.tgz:31130.got - 2010.06.11 16:43:56.
