data_PCOD9453916
_publ_section_title
;
Structure prediction by ZEFSAII (Michael W. Deem and Ramdas Pophale) SiO2 
 PCOD9453916
Probable space group: P B C N
;
_chemical_formula_sum "Si O2"
_cell_formula_units_Z 48
_cell_length_a 17.423916
_cell_length_b 11.883575
_cell_length_c 8.624669
_cell_angle_alpha 90.000000
_cell_angle_beta 90.000000
_cell_angle_gamma 90.000000
_cell_volume 1785.810272
_symmetry_space_group_name_H-M "P B C N"
_symmetry_group_IT_number 60
_symmetry_cell_setting 'orthorhombic'
loop_
_space_group_symop_operation_xyz
x,y,z
1/2-x,1/2-y,1/2+z
1/2+x,1/2-y,-z
-x,y,1/2-z
-x,-y,-z
1/2+x,1/2+y,1/2-z
1/2-x,1/2+y,z
x,-y,1/2+z
loop_
_atom_site_type_symbol
_atom_site_label
_atom_site_fract_x
_atom_site_fract_y
_atom_site_fract_z
Si Si1 0.615991 0.127717 0.954641
Si Si2 0.903598 0.123742 0.587021
Si Si3 0.929255 0.815268 0.418397
Si Si4 0.759232 0.096839 0.434431
Si Si5 0.184795 0.244216 0.324651
Si Si6 0.902890 0.567032 0.312387
O O1 0.669784 0.160111 0.803215
O O2 0.555255 0.044865 0.869812
O O3 0.597150 0.258669 0.993350
O O4 0.618846 0.083876 0.134552
O O5 0.881968 0.141604 0.767735
O O6 0.837771 0.048301 0.506469
O O7 0.995138 0.107687 0.581524
O O8 0.888200 0.802653 0.582402
O O9 0.940235 0.682814 0.371053
O O10 0.739838 0.202150 0.546501
O O11 0.777377 0.141920 0.264941
O O12 0.675969 0.041739 0.413353
#
# Coordination Sequence:
#
# PCOD9453916 Si02
#       6
#     8   8   8   8   8   8
#     4  10  20  32  48  69  99 131 162 195 239 292
#     4   9  19  33  49  72 101 131 163 197 235 283
#     4   9  18  32  49  70 101 132 162 193 234 289
#     4  10  18  29  48  70  97 126 162 201 237 277
#     4  10  18  31  49  69  97 128 161 199 237 284
#     4  10  19  32  47  70  99 128 162 198 238 286
#
# _framework density 26.878554000000001
#
# number of rings (size 3 to 8) (size 9 to 14) (size 15 to 20)
#    0.000    2.333    0.000    6.000    0.000    3.333 
#    0.000    3.333    0.000    0.000    0.000    0.000 
#    0.000  170.667    0.000    0.000    0.000    0.000 
#
# Total GULP energy -267399.769647 kJ/mol
# GULP energy per Si atom -5570.828534 kJ/mol
# Density = 2.681738 g / cm^3
# Si number density = 26.878554 Si / 1000 Ang^3
#
#
#
# Elastic Constant Matrix: (Units=GPa)
#
#
# Indices 1 2 3 4 5 6 
#
# 1 117.9906 -11.4203 64.6201 0.0000 0.0000 0.0000
# 2 -11.4203 63.0891 41.6530 0.0000 0.0000 0.0000
# 3 64.6201 41.6530 140.9583 0.0000 0.0000 0.0000
# 4 0.0000 0.0000 0.0000 28.9842 0.0000 0.0000
# 5 0.0000 0.0000 0.0000 0.0000 65.0423 0.0000
# 6 0.0000 0.0000 0.0000 0.0000 0.0000**********
#
#
#
# Elastic Compliance Matrix: (Units=1/GPa)
#
#
# Indices 1 2 3 4 5 6 
#
# 1 0.014280 0.008581 -0.009082 0.000000 0.000000 0.000000
# 2 0.008581 0.024849 -0.011277 0.000000 0.000000 0.000000
# 3 -0.009082 -0.011277 0.014590 0.000000 0.000000 0.000000
# 4 0.000000 0.000000 0.000000 0.034502 0.000000 0.000000
# 5 0.000000 0.000000 0.000000 0.000000 0.015375 0.000000
# 6 0.000000 0.000000 0.000000 0.000000 0.000000 -0.000016
#
#
# Mechanical properties :
#
#
# Convention : Reuss Voigt Hill
#
# Bulk Modulus (GPa) = 33.15255 56.86040 45.00648
# Shear Modulus (GPa) = 36.44616 -12098.31439 -6030.93412
#
# Velocity S-wave (km/s) = 3.68633 -67.16305 -47.41986
# Velocity P-wave (km/s) = 5.52084 77.41640 54.60229
#
# Compressibility (1/GPa) = 0.03016359
#
# Stress axis : x y z
#
# Youngs Moduli (GPa) = 70.02899 40.24289 68.53968
#
# Poissons Ratio (x) = -0.34533 0.62248
# Poissons Ratio (y) = -0.60093 0.77290
# Poissons Ratio (z) = 0.63601 0.45381
#
# Static dielectric constant tensor:
#      x y z
#    x 2.412910 0.000000 0.000000 
#    y 0.000000 2.568960 0.000000 
#    z 0.000000 0.000000 2.026100 
# 
# From -- ./inp_files/6815.got.cif
#   From: 2010.05.17/outbox.cif.g08.bks.cpg/sg60_4_cif.got.tgz:6815.got - 2010.06.03 14:59:27.
