data_PCOD9453913
_publ_section_title
;
Structure prediction by ZEFSAII (Michael W. Deem and Ramdas Pophale) SiO2 
 PCOD9453913
Probable space group: P B C N
;
_chemical_formula_sum "Si O2"
_cell_formula_units_Z 64
_cell_length_a 22.507854
_cell_length_b 18.052557
_cell_length_c 8.629570
_cell_angle_alpha 90.000000
_cell_angle_beta 90.000000
_cell_angle_gamma 90.000000
_cell_volume 3506.404139
_symmetry_space_group_name_H-M "P B C N"
_symmetry_group_IT_number 60
_symmetry_cell_setting 'orthorhombic'
loop_
_space_group_symop_operation_xyz
x,y,z
1/2-x,1/2-y,1/2+z
1/2+x,1/2-y,-z
-x,y,1/2-z
-x,-y,-z
1/2+x,1/2+y,1/2-z
1/2-x,1/2+y,z
x,-y,1/2+z
loop_
_atom_site_type_symbol
_atom_site_label
_atom_site_fract_x
_atom_site_fract_y
_atom_site_fract_z
Si Si1 0.281846 0.323493 0.094906
Si Si2 0.433783 0.818260 0.759629
Si Si3 0.275420 0.609897 0.065536
Si Si4 0.320305 0.251865 0.419757
Si Si5 0.767531 0.972484 0.256682
Si Si6 0.865111 0.573837 0.747089
Si Si7 0.346588 0.808846 0.485791
Si Si8 0.937266 0.535574 0.042297
O O1 0.285916 0.282937 0.265014
O O2 0.294464 0.408726 0.132071
O O3 0.219717 0.310134 0.005059
O O4 0.328830 0.276974 0.994171
O O5 0.500000 0.785195 0.750000
O O6 0.384284 0.775851 0.863361
O O7 0.404003 0.821674 0.590822
O O8 0.440621 0.900025 0.830649
O O9 0.285584 0.556251 0.209416
O O10 0.319615 0.677789 0.034694
O O11 0.277882 0.555472 0.917099
O O12 0.209683 0.646967 0.061732
O O13 0.696982 0.964894 0.286610
O O14 0.853611 0.655668 0.682023
O O15 0.894455 0.527664 0.608142
O O16 0.908812 0.570694 0.890008
O O17 0.000000 0.500000 0.000000
#
# Coordination Sequence:
#
# PCOD9453913 Si02
#       8
#     8   8   8   8   8   8   8   8
#     4   9  18  32  49  72  98 124 158 201 252 294
#     4  11  21  34  50  70  97 135 172 202 240 287
#     4   9  18  31  47  72  98 121 156 198 245 292
#     4   9  19  33  50  71  98 128 161 202 243 291
#     4  10  18  29  47  71  96 123 152 194 249 299
#     4  11  20  32  48  68  96 133 168 201 243 289
#     4   9  19  34  50  69  99 132 163 205 246 288
#     4  12  23  33  46  67  98 134 174 209 232 270
#
# _framework density 18.252316
#
# number of rings (size 3 to 8) (size 9 to 14) (size 15 to 20)
#    0.000    2.000    0.000    6.375    0.000    3.000 
#    0.000    0.000    0.000    0.000    0.000    7.875 
#    0.000    0.000    0.000    0.000    0.000    0.000 
#
# Total GULP energy -357285.814352 kJ/mol
# GULP energy per Si atom -5582.590849 kJ/mol
# Density = 1.821077 g / cm^3
# Si number density = 18.252316 Si / 1000 Ang^3
#
#
#
# Elastic Constant Matrix: (Units=GPa)
#
#
# Indices 1 2 3 4 5 6 
#
# 1 83.8599 19.5746 21.0583 0.0000 0.0000 0.0000
# 2 19.5746 42.4448 4.6616 0.0000 0.0000 0.0000
# 3 21.0583 4.6616 30.5040 0.0000 0.0000 0.0000
# 4 0.0000 0.0000 0.0000 32.8948 0.0000 0.0000
# 5 0.0000 0.0000 0.0000 0.0000 29.3661 0.0000
# 6 0.0000 0.0000 0.0000 0.0000 0.0000 19.8724
#
#
#
# Elastic Compliance Matrix: (Units=1/GPa)
#
#
# Indices 1 2 3 4 5 6 
#
# 1 0.015895 -0.006230 -0.010021 0.000000 0.000000 0.000000
# 2 -0.006230 0.026404 0.000266 0.000000 0.000000 0.000000
# 3 -0.010021 0.000266 0.039660 0.000000 0.000000 0.000000
# 4 0.000000 0.000000 0.000000 0.030400 0.000000 0.000000
# 5 0.000000 0.000000 0.000000 0.000000 0.034053 0.000000
# 6 0.000000 0.000000 0.000000 0.000000 0.000000 0.050321
#
#
# Mechanical properties :
#
#
# Convention : Reuss Voigt Hill
#
# Bulk Modulus (GPa) = 20.00453 27.48860 23.74657
# Shear Modulus (GPa) = 20.37766 23.86094 22.11930
#
# Velocity S-wave (km/s) = 3.34495 3.61956 3.48496
# Velocity P-wave (km/s) = 5.08940 5.70625 5.40663
#
# Compressibility (1/GPa) = 0.04998867
#
# Stress axis : x y z
#
# Youngs Moduli (GPa) = 62.91165 37.87309 25.21427
#
# Poissons Ratio (x) = 0.23595 0.25268
# Poissons Ratio (y) = 0.39194 -0.00670
# Poissons Ratio (z) = 0.63045 -0.01007
#
# Static dielectric constant tensor:
#      x y z
#    x 1.618590 0.000000 0.000000 
#    y 0.000000 1.664340 0.000000 
#    z 0.000000 0.000000 1.704590 
# 
# From -- ./inp_files/7562.got.cif
#   From: 2010.05.17/outbox.cif.g08.bks.cpg/sg60_4_cif.got.tgz:7562.got - 2010.06.03 14:59:27.
