data_PCOD9453218
_publ_section_title
;
Structure prediction by ZEFSAII (Michael W. Deem and Ramdas Pophale) SiO2 
 PCOD9453218
Probable space group: P M M N
;
_chemical_formula_sum "Si O2"
_cell_formula_units_Z 56
_cell_length_a 7.396178
_cell_length_b 14.631965
_cell_length_c 27.164252
_cell_angle_alpha 90.000000
_cell_angle_beta 90.000000
_cell_angle_gamma 90.000000
_cell_volume 2939.732129
_symmetry_space_group_name_H-M "P M M N"
_symmetry_group_IT_number 59
_space_group.IT_coordinate_system_code '2'
_symmetry_cell_setting 'orthorhombic'
loop_
_space_group_symop_operation_xyz
x,y,z
1/2-x,1/2-y,z
1/2+x,-y,-z
-x,1/2+y,-z
-x,-y,-z
1/2+x,1/2+y,-z
1/2-x,y,z
x,1/2-y,z
loop_
_atom_site_type_symbol
_atom_site_label
_atom_site_fract_x
_atom_site_fract_y
_atom_site_fract_z
Si Si1 0.529814 0.645315 0.219466
Si Si2 0.532610 0.645284 0.032275
Si Si3 0.529415 0.645024 0.331134
Si Si4 0.465954 0.031457 0.576692
Si Si5 0.966721 0.146052 0.478720
Si Si6 0.036511 0.647636 0.921777
Si Si7 0.528270 0.970121 0.126567
O O1 0.750000 0.644480 0.219243
O O2 0.476055 0.750000 0.208561
O O3 0.473566 0.623059 0.275241
O O4 0.469114 0.577124 0.176917
O O5 0.750000 0.646287 0.034179
O O6 0.468395 0.750000 0.035814
O O7 0.470158 0.588111 0.078961
O O8 0.483027 0.611747 0.977772
O O9 0.750000 0.644308 0.331757
O O10 0.475793 0.750000 0.342065
O O11 0.465494 0.575027 0.372675
O O12 0.250000 0.022025 0.581667
O O13 0.497957 0.103586 0.532621
O O14 0.535327 0.932284 0.558915
O O15 0.750000 0.150143 0.472994
O O16 0.035210 0.250000 0.473707
O O17 0.250000 0.655035 0.912956
O O18 0.959049 0.750000 0.919621
O O19 0.966446 0.573148 0.883674
O O20 0.750000 0.969606 0.126832
#
# Coordination Sequence:
#
# PCOD9453218 Si02
#       7
#     8   8   8   8   8   8   8
#     4   8  13  21  34  54  77  96 117 151 193 226
#     4   9  16  25  38  56  74  91 116 149 180 212
#     4   8  13  21  35  56  78  97 121 156 192 222
#     4   9  16  26  41  59  79 105 135 163 191 227
#     4   9  17  27  38  56  83 110 133 159 193 230
#     4   9  17  27  37  51  73  99 122 143 173 215
#     4   9  15  23  36  52  72  97 120 145 180 219
#
# _framework density 19.049354000000001
#
# number of rings (size 3 to 8) (size 9 to 14) (size 15 to 20)
#    0.000    3.286    0.000    2.143    0.000    2.571 
#    0.000    0.000    0.000    0.857    0.000    8.000 
#    0.000    4.571    0.000    4.000    0.000    5.143 
#
# Total GULP energy -312253.088304 kJ/mol
# GULP energy per Si atom -5575.948005 kJ/mol
# Density = 1.900600 g / cm^3
# Si number density = 19.049354 Si / 1000 Ang^3
#
#
#
# Elastic Constant Matrix: (Units=GPa)
#
#
# Indices 1 2 3 4 5 6 
#
# 1 65.3494 5.2938 1.4899 0.0000 0.0000 0.0000
# 2 5.2938 152.9584 112.9143 0.0000 0.0000 0.0000
# 3 1.4899 112.9143 154.8219 0.0000 0.0000 0.0000
# 4 0.0000 0.0000 0.0000 33.9711 0.0000 0.0000
# 5 0.0000 0.0000 0.0000 0.0000 8.7916 0.0000
# 6 0.0000 0.0000 0.0000 0.0000 0.0000 0.2340
#
#
#
# Elastic Compliance Matrix: (Units=1/GPa)
#
#
# Indices 1 2 3 4 5 6 
#
# 1 0.015365 -0.000916 0.000520 0.000000 0.000000 0.000000
# 2 -0.000916 0.014217 -0.010360 0.000000 0.000000 0.000000
# 3 0.000520 -0.010360 0.014010 0.000000 0.000000 0.000000
# 4 0.000000 0.000000 0.000000 0.029437 0.000000 0.000000
# 5 0.000000 0.000000 0.000000 0.000000 0.113745 0.000000
# 6 0.000000 0.000000 0.000000 0.000000 0.000000 4.274273
#
#
# Mechanical properties :
#
#
# Convention : Reuss Voigt Hill
#
# Bulk Modulus (GPa) = 45.28933 68.05839 56.67386
# Shear Modulus (GPa) = 1.11361 25.49476 13.30418
#
# Velocity S-wave (km/s) = 0.76541 3.66232 2.64560
# Velocity P-wave (km/s) = 4.96059 7.32724 6.25683
#
# Compressibility (1/GPa) = 0.02208025
#
# Stress axis : x y z
#
# Youngs Moduli (GPa) = 65.08433 70.33709 71.37851
#
# Poissons Ratio (x) = 0.06439 -0.03710
# Poissons Ratio (y) = 0.05958 0.73949
# Poissons Ratio (z) = -0.03383 0.72870
#
# Static dielectric constant tensor:
#      x y z
#    x 1.764900 0.000000 0.000000 
#    y 0.000000 1.680350 0.000000 
#    z 0.000000 0.000000 1.634620 
# 
# From -- ./inp_files/33174.got.cif
#   From: 2010.05.17/outbox.cif.g08.bks.cpg/sg59_17_cif.got.tgz:33174.got - 2010.06.03 14:40:33.
