data_PCOD9453626
_publ_section_title
;
Structure prediction by ZEFSAII (Michael W. Deem and Ramdas Pophale) SiO2 
 PCOD9453626
Probable space group: P M M N
;
_chemical_formula_sum "Si O2"
_cell_formula_units_Z 48
_cell_length_a 18.000000
_cell_length_b 9.000000
_cell_length_c 15.000000
_cell_angle_alpha 90.000000
_cell_angle_beta 90.000000
_cell_angle_gamma 90.000000
_cell_volume 2430.000000
_symmetry_space_group_name_H-M "P M M N"
_symmetry_group_IT_number 59
_space_group.IT_coordinate_system_code '2'
_symmetry_cell_setting 'orthorhombic'
loop_
_space_group_symop_operation_xyz
x,y,z
1/2-x,1/2-y,z
1/2+x,-y,-z
-x,1/2+y,-z
-x,-y,-z
1/2+x,1/2+y,-z
1/2-x,y,z
x,1/2-y,z
loop_
_atom_site_type_symbol
_atom_site_label
_atom_site_fract_x
_atom_site_fract_y
_atom_site_fract_z
Si Si1 0.463908 0.412296 0.238305
Si Si2 0.834365 0.088185 0.782458
Si Si3 0.664731 0.070328 0.301352
Si Si4 0.421859 0.423673 0.861982
Si Si5 0.167058 0.578188 0.003617
Si Si6 0.547539 0.418619 0.426955
O O1 0.475073 0.250000 0.199300
O O2 0.379800 0.453028 0.255225
O O3 0.496329 0.529852 0.168715
O O4 0.503959 0.418591 0.332958
O O5 0.750000 0.085338 0.753064
O O6 0.866407 0.250000 0.757815
O O7 0.834646 0.075495 0.889793
O O8 0.750000 0.033385 0.301859
O O9 0.655847 0.250000 0.297708
O O10 0.625368 0.016905 0.392314
O O11 0.628022 0.002898 0.213397
O O12 0.412382 0.250000 0.857894
O O13 0.395899 0.484157 0.956582
O O14 0.250000 0.527000 0.975647
O O15 0.159450 0.750000 0.975631
O O16 0.500000 0.500000 0.500000
O O17 0.558700 0.250000 0.457412
#
# Coordination Sequence:
#
# PCOD9453626 Si02
#       6
#     8   8   8   8   8   8
#     4  10  21  37  55  75 101 134 170 206 253 310
#     4   9  19  36  56  77 101 132 173 217 256 295
#     4   9  18  34  54  75 103 137 170 206 253 309
#     4  11  21  31  48  76 106 135 171 213 254 299
#     4   9  18  33  51  71 101 140 175 209 253 301
#     4   9  19  35  55  78 102 131 166 205 253 307
#
# _framework density 19.753086
#
# number of rings (size 3 to 8) (size 9 to 14) (size 15 to 20)
#    0.000    2.500    0.000    4.500    0.000    7.667 
#    0.000    2.500    0.000    3.000    0.000    0.000 
#    0.000    0.000    0.000    0.000    0.000    0.000 
#
# Total GULP energy -267320.618783 kJ/mol
# GULP energy per Si atom -5569.179558 kJ/mol
# Density = 1.970813 g / cm^3
# Si number density = 19.753086 Si / 1000 Ang^3
#
#
#
# Elastic Constant Matrix: (Units=GPa)
#
#
# Indices 1 2 3 4 5 6 
#
# 1 73.2141 21.0935 2.7982 0.0000 0.0000 0.0000
# 2 21.0935 15.0106 6.9782 0.0000 0.0000 0.0000
# 3 2.7982 6.9782 -8.8596 0.0000 0.0000 0.0000
# 4 0.0000 0.0000 0.0000 22.1498 0.0000 0.0000
# 5 0.0000 0.0000 0.0000 0.0000 19.7389 0.0000
# 6 0.0000 0.0000 0.0000 0.0000 0.0000 22.1045
#
#
#
# Elastic Compliance Matrix: (Units=1/GPa)
#
#
# Indices 1 2 3 4 5 6 
#
# 1 0.020995 -0.023852 -0.012156 0.000000 0.000000 0.000000
# 2 -0.023852 0.075862 0.052218 0.000000 0.000000 0.000000
# 3 -0.012156 0.052218 -0.075582 0.000000 0.000000 0.000000
# 4 0.000000 0.000000 0.000000 0.045147 0.000000 0.000000
# 5 0.000000 0.000000 0.000000 0.000000 0.050661 0.000000
# 6 0.000000 0.000000 0.000000 0.000000 0.000000 0.045240
#
#
# Mechanical properties :
#
#
# Convention : Reuss Voigt Hill
#
# Bulk Modulus (GPa) = 18.62330 15.67831 17.15081
# Shear Modulus (GPa) = 33.82916 16.03166 24.93041
#
# Velocity S-wave (km/s) = 4.14285 2.85196 3.55646
# Velocity P-wave (km/s) = 5.68619 4.33581 5.05628
#
# Compressibility (1/GPa) = 0.05369616
#
# Stress axis : x y z
#
# Youngs Moduli (GPa) = 47.63015 13.18184 -13.23073
#
# Poissons Ratio (x) = 0.31441 -0.16083
# Poissons Ratio (y) = 1.13608 0.69089
# Poissons Ratio (z) = 0.57898 -0.68833
#
# Static dielectric constant tensor:
#      x y z
#    x 1.845470 0.000000 0.000000 
#    y 0.000000 1.695200 0.000000 
#    z 0.000000 0.000000 1.659330 
# 
# From -- ./inp_files/20383.got.cif
#   From: 2010.05.17/outbox.ucp.g08.bks.cvg/sg59_11_cif.got.tgz:20383.got - 2010.06.11 16:43:56.
