data_PCOD9453355
_publ_section_title
;
Structure prediction by ZEFSAII (Michael W. Deem and Ramdas Pophale) SiO2 
 PCOD9453355
Probable space group: P M M N
;
_chemical_formula_sum "Si O2"
_cell_formula_units_Z 64
_cell_length_a 30.000000
_cell_length_b 9.000000
_cell_length_c 15.000000
_cell_angle_alpha 90.000000
_cell_angle_beta 90.000000
_cell_angle_gamma 90.000000
_cell_volume 4050.000000
_symmetry_space_group_name_H-M "P M M N"
_symmetry_group_IT_number 59
_space_group.IT_coordinate_system_code '2'
_symmetry_cell_setting 'orthorhombic'
loop_
_space_group_symop_operation_xyz
x,y,z
1/2-x,1/2-y,z
1/2+x,-y,-z
-x,1/2+y,-z
-x,-y,-z
1/2+x,1/2+y,-z
1/2-x,y,z
x,1/2-y,z
loop_
_atom_site_type_symbol
_atom_site_label
_atom_site_fract_x
_atom_site_fract_y
_atom_site_fract_z
Si Si1 0.119938 0.424299 0.417957
Si Si2 0.610083 0.574793 0.919919
Si Si3 0.300234 0.926408 0.346797
Si Si4 0.575821 0.082262 0.746306
Si Si5 0.038300 0.427935 0.939663
Si Si6 0.700084 0.572878 0.842627
Si Si7 0.541679 0.570618 0.448824
Si Si8 0.469599 0.079963 0.744121
O O1 0.128851 0.250000 0.415607
O O2 0.165567 0.513247 0.418455
O O3 0.095428 0.474239 0.327601
O O4 0.086278 0.459129 0.496880
O O5 0.603957 0.750000 0.897755
O O6 0.587450 0.477249 0.843534
O O7 0.662405 0.542203 0.915057
O O8 0.585071 0.548674 0.011573
O O9 0.250000 0.975828 0.365486
O O10 0.301458 0.750000 0.341839
O O11 0.311998 0.992641 0.249637
O O12 0.593138 0.250000 0.733089
O O13 0.522912 0.086415 0.736389
O O14 0.029180 0.250000 0.935085
O O15 0.039732 0.489918 0.839779
O O16 0.000000 0.500000 0.000000
O O17 0.750000 0.527829 0.867988
O O18 0.700037 0.750000 0.825771
O O19 0.500000 0.500000 0.500000
O O20 0.534716 0.750000 0.445504
O O21 0.546085 0.511753 0.348352
O O22 0.452115 0.250000 0.747391
#
# Coordination Sequence:
#
# PCOD9453355 Si02
#       8
#     8   8   8   8   8   8   8   8
#     4  11  21  31  46  69  95 125 159 194 234 276
#     4  10  19  29  44  67  92 121 156 189 224 271
#     4  10  20  32  47  68  93 122 156 191 231 281
#     4  11  19  28  46  66  92 127 158 189 225 270
#     4  10  19  31  46  65  90 120 156 190 225 270
#     4   9  17  29  44  64  92 121 148 183 228 273
#     4  10  20  33  48  67  91 122 160 195 232 277
#     4   9  18  32  46  63  90 124 158 191 230 268
#
# _framework density 15.802469
#
# number of rings (size 3 to 8) (size 9 to 14) (size 15 to 20)
#    0.000    2.000    3.750    1.125    0.000    1.250 
#    0.000    0.625    0.000    0.000    0.000    0.875 
#    0.000    5.000    0.000    3.375    0.000    3.125 
#
# Total GULP energy -356527.659026 kJ/mol
# GULP energy per Si atom -5570.744672 kJ/mol
# Density = 1.576650 g / cm^3
# Si number density = 15.802469 Si / 1000 Ang^3
#
#
#
# Elastic Constant Matrix: (Units=GPa)
#
#
# Indices 1 2 3 4 5 6 
#
# 1 85.7241 32.8354 49.6096 0.0000 0.0000 0.0000
# 2 32.8354 4.3208 21.3873 0.0000 0.0000 0.0000
# 3 49.6096 21.3873 104.3954 0.0000 0.0000 0.0000
# 4 0.0000 0.0000 0.0000 1.7060 0.0000 0.0000
# 5 0.0000 0.0000 0.0000 0.0000 9.5020 0.0000
# 6 0.0000 0.0000 0.0000 0.0000 0.0000 16.8636
#
#
#
# Elastic Compliance Matrix: (Units=1/GPa)
#
#
# Indices 1 2 3 4 5 6 
#
# 1 0.000117 0.043786 -0.009026 0.000000 0.000000 0.000000
# 2 0.043786 -0.120027 0.003782 0.000000 0.000000 0.000000
# 3 -0.009026 0.003782 0.013093 0.000000 0.000000 0.000000
# 4 0.000000 0.000000 0.000000 0.586177 0.000000 0.000000
# 5 0.000000 0.000000 0.000000 0.000000 0.105241 0.000000
# 6 0.000000 0.000000 0.000000 0.000000 0.000000 0.059299
#
#
# Mechanical properties :
#
#
# Convention : Reuss Voigt Hill
#
# Bulk Modulus (GPa) = -33.63360 44.67831 5.52236
# Shear Modulus (GPa) = 8.97816 11.65485 10.31650
#
# Velocity S-wave (km/s) = 2.38617 2.71870 2.55785
# Velocity P-wave (km/s) = 3.70651 6.17977 3.49652
#
# Compressibility (1/GPa) = -0.02973218
#
# Stress axis : x y z
#
# Youngs Moduli (GPa) = 8516.36550 -8.33148 76.37469
#
# Poissons Ratio (x) = 0.36480 0.68936
# Poissons Ratio (y) = -372.89364 -0.28888
# Poissons Ratio (z) = 76.86930 0.03151
#
# Static dielectric constant tensor:
#      x y z
#    x 1.554900 0.000000 0.000000 
#    y 0.000000 1.545070 0.000000 
#    z 0.000000 0.000000 1.538790 
# 
# From -- ./inp_files/25025.got.cif
#   From: 2010.05.17/outbox.ucp.g08.bks.cvg/sg59_13_cif.got.tgz:25025.got - 2010.06.11 16:43:56.
