data_PCOD9453038
_publ_section_title
;
Structure prediction by ZEFSAII (Michael W. Deem and Ramdas Pophale) SiO2 
 PCOD9453038
Probable space group: P M M N
;
_chemical_formula_sum "Si O2"
_cell_formula_units_Z 48
_cell_length_a 7.810806
_cell_length_b 19.060507
_cell_length_c 15.141438
_cell_angle_alpha 90.000000
_cell_angle_beta 90.000000
_cell_angle_gamma 90.000000
_cell_volume 2254.225832
_symmetry_space_group_name_H-M "P M M N"
_symmetry_group_IT_number 59
_space_group.IT_coordinate_system_code '2'
_symmetry_cell_setting 'orthorhombic'
loop_
_space_group_symop_operation_xyz
x,y,z
1/2-x,1/2-y,z
1/2+x,-y,-z
-x,1/2+y,-z
-x,-y,-z
1/2+x,1/2+y,-z
1/2-x,y,z
x,1/2-y,z
loop_
_atom_site_type_symbol
_atom_site_label
_atom_site_fract_x
_atom_site_fract_y
_atom_site_fract_z
Si Si1 0.041267 0.950133 0.873657
Si Si2 0.047586 0.896029 0.055690
Si Si3 0.949191 0.436698 0.629054
Si Si4 0.551296 0.671036 0.517003
Si Si5 0.540034 0.173181 0.772935
Si Si6 0.447996 0.586654 0.677553
O O1 0.250000 0.952489 0.873312
O O2 0.984484 0.926041 0.776842
O O3 0.981620 0.901960 0.955797
O O4 0.978734 0.027914 0.898865
O O5 0.250000 0.883056 0.047910
O O6 0.980623 0.841163 0.127264
O O7 0.750000 0.452549 0.644816
O O8 0.017855 0.388883 0.709175
O O9 0.963657 0.387376 0.543870
O O10 0.040038 0.511386 0.628354
O O11 0.750000 0.671693 0.491322
O O12 0.481744 0.750000 0.506217
O O13 0.537436 0.644402 0.617368
O O14 0.750000 0.171515 0.771530
O O15 0.487125 0.250000 0.741441
O O16 0.250000 0.607016 0.684715
#
# Coordination Sequence:
#
# PCOD9453038 Si02
#       6
#     8   8   8   8   8   8
#     4   9  18  31  51  79 109 140 179 226 272 316
#     4   9  16  30  51  76 107 143 182 222 269 323
#     4  11  21  36  59  85 112 145 187 231 281 335
#     4  11  25  43  60  80 109 146 186 230 284 340
#     4   9  17  29  49  79 112 144 181 225 274 329
#     4  11  22  37  58  85 115 146 188 235 278 329
#
# _framework density 21.293339
#
# number of rings (size 3 to 8) (size 9 to 14) (size 15 to 20)
#    0.000    2.000    1.667    2.500    0.000    2.667 
#    0.000    0.833    0.000    4.500    0.000    0.000 
#    0.000    0.000    0.000    0.000    0.000    0.000 
#
# Total GULP energy -267982.583013 kJ/mol
# GULP energy per Si atom -5582.970479 kJ/mol
# Density = 2.124487 g / cm^3
# Si number density = 21.293339 Si / 1000 Ang^3
#
#
#
# Elastic Constant Matrix: (Units=GPa)
#
#
# Indices 1 2 3 4 5 6 
#
# 1 31.7582 -4.3541 -7.3321 0.0000 0.0000 0.0000
# 2 -4.3541 50.0276 21.9486 0.0000 0.0000 0.0000
# 3 -7.3321 21.9486 110.3729 0.0000 0.0000 0.0000
# 4 0.0000 0.0000 0.0000 14.5767 0.0000 0.0000
# 5 0.0000 0.0000 0.0000 0.0000 11.7267 0.0000
# 6 0.0000 0.0000 0.0000 0.0000 0.0000 4.5777
#
#
#
# Elastic Compliance Matrix: (Units=1/GPa)
#
#
# Indices 1 2 3 4 5 6 
#
# 1 0.032167 0.002040 0.001731 0.000000 0.000000 0.000000
# 2 0.002040 0.022029 -0.004245 0.000000 0.000000 0.000000
# 3 0.001731 -0.004245 0.010019 0.000000 0.000000 0.000000
# 4 0.000000 0.000000 0.000000 0.068603 0.000000 0.000000
# 5 0.000000 0.000000 0.000000 0.000000 0.085276 0.000000
# 6 0.000000 0.000000 0.000000 0.000000 0.000000 0.218450
#
#
# Mechanical properties :
#
#
# Convention : Reuss Voigt Hill
#
# Bulk Modulus (GPa) = 15.80577 23.63151 19.71864
# Shear Modulus (GPa) = 10.90319 18.30262 14.60291
#
# Velocity S-wave (km/s) = 2.26530 2.93498 2.62161
# Velocity P-wave (km/s) = 3.77903 4.75475 4.29469
#
# Compressibility (1/GPa) = 0.06326802
#
# Stress axis : x y z
#
# Youngs Moduli (GPa) = 31.08748 45.39469 99.80657
#
# Poissons Ratio (x) = -0.09261 -0.17278
# Poissons Ratio (y) = -0.06342 0.42369
# Poissons Ratio (z) = -0.05382 0.19271
#
# Static dielectric constant tensor:
#      x y z
#    x 1.755090 0.000000 0.000000 
#    y 0.000000 1.739750 0.000000 
#    z 0.000000 0.000000 1.822140 
# 
# From -- ./inp_files/20378.got.cif
#   From: 2010.05.17/outbox.cif.g08.bks.cpg/sg59_11_cif.got.tgz:20378.got - 2010.06.03 14:40:33.
