data_PCOD9453815
_publ_section_title
;
Structure prediction by ZEFSAII (Michael W. Deem and Ramdas Pophale) SiO2 
 PCOD9453815
Probable space group: P B C N
;
_chemical_formula_sum "Si O2"
_cell_formula_units_Z 64
_cell_length_a 8.115523
_cell_length_b 18.766392
_cell_length_c 23.526207
_cell_angle_alpha 90.000000
_cell_angle_beta 90.000000
_cell_angle_gamma 90.000000
_cell_volume 3583.019821
_symmetry_space_group_name_H-M "P B C N"
_symmetry_group_IT_number 60
_symmetry_cell_setting 'orthorhombic'
loop_
_space_group_symop_operation_xyz
x,y,z
1/2-x,1/2-y,1/2+z
1/2+x,1/2-y,-z
-x,y,1/2-z
-x,-y,-z
1/2+x,1/2+y,1/2-z
1/2-x,1/2+y,z
x,-y,1/2+z
loop_
_atom_site_type_symbol
_atom_site_label
_atom_site_fract_x
_atom_site_fract_y
_atom_site_fract_z
Si Si1 0.452603 0.906076 0.944031
Si Si2 0.884466 0.774829 0.700448
Si Si3 0.376737 0.933385 0.437011
Si Si4 0.134660 0.820502 0.441125
Si Si5 0.889632 0.319871 0.378768
Si Si6 0.452624 0.797301 0.849664
Si Si7 0.342574 0.308022 0.219827
Si Si8 0.706165 0.298624 0.494752
O O1 0.516966 0.858400 0.891747
O O2 0.391224 0.983405 0.924890
O O3 0.576369 0.920814 0.996416
O O4 0.305902 0.857932 0.970271
O O5 0.726766 0.817775 0.676278
O O6 0.792874 0.709684 0.732832
O O7 0.000000 0.808118 0.750000
O O8 0.997990 0.740597 0.651326
O O9 0.199797 0.898004 0.426965
O O10 0.502129 0.886404 0.399496
O O11 0.085602 0.773195 0.387209
O O12 0.279508 0.775228 0.471477
O O13 0.979632 0.820033 0.482673
O O14 0.752036 0.342783 0.332683
O O15 0.796298 0.290803 0.434176
O O16 0.584588 0.767355 0.804833
O O17 0.500000 0.343508 0.250000
#
# Coordination Sequence:
#
# PCOD9453815 Si02
#       8
#     8   8   8   8   8   8   8   8
#     4   9  21  35  50  77 111 145 173 204 255 324
#     4   9  18  30  50  79 102 123 168 227 270 299
#     4  10  20  35  51  75 114 142 174 207 252 323
#     4  11  19  31  51  79 105 132 178 218 256 310
#     4  10  17  31  52  77 105 137 168 214 273 305
#     4  10  17  32  53  80  99 135 170 219 262 311
#     4   9  18  30  50  80 102 125 169 232 267 298
#     4  10  20  30  51  78 108 136 175 215 257 313
#
# _framework density 17.862026
#
# number of rings (size 3 to 8) (size 9 to 14) (size 15 to 20)
#    0.000    2.250    2.500    2.250    1.750    0.500 
#    0.000    0.000    0.000    6.750    3.250    0.000 
#    0.000    0.000    0.000    0.000    0.000    0.000 
#
# Total GULP energy -356588.879571 kJ/mol
# GULP energy per Si atom -5571.701243 kJ/mol
# Density = 1.782137 g / cm^3
# Si number density = 17.862026 Si / 1000 Ang^3
#
#
#
# Elastic Constant Matrix: (Units=GPa)
#
#
# Indices 1 2 3 4 5 6 
#
# 1 61.8693 4.0330 6.5764 0.0000 0.0000 0.0000
# 2 4.0330 67.7671 17.6715 0.0000 0.0000 0.0000
# 3 6.5764 17.6715 65.6844 0.0000 0.0000 0.0000
# 4 0.0000 0.0000 0.0000 11.5868 0.0000 0.0000
# 5 0.0000 0.0000 0.0000 0.0000 33.4876 0.0000
# 6 0.0000 0.0000 0.0000 0.0000 0.0000 10.8815
#
#
#
# Elastic Compliance Matrix: (Units=1/GPa)
#
#
# Indices 1 2 3 4 5 6 
#
# 1 0.016359 -0.000588 -0.001480 0.000000 0.000000 0.000000
# 2 -0.000588 0.015891 -0.004216 0.000000 0.000000 0.000000
# 3 -0.001480 -0.004216 0.016507 0.000000 0.000000 0.000000
# 4 0.000000 0.000000 0.000000 0.086305 0.000000 0.000000
# 5 0.000000 0.000000 0.000000 0.000000 0.029862 0.000000
# 6 0.000000 0.000000 0.000000 0.000000 0.000000 0.091899
#
#
# Mechanical properties :
#
#
# Convention : Reuss Voigt Hill
#
# Bulk Modulus (GPa) = 27.63287 27.98696 27.80991
# Shear Modulus (GPa) = 17.76497 22.32717 20.04607
#
# Velocity S-wave (km/s) = 3.15710 3.53934 3.35367
# Velocity P-wave (km/s) = 5.36595 5.69254 5.53166
#
# Compressibility (1/GPa) = 0.03618879
#
# Stress axis : x y z
#
# Youngs Moduli (GPa) = 61.12949 62.92913 60.58102
#
# Poissons Ratio (x) = 0.03698 0.08964
# Poissons Ratio (y) = 0.03592 0.25543
# Poissons Ratio (z) = 0.09046 0.26533
#
# Static dielectric constant tensor:
#      x y z
#    x 1.674470 0.000000 0.000000 
#    y 0.000000 1.563950 0.000000 
#    z 0.000000 0.000000 1.672840 
# 
# From -- ./inp_files/24158.got.cif
#   From: 2010.05.17/outbox.cif.g08.bks.cpg/sg60_13_cif.got.tgz:24158.got - 2010.06.03 14:59:27.
