data_PCOD9453450
_publ_section_title
;
Structure prediction by ZEFSAII (Michael W. Deem and Ramdas Pophale) SiO2 
 PCOD9453450
Probable space group: P M M N
;
_chemical_formula_sum "Si O2"
_cell_formula_units_Z 56
_cell_length_a 15.000000
_cell_length_b 21.000000
_cell_length_c 9.000000
_cell_angle_alpha 90.000000
_cell_angle_beta 90.000000
_cell_angle_gamma 90.000000
_cell_volume 2835.000000
_symmetry_space_group_name_H-M "P M M N"
_symmetry_group_IT_number 59
_space_group.IT_coordinate_system_code '2'
_symmetry_cell_setting 'orthorhombic'
loop_
_space_group_symop_operation_xyz
x,y,z
1/2-x,1/2-y,z
1/2+x,-y,-z
-x,1/2+y,-z
-x,-y,-z
1/2+x,1/2+y,-z
1/2-x,y,z
x,1/2-y,z
loop_
_atom_site_type_symbol
_atom_site_label
_atom_site_fract_x
_atom_site_fract_y
_atom_site_fract_z
Si Si1 0.852526 0.006003 0.834238
Si Si2 0.488615 0.936619 0.732531
Si Si3 0.851189 0.541426 0.178760
Si Si4 0.445769 0.675818 0.504920
Si Si5 0.250000 0.825634 0.860319
Si Si6 0.069876 0.319559 0.779346
Si Si7 0.925557 0.127154 0.973356
Si Si8 0.250000 0.673605 0.518804
O O1 0.750000 0.010299 0.790479
O O2 0.912417 0.964790 0.723702
O O3 0.897477 0.074844 0.852345
O O4 0.855848 0.977810 0.003544
O O5 0.468825 0.878430 0.623631
O O6 0.418746 0.995381 0.732139
O O7 0.478998 0.908487 0.897767
O O8 0.750000 0.528989 0.226839
O O9 0.874355 0.615972 0.196588
O O10 0.442182 0.750000 0.563295
O O11 0.519315 0.675577 0.377612
O O12 0.345675 0.658482 0.448876
O O13 0.250000 0.750000 0.852554
O O14 0.250000 0.850402 0.690376
O O15 0.336728 0.847797 0.948535
O O16 0.115146 0.250000 0.788791
O O17 0.990071 0.322380 0.899369
O O18 0.250000 0.750000 0.524181
#
# Coordination Sequence:
#
# PCOD9453450 Si02
#       8
#     8   8   8   8   4   8   8   4
#     4  10  19  36  60  86 119 150 187 243 300 343
#     4  11  20  37  64  86 116 150 196 242 287 344
#     4  10  21  37  62  90 115 154 201 242 291 344
#     4  10  23  38  58  84 119 159 191 237 298 351
#     4  11  20  29  55  91 115 145 193 234 276 353
#     4  11  23  40  57  82 121 158 193 243 296 339
#     4  11  19  35  57  87 114 148 189 238 291 344
#     4   9  18  35  53  81 115 149 191 222 276 355
#
# _framework density 19.753086
#
# number of rings (size 3 to 8) (size 9 to 14) (size 15 to 20)
#    0.000    1.571    5.000    1.286    2.000    2.000 
#    0.000    2.143    0.000    1.286    0.000    0.000 
#    0.000    0.000    0.000    0.000    0.000    0.000 
#
# Total GULP energy -312464.051448 kJ/mol
# GULP energy per Si atom -5579.715204 kJ/mol
# Density = 1.970813 g / cm^3
# Si number density = 19.753086 Si / 1000 Ang^3
#
#
#
# Elastic Constant Matrix: (Units=GPa)
#
#
# Indices 1 2 3 4 5 6 
#
# 1 37.9994 11.1219 8.0593 0.0000 0.0000 0.0000
# 2 11.1219 114.8093 18.7769 0.0000 0.0000 0.0000
# 3 8.0593 18.7769 18.9349 0.0000 0.0000 0.0000
# 4 0.0000 0.0000 0.0000 29.2208 0.0000 0.0000
# 5 0.0000 0.0000 0.0000 0.0000 13.7001 0.0000
# 6 0.0000 0.0000 0.0000 0.0000 0.0000 -269.5277
#
#
#
# Elastic Compliance Matrix: (Units=1/GPa)
#
#
# Indices 1 2 3 4 5 6 
#
# 1 0.029013 -0.000944 -0.011413 0.000000 0.000000 0.000000
# 2 -0.000944 0.010427 -0.009938 0.000000 0.000000 0.000000
# 3 -0.011413 -0.009938 0.067525 0.000000 0.000000 0.000000
# 4 0.000000 0.000000 0.000000 0.034222 0.000000 0.000000
# 5 0.000000 0.000000 0.000000 0.000000 0.072992 0.000000
# 6 0.000000 0.000000 0.000000 0.000000 0.000000 -0.003710
#
#
# Mechanical properties :
#
#
# Convention : Reuss Voigt Hill
#
# Bulk Modulus (GPa) = 16.03194 27.51778 21.77486
# Shear Modulus (GPa) = 18.12574 -36.40232 -9.13829
#
# Velocity S-wave (km/s) = 3.03250 -4.29752 -2.15321
# Velocity P-wave (km/s) = 4.51611 3.26555 2.20584
#
# Compressibility (1/GPa) = 0.06237548
#
# Stress axis : x y z
#
# Youngs Moduli (GPa) = 34.46724 95.90571 14.80927
#
# Poissons Ratio (x) = 0.09054 0.16901
# Poissons Ratio (y) = 0.03254 0.14718
# Poissons Ratio (z) = 0.39337 0.95312
#
# Static dielectric constant tensor:
#      x y z
#    x 1.662880 0.000000 0.000000 
#    y 0.000000 1.704520 0.000000 
#    z 0.000000 0.000000 1.692140 
# 
# From -- ./inp_files/9416.got.cif
#   From: 2010.05.17/outbox.ucp.g08.bks.cvg/sg59_5_cif.got.tgz:9416.got - 2010.06.11 16:43:56.
