data_PCOD9453473
_publ_section_title
;
Structure prediction by ZEFSAII (Michael W. Deem and Ramdas Pophale) SiO2 
 PCOD9453473
Probable space group: P M M N
;
_chemical_formula_sum "Si O2"
_cell_formula_units_Z 56
_cell_length_a 15.000000
_cell_length_b 9.000000
_cell_length_c 21.000000
_cell_angle_alpha 90.000000
_cell_angle_beta 90.000000
_cell_angle_gamma 90.000000
_cell_volume 2835.000000
_symmetry_space_group_name_H-M "P M M N"
_symmetry_group_IT_number 59
_space_group.IT_coordinate_system_code '2'
_symmetry_cell_setting 'orthorhombic'
loop_
_space_group_symop_operation_xyz
x,y,z
1/2-x,1/2-y,z
1/2+x,-y,-z
-x,1/2+y,-z
-x,-y,-z
1/2+x,1/2+y,-z
1/2-x,y,z
x,1/2-y,z
loop_
_atom_site_type_symbol
_atom_site_label
_atom_site_fract_x
_atom_site_fract_y
_atom_site_fract_z
Si Si1 0.145157 0.928952 0.033519
Si Si2 0.543962 0.922724 0.310776
Si Si3 0.850156 0.427594 0.686828
Si Si4 0.143089 0.083455 0.447012
Si Si5 0.521641 0.074197 0.088262
Si Si6 0.147477 0.421978 0.816137
Si Si7 0.644686 0.426233 0.423902
O O1 0.250000 0.976930 0.034840
O O2 0.146012 0.750000 0.038951
O O3 0.091219 0.968823 0.968731
O O4 0.075065 0.996181 0.084093
O O5 0.535552 0.750000 0.331956
O O6 0.446291 0.968019 0.282653
O O7 0.619590 0.925948 0.257130
O O8 0.580276 0.022381 0.367637
O O9 0.750000 0.485137 0.705903
O O10 0.843582 0.250000 0.690972
O O11 0.867557 0.481248 0.614685
O O12 0.250000 0.096360 0.453646
O O13 0.106507 0.250000 0.437858
O O14 0.113349 0.007487 0.511905
O O15 0.508086 0.250000 0.084014
O O16 0.577141 0.025214 0.148969
O O17 0.250000 0.466643 0.826252
O O18 0.137579 0.250000 0.838088
O O19 0.750000 0.464890 0.411308
O O20 0.641479 0.250000 0.432768
#
# Coordination Sequence:
#
# PCOD9453473 Si02
#       7
#     8   8   8   8   8   8   8
#     4   9  18  34  56  83 116 152 188 226 268 315
#     4  10  21  36  54  75 100 134 176 218 259 306
#     4   9  18  34  54  74  97 126 164 212 262 311
#     4   9  17  30  50  74  99 129 164 203 253 315
#     4  10  20  34  55  84 116 148 185 227 270 317
#     4  10  21  37  56  78 107 143 181 220 263 316
#     4  10  20  33  50  74 103 132 164 208 262 316
#
# _framework density 19.753086
#
# number of rings (size 3 to 8) (size 9 to 14) (size 15 to 20)
#    0.000    2.429    0.000    2.143    0.000    6.571 
#    0.000    0.714    0.000    2.571    0.000    0.000 
#    0.000    0.000    0.000    0.000    0.000    0.000 
#
# Total GULP energy -311964.784286 kJ/mol
# GULP energy per Si atom -5570.799719 kJ/mol
# Density = 1.970813 g / cm^3
# Si number density = 19.753086 Si / 1000 Ang^3
#
#
#
# Elastic Constant Matrix: (Units=GPa)
#
#
# Indices 1 2 3 4 5 6 
#
# 1 140.1587 17.2308 8.0573 0.0000 0.0000 0.0000
# 2 17.2308 -0.4150 1.6862 0.0000 0.0000 0.0000
# 3 8.0573 1.6862 14.6622 0.0000 0.0000 0.0000
# 4 0.0000 0.0000 0.0000 18.5253 0.0000 0.0000
# 5 0.0000 0.0000 0.0000 0.0000 24.5349 0.0000
# 6 0.0000 0.0000 0.0000 0.0000 0.0000 27.1875
#
#
#
# Elastic Compliance Matrix: (Units=1/GPa)
#
#
# Indices 1 2 3 4 5 6 
#
# 1 0.001747 0.046786 -0.006341 0.000000 0.000000 0.000000
# 2 0.046786 -0.389493 0.019084 0.000000 0.000000 0.000000
# 3 -0.006341 0.019084 0.069493 0.000000 0.000000 0.000000
# 4 0.000000 0.000000 0.000000 0.053980 0.000000 0.000000
# 5 0.000000 0.000000 0.000000 0.000000 0.040758 0.000000
# 6 0.000000 0.000000 0.000000 0.000000 0.000000 0.036782
#
#
# Mechanical properties :
#
#
# Convention : Reuss Voigt Hill
#
# Bulk Modulus (GPa) = -5.02021 23.15052 9.06516
# Shear Modulus (GPa) = -13.43400 22.54497 4.55548
#
# Velocity S-wave (km/s) = -2.61070 3.38204 1.52027
# Velocity P-wave (km/s) = 3.41096 5.19580 2.77143
#
# Compressibility (1/GPa) = -0.19919493
#
# Stress axis : x y z
#
# Youngs Moduli (GPa) = 572.26036 -2.56744 14.39003
#
# Poissons Ratio (x) = 0.12012 0.09125
# Poissons Ratio (y) = -26.77405 -0.27462
# Poissons Ratio (z) = 3.62873 0.04900
#
# Static dielectric constant tensor:
#      x y z
#    x 1.740260 0.000000 0.000000 
#    y 0.000000 1.666320 0.000000 
#    z 0.000000 0.000000 1.726860 
# 
# From -- ./inp_files/30388.got.cif
#   From: 2010.05.17/outbox.ucp.g08.bks.cvg/sg59_16_cif.got.tgz:30388.got - 2010.06.11 16:43:56.
