data_PCOD9453838
_publ_section_title
;
Structure prediction by ZEFSAII (Michael W. Deem and Ramdas Pophale) SiO2 
 PCOD9453838
Probable space group: P B C N
;
_chemical_formula_sum "Si O2"
_cell_formula_units_Z 36
_cell_length_a 11.317814
_cell_length_b 16.652504
_cell_length_c 10.160476
_cell_angle_alpha 90.000000
_cell_angle_beta 90.000000
_cell_angle_gamma 90.000000
_cell_volume 1914.944332
_symmetry_space_group_name_H-M "P B C N"
_symmetry_group_IT_number 60
_symmetry_cell_setting 'orthorhombic'
loop_
_space_group_symop_operation_xyz
x,y,z
1/2-x,1/2-y,1/2+z
1/2+x,1/2-y,-z
-x,y,1/2-z
-x,-y,-z
1/2+x,1/2+y,1/2-z
1/2-x,1/2+y,z
x,-y,1/2+z
loop_
_atom_site_type_symbol
_atom_site_label
_atom_site_fract_x
_atom_site_fract_y
_atom_site_fract_z
Si Si1 0.368455 0.974634 0.956430
Si Si2 0.175550 0.282953 0.960958
Si Si3 0.361361 0.292904 0.742225
Si Si4 0.702989 0.069766 0.311133
Si Si5 0.000000 0.302432 0.750000
O O1 0.345208 0.879397 0.973124
O O2 0.286696 0.025775 0.051840
O O3 0.342295 0.989648 0.803244
O O4 0.500000 0.000000 0.000000
O O5 0.180482 0.247071 0.105573
O O6 0.290664 0.264478 0.872079
O O7 0.065132 0.256081 0.867927
O O8 0.500000 0.280696 0.750000
O O9 0.322170 0.385776 0.729983
O O10 0.601279 0.139253 0.310991
#
# Coordination Sequence:
#
# PCOD9453838 Si02
#       5
#     8   8   8   8   4
#     4  10  17  33  57  87 109 143 188 250 292 328
#     4  10  22  36  60  87 119 151 202 239 301 341
#     4  10  24  39  56  84 123 159 191 237 293 362
#     4  10  19  34  55  83 117 142 189 239 296 340
#     4   8  16  34  54  80 114 142 176 250 286 328
#
# _framework density 18.799503000000001
#
# number of rings (size 3 to 8) (size 9 to 14) (size 15 to 20)
#    0.000    2.667    4.444    0.000    6.222    3.556 
#    0.000    4.444    0.000    0.000    0.000    0.000 
#    0.000    0.000    0.000    0.000    0.000    0.000 
#
# Total GULP energy -200487.230621 kJ/mol
# GULP energy per Si atom -5569.089739 kJ/mol
# Density = 1.875671 g / cm^3
# Si number density = 18.799503 Si / 1000 Ang^3
#
#
#
# Elastic Constant Matrix: (Units=GPa)
#
#
# Indices 1 2 3 4 5 6 
#
# 1 98.7939 15.8321 68.1578 0.0000 0.0000 0.0000
# 2 15.8321 17.9887 26.1001 0.0000 0.0000 0.0000
# 3 68.1578 26.1001 109.3177 0.0000 0.0000 0.0000
# 4 0.0000 0.0000 0.0000 38.5843 0.0000 0.0000
# 5 0.0000 0.0000 0.0000 0.0000 33.1431 0.0000
# 6 0.0000 0.0000 0.0000 0.0000 0.0000 13.1544
#
#
#
# Elastic Compliance Matrix: (Units=1/GPa)
#
#
# Indices 1 2 3 4 5 6 
#
# 1 0.017768 0.000666 -0.011237 0.000000 0.000000 0.000000
# 2 0.000666 0.085079 -0.020728 0.000000 0.000000 0.000000
# 3 -0.011237 -0.020728 0.021103 0.000000 0.000000 0.000000
# 4 0.000000 0.000000 0.000000 0.025917 0.000000 0.000000
# 5 0.000000 0.000000 0.000000 0.000000 0.030172 0.000000
# 6 0.000000 0.000000 0.000000 0.000000 0.000000 0.076020
#
#
# Mechanical properties :
#
#
# Convention : Reuss Voigt Hill
#
# Bulk Modulus (GPa) = 16.29954 49.58669 32.94312
# Shear Modulus (GPa) = 14.74457 24.71038 19.72747
#
# Velocity S-wave (km/s) = 2.80359 3.62942 3.24290
# Velocity P-wave (km/s) = 4.37826 6.63306 5.61990
#
# Compressibility (1/GPa) = 0.06135141
#
# Stress axis : x y z
#
# Youngs Moduli (GPa) = 56.28214 11.75374 47.38731
#
# Poissons Ratio (x) = -0.00783 0.53249
# Poissons Ratio (y) = -0.03750 0.98227
# Poissons Ratio (z) = 0.63244 0.24364
#
# Static dielectric constant tensor:
#      x y z
#    x 1.697020 0.000000 0.000000 
#    y 0.000000 1.656090 0.000000 
#    z 0.000000 0.000000 1.908150 
# 
# From -- ./inp_files/4880.got.cif
#   From: 2010.05.17/outbox.cif.g08.bks.cpg/sg60_3_cif.got.tgz:4880.got - 2010.06.03 14:59:27.
