data_PCOD9453591
_publ_section_title
;
Structure prediction by ZEFSAII (Michael W. Deem and Ramdas Pophale) SiO2 
 PCOD9453591
Probable space group: P M M N
;
_chemical_formula_sum "Si O2"
_cell_formula_units_Z 48
_cell_length_a 15.000000
_cell_length_b 9.000000
_cell_length_c 18.000000
_cell_angle_alpha 90.000000
_cell_angle_beta 90.000000
_cell_angle_gamma 90.000000
_cell_volume 2430.000000
_symmetry_space_group_name_H-M "P M M N"
_symmetry_group_IT_number 59
_space_group.IT_coordinate_system_code '2'
_symmetry_cell_setting 'orthorhombic'
loop_
_space_group_symop_operation_xyz
x,y,z
1/2-x,1/2-y,z
1/2+x,-y,-z
-x,1/2+y,-z
-x,-y,-z
1/2+x,1/2+y,-z
1/2-x,y,z
x,1/2-y,z
loop_
_atom_site_type_symbol
_atom_site_label
_atom_site_fract_x
_atom_site_fract_y
_atom_site_fract_z
Si Si1 0.083122 0.919293 0.335342
Si Si2 0.910096 0.080728 0.170424
Si Si3 0.601726 0.075232 0.336359
Si Si4 0.588207 0.083998 0.841133
Si Si5 0.750000 0.914276 0.423509
Si Si6 0.250000 0.082700 0.401009
Si Si7 0.250000 0.419264 0.086325
Si Si8 0.250000 0.912312 0.943070
O O1 0.065988 0.750000 0.358822
O O2 0.102233 0.917665 0.247402
O O3 0.165173 0.991531 0.375732
O O4 0.997825 0.020469 0.347757
O O5 0.944122 0.250000 0.180248
O O6 0.874303 0.033901 0.251260
O O7 0.834454 0.081071 0.109927
O O8 0.990530 0.978655 0.146350
O O9 0.610477 0.250000 0.343757
O O10 0.664499 0.997780 0.394203
O O11 0.594966 0.250000 0.869289
O O12 0.662630 0.989300 0.879365
O O13 0.750000 0.750000 0.391104
O O14 0.750000 0.907122 0.511087
O O15 0.250000 0.250000 0.369248
O O16 0.250000 0.250000 0.103797
O O17 0.250000 0.455533 0.000021
O O18 0.250000 0.750000 0.981763
#
# Coordination Sequence:
#
# PCOD9453591 Si02
#       8
#     8   8   8   8   4   4   4   4
#     4  10  21  38  61  87 113 144 185 233 283 334
#     4   9  19  37  61  87 112 143 185 230 276 328
#     4  10  20  37  62  88 113 145 187 232 280 334
#     4  10  21  38  60  85 112 144 183 229 280 331
#     4  11  24  39  55  81 117 153 190 231 278 332
#     4  11  24  39  56  81 114 153 192 231 278 332
#     4  12  25  38  55  81 113 150 189 228 274 330
#     4  10  21  38  58  81 114 150 183 226 276 326
#
# _framework density 19.753086
#
# number of rings (size 3 to 8) (size 9 to 14) (size 15 to 20)
#    0.000    1.833    0.000    3.750    0.000    9.333 
#    0.000    0.833    0.000    0.000    0.000    0.000 
#    0.000    0.000    0.000    0.000    0.000    0.000 
#
# Total GULP energy -267839.298110 kJ/mol
# GULP energy per Si atom -5579.985377 kJ/mol
# Density = 1.970813 g / cm^3
# Si number density = 19.753086 Si / 1000 Ang^3
#
#
#
# Elastic Constant Matrix: (Units=GPa)
#
#
# Indices 1 2 3 4 5 6 
#
# 1 -6.1270 65.4359 107.2323 0.0000 0.0000 0.0000
# 2 65.4359 70.6056 18.1133 0.0000 0.0000 0.0000
# 3 107.2323 18.1133 -17.3663 0.0000 0.0000 0.0000
# 4 0.0000 0.0000 0.0000 8.2816 0.0000 0.0000
# 5 0.0000 0.0000 0.0000 0.0000 35.4271 0.0000
# 6 0.0000 0.0000 0.0000 0.0000 0.0000 28.7489
#
#
#
# Elastic Compliance Matrix: (Units=1/GPa)
#
#
# Indices 1 2 3 4 5 6 
#
# 1 0.003280 -0.006498 0.013478 0.000000 0.000000 0.000000
# 2 -0.006498 0.024045 -0.015044 0.000000 0.000000 0.000000
# 3 0.013478 -0.015044 0.009950 0.000000 0.000000 0.000000
# 4 0.000000 0.000000 0.000000 0.120750 0.000000 0.000000
# 5 0.000000 0.000000 0.000000 0.000000 0.028227 0.000000
# 6 0.000000 0.000000 0.000000 0.000000 0.000000 0.034784
#
#
# Mechanical properties :
#
#
# Convention : Reuss Voigt Hill
#
# Bulk Modulus (GPa) = 47.28579 47.63060 47.45819
# Shear Modulus (GPa) = 20.47390 4.91356 12.69373
#
# Velocity S-wave (km/s) = 3.22295 1.57889 2.53775
# Velocity P-wave (km/s) = 6.15145 5.24301 5.71531
#
# Compressibility (1/GPa) = 0.02114800
#
# Stress axis : x y z
#
# Youngs Moduli (GPa) = 304.84147 41.58917 100.49933
#
# Poissons Ratio (x) = 0.27024 -1.35455
# Poissons Ratio (y) = 1.98084 1.51191
# Poissons Ratio (z) = -4.10871 0.62567
#
# Static dielectric constant tensor:
#      x y z
#    x 1.648380 0.000000 0.000000 
#    y 0.000000 1.699210 0.000000 
#    z 0.000000 0.000000 1.678280 
# 
# From -- ./inp_files/27510.got.cif
#   From: 2010.05.17/outbox.ucp.g08.bks.cvg/sg59_14_cif.got.tgz:27510.got - 2010.06.11 16:43:56.
