data_PCOD9453870
_publ_section_title
;
Structure prediction by ZEFSAII (Michael W. Deem and Ramdas Pophale) SiO2 
 PCOD9453870
Probable space group: P B C N
;
_chemical_formula_sum "Si O2"
_cell_formula_units_Z 52
_cell_length_a 23.895612
_cell_length_b 18.090051
_cell_length_c 5.487848
_cell_angle_alpha 90.000000
_cell_angle_beta 90.000000
_cell_angle_gamma 90.000000
_cell_volume 2372.247639
_symmetry_space_group_name_H-M "P B C N"
_symmetry_group_IT_number 60
_symmetry_cell_setting 'orthorhombic'
loop_
_space_group_symop_operation_xyz
x,y,z
1/2-x,1/2-y,1/2+z
1/2+x,1/2-y,-z
-x,y,1/2-z
-x,-y,-z
1/2+x,1/2+y,1/2-z
1/2-x,1/2+y,z
x,-y,1/2+z
loop_
_atom_site_type_symbol
_atom_site_label
_atom_site_fract_x
_atom_site_fract_y
_atom_site_fract_z
Si Si1 0.816158 0.804679 0.097010
Si Si2 0.923900 0.170334 0.368961
Si Si3 0.000000 0.258693 0.750000
Si Si4 0.109575 0.712397 0.029288
Si Si5 0.500000 0.949483 0.250000
Si Si6 0.111893 0.452984 0.070792
Si Si7 0.500000 0.455557 0.750000
Si Si8 0.200123 0.343988 0.216320
O O1 0.852447 0.766039 0.306845
O O2 0.762764 0.849607 0.186947
O O3 0.863652 0.852524 0.970561
O O4 0.799193 0.735819 0.920900
O O5 0.911846 0.238479 0.193223
O O6 0.948157 0.099860 0.238795
O O7 0.969045 0.203229 0.560591
O O8 0.051968 0.308805 0.660798
O O9 0.155673 0.655762 0.938216
O O10 0.556942 0.906018 0.328749
O O11 0.500000 0.000000 0.500000
O O12 0.109600 0.511637 0.298470
O O13 0.169268 0.406034 0.059012
O O14 0.500000 0.500000 0.500000
#
# Coordination Sequence:
#
# PCOD9453870 Si02
#       8
#     8   8   4   8   4   8   4   8
#     4  10  22  38  64  90 128 170 214 284 326 387
#     4  10  21  39  60  89 126 172 210 275 339 387
#     4  10  17  36  63  88 128 160 210 266 348 390
#     4  10  20  36  62  89 127 163 207 271 342 384
#     4   8  16  38  60  82 115 159 206 250 312 362
#     4  10  23  42  67  91 131 175 210 262 318 394
#     4  12  25  40  67  94 131 179 230 272 334 414
#     4  11  22  40  63  96 125 170 230 260 335 389
#
# _framework density 21.920141000000001
#
# number of rings (size 3 to 8) (size 9 to 14) (size 15 to 20)
#    0.000    1.846    3.077    0.462    4.308    0.000 
#    8.308    2.308    0.000    0.000    0.000    0.000 
#    0.000    0.000    0.000    0.000    0.000    0.000 
#
# Total GULP energy -289553.965586 kJ/mol
# GULP energy per Si atom -5568.345492 kJ/mol
# Density = 2.187025 g / cm^3
# Si number density = 21.920141 Si / 1000 Ang^3
#
#
#
# Elastic Constant Matrix: (Units=GPa)
#
#
# Indices 1 2 3 4 5 6 
#
# 1 159.3849 6.2146 29.1934 0.0000 0.0000 0.0000
# 2 6.2146 25.2894 10.3641 0.0000 0.0000 0.0000
# 3 29.1934 10.3641 90.4584 0.0000 0.0000 0.0000
# 4 0.0000 0.0000 0.0000 14.7066 0.0000 0.0000
# 5 0.0000 0.0000 0.0000 0.0000 33.6360 0.0000
# 6 0.0000 0.0000 0.0000 0.0000 0.0000 16.2432
#
#
#
# Elastic Compliance Matrix: (Units=1/GPa)
#
#
# Indices 1 2 3 4 5 6 
#
# 1 0.006684 -0.000796 -0.002066 0.000000 0.000000 0.000000
# 2 -0.000796 0.041585 -0.004508 0.000000 0.000000 0.000000
# 3 -0.002066 -0.004508 0.012238 0.000000 0.000000 0.000000
# 4 0.000000 0.000000 0.000000 0.067997 0.000000 0.000000
# 5 0.000000 0.000000 0.000000 0.000000 0.029730 0.000000
# 6 0.000000 0.000000 0.000000 0.000000 0.000000 0.061564
#
#
# Mechanical properties :
#
#
# Convention : Reuss Voigt Hill
#
# Bulk Modulus (GPa) = 21.84927 40.74187 31.29557
# Shear Modulus (GPa) = 20.01660 28.20784 24.11222
#
# Velocity S-wave (km/s) = 3.02513 3.59115 3.32023
# Velocity P-wave (km/s) = 4.71075 5.98515 5.38578
#
# Compressibility (1/GPa) = 0.04576812
#
# Stress axis : x y z
#
# Youngs Moduli (GPa) = 149.62166 24.04699 81.71298
#
# Poissons Ratio (x) = 0.01914 0.16880
# Poissons Ratio (y) = 0.11907 0.36834
# Poissons Ratio (z) = 0.30909 0.10840
#
# Static dielectric constant tensor:
#      x y z
#    x 1.880330 0.000000 0.000000 
#    y 0.000000 1.849570 0.000000 
#    z 0.000000 0.000000 1.942710 
# 
# From -- ./inp_files/2104.got.cif
#   From: 2010.05.17/outbox.cif.g08.bks.cpg/sg60_2_cif.got.tgz:2104.got - 2010.06.03 14:59:27.
