data_PCOD9453156
_publ_section_title
;
Structure prediction by ZEFSAII (Michael W. Deem and Ramdas Pophale) SiO2 
 PCOD9453156
Probable space group: P M M N
;
_chemical_formula_sum "Si O2"
_cell_formula_units_Z 48
_cell_length_a 19.494717
_cell_length_b 8.906643
_cell_length_c 15.237162
_cell_angle_alpha 90.000000
_cell_angle_beta 90.000000
_cell_angle_gamma 90.000000
_cell_volume 2645.666298
_symmetry_space_group_name_H-M "P M M N"
_symmetry_group_IT_number 59
_space_group.IT_coordinate_system_code '2'
_symmetry_cell_setting 'orthorhombic'
loop_
_space_group_symop_operation_xyz
x,y,z
1/2-x,1/2-y,z
1/2+x,-y,-z
-x,1/2+y,-z
-x,-y,-z
1/2+x,1/2+y,-z
1/2-x,y,z
x,1/2-y,z
loop_
_atom_site_type_symbol
_atom_site_label
_atom_site_fract_x
_atom_site_fract_y
_atom_site_fract_z
Si Si1 0.440576 0.928536 0.239643
Si Si2 0.831039 0.570559 0.106450
Si Si3 0.411400 0.571331 0.729694
Si Si4 0.071023 0.929340 0.034310
Si Si5 0.830700 0.570897 0.428117
Si Si6 0.329837 0.069976 0.367360
O O1 0.450162 0.750000 0.248924
O O2 0.422996 0.959565 0.137878
O O3 0.511454 0.010545 0.262591
O O4 0.380771 0.985756 0.302945
O O5 0.750000 0.539511 0.107514
O O6 0.841150 0.750000 0.107192
O O7 0.867450 0.501009 0.191562
O O8 0.867873 0.500852 0.021749
O O9 0.410609 0.750000 0.737619
O O10 0.377490 0.519107 0.638746
O O11 0.069335 0.750000 0.020924
O O12 0.000000 0.000000 0.000000
O O13 0.750000 0.540687 0.411288
O O14 0.841028 0.750000 0.415613
O O15 0.844443 0.535981 0.530227
O O16 0.250000 0.032516 0.350703
O O17 0.337193 0.250000 0.356732
#
# Coordination Sequence:
#
# PCOD9453156 Si02
#       6
#     8   8   8   8   8   8
#     4  11  24  40  61  88 120 158 198 245 300 356
#     4  11  24  41  62  89 122 159 199 246 300 358
#     4  12  24  37  59  89 121 158 199 247 299 357
#     4  11  23  40  63  87 117 158 201 247 298 354
#     4   9  19  38  62  86 118 159 198 243 299 355
#     4   9  20  40  64  89 118 155 200 247 296 353
#
# _framework density 18.142876999999999
#
# number of rings (size 3 to 8) (size 9 to 14) (size 15 to 20)
#    0.000    1.500    1.667    4.500    0.000    8.000 
#    0.000    5.000    0.000    0.000    0.000    0.000 
#    0.000    0.000    0.000    0.000    0.000    0.000 
#
# Total GULP energy -268346.641517 kJ/mol
# GULP energy per Si atom -5590.555032 kJ/mol
# Density = 1.810158 g / cm^3
# Si number density = 18.142877 Si / 1000 Ang^3
#
#
#
# Elastic Constant Matrix: (Units=GPa)
#
#
# Indices 1 2 3 4 5 6 
#
# 1 139.6194 88.8453 103.3863 0.0000 0.0000 0.0000
# 2 88.8453 95.1000 86.8841 0.0000 0.0000 0.0000
# 3 103.3863 86.8841 133.0159 0.0000 0.0000 0.0000
# 4 0.0000 0.0000 0.0000 34.9067 0.0000 0.0000
# 5 0.0000 0.0000 0.0000 0.0000 79.2171 0.0000
# 6 0.0000 0.0000 0.0000 0.0000 0.0000 36.2877
#
#
#
# Elastic Compliance Matrix: (Units=1/GPa)
#
#
# Indices 1 2 3 4 5 6 
#
# 1 0.021090 -0.011722 -0.008735 0.000000 0.000000 0.000000
# 2 -0.011722 0.032592 -0.012178 0.000000 0.000000 0.000000
# 3 -0.008735 -0.012178 0.022262 0.000000 0.000000 0.000000
# 4 0.000000 0.000000 0.000000 0.028648 0.000000 0.000000
# 5 0.000000 0.000000 0.000000 0.000000 0.012624 0.000000
# 6 0.000000 0.000000 0.000000 0.000000 0.000000 0.027558
#
#
# Mechanical properties :
#
#
# Convention : Reuss Voigt Hill
#
# Bulk Modulus (GPa) = 93.69123 102.88517 98.28820
# Shear Modulus (GPa) = 23.40812 35.99027 29.69919
#
# Velocity S-wave (km/s) = 3.59585 4.45872 4.05033
# Velocity P-wave (km/s) = 8.30620 9.12898 8.72730
#
# Compressibility (1/GPa) = 0.01067336
#
# Stress axis : x y z
#
# Youngs Moduli (GPa) = 47.41548 30.68233 44.92022
#
# Poissons Ratio (x) = 0.35967 0.39240
# Poissons Ratio (y) = 0.55582 0.54702
# Poissons Ratio (z) = 0.41419 0.37364
#
# Static dielectric constant tensor:
#      x y z
#    x 1.590060 0.000000 0.000000 
#    y 0.000000 1.605550 0.000000 
#    z 0.000000 0.000000 1.603560 
# 
# From -- ./inp_files/20436.got.cif
#   From: 2010.05.17/outbox.cif.g08.bks.cpg/sg59_11_cif.got.tgz:20436.got - 2010.06.03 14:40:33.
