data_PCOD9453925
_publ_section_title
;
Structure prediction by ZEFSAII (Michael W. Deem and Ramdas Pophale) SiO2 
 PCOD9453925
Probable space group: P B C N
;
_chemical_formula_sum "Si O2"
_cell_formula_units_Z 40
_cell_length_a 20.395026
_cell_length_b 9.125327
_cell_length_c 8.652845
_cell_angle_alpha 90.000000
_cell_angle_beta 90.000000
_cell_angle_gamma 90.000000
_cell_volume 1610.392071
_symmetry_space_group_name_H-M "P B C N"
_symmetry_group_IT_number 60
_symmetry_cell_setting 'orthorhombic'
loop_
_space_group_symop_operation_xyz
x,y,z
1/2-x,1/2-y,1/2+z
1/2+x,1/2-y,-z
-x,y,1/2-z
-x,-y,-z
1/2+x,1/2+y,1/2-z
1/2-x,1/2+y,z
x,-y,1/2+z
loop_
_atom_site_type_symbol
_atom_site_label
_atom_site_fract_x
_atom_site_fract_y
_atom_site_fract_z
Si Si1 0.969155 0.227590 0.402469
Si Si2 0.795621 0.443753 0.829863
Si Si3 0.587320 0.417752 0.400499
Si Si4 0.573490 0.851838 0.693341
Si Si5 0.277134 0.334322 0.974858
O O1 0.930523 0.340048 0.509503
O O2 0.000000 0.293994 0.250000
O O3 0.027916 0.157954 0.505546
O O4 0.927903 0.084005 0.357671
O O5 0.869229 0.448615 0.763882
O O6 0.789010 0.333979 0.977148
O O7 0.753144 0.374350 0.689985
O O8 0.769005 0.595956 0.892791
O O9 0.592654 0.312956 0.251497
O O10 0.652524 0.409493 0.500633
O O11 0.500000 0.882911 0.750000
#
# Coordination Sequence:
#
# PCOD9453925 Si02
#       5
#     8   8   8   8   8
#     4  10  18  29  56  93 123 162 207 266 329 376
#     4  11  25  44  67  97 130 178 220 275 331 396
#     4   9  19  32  54  87 129 161 206 267 327 376
#     4   9  20  39  58  86 126 167 215 272 318 385
#     4  11  25  41  66  96 134 175 222 270 332 399
#
# _framework density 24.838674000000001
#
# number of rings (size 3 to 8) (size 9 to 14) (size 15 to 20)
#    0.000    2.000    0.000    4.200   11.200    0.000 
#    0.000    3.000    0.000    0.000    0.000    0.000 
#    0.000    0.000    0.000    0.000    0.000    0.000 
#
# Total GULP energy -224087.710379 kJ/mol
# GULP energy per Si atom -5602.192759 kJ/mol
# Density = 2.478214 g / cm^3
# Si number density = 24.838674 Si / 1000 Ang^3
#
#
#
# Elastic Constant Matrix: (Units=GPa)
#
#
# Indices 1 2 3 4 5 6 
#
# 1 88.3239 14.2225 -19.7528 0.0000 0.0000 0.0000
# 2 14.2225 68.8719 11.9563 0.0000 0.0000 0.0000
# 3 -19.7528 11.9563 92.1355 0.0000 0.0000 0.0000
# 4 0.0000 0.0000 0.0000 19.6401 0.0000 0.0000
# 5 0.0000 0.0000 0.0000 0.0000 36.3652 0.0000
# 6 0.0000 0.0000 0.0000 0.0000 0.0000 9.9180
#
#
#
# Elastic Compliance Matrix: (Units=1/GPa)
#
#
# Indices 1 2 3 4 5 6 
#
# 1 0.012515 -0.003121 0.003088 0.000000 0.000000 0.000000
# 2 -0.003121 0.015632 -0.002698 0.000000 0.000000 0.000000
# 3 0.003088 -0.002698 0.011866 0.000000 0.000000 0.000000
# 4 0.000000 0.000000 0.000000 0.050916 0.000000 0.000000
# 5 0.000000 0.000000 0.000000 0.000000 0.027499 0.000000
# 6 0.000000 0.000000 0.000000 0.000000 0.000000 0.100826
#
#
# Mechanical properties :
#
#
# Convention : Reuss Voigt Hill
#
# Bulk Modulus (GPa) = 28.94109 29.13149 29.03629
# Shear Modulus (GPa) = 21.16560 29.37835 25.27198
#
# Velocity S-wave (km/s) = 2.92228 3.44287 3.19320
# Velocity P-wave (km/s) = 4.80242 5.24959 5.03097
#
# Compressibility (1/GPa) = 0.03455295
#
# Stress axis : x y z
#
# Youngs Moduli (GPa) = 79.90379 63.96958 84.27664
#
# Poissons Ratio (x) = 0.19962 -0.26025
# Poissons Ratio (y) = 0.24934 0.22735
# Poissons Ratio (z) = -0.24675 0.17256
#
# Static dielectric constant tensor:
#      x y z
#    x 1.959320 0.000000 0.000000 
#    y 0.000000 1.921730 0.000000 
#    z 0.000000 0.000000 1.989720 
# 
# From -- ./inp_files/6520.got.cif
#   From: 2010.05.17/outbox.cif.g08.bks.cpg/sg60_4_cif.got.tgz:6520.got - 2010.06.03 14:59:27.
