data_PCOD9453826
_publ_section_title
;
Structure prediction by ZEFSAII (Michael W. Deem and Ramdas Pophale) SiO2 
 PCOD9453826
Probable space group: P B C N
;
_chemical_formula_sum "Si O2"
_cell_formula_units_Z 52
_cell_length_a 16.104538
_cell_length_b 9.337381
_cell_length_c 18.679183
_cell_angle_alpha 90.000000
_cell_angle_beta 90.000000
_cell_angle_gamma 90.000000
_cell_volume 2808.867334
_symmetry_space_group_name_H-M "P B C N"
_symmetry_group_IT_number 60
_symmetry_cell_setting 'orthorhombic'
loop_
_space_group_symop_operation_xyz
x,y,z
1/2-x,1/2-y,1/2+z
1/2+x,1/2-y,-z
-x,y,1/2-z
-x,-y,-z
1/2+x,1/2+y,1/2-z
1/2-x,1/2+y,z
x,-y,1/2+z
loop_
_atom_site_type_symbol
_atom_site_label
_atom_site_fract_x
_atom_site_fract_y
_atom_site_fract_z
Si Si1 0.409870 0.256171 0.048289
Si Si2 0.443757 0.103659 0.363337
Si Si3 0.915688 0.976104 0.863136
Si Si4 0.844822 0.650925 0.001569
Si Si5 0.500000 0.315814 0.250000
Si Si6 0.758064 0.900176 0.934441
Si Si7 0.006274 0.307676 0.405105
O O1 0.480742 0.170778 0.090562
O O2 0.422763 0.422529 0.066555
O O3 0.322877 0.197585 0.078098
O O4 0.422896 0.224941 0.964385
O O5 0.366421 0.115754 0.417060
O O6 0.442000 0.207026 0.295272
O O7 0.464786 0.936212 0.353839
O O8 0.819332 0.927006 0.867463
O O9 0.974292 0.837342 0.868276
O O10 0.944816 0.080404 0.799834
O O11 0.813190 0.811547 0.990883
O O12 0.777556 0.543995 0.968678
O O13 0.927454 0.638152 0.952520
#
# Coordination Sequence:
#
# PCOD9453826 Si02
#       7
#     8   8   8   8   4   8   8
#     4  10  17  32  55  90 116 142 185 254 312 348
#     4  10  19  36  59  77 114 154 199 240 283 354
#     4  10  22  34  56  84 121 162 196 238 294 363
#     4  10  19  32  55  90 117 140 184 246 315 346
#     4  10  24  42  54  76 120 166 214 234 270 358
#     4  11  18  31  57  88 121 143 180 250 311 349
#     4  10  18  32  59  89 109 145 198 255 299 350
#
# _framework density 18.512799000000001
#
# number of rings (size 3 to 8) (size 9 to 14) (size 15 to 20)
#    0.000    1.846    4.615    1.385    0.000    1.846 
#    0.000    0.000    6.769    0.000    0.000    0.000 
#    0.000    0.000    0.000    0.000    0.000    0.000 
#
# Total GULP energy -289675.797950 kJ/mol
# GULP energy per Si atom -5570.688422 kJ/mol
# Density = 1.847066 g / cm^3
# Si number density = 18.512799 Si / 1000 Ang^3
#
#
#
# Elastic Constant Matrix: (Units=GPa)
#
#
# Indices 1 2 3 4 5 6 
#
# 1 64.1663 29.2625 21.0090 0.0000 0.0000 0.0000
# 2 29.2625 144.2414 44.6258 0.0000 0.0000 0.0000
# 3 21.0090 44.6258 62.6278 0.0000 0.0000 0.0000
# 4 0.0000 0.0000 0.0000 18.5009 0.0000 0.0000
# 5 0.0000 0.0000 0.0000 0.0000 14.2366 0.0000
# 6 0.0000 0.0000 0.0000 0.0000 0.0000 25.6076
#
#
#
# Elastic Compliance Matrix: (Units=1/GPa)
#
#
# Indices 1 2 3 4 5 6 
#
# 1 0.018083 -0.002298 -0.004428 0.000000 0.000000 0.000000
# 2 -0.002298 0.009186 -0.005774 0.000000 0.000000 0.000000
# 3 -0.004428 -0.005774 0.021567 0.000000 0.000000 0.000000
# 4 0.000000 0.000000 0.000000 0.054051 0.000000 0.000000
# 5 0.000000 0.000000 0.000000 0.000000 0.070242 0.000000
# 6 0.000000 0.000000 0.000000 0.000000 0.000000 0.039051
#
#
# Mechanical properties :
#
#
# Convention : Reuss Voigt Hill
#
# Bulk Modulus (GPa) = 41.95732 51.20335 46.58034
# Shear Modulus (GPa) = 20.39773 23.41157 21.90465
#
# Velocity S-wave (km/s) = 3.32297 3.56000 3.44352
# Velocity P-wave (km/s) = 6.11849 6.67956 6.40517
#
# Compressibility (1/GPa) = 0.02383374
#
# Stress axis : x y z
#
# Youngs Moduli (GPa) = 55.30195 108.86674 46.36661
#
# Poissons Ratio (x) = 0.25022 0.20532
# Poissons Ratio (y) = 0.12711 0.26773
# Poissons Ratio (z) = 0.24489 0.62862
#
# Static dielectric constant tensor:
#      x y z
#    x 1.667930 0.000000 0.000000 
#    y 0.000000 1.684420 0.000000 
#    z 0.000000 0.000000 1.640330 
# 
# From -- ./inp_files/20844.got.cif
#   From: 2010.05.17/outbox.cif.g08.bks.cpg/sg60_11_cif.got.tgz:20844.got - 2010.06.03 14:59:27.
