data_PCOD9453956
_publ_section_title
;
Structure prediction by ZEFSAII (Michael W. Deem and Ramdas Pophale) SiO2 
 PCOD9453956
Probable space group: P B C N
;
_chemical_formula_sum "Si O2"
_cell_formula_units_Z 44
_cell_length_a 12.126318
_cell_length_b 23.261675
_cell_length_c 8.757470
_cell_angle_alpha 90.000000
_cell_angle_beta 90.000000
_cell_angle_gamma 90.000000
_cell_volume 2470.293723
_symmetry_space_group_name_H-M "P B C N"
_symmetry_group_IT_number 60
_symmetry_cell_setting 'orthorhombic'
loop_
_space_group_symop_operation_xyz
x,y,z
1/2-x,1/2-y,1/2+z
1/2+x,1/2-y,-z
-x,y,1/2-z
-x,-y,-z
1/2+x,1/2+y,1/2-z
1/2-x,1/2+y,z
x,-y,1/2+z
loop_
_atom_site_type_symbol
_atom_site_label
_atom_site_fract_x
_atom_site_fract_y
_atom_site_fract_z
Si Si1 0.420484 0.418525 0.005045
Si Si2 0.664775 0.195760 0.352111
Si Si3 0.500000 0.492603 0.750000
Si Si4 0.266307 0.672586 0.651666
Si Si5 0.564314 0.202640 0.016071
Si Si6 0.372137 0.665272 0.985557
O O1 0.418471 0.452466 0.846945
O O2 0.433053 0.466483 0.135894
O O3 0.324300 0.374360 0.044965
O O4 0.534085 0.382167 0.005938
O O5 0.692952 0.262715 0.385547
O O6 0.626957 0.190945 0.177045
O O7 0.560166 0.182030 0.458964
O O8 0.775759 0.161787 0.389604
O O9 0.136045 0.674933 0.618582
O O10 0.309726 0.662244 0.822702
O O11 0.569978 0.272071 0.000079
#
# Coordination Sequence:
#
# PCOD9453956 Si02
#       6
#     8   8   4   8   8   8
#     4  11  20  38  52  80 102 138 164 227 256 306
#     4   9  18  31  47  75 105 141 171 197 243 322
#     4  10  24  34  56  74 102 130 188 210 268 298
#     4  10  18  31  51  71 108 139 163 206 261 299
#     4   9  18  31  47  75 105 141 171 197 243 322
#     4  10  18  31  51  71 108 139 163 206 261 299
#
# _framework density 17.811647000000001
#
# number of rings (size 3 to 8) (size 9 to 14) (size 15 to 20)
#    0.000    2.182    3.636    0.000    2.545    0.727 
#    0.000    0.000    0.000    0.000    0.000    7.636 
#    0.000    0.000    0.000    0.000    0.000    0.000 
#
# Total GULP energy -245438.937957 kJ/mol
# GULP energy per Si atom -5578.157681 kJ/mol
# Density = 1.777111 g / cm^3
# Si number density = 17.811647 Si / 1000 Ang^3
#
#
#
# Elastic Constant Matrix: (Units=GPa)
#
#
# Indices 1 2 3 4 5 6 
#
# 1 42.3719 5.3195 -0.7401 0.0000 0.0000 0.0000
# 2 5.3195 56.9654 23.2128 0.0000 0.0000 0.0000
# 3 -0.7401 23.2128 27.6730 0.0000 0.0000 0.0000
# 4 0.0000 0.0000 0.0000 22.3046 0.0000 0.0000
# 5 0.0000 0.0000 0.0000 0.0000 20.7815 0.0000
# 6 0.0000 0.0000 0.0000 0.0000 0.0000 11.9264
#
#
#
# Elastic Compliance Matrix: (Units=1/GPa)
#
#
# Indices 1 2 3 4 5 6 
#
# 1 0.024148 -0.003826 0.003855 0.000000 0.000000 0.000000
# 2 -0.003826 0.027277 -0.022983 0.000000 0.000000 0.000000
# 3 0.003855 -0.022983 0.055518 0.000000 0.000000 0.000000
# 4 0.000000 0.000000 0.000000 0.044834 0.000000 0.000000
# 5 0.000000 0.000000 0.000000 0.000000 0.048120 0.000000
# 6 0.000000 0.000000 0.000000 0.000000 0.000000 0.083848
#
#
# Mechanical properties :
#
#
# Convention : Reuss Voigt Hill
#
# Bulk Modulus (GPa) = 16.38385 20.28830 18.33608
# Shear Modulus (GPa) = 14.28584 17.61705 15.95144
#
# Velocity S-wave (km/s) = 2.83512 3.14837 2.99584
# Velocity P-wave (km/s) = 4.46493 4.96301 4.72054
#
# Compressibility (1/GPa) = 0.06103572
#
# Stress axis : x y z
#
# Youngs Moduli (GPa) = 41.41093 36.66080 18.01218
#
# Poissons Ratio (x) = 0.14026 -0.06944
# Poissons Ratio (y) = 0.15843 0.41397
# Poissons Ratio (z) = -0.15964 0.84257
#
# Static dielectric constant tensor:
#      x y z
#    x 1.602190 0.000000 0.000000 
#    y 0.000000 1.583500 0.000000 
#    z 0.000000 0.000000 1.666480 
# 
# From -- ./inp_files/5019.got.cif
#   From: 2010.05.17/outbox.cif.g08.bks.cpg/sg60_3_cif.got.tgz:5019.got - 2010.06.03 14:59:27.
