data_PCOD9453755
_publ_section_title
;
Structure prediction by ZEFSAII (Michael W. Deem and Ramdas Pophale) SiO2 
 PCOD9453755
Probable space group: P B C N
;
_chemical_formula_sum "Si O2"
_cell_formula_units_Z 40
_cell_length_a 13.253377
_cell_length_b 28.133353
_cell_length_c 5.182016
_cell_angle_alpha 90.000000
_cell_angle_beta 90.000000
_cell_angle_gamma 90.000000
_cell_volume 1932.176506
_symmetry_space_group_name_H-M "P B C N"
_symmetry_group_IT_number 60
_symmetry_cell_setting 'orthorhombic'
loop_
_space_group_symop_operation_xyz
x,y,z
1/2-x,1/2-y,1/2+z
1/2+x,1/2-y,-z
-x,y,1/2-z
-x,-y,-z
1/2+x,1/2+y,1/2-z
1/2-x,1/2+y,z
x,-y,1/2+z
loop_
_atom_site_type_symbol
_atom_site_label
_atom_site_fract_x
_atom_site_fract_y
_atom_site_fract_z
Si Si1 0.778663 0.968816 0.509758
Si Si2 0.044879 0.445836 0.998138
Si Si3 0.665963 0.704228 0.754113
Si Si4 0.938016 0.111272 0.987810
Si Si5 0.615425 0.234699 0.748896
O O1 0.663619 0.950833 0.516473
O O2 0.852657 0.925802 0.566099
O O3 0.793311 0.008488 0.728600
O O4 0.000000 0.422221 0.250000
O O5 0.000000 0.421021 0.750000
O O6 0.000000 0.500000 0.000000
O O7 0.787904 0.699901 0.774015
O O8 0.631959 0.725526 0.476459
O O9 0.611839 0.656442 0.845301
O O10 0.632966 0.741871 0.970361
O O11 0.000000 0.123118 0.250000
O O12 0.000000 0.088303 0.750000
O O13 0.500000 0.217003 0.750000
#
# Coordination Sequence:
#
# PCOD9453755 Si02
#       5
#     8   8   8   8   8
#     4  12  23  38  61  86 114 153 208 253 292 355
#     4  10  16  32  58  83 103 135 181 238 282 358
#     4  10  21  37  60  90 118 158 195 230 291 359
#     4  12  26  42  59  83 121 159 202 250 300 354
#     4  10  19  35  64  92 120 151 192 239 284 351
#
# _framework density 20.702043
#
# number of rings (size 3 to 8) (size 9 to 14) (size 15 to 20)
#    0.000    1.200    4.000    4.800    0.000    2.400 
#    0.000    1.000    0.000    4.800    0.000    0.000 
#    0.000    0.000    0.000    0.000    0.000    0.000 
#
# Total GULP energy -223225.589885 kJ/mol
# GULP energy per Si atom -5580.639747 kJ/mol
# Density = 2.065492 g / cm^3
# Si number density = 20.702043 Si / 1000 Ang^3
#
#
#
# Elastic Constant Matrix: (Units=GPa)
#
#
# Indices 1 2 3 4 5 6 
#
# 1 163.0307 34.0835 18.6939 0.0000 0.0000 0.0000
# 2 34.0835 24.2835 -2.8733 0.0000 0.0000 0.0000
# 3 18.6939 -2.8733 119.5880 0.0000 0.0000 0.0000
# 4 0.0000 0.0000 0.0000 37.6900 0.0000 0.0000
# 5 0.0000 0.0000 0.0000 0.0000 31.6177 0.0000
# 6 0.0000 0.0000 0.0000 0.0000 0.0000 113.4927
#
#
#
# Elastic Compliance Matrix: (Units=1/GPa)
#
#
# Indices 1 2 3 4 5 6 
#
# 1 0.009020 -0.012864 -0.001719 0.000000 0.000000 0.000000
# 2 -0.012864 0.059643 0.003444 0.000000 0.000000 0.000000
# 3 -0.001719 0.003444 0.008714 0.000000 0.000000 0.000000
# 4 0.000000 0.000000 0.000000 0.026532 0.000000 0.000000
# 5 0.000000 0.000000 0.000000 0.000000 0.031628 0.000000
# 6 0.000000 0.000000 0.000000 0.000000 0.000000 0.008811
#
#
# Mechanical properties :
#
#
# Convention : Reuss Voigt Hill
#
# Bulk Modulus (GPa) = 18.14931 45.19005 31.66968
# Shear Modulus (GPa) = 27.02809 53.69328 40.36069
#
# Velocity S-wave (km/s) = 3.61720 5.09829 4.42022
# Velocity P-wave (km/s) = 5.12166 7.51884 6.43290
#
# Compressibility (1/GPa) = 0.05509852
#
# Stress axis : x y z
#
# Youngs Moduli (GPa) = 110.86096 16.76641 114.76417
#
# Poissons Ratio (x) = 0.21568 0.19729
# Poissons Ratio (y) = 1.42611 -0.39524
# Poissons Ratio (z) = 0.19058 -0.05774
#
# Static dielectric constant tensor:
#      x y z
#    x 1.778960 0.000000 0.000000 
#    y 0.000000 1.693940 0.000000 
#    z 0.000000 0.000000 1.760990 
# 
# From -- ./inp_files/936.got.cif
#   From: 2010.05.17/outbox.cif.g08.bks.cpg/sg60_1_cif.got.tgz:936.got - 2010.06.03 14:59:27.
