data_PCOD9453477
_publ_section_title
;
Structure prediction by ZEFSAII (Michael W. Deem and Ramdas Pophale) SiO2 
 PCOD9453477
Probable space group: P M M N
;
_chemical_formula_sum "Si O2"
_cell_formula_units_Z 64
_cell_length_a 30.000000
_cell_length_b 9.000000
_cell_length_c 15.000000
_cell_angle_alpha 90.000000
_cell_angle_beta 90.000000
_cell_angle_gamma 90.000000
_cell_volume 4050.000000
_symmetry_space_group_name_H-M "P M M N"
_symmetry_group_IT_number 59
_space_group.IT_coordinate_system_code '2'
_symmetry_cell_setting 'orthorhombic'
loop_
_space_group_symop_operation_xyz
x,y,z
1/2-x,1/2-y,z
1/2+x,-y,-z
-x,1/2+y,-z
-x,-y,-z
1/2+x,1/2+y,-z
1/2-x,y,z
x,1/2-y,z
loop_
_atom_site_type_symbol
_atom_site_label
_atom_site_fract_x
_atom_site_fract_y
_atom_site_fract_z
Si Si1 0.933226 0.075632 0.452484
Si Si2 0.396389 0.071216 0.044387
Si Si3 0.966696 0.924641 0.627504
Si Si4 0.698255 0.424468 0.211992
Si Si5 0.057904 0.930124 0.869416
Si Si6 0.199845 0.074137 0.980242
Si Si7 0.614466 0.927439 0.291499
Si Si8 0.536092 0.070863 0.820876
O O1 0.921631 0.250000 0.459833
O O2 0.982022 0.067340 0.405900
O O3 0.938133 0.998760 0.548547
O O4 0.900415 0.987193 0.387549
O O5 0.403978 0.250000 0.044634
O O6 0.421665 0.992931 0.125603
O O7 0.343010 0.045294 0.041653
O O8 0.417127 0.998773 0.954910
O O9 0.956036 0.750000 0.640135
O O10 0.962308 0.014555 0.719054
O O11 0.750000 0.441903 0.237961
O O12 0.686384 0.250000 0.217780
O O13 0.694598 0.479355 0.109802
O O14 0.664545 0.522552 0.269069
O O15 0.057326 0.750000 0.871735
O O16 0.083853 0.989472 0.782153
O O17 0.008057 0.996143 0.863885
O O18 0.250000 0.046213 0.016200
O O19 0.197751 0.250000 0.956414
O O20 0.608766 0.750000 0.284083
O O21 0.533507 0.250000 0.825964
#
# Coordination Sequence:
#
# PCOD9453477 Si02
#       8
#     8   8   8   8   8   8   8   8
#     4  10  20  34  54  77 104 135 169 211 256 306
#     4  11  22  36  53  75 104 139 177 216 261 313
#     4  10  20  35  54  76 103 134 171 215 258 303
#     4  10  20  33  51  75 104 137 173 215 261 309
#     4  12  23  36  51  72 104 140 180 219 257 306
#     4   9  18  33  53  75 100 132 171 215 261 309
#     4  12  22  33  52  77 106 141 177 213 257 312
#     4  12  24  37  53  73 103 141 181 220 260 307
#
# _framework density 15.802469
#
# number of rings (size 3 to 8) (size 9 to 14) (size 15 to 20)
#    0.000    1.250    2.500    5.250    0.000    2.250 
#    0.000    0.000    0.000    0.000    0.000    0.875 
#    0.000    5.000    0.000    0.000    0.000    0.000 
#
# Total GULP energy -357479.121218 kJ/mol
# GULP energy per Si atom -5585.611269 kJ/mol
# Density = 1.576650 g / cm^3
# Si number density = 15.802469 Si / 1000 Ang^3
#
#
#
# Elastic Constant Matrix: (Units=GPa)
#
#
# Indices 1 2 3 4 5 6 
#
# 1 92.9640 51.2825 38.1077 0.0000 0.0000 0.0000
# 2 51.2825 141.2221 35.6749 0.0000 0.0000 0.0000
# 3 38.1077 35.6749 64.7225 0.0000 0.0000 0.0000
# 4 0.0000 0.0000 0.0000 29.5893 0.0000 0.0000
# 5 0.0000 0.0000 0.0000 0.0000 22.7688 0.0000
# 6 0.0000 0.0000 0.0000 0.0000 0.0000 24.7272
#
#
#
# Elastic Compliance Matrix: (Units=1/GPa)
#
#
# Indices 1 2 3 4 5 6 
#
# 1 0.015877 -0.003955 -0.007168 0.000000 0.000000 0.000000
# 2 -0.003955 0.009212 -0.002749 0.000000 0.000000 0.000000
# 3 -0.007168 -0.002749 0.021186 0.000000 0.000000 0.000000
# 4 0.000000 0.000000 0.000000 0.033796 0.000000 0.000000
# 5 0.000000 0.000000 0.000000 0.000000 0.043920 0.000000
# 6 0.000000 0.000000 0.000000 0.000000 0.000000 0.040441
#
#
# Mechanical properties :
#
#
# Convention : Reuss Voigt Hill
#
# Bulk Modulus (GPa) = 53.96352 61.00432 57.48392
# Shear Modulus (GPa) = 25.20768 27.00663 26.10716
#
# Velocity S-wave (km/s) = 3.99830 4.13851 4.06900
# Velocity P-wave (km/s) = 7.45239 7.84375 7.65057
#
# Compressibility (1/GPa) = 0.01853104
#
# Stress axis : x y z
#
# Youngs Moduli (GPa) = 62.98516 108.55975 47.20014
#
# Poissons Ratio (x) = 0.42931 0.33834
# Poissons Ratio (y) = 0.24908 0.12975
# Poissons Ratio (z) = 0.45149 0.29843
#
# Static dielectric constant tensor:
#      x y z
#    x 1.540960 0.000000 0.000000 
#    y 0.000000 1.523950 0.000000 
#    z 0.000000 0.000000 1.509790 
# 
# From -- ./inp_files/25049.got.cif
#   From: 2010.05.17/outbox.ucp.g08.bks.cvg/sg59_13_cif.got.tgz:25049.got - 2010.06.11 16:43:56.
