data_PCOD9453869
_publ_section_title
;
Structure prediction by ZEFSAII (Michael W. Deem and Ramdas Pophale) SiO2 
 PCOD9453869
Probable space group: P B C N
;
_chemical_formula_sum "Si O2"
_cell_formula_units_Z 48
_cell_length_a 8.679102
_cell_length_b 18.486707
_cell_length_c 15.426569
_cell_angle_alpha 90.000000
_cell_angle_beta 90.000000
_cell_angle_gamma 90.000000
_cell_volume 2475.162385
_symmetry_space_group_name_H-M "P B C N"
_symmetry_group_IT_number 60
_symmetry_cell_setting 'orthorhombic'
loop_
_space_group_symop_operation_xyz
x,y,z
1/2-x,1/2-y,1/2+z
1/2+x,1/2-y,-z
-x,y,1/2-z
-x,-y,-z
1/2+x,1/2+y,1/2-z
1/2-x,1/2+y,z
x,-y,1/2+z
loop_
_atom_site_type_symbol
_atom_site_label
_atom_site_fract_x
_atom_site_fract_y
_atom_site_fract_z
Si Si1 0.964326 0.584809 0.012619
Si Si2 0.178143 0.179258 0.237948
Si Si3 0.653327 0.777900 0.932247
Si Si4 0.347789 0.056459 0.305580
Si Si5 0.083298 0.388878 0.334974
Si Si6 0.318330 0.730337 0.891870
O O1 0.848198 0.583816 0.094179
O O2 0.094148 0.640365 0.046908
O O3 0.000000 0.500000 0.000000
O O4 0.955844 0.610045 0.912447
O O5 0.233848 0.212276 0.147923
O O6 0.212842 0.094005 0.251586
O O7 0.277456 0.216565 0.313537
O O8 0.000000 0.192643 0.250000
O O9 0.501134 0.732180 0.907881
O O10 0.738717 0.747791 0.017036
O O11 0.500000 0.078754 0.250000
O O12 0.359113 0.969903 0.312764
O O13 0.231068 0.343184 0.364852
O O14 0.000000 0.359064 0.250000
#
# Coordination Sequence:
#
# PCOD9453869 Si02
#       6
#     8   8   8   8   8   8
#     4   9  17  33  62  89 112 152 202 250 299 366
#     4  12  23  38  62  88 123 165 211 254 305 370
#     4  11  22  40  64  89 121 163 206 254 310 369
#     4  10  17  36  62  88 114 158 206 251 307 372
#     4   9  20  34  59  92 126 157 201 252 314 373
#     4  11  22  39  60  90 126 158 205 253 309 371
#
# _framework density 19.392666999999999
#
# number of rings (size 3 to 8) (size 9 to 14) (size 15 to 20)
#    0.000    1.667    3.333    2.000    0.000    1.333 
#    0.000    1.667    3.667    4.000    0.000    0.000 
#    0.000    0.000    0.000    0.000    0.000    0.000 
#
# Total GULP energy -267301.632868 kJ/mol
# GULP energy per Si atom -5568.784018 kJ/mol
# Density = 1.934853 g / cm^3
# Si number density = 19.392667 Si / 1000 Ang^3
#
#
#
# Elastic Constant Matrix: (Units=GPa)
#
#
# Indices 1 2 3 4 5 6 
#
# 1 73.9562 5.3173 33.2850 0.0000 0.0000 0.0000
# 2 5.3173 58.4612 17.6672 0.0000 0.0000 0.0000
# 3 33.2850 17.6672 137.9846 0.0000 0.0000 0.0000
# 4 0.0000 0.0000 0.0000 25.1239 0.0000 0.0000
# 5 0.0000 0.0000 0.0000 0.0000 28.0812 0.0000
# 6 0.0000 0.0000 0.0000 0.0000 0.0000 10.8602
#
#
#
# Elastic Compliance Matrix: (Units=1/GPa)
#
#
# Indices 1 2 3 4 5 6 
#
# 1 0.015173 -0.000285 -0.003624 0.000000 0.000000 0.000000
# 2 -0.000285 0.017799 -0.002210 0.000000 0.000000 0.000000
# 3 -0.003624 -0.002210 0.008404 0.000000 0.000000 0.000000
# 4 0.000000 0.000000 0.000000 0.039803 0.000000 0.000000
# 5 0.000000 0.000000 0.000000 0.000000 0.035611 0.000000
# 6 0.000000 0.000000 0.000000 0.000000 0.000000 0.092079
#
#
# Mechanical properties :
#
#
# Convention : Reuss Voigt Hill
#
# Bulk Modulus (GPa) = 34.31853 42.54902 38.43377
# Shear Modulus (GPa) = 21.66194 27.08856 24.37525
#
# Velocity S-wave (km/s) = 3.34581 3.74149 3.54917
# Velocity P-wave (km/s) = 5.71498 6.37601 6.05452
#
# Compressibility (1/GPa) = 0.02913878
#
# Stress axis : x y z
#
# Youngs Moduli (GPa) = 65.90731 56.18227 118.98738
#
# Poissons Ratio (x) = 0.01601 0.43115
# Poissons Ratio (y) = 0.01878 0.26299
# Poissons Ratio (z) = 0.23882 0.12418
#
# Static dielectric constant tensor:
#      x y z
#    x 1.678560 0.000000 0.000000 
#    y 0.000000 1.731150 0.000000 
#    z 0.000000 0.000000 1.705930 
# 
# From -- ./inp_files/15034.got.cif
#   From: 2010.05.17/outbox.cif.g08.bks.cpg/sg60_8_cif.got.tgz:15034.got - 2010.06.03 14:59:27.
