data_PCOD9453919
_publ_section_title
;
Structure prediction by ZEFSAII (Michael W. Deem and Ramdas Pophale) SiO2 
 PCOD9453919
Probable space group: P B C N
;
_chemical_formula_sum "Si O2"
_cell_formula_units_Z 40
_cell_length_a 22.955034
_cell_length_b 7.816693
_cell_length_c 8.262460
_cell_angle_alpha 90.000000
_cell_angle_beta 90.000000
_cell_angle_gamma 90.000000
_cell_volume 1482.553470
_symmetry_space_group_name_H-M "P B C N"
_symmetry_group_IT_number 60
_symmetry_cell_setting 'orthorhombic'
loop_
_space_group_symop_operation_xyz
x,y,z
1/2-x,1/2-y,1/2+z
1/2+x,1/2-y,-z
-x,y,1/2-z
-x,-y,-z
1/2+x,1/2+y,1/2-z
1/2-x,1/2+y,z
x,-y,1/2+z
loop_
_atom_site_type_symbol
_atom_site_label
_atom_site_fract_x
_atom_site_fract_y
_atom_site_fract_z
Si Si1 0.522642 0.185883 0.430964
Si Si2 0.256637 0.826840 0.378054
Si Si3 0.118975 0.538358 0.904765
Si Si4 0.421537 0.264693 0.605833
Si Si5 0.813289 0.952605 0.817277
O O1 0.500000 0.212049 0.250000
O O2 0.591523 0.165120 0.457682
O O3 0.487227 0.306704 0.554899
O O4 0.500000 0.000000 0.500000
O O5 0.312192 0.954286 0.383600
O O6 0.292312 0.654410 0.341135
O O7 0.218847 0.856580 0.536525
O O8 0.213503 0.866473 0.227805
O O9 0.088082 0.625978 0.749538
O O10 0.103972 0.344099 0.953632
O O11 0.381312 0.424143 0.652221
#
# Coordination Sequence:
#
# PCOD9453919 Si02
#       5
#     8   8   8   8   8
#     4  10  18  29  49  81 116 152 194 250 309 356
#     4  11  22  38  57  88 118 161 201 251 308 370
#     4  10  18  31  52  78 116 152 193 244 295 354
#     4  10  19  32  52  82 117 156 191 245 307 360
#     4  11  23  38  60  87 125 159 206 254 309 380
#
# _framework density 26.980474000000001
#
# number of rings (size 3 to 8) (size 9 to 14) (size 15 to 20)
#    0.000    1.600    0.000   10.200    0.000    1.600 
#    0.000    0.000    0.000    0.000    0.000   44.800 
#    0.000    0.000    0.000    0.000    0.000    0.000 
#
# Total GULP energy -223367.107593 kJ/mol
# GULP energy per Si atom -5584.177690 kJ/mol
# Density = 2.691907 g / cm^3
# Si number density = 26.980474 Si / 1000 Ang^3
#
#
#
# Elastic Constant Matrix: (Units=GPa)
#
#
# Indices 1 2 3 4 5 6 
#
# 1 127.5236 1.0350 11.3009 0.0000 0.0000 0.0000
# 2 1.0350 48.5870 -12.0722 0.0000 0.0000 0.0000
# 3 11.3009 -12.0722 124.0437 0.0000 0.0000 0.0000
# 4 0.0000 0.0000 0.0000 22.1786 0.0000 0.0000
# 5 0.0000 0.0000 0.0000 0.0000 31.5003 0.0000
# 6 0.0000 0.0000 0.0000 0.0000 0.0000 23.2716
#
#
#
# Elastic Compliance Matrix: (Units=1/GPa)
#
#
# Indices 1 2 3 4 5 6 
#
# 1 0.007912 -0.000356 -0.000755 0.000000 0.000000 0.000000
# 2 -0.000356 0.021108 0.002087 0.000000 0.000000 0.000000
# 3 -0.000755 0.002087 0.008334 0.000000 0.000000 0.000000
# 4 0.000000 0.000000 0.000000 0.045088 0.000000 0.000000
# 5 0.000000 0.000000 0.000000 0.000000 0.031746 0.000000
# 6 0.000000 0.000000 0.000000 0.000000 0.000000 0.042971
#
#
# Mechanical properties :
#
#
# Convention : Reuss Voigt Hill
#
# Bulk Modulus (GPa) = 25.44345 33.40907 29.42626
# Shear Modulus (GPa) = 29.70731 35.38282 32.54507
#
# Velocity S-wave (km/s) = 3.32183 3.62529 3.47687
# Velocity P-wave (km/s) = 4.91564 5.47112 5.20080
#
# Compressibility (1/GPa) = 0.03930285
#
# Stress axis : x y z
#
# Youngs Moduli (GPa) = 126.39796 47.37612 119.99647
#
# Poissons Ratio (x) = 0.01688 0.09065
# Poissons Ratio (y) = 0.04503 -0.25040
# Poissons Ratio (z) = 0.09549 -0.09886
#
# Static dielectric constant tensor:
#      x y z
#    x 2.235770 0.000000 0.000000 
#    y 0.000000 2.296870 0.000000 
#    z 0.000000 0.000000 2.194500 
# 
# From -- ./inp_files/8095.got.cif
#   From: 2010.05.17/outbox.cif.g08.bks.cpg/sg60_5_cif.got.tgz:8095.got - 2010.06.03 14:59:27.
