data_PCOD9453199
_publ_section_title
;
Structure prediction by ZEFSAII (Michael W. Deem and Ramdas Pophale) SiO2 
 PCOD9453199
Probable space group: P M M N
;
_chemical_formula_sum "Si O2"
_cell_formula_units_Z 24
_cell_length_a 12.820700
_cell_length_b 8.900642
_cell_length_c 11.082821
_cell_angle_alpha 90.000000
_cell_angle_beta 90.000000
_cell_angle_gamma 90.000000
_cell_volume 1264.687978
_symmetry_space_group_name_H-M "P M M N"
_symmetry_group_IT_number 59
_space_group.IT_coordinate_system_code '2'
_symmetry_cell_setting 'orthorhombic'
loop_
_space_group_symop_operation_xyz
x,y,z
1/2-x,1/2-y,z
1/2+x,-y,-z
-x,1/2+y,-z
-x,-y,-z
1/2+x,1/2+y,-z
1/2-x,y,z
x,1/2-y,z
loop_
_atom_site_type_symbol
_atom_site_label
_atom_site_fract_x
_atom_site_fract_y
_atom_site_fract_z
Si Si1 0.632449 0.573607 0.288542
Si Si2 0.750000 0.926764 0.522476
Si Si3 0.250000 0.571815 0.220102
Si Si4 0.537806 0.571705 0.875042
O O1 0.750000 0.549691 0.236297
O O2 0.606703 0.750000 0.271488
O O3 0.652398 0.548159 0.431421
O O4 0.547225 0.472190 0.226264
O O5 0.750000 0.750000 0.556680
O O6 0.750000 0.028771 0.638511
O O7 0.250000 0.750000 0.203964
O O8 0.147512 0.499652 0.162082
O O9 0.546839 0.750000 0.886228
O O10 0.500000 0.500000 0.000000
#
# Coordination Sequence:
#
# PCOD9453199 Si02
#       4
#     8   4   4   8
#     4   8  18  39  66  93 125 163 205 251 306 368
#     4   8  18  39  66  95 128 163 203 255 311 368
#     4  12  26  43  64  93 126 163 213 261 311 368
#     4  12  26  43  65  91 127 167 210 259 313 374
#
# _framework density 18.977011999999998
#
# number of rings (size 3 to 8) (size 9 to 14) (size 15 to 20)
#    1.000    1.000    0.000    4.500    2.333    3.333 
#    0.000    0.000    0.000    0.000    0.000    0.000 
#    0.000    0.000    0.000    0.000    0.000    0.000 
#
# Total GULP energy -133911.645529 kJ/mol
# GULP energy per Si atom -5579.651897 kJ/mol
# Density = 1.893382 g / cm^3
# Si number density = 18.977012 Si / 1000 Ang^3
#
#
#
# Elastic Constant Matrix: (Units=GPa)
#
#
# Indices 1 2 3 4 5 6 
#
# 1 121.7390 93.3458 65.0602 0.0000 0.0000 0.0000
# 2 93.3458 188.1124 79.2270 0.0000 0.0000 0.0000
# 3 65.0602 79.2270 92.5888 0.0000 0.0000 0.0000
# 4 0.0000 0.0000 0.0000 39.8896 0.0000 0.0000
# 5 0.0000 0.0000 0.0000 0.0000 21.1857 0.0000
# 6 0.0000 0.0000 0.0000 0.0000 0.0000 6880.3089
#
#
#
# Elastic Compliance Matrix: (Units=1/GPa)
#
#
# Indices 1 2 3 4 5 6 
#
# 1 0.015570 -0.004875 -0.006769 0.000000 0.000000 0.000000
# 2 -0.004875 0.009838 -0.004992 0.000000 0.000000 0.000000
# 3 -0.006769 -0.004992 0.019829 0.000000 0.000000 0.000000
# 4 0.000000 0.000000 0.000000 0.025069 0.000000 0.000000
# 5 0.000000 0.000000 0.000000 0.000000 0.047202 0.000000
# 6 0.000000 0.000000 0.000000 0.000000 0.000000 0.000145
#
#
# Mechanical properties :
#
#
# Convention : Reuss Voigt Hill
#
# Bulk Modulus (GPa) = 83.58870 97.52292 90.55581
# Shear Modulus (GPa) = 32.27599 1399.26397 715.76998
#
# Velocity S-wave (km/s) = 4.12854 27.18359 19.44212
# Velocity P-wave (km/s) = 8.17737 32.19884 23.49079
#
# Compressibility (1/GPa) = 0.01196334
#
# Stress axis : x y z
#
# Youngs Moduli (GPa) = 64.22578 101.64843 50.43199
#
# Poissons Ratio (x) = 0.49557 0.34137
# Poissons Ratio (y) = 0.31312 0.25177
# Poissons Ratio (z) = 0.43474 0.50746
#
# Static dielectric constant tensor:
#      x y z
#    x 1.644570 0.000000 0.000000 
#    y 0.000000 1.623070 0.000000 
#    z 0.000000 0.000000 1.664820 
# 
# From -- ./inp_files/15118.got.cif
#   From: 2010.05.17/outbox.cif.g08.bks.cpg/sg59_8_cif.got.tgz:15118.got - 2010.06.03 14:40:33.
