data_PCOD9453605
_publ_section_title
;
Structure prediction by ZEFSAII (Michael W. Deem and Ramdas Pophale) SiO2 
 PCOD9453605
Probable space group: P M M N
;
_chemical_formula_sum "Si O2"
_cell_formula_units_Z 64
_cell_length_a 9.000000
_cell_length_b 21.000000
_cell_length_c 18.000000
_cell_angle_alpha 90.000000
_cell_angle_beta 90.000000
_cell_angle_gamma 90.000000
_cell_volume 3402.000000
_symmetry_space_group_name_H-M "P M M N"
_symmetry_group_IT_number 59
_space_group.IT_coordinate_system_code '2'
_symmetry_cell_setting 'orthorhombic'
loop_
_space_group_symop_operation_xyz
x,y,z
1/2-x,1/2-y,z
1/2+x,-y,-z
-x,1/2+y,-z
-x,-y,-z
1/2+x,1/2+y,-z
1/2-x,y,z
x,1/2-y,z
loop_
_atom_site_type_symbol
_atom_site_label
_atom_site_fract_x
_atom_site_fract_y
_atom_site_fract_z
Si Si1 0.079474 0.383152 0.708559
Si Si2 0.086586 0.973643 0.681776
Si Si3 0.580860 0.065424 0.480934
Si Si4 0.077772 0.439836 0.179966
Si Si5 0.571095 0.820176 0.436510
Si Si6 0.426579 0.319732 0.960830
Si Si7 0.573210 0.422313 0.859114
Si Si8 0.423736 0.819232 0.879911
O O1 0.250000 0.369794 0.731522
O O2 0.080545 0.450937 0.665356
O O3 0.027891 0.331684 0.649427
O O4 0.982362 0.394437 0.780750
O O5 0.250000 0.964266 0.718683
O O6 0.082355 0.933006 0.608051
O O7 0.951364 0.958459 0.735116
O O8 0.750000 0.062757 0.508303
O O9 0.499778 0.125557 0.514428
O O10 0.500000 0.000000 0.500000
O O11 0.250000 0.427387 0.164186
O O12 0.028094 0.503390 0.136084
O O13 0.979660 0.378677 0.165671
O O14 0.750000 0.825870 0.438234
O O15 0.528094 0.750000 0.461236
O O16 0.250000 0.325645 0.957300
O O17 0.468038 0.250000 0.928468
O O18 0.502280 0.378110 0.920489
O O19 0.481767 0.319732 0.044988
O O20 0.750000 0.420652 0.862459
O O21 0.250000 0.825080 0.898138
O O22 0.445677 0.750000 0.843183
#
# Coordination Sequence:
#
# PCOD9453605 Si02
#       8
#     8   8   8   8   8   8   8   8
#     4   9  17  33  53  75 106 144 184 222 268 325
#     4   9  18  34  55  79 107 141 182 225 270 324
#     4  11  21  35  58  84 110 143 187 231 278 334
#     4  10  21  36  56  84 114 143 179 226 275 326
#     4  10  21  37  55  79 113 149 187 231 279 332
#     4  10  21  37  57  80 107 144 188 228 271 327
#     4  10  21  35  53  82 115 145 181 226 274 322
#     4  10  21  38  60  83 108 142 183 227 277 330
#
# _framework density 18.812463000000001
#
# number of rings (size 3 to 8) (size 9 to 14) (size 15 to 20)
#    0.000    2.125    1.250    1.875    0.000    5.750 
#    0.000    1.875    0.000    0.750    0.000    0.000 
#    0.000    0.000    0.000    0.000    0.000    0.000 
#
# Total GULP energy -356626.336191 kJ/mol
# GULP energy per Si atom -5572.286503 kJ/mol
# Density = 1.876965 g / cm^3
# Si number density = 18.812463 Si / 1000 Ang^3
#
#
#
# Elastic Constant Matrix: (Units=GPa)
#
#
# Indices 1 2 3 4 5 6 
#
# 1 19.3005 36.1410 0.1946 0.0000 0.0000 0.0000
# 2 36.1410 112.7100 22.0716 0.0000 0.0000 0.0000
# 3 0.1946 22.0716 10.4680 0.0000 0.0000 0.0000
# 4 0.0000 0.0000 0.0000 269.7285 0.0000 0.0000
# 5 0.0000 0.0000 0.0000 0.0000 25.3781 0.0000
# 6 0.0000 0.0000 0.0000 0.0000 0.0000 30.6508
#
#
#
# Elastic Compliance Matrix: (Units=1/GPa)
#
#
# Indices 1 2 3 4 5 6 
#
# 1 266.532017**********298.488401 0.000000 0.000000 0.000000
# 2 ********** 77.724355********** 0.000000 0.000000 0.000000
# 3 298.488401**********334.438971 0.000000 0.000000 0.000000
# 4 0.000000 0.000000 0.000000 0.003707 0.000000 0.000000
# 5 0.000000 0.000000 0.000000 0.000000 0.039404 0.000000
# 6 0.000000 0.000000 0.000000 0.000000 0.000000 0.032626
#
#
# Mechanical properties :
#
#
# Convention : Reuss Voigt Hill
#
# Bulk Modulus (GPa) = 0.00150 28.81033 14.40592
# Shear Modulus (GPa) = 0.00547 70.75622 35.38085
#
# Velocity S-wave (km/s) = 0.05399 6.13946 4.34142
# Velocity P-wave (km/s) = 0.06846 8.09970 5.72755
#
# Compressibility (1/GPa) = 665.43148807
#
# Stress axis : x y z
#
# Youngs Moduli (GPa) = 0.00375 0.01287 0.00299
#
# Poissons Ratio (x) = 1.85163 -0.89250
# Poissons Ratio (y) = 0.53996 0.48201
# Poissons Ratio (z) = -1.11990 2.07404
#
# Static dielectric constant tensor:
#      x y z
#    x 1.648330 0.000000 0.000000 
#    y 0.000000 2.372650 0.000000 
#    z 0.000000 0.000000 1.658880 
# 
# From -- ./inp_files/26229.got.cif
#   From: 2010.05.17/outbox.ucp.g08.bks.cvg/sg59_14_cif.got.tgz:26229.got - 2010.06.11 16:43:56.
