data_PCOD9453851
_publ_section_title
;
Structure prediction by ZEFSAII (Michael W. Deem and Ramdas Pophale) SiO2 
 PCOD9453851
Probable space group: P B C N
;
_chemical_formula_sum "Si O2"
_cell_formula_units_Z 48
_cell_length_a 13.283287
_cell_length_b 9.343971
_cell_length_c 19.332708
_cell_angle_alpha 90.000000
_cell_angle_beta 90.000000
_cell_angle_gamma 90.000000
_cell_volume 2399.549589
_symmetry_space_group_name_H-M "P B C N"
_symmetry_group_IT_number 60
_symmetry_cell_setting 'orthorhombic'
loop_
_space_group_symop_operation_xyz
x,y,z
1/2-x,1/2-y,1/2+z
1/2+x,1/2-y,-z
-x,y,1/2-z
-x,-y,-z
1/2+x,1/2+y,1/2-z
1/2-x,1/2+y,z
x,-y,1/2+z
loop_
_atom_site_type_symbol
_atom_site_label
_atom_site_fract_x
_atom_site_fract_y
_atom_site_fract_z
Si Si1 0.737263 0.460207 0.870052
Si Si2 0.056964 0.379787 0.678076
Si Si3 0.293068 0.213379 0.538741
Si Si4 0.499104 0.891127 0.436697
Si Si5 0.125759 0.128755 0.452846
Si Si6 0.467055 0.573255 0.606290
O O1 0.820934 0.399051 0.818273
O O2 0.750317 0.366392 0.940377
O O3 0.768059 0.617982 0.893894
O O4 0.618072 0.474052 0.855516
O O5 0.022029 0.510262 0.628920
O O6 0.030058 0.226603 0.643552
O O7 0.000000 0.389160 0.750000
O O8 0.412153 0.217975 0.540410
O O9 0.243865 0.143009 0.471304
O O10 0.405826 0.786425 0.427794
O O11 0.500000 0.000000 0.500000
O O12 0.078930 0.102467 0.529707
O O13 0.072735 0.009585 0.404949
#
# Coordination Sequence:
#
# PCOD9453851 Si02
#       6
#     8   8   8   8   8   8
#     4  10  17  34  57  85 110 158 203 237 294 373
#     4  11  23  39  61  87 119 159 211 259 306 369
#     4  10  19  31  57  94 122 153 203 245 297 371
#     4  11  20  36  62  91 126 161 201 256 309 363
#     4  10  18  33  59  94 123 150 199 258 301 357
#     4  10  19  34  60  89 120 158 201 249 304 367
#
# _framework density 20.003755000000002
#
# number of rings (size 3 to 8) (size 9 to 14) (size 15 to 20)
#    0.000    1.667    6.667    1.000    0.000    0.000 
#    0.000    0.833    7.333    0.000    0.000    0.000 
#    0.000    0.000    0.000    0.000    0.000    0.000 
#
# Total GULP energy -267202.154979 kJ/mol
# GULP energy per Si atom -5566.711562 kJ/mol
# Density = 1.995823 g / cm^3
# Si number density = 20.003755 Si / 1000 Ang^3
#
#
#
# Elastic Constant Matrix: (Units=GPa)
#
#
# Indices 1 2 3 4 5 6 
#
# 1 66.3574 26.2129 42.0921 0.0000 0.0000 0.0000
# 2 26.2129 100.8908 29.7075 0.0000 0.0000 0.0000
# 3 42.0921 29.7075 65.1398 0.0000 0.0000 0.0000
# 4 0.0000 0.0000 0.0000 18.5085 0.0000 0.0000
# 5 0.0000 0.0000 0.0000 0.0000 25.4468 0.0000
# 6 0.0000 0.0000 0.0000 0.0000 0.0000 27.5781
#
#
#
# Elastic Compliance Matrix: (Units=1/GPa)
#
#
# Indices 1 2 3 4 5 6 
#
# 1 0.025910 -0.002081 -0.015794 0.000000 0.000000 0.000000
# 2 -0.002081 0.011616 -0.003953 0.000000 0.000000 0.000000
# 3 -0.015794 -0.003953 0.027360 0.000000 0.000000 0.000000
# 4 0.000000 0.000000 0.000000 0.054029 0.000000 0.000000
# 5 0.000000 0.000000 0.000000 0.000000 0.039298 0.000000
# 6 0.000000 0.000000 0.000000 0.000000 0.000000 0.036261
#
#
# Mechanical properties :
#
#
# Convention : Reuss Voigt Hill
#
# Bulk Modulus (GPa) = 47.10082 47.60145 47.35114
# Shear Modulus (GPa) = 20.39099 23.26507 21.82803
#
# Velocity S-wave (km/s) = 3.19620 3.41403 3.30691
# Velocity P-wave (km/s) = 6.10066 6.27604 6.18897
#
# Compressibility (1/GPa) = 0.02123105
#
# Stress axis : x y z
#
# Youngs Moduli (GPa) = 38.59457 86.08530 36.55006
#
# Poissons Ratio (x) = 0.17918 0.57725
# Poissons Ratio (y) = 0.08033 0.14447
# Poissons Ratio (z) = 0.60954 0.34027
#
# Static dielectric constant tensor:
#      x y z
#    x 1.857230 0.000000 0.000000 
#    y 0.000000 1.758220 0.000000 
#    z 0.000000 0.000000 1.676260 
# 
# From -- ./inp_files/20534.got.cif
#   From: 2010.05.17/outbox.cif.g08.bks.cpg/sg60_11_cif.got.tgz:20534.got - 2010.06.03 14:59:27.
