data_PCOD9453842
_publ_section_title
;
Structure prediction by ZEFSAII (Michael W. Deem and Ramdas Pophale) SiO2 
 PCOD9453842
Probable space group: P B C N
;
_chemical_formula_sum "Si O2"
_cell_formula_units_Z 48
_cell_length_a 14.645499
_cell_length_b 17.765898
_cell_length_c 8.066772
_cell_angle_alpha 90.000000
_cell_angle_beta 90.000000
_cell_angle_gamma 90.000000
_cell_volume 2098.896967
_symmetry_space_group_name_H-M "P B C N"
_symmetry_group_IT_number 60
_symmetry_cell_setting 'orthorhombic'
loop_
_space_group_symop_operation_xyz
x,y,z
1/2-x,1/2-y,1/2+z
1/2+x,1/2-y,-z
-x,y,1/2-z
-x,-y,-z
1/2+x,1/2+y,1/2-z
1/2-x,1/2+y,z
x,-y,1/2+z
loop_
_atom_site_type_symbol
_atom_site_label
_atom_site_fract_x
_atom_site_fract_y
_atom_site_fract_z
Si Si1 0.000000 0.118789 0.750000
Si Si2 0.562908 0.398304 0.597358
Si Si3 0.500000 0.000456 0.750000
Si Si4 0.472622 0.778996 0.431456
Si Si5 0.639389 0.261504 0.107257
Si Si6 0.876555 0.416428 0.004924
Si Si7 0.271550 0.353415 0.697265
O O1 0.030496 0.074415 0.583915
O O2 0.087841 0.172765 0.789272
O O3 0.500000 0.423325 0.750000
O O4 0.545032 0.308716 0.575332
O O5 0.665371 0.397355 0.668950
O O6 0.454265 0.947857 0.614555
O O7 0.587165 0.046652 0.675220
O O8 0.500000 0.804189 0.250000
O O9 0.556693 0.792773 0.552483
O O10 0.385984 0.826510 0.479784
O O11 0.711564 0.208678 0.201254
O O12 0.673718 0.303416 0.939533
O O13 0.781002 0.418141 0.909342
#
# Coordination Sequence:
#
# PCOD9453842 Si02
#       7
#     4   8   4   8   8   8   8
#     4  10  18  35  50  70 120 178 176 227 288 332
#     4  10  19  36  53  82 131 157 190 229 290 382
#     4  10  24  43  56  80 110 154 214 257 302 352
#     4  10  17  34  52  80 117 162 180 226 306 370
#     4  11  21  30  52  83 129 152 197 228 280 381
#     4  11  22  38  61  78 113 160 203 255 301 343
#     4  12  21  33  53  90 117 159 201 249 287 364
#
# _framework density 22.869153000000001
#
# number of rings (size 3 to 8) (size 9 to 14) (size 15 to 20)
#    0.000    1.333    5.833    5.000    0.000    0.667 
#    0.000    0.000    0.000    0.000    0.000    1.167 
#    0.000    0.000    0.000    0.000    0.000    0.000 
#
# Total GULP energy -267404.994999 kJ/mol
# GULP energy per Si atom -5570.937396 kJ/mol
# Density = 2.281710 g / cm^3
# Si number density = 22.869153 Si / 1000 Ang^3
#
#
#
# Elastic Constant Matrix: (Units=GPa)
#
#
# Indices 1 2 3 4 5 6 
#
# 1 69.9620 0.3589 28.9222 0.0000 0.0000 0.0000
# 2 0.3589 54.1296 16.7811 0.0000 0.0000 0.0000
# 3 28.9222 16.7811 139.7259 0.0000 0.0000 0.0000
# 4 0.0000 0.0000 0.0000 7.4071 0.0000 0.0000
# 5 0.0000 0.0000 0.0000 0.0000 66.1501 0.0000
# 6 0.0000 0.0000 0.0000 0.0000 0.0000 4.4202
#
#
#
# Elastic Compliance Matrix: (Units=1/GPa)
#
#
# Indices 1 2 3 4 5 6 
#
# 1 0.015677 0.000937 -0.003357 0.000000 0.000000 0.000000
# 2 0.000937 0.019245 -0.002505 0.000000 0.000000 0.000000
# 3 -0.003357 -0.002505 0.008153 0.000000 0.000000 0.000000
# 4 0.000000 0.000000 0.000000 0.135006 0.000000 0.000000
# 5 0.000000 0.000000 0.000000 0.000000 0.015117 0.000000
# 6 0.000000 0.000000 0.000000 0.000000 0.000000 0.226233
#
#
# Mechanical properties :
#
#
# Convention : Reuss Voigt Hill
#
# Bulk Modulus (GPa) = 30.10014 39.54912 34.82463
# Shear Modulus (GPa) = 11.35444 30.11249 20.73347
#
# Velocity S-wave (km/s) = 2.23064 3.63261 3.01427
# Velocity P-wave (km/s) = 4.45250 5.90980 5.23214
#
# Compressibility (1/GPa) = 0.03322243
#
# Stress axis : x y z
#
# Youngs Moduli (GPa) = 63.78918 51.96258 122.65851
#
# Poissons Ratio (x) = -0.04868 0.41182
# Poissons Ratio (y) = -0.05977 0.30729
# Poissons Ratio (z) = 0.21417 0.13018
#
# Static dielectric constant tensor:
#      x y z
#    x 1.955740 0.000000 0.000000 
#    y 0.000000 1.843170 0.000000 
#    z 0.000000 0.000000 1.936390 
# 
# From -- ./inp_files/5953.got.cif
#   From: 2010.05.17/outbox.cif.g08.bks.cpg/sg60_3_cif.got.tgz:5953.got - 2010.06.03 14:59:27.
