data_PCOD9453528
_publ_section_title
;
Structure prediction by ZEFSAII (Michael W. Deem and Ramdas Pophale) SiO2 
 PCOD9453528
Probable space group: P M M N
;
_chemical_formula_sum "Si O2"
_cell_formula_units_Z 64
_cell_length_a 30.000000
_cell_length_b 9.000000
_cell_length_c 12.000000
_cell_angle_alpha 90.000000
_cell_angle_beta 90.000000
_cell_angle_gamma 90.000000
_cell_volume 3240.000000
_symmetry_space_group_name_H-M "P M M N"
_symmetry_group_IT_number 59
_space_group.IT_coordinate_system_code '2'
_symmetry_cell_setting 'orthorhombic'
loop_
_space_group_symop_operation_xyz
x,y,z
1/2-x,1/2-y,z
1/2+x,-y,-z
-x,1/2+y,-z
-x,-y,-z
1/2+x,1/2+y,-z
1/2-x,y,z
x,1/2-y,z
loop_
_atom_site_type_symbol
_atom_site_label
_atom_site_fract_x
_atom_site_fract_y
_atom_site_fract_z
Si Si1 0.547983 0.430715 0.486040
Si Si2 0.378274 0.923595 0.350967
Si Si3 0.372251 0.426011 0.895232
Si Si4 0.297385 0.073640 0.740351
Si Si5 0.622340 0.425867 0.885764
Si Si6 0.472433 0.074334 0.099631
Si Si7 0.944596 0.077817 0.237237
Si Si8 0.298365 0.585493 0.518304
O O1 0.500000 0.500000 0.500000
O O2 0.546151 0.250000 0.488420
O O3 0.579721 0.487626 0.584219
O O4 0.565699 0.470442 0.362765
O O5 0.389686 0.750000 0.328636
O O6 0.362360 0.983149 0.233661
O O7 0.337828 0.927768 0.434299
O O8 0.372868 0.250000 0.897269
O O9 0.338884 0.489436 0.804013
O O10 0.419780 0.483165 0.855397
O O11 0.357013 0.488175 0.012234
O O12 0.250000 0.013372 0.780362
O O13 0.297395 0.250000 0.756520
O O14 0.301124 0.037093 0.611785
O O15 0.627722 0.250000 0.901215
O O16 0.570768 0.474470 0.885803
O O17 0.462670 0.250000 0.078065
O O18 0.503164 0.068199 0.209641
O O19 0.500000 0.000000 0.000000
O O20 0.931613 0.250000 0.223332
O O21 0.250000 0.577066 0.462937
O O22 0.301403 0.750000 0.572178
#
# Coordination Sequence:
#
# PCOD9453528 Si02
#       8
#     8   8   8   8   8   8   8   8
#     4  10  20  35  53  75 105 140 175 215 262 315
#     4   9  19  35  54  77 108 144 177 217 273 321
#     4  11  22  35  54  78 103 136 177 219 264 317
#     4   9  19  36  56  80 110 138 166 210 270 327
#     4  11  22  36  53  74 106 147 184 223 265 312
#     4  11  21  34  52  76 105 141 181 223 268 313
#     4  10  21  35  54  78 105 135 171 219 269 314
#     4   9  17  33  60  88 109 135 176 221 267 326
#
# _framework density 19.753086
#
# number of rings (size 3 to 8) (size 9 to 14) (size 15 to 20)
#    0.000    2.000    1.250    2.625    0.000    3.000 
#    0.000    3.125    0.000    0.750    0.000    0.000 
#    0.000    0.000    0.000    0.000    0.000    0.000 
#
# Total GULP energy -356305.042854 kJ/mol
# GULP energy per Si atom -5567.266295 kJ/mol
# Density = 1.970813 g / cm^3
# Si number density = 19.753086 Si / 1000 Ang^3
#
#
#
# Elastic Constant Matrix: (Units=GPa)
#
#
# Indices 1 2 3 4 5 6 
#
# 1 14.0760 2.7141 11.7321 0.0000 0.0000 0.0000
# 2 2.7141 15.0243 13.2619 0.0000 0.0000 0.0000
# 3 11.7321 13.2619 59.4847 0.0000 0.0000 0.0000
# 4 0.0000 0.0000 0.0000 48.0158 0.0000 0.0000
# 5 0.0000 0.0000 0.0000 0.0000 -11.5802 0.0000
# 6 0.0000 0.0000 0.0000 0.0000 0.0000 0.1510
#
#
#
# Elastic Compliance Matrix: (Units=1/GPa)
#
#
# Indices 1 2 3 4 5 6 
#
# 1 0.085025 -0.000694 -0.016615 0.000000 0.000000 0.000000
# 2 -0.000694 0.082872 -0.018339 0.000000 0.000000 0.000000
# 3 -0.016615 -0.018339 0.024177 0.000000 0.000000 0.000000
# 4 0.000000 0.000000 0.000000 0.020826 0.000000 0.000000
# 5 0.000000 0.000000 0.000000 0.000000 -0.086355 0.000000
# 6 0.000000 0.000000 0.000000 0.000000 0.000000 6.623026
#
#
# Mechanical properties :
#
#
# Convention : Reuss Voigt Hill
#
# Bulk Modulus (GPa) = 8.27965 16.00012 12.13988
# Shear Modulus (GPa) = 0.72874 11.37579 6.05226
#
# Velocity S-wave (km/s) = 0.60805 2.40239 1.75232
# Velocity P-wave (km/s) = 2.16648 3.97655 3.20208
#
# Compressibility (1/GPa) = 0.12077810
#
# Stress axis : x y z
#
# Youngs Moduli (GPa) = 11.76124 12.06681 41.36233
#
# Poissons Ratio (x) = 0.00837 0.68722
# Poissons Ratio (y) = 0.00816 0.75855
# Poissons Ratio (z) = 0.19541 0.22129
#
# Static dielectric constant tensor:
#      x y z
#    x 1.723190 0.000000 0.000000 
#    y 0.000000 1.582490 0.000000 
#    z 0.000000 0.000000 1.761500 
# 
# From -- ./inp_files/19244.got.cif
#   From: 2010.05.17/outbox.ucp.g08.bks.cvg/sg59_10_cif.got.tgz:19244.got - 2010.06.11 16:43:56.
