data_PCOD9453999
_publ_section_title
;
Structure prediction by ZEFSAII (Michael W. Deem and Ramdas Pophale) SiO2 
 PCOD9453999
Probable space group: P B C N
;
_chemical_formula_sum "Si O2"
_cell_formula_units_Z 64
_cell_length_a 17.350503
_cell_length_b 21.971311
_cell_length_c 8.761665
_cell_angle_alpha 90.000000
_cell_angle_beta 90.000000
_cell_angle_gamma 90.000000
_cell_volume 3340.063206
_symmetry_space_group_name_H-M "P B C N"
_symmetry_group_IT_number 60
_symmetry_cell_setting 'orthorhombic'
loop_
_space_group_symop_operation_xyz
x,y,z
1/2-x,1/2-y,1/2+z
1/2+x,1/2-y,-z
-x,y,1/2-z
-x,-y,-z
1/2+x,1/2+y,1/2-z
1/2-x,1/2+y,z
x,-y,1/2+z
loop_
_atom_site_type_symbol
_atom_site_label
_atom_site_fract_x
_atom_site_fract_y
_atom_site_fract_z
Si Si1 0.195233 0.306952 0.186020
Si Si2 0.138435 0.926940 0.857036
Si Si3 0.860522 0.823943 0.423113
Si Si4 0.899892 0.835655 0.076922
Si Si5 0.580563 0.531975 0.468776
Si Si6 0.877868 0.684476 0.502282
Si Si7 0.264903 0.332230 0.670268
Si Si8 0.467563 0.222005 0.577009
O O1 0.269189 0.336768 0.107341
O O2 0.161954 0.336372 0.340249
O O3 0.222527 0.237415 0.225703
O O4 0.119557 0.302607 0.080808
O O5 0.092901 0.950820 0.708200
O O6 0.205272 0.885832 0.778823
O O7 0.103627 0.875836 0.970271
O O8 0.146008 0.986270 0.964551
O O9 0.893787 0.820391 0.253673
O O10 0.868554 0.757906 0.497168
O O11 0.921152 0.905476 0.060180
O O12 0.819050 0.831896 0.982129
O O13 0.957669 0.788088 0.998487
O O14 0.500000 0.500000 0.500000
O O15 0.824240 0.659602 0.369485
O O16 0.969680 0.678441 0.498355
O O17 0.500000 0.229263 0.750000
#
# Coordination Sequence:
#
# PCOD9453999 Si02
#       8
#     8   8   8   8   8   8   8   8
#     4   9  17  33  53  81 112 156 189 243 296 367
#     4  11  23  40  56  81 105 159 201 260 293 351
#     4  11  21  33  56  78 117 152 205 239 302 353
#     4  10  21  36  54  80 113 164 200 245 292 348
#     4  11  25  40  59  75 114 153 211 258 297 336
#     4  10  18  32  54  84 114 154 192 248 292 379
#     4   9  18  33  55  77 111 151 202 239 299 355
#     4   9  20  33  55  86 124 158 201 242 302 368
#
# _framework density 19.161314000000001
#
# number of rings (size 3 to 8) (size 9 to 14) (size 15 to 20)
#    0.000    2.000    2.500    1.125    3.500    0.500 
#    0.000    0.000    0.000    0.000    0.000    0.000 
#    0.000   18.000    0.000    0.000    0.000    0.000 
#
# Total GULP energy -356749.150830 kJ/mol
# GULP energy per Si atom -5574.205482 kJ/mol
# Density = 1.911770 g / cm^3
# Si number density = 19.161314 Si / 1000 Ang^3
#
#
#
# Elastic Constant Matrix: (Units=GPa)
#
#
# Indices 1 2 3 4 5 6 
#
# 1 92.4404 7.4192 10.7593 0.0000 0.0000 0.0000
# 2 7.4192 41.3993 19.8989 0.0000 0.0000 0.0000
# 3 10.7593 19.8989 80.2050 0.0000 0.0000 0.0000
# 4 0.0000 0.0000 0.0000 30.2902 0.0000 0.0000
# 5 0.0000 0.0000 0.0000 0.0000 20.6614 0.0000
# 6 0.0000 0.0000 0.0000 0.0000 0.0000 16.9890
#
#
#
# Elastic Compliance Matrix: (Units=1/GPa)
#
#
# Indices 1 2 3 4 5 6 
#
# 1 0.011065 -0.001441 -0.001127 0.000000 0.000000 0.000000
# 2 -0.001441 0.027613 -0.006658 0.000000 0.000000 0.000000
# 3 -0.001127 -0.006658 0.014271 0.000000 0.000000 0.000000
# 4 0.000000 0.000000 0.000000 0.033014 0.000000 0.000000
# 5 0.000000 0.000000 0.000000 0.000000 0.048399 0.000000
# 6 0.000000 0.000000 0.000000 0.000000 0.000000 0.058862
#
#
# Mechanical properties :
#
#
# Convention : Reuss Voigt Hill
#
# Bulk Modulus (GPa) = 28.98744 32.24441 30.61592
# Shear Modulus (GPa) = 22.40404 25.31928 23.86166
#
# Velocity S-wave (km/s) = 3.42311 3.63902 3.53271
# Velocity P-wave (km/s) = 5.54838 5.87546 5.71426
#
# Compressibility (1/GPa) = 0.03449770
#
# Stress axis : x y z
#
# Youngs Moduli (GPa) = 90.37830 36.21440 70.07255
#
# Poissons Ratio (x) = 0.05220 0.07895
# Poissons Ratio (y) = 0.13027 0.46651
# Poissons Ratio (z) = 0.10183 0.24110
#
# Static dielectric constant tensor:
#      x y z
#    x 1.759110 0.000000 0.000000 
#    y 0.000000 1.636200 0.000000 
#    z 0.000000 0.000000 1.734880 
# 
# From -- ./inp_files/7083.got.cif
#   From: 2010.05.17/outbox.cif.g08.bks.cpg/sg60_4_cif.got.tgz:7083.got - 2010.06.03 14:59:27.
