data_PCOD9453061
_publ_section_title
;
Structure prediction by ZEFSAII (Michael W. Deem and Ramdas Pophale) SiO2 
 PCOD9453061
Probable space group: P M M N
;
_chemical_formula_sum "Si O2"
_cell_formula_units_Z 48
_cell_length_a 20.830019
_cell_length_b 8.461811
_cell_length_c 14.428176
_cell_angle_alpha 90.000000
_cell_angle_beta 90.000000
_cell_angle_gamma 90.000000
_cell_volume 2543.105741
_symmetry_space_group_name_H-M "P M M N"
_symmetry_group_IT_number 59
_space_group.IT_coordinate_system_code '2'
_symmetry_cell_setting 'orthorhombic'
loop_
_space_group_symop_operation_xyz
x,y,z
1/2-x,1/2-y,z
1/2+x,-y,-z
-x,1/2+y,-z
-x,-y,-z
1/2+x,1/2+y,-z
1/2-x,y,z
x,1/2-y,z
loop_
_atom_site_type_symbol
_atom_site_label
_atom_site_fract_x
_atom_site_fract_y
_atom_site_fract_z
Si Si1 0.173589 0.060342 0.107977
Si Si2 0.250000 0.067161 0.410328
Si Si3 0.824024 0.942348 0.100249
Si Si4 0.003998 0.062628 0.395141
Si Si5 0.250000 0.935716 0.612394
Si Si6 0.630926 0.435192 0.701765
Si Si7 0.121290 0.060613 0.707260
O O1 0.250000 0.029151 0.119584
O O2 0.165165 0.250000 0.115157
O O3 0.135418 0.977450 0.189844
O O4 0.156254 0.009445 0.003356
O O5 0.250000 0.250000 0.438477
O O6 0.250000 0.962258 0.502318
O O7 0.312539 0.030000 0.349551
O O8 0.750000 0.993308 0.116164
O O9 0.822781 0.750000 0.100041
O O10 0.868019 0.990774 0.185953
O O11 0.013681 0.250000 0.396811
O O12 0.938546 0.020380 0.342051
O O13 0.000000 0.000000 0.500000
O O14 0.063469 0.982697 0.342634
O O15 0.250000 0.750000 0.634020
O O16 0.186715 0.015788 0.654573
O O17 0.642693 0.250000 0.688487
O O18 0.112683 0.250000 0.704461
#
# Coordination Sequence:
#
# PCOD9453061 Si02
#       7
#     8   4   8   8   4   8   8
#     4   9  17  33  60  91 123 159 199 242 295 353
#     4  12  24  40  61  86 115 154 199 250 304 356
#     4   8  15  31  59  92 122 157 198 242 293 353
#     4  12  26  45  64  86 119 161 204 248 304 365
#     4  12  24  38  57  88 123 156 197 250 300 354
#     4  12  24  40  61  90 122 156 200 249 300 357
#     4  11  21  39  64  91 121 158 202 249 302 356
#
# _framework density 18.874559000000001
#
# number of rings (size 3 to 8) (size 9 to 14) (size 15 to 20)
#    0.000    1.333    1.667    7.000    0.000    0.000 
#    0.000    2.500    0.000    0.000    0.000    0.000 
#    0.000    0.000    0.000    0.000    0.000    0.000 
#
# Total GULP energy -268318.348249 kJ/mol
# GULP energy per Si atom -5589.965589 kJ/mol
# Density = 1.883160 g / cm^3
# Si number density = 18.874559 Si / 1000 Ang^3
#
#
#
# Elastic Constant Matrix: (Units=GPa)
#
#
# Indices 1 2 3 4 5 6 
#
# 1 87.3152 -8.0163 41.5790 0.0000 0.0000 0.0000
# 2 -8.0163 46.5783 0.9690 0.0000 0.0000 0.0000
# 3 41.5790 0.9690 141.0049 0.0000 0.0000 0.0000
# 4 0.0000 0.0000 0.0000 23.9598 0.0000 0.0000
# 5 0.0000 0.0000 0.0000 0.0000 2.0674 0.0000
# 6 0.0000 0.0000 0.0000 0.0000 0.0000 26.0917
#
#
#
# Elastic Compliance Matrix: (Units=1/GPa)
#
#
# Indices 1 2 3 4 5 6 
#
# 1 0.013592 0.002423 -0.004025 0.000000 0.000000 0.000000
# 2 0.002423 0.021904 -0.000865 0.000000 0.000000 0.000000
# 3 -0.004025 -0.000865 0.008285 0.000000 0.000000 0.000000
# 4 0.000000 0.000000 0.000000 0.041737 0.000000 0.000000
# 5 0.000000 0.000000 0.000000 0.000000 0.483690 0.000000
# 6 0.000000 0.000000 0.000000 0.000000 0.000000 0.038326
#
#
# Mechanical properties :
#
#
# Convention : Reuss Voigt Hill
#
# Bulk Modulus (GPa) = 25.74183 38.21799 31.97991
# Shear Modulus (GPa) = 7.99468 26.44824 17.22146
#
# Velocity S-wave (km/s) = 2.06031 3.74741 3.02390
# Velocity P-wave (km/s) = 4.39634 6.24631 5.40112
#
# Compressibility (1/GPa) = 0.03884728
#
# Stress axis : x y z
#
# Youngs Moduli (GPa) = 73.57458 45.65338 120.70549
#
# Poissons Ratio (x) = -0.11061 0.48578
# Poissons Ratio (y) = -0.17826 0.10441
# Poissons Ratio (z) = 0.29610 0.03949
#
# Static dielectric constant tensor:
#      x y z
#    x 1.614340 0.000000 0.000000 
#    y 0.000000 1.639640 0.000000 
#    z 0.000000 0.000000 1.659300 
# 
# From -- ./inp_files/23717.got.cif
#   From: 2010.05.17/outbox.cif.g08.bks.cpg/sg59_12_cif.got.tgz:23717.got - 2010.06.03 14:40:33.
