data_PCOD9453895
_publ_section_title
;
Structure prediction by ZEFSAII (Michael W. Deem and Ramdas Pophale) SiO2 
 PCOD9453895
Probable space group: P B C N
;
_chemical_formula_sum "Si O2"
_cell_formula_units_Z 52
_cell_length_a 11.704085
_cell_length_b 25.948150
_cell_length_c 9.179111
_cell_angle_alpha 90.000000
_cell_angle_beta 90.000000
_cell_angle_gamma 90.000000
_cell_volume 2787.690074
_symmetry_space_group_name_H-M "P B C N"
_symmetry_group_IT_number 60
_symmetry_cell_setting 'orthorhombic'
loop_
_space_group_symop_operation_xyz
x,y,z
1/2-x,1/2-y,1/2+z
1/2+x,1/2-y,-z
-x,y,1/2-z
-x,-y,-z
1/2+x,1/2+y,1/2-z
1/2-x,1/2+y,z
x,-y,1/2+z
loop_
_atom_site_type_symbol
_atom_site_label
_atom_site_fract_x
_atom_site_fract_y
_atom_site_fract_z
Si Si1 0.500000 0.266356 0.750000
Si Si2 0.730701 0.283147 0.828235
Si Si3 0.074830 0.321466 0.462362
Si Si4 0.939683 0.436607 0.051191
Si Si5 0.192495 0.683911 0.489237
Si Si6 0.214548 0.432636 0.005648
Si Si7 0.684143 0.987380 0.777128
O O1 0.596081 0.297951 0.835845
O O2 0.431706 0.226669 0.853465
O O3 0.767148 0.293647 0.663834
O O4 0.822711 0.312583 0.926258
O O5 0.728732 0.224470 0.887281
O O6 0.090540 0.378703 0.398523
O O7 0.945280 0.321369 0.523756
O O8 0.882740 0.452218 0.895931
O O9 0.075884 0.437888 0.027015
O O10 0.893066 0.476015 0.172005
O O11 0.240982 0.627316 0.522123
O O12 0.242993 0.450978 0.842324
O O13 0.258657 0.473008 0.125978
#
# Coordination Sequence:
#
# PCOD9453895 Si02
#       7
#     4   8   8   8   8   8   8
#     4  10  22  36  52  78 104 142 186 224 266 312
#     4  11  20  38  52  77 103 146 176 229 260 321
#     4  10  21  34  55  73 108 146 180 214 268 320
#     4  10  18  27  45  67 100 138 173 204 257 315
#     4  10  22  33  54  75 109 141 181 213 271 318
#     4  10  18  29  42  68  99 136 171 206 252 318
#     4  10  18  27  42  67 101 136 170 208 247 314
#
# _framework density 18.653437
#
# number of rings (size 3 to 8) (size 9 to 14) (size 15 to 20)
#    0.000    1.846    1.538    5.077    6.462    2.462 
#    0.000    0.000    0.000    0.000    0.000    0.000 
#    0.000   19.692    0.000    0.000    0.000    0.000 
#
# Total GULP energy -289653.350492 kJ/mol
# GULP energy per Si atom -5570.256740 kJ/mol
# Density = 1.861098 g / cm^3
# Si number density = 18.653437 Si / 1000 Ang^3
#
#
#
# Elastic Constant Matrix: (Units=GPa)
#
#
# Indices 1 2 3 4 5 6 
#
# 1 23.2266 23.3980 0.2699 0.0000 0.0000 0.0000
# 2 23.3980 67.1388 7.0318 0.0000 0.0000 0.0000
# 3 0.2699 7.0318 79.3380 0.0000 0.0000 0.0000
# 4 0.0000 0.0000 0.0000 2.4081 0.0000 0.0000
# 5 0.0000 0.0000 0.0000 0.0000 26.0476 0.0000
# 6 0.0000 0.0000 0.0000 0.0000 0.0000 19.2852
#
#
#
# Elastic Compliance Matrix: (Units=1/GPa)
#
#
# Indices 1 2 3 4 5 6 
#
# 1 0.066614 -0.023409 0.001848 0.000000 0.000000 0.000000
# 2 -0.023409 0.023260 -0.001982 0.000000 0.000000 0.000000
# 3 0.001848 -0.001982 0.012774 0.000000 0.000000 0.000000
# 4 0.000000 0.000000 0.000000 0.415271 0.000000 0.000000
# 5 0.000000 0.000000 0.000000 0.000000 0.038391 0.000000
# 6 0.000000 0.000000 0.000000 0.000000 0.000000 0.051853
#
#
# Mechanical properties :
#
#
# Convention : Reuss Voigt Hill
#
# Bulk Modulus (GPa) = 17.99770 25.67810 21.83790
# Shear Modulus (GPa) = 7.42094 18.81508 13.11801
#
# Velocity S-wave (km/s) = 1.99674 3.17940 2.65476
# Velocity P-wave (km/s) = 3.87109 5.22244 4.59669
#
# Compressibility (1/GPa) = 0.05556266
#
# Stress axis : x y z
#
# Youngs Moduli (GPa) = 15.01190 42.99215 78.28602
#
# Poissons Ratio (x) = 1.00639 -0.14468
# Poissons Ratio (y) = 0.35141 0.15516
# Poissons Ratio (z) = -0.02774 0.08521
#
# Static dielectric constant tensor:
#      x y z
#    x 1.672110 0.000000 0.000000 
#    y 0.000000 1.702130 0.000000 
#    z 0.000000 0.000000 1.697900 
# 
# From -- ./inp_files/5209.got.cif
#   From: 2010.05.17/outbox.cif.g08.bks.cpg/sg60_3_cif.got.tgz:5209.got - 2010.06.03 14:59:27.
