data_PCOD9453883
_publ_section_title
;
Structure prediction by ZEFSAII (Michael W. Deem and Ramdas Pophale) SiO2 
 PCOD9453883
Probable space group: P B C N
;
_chemical_formula_sum "Si O2"
_cell_formula_units_Z 40
_cell_length_a 7.279650
_cell_length_b 14.346283
_cell_length_c 16.834404
_cell_angle_alpha 90.000000
_cell_angle_beta 90.000000
_cell_angle_gamma 90.000000
_cell_volume 1758.116453
_symmetry_space_group_name_H-M "P B C N"
_symmetry_group_IT_number 60
_symmetry_cell_setting 'orthorhombic'
loop_
_space_group_symop_operation_xyz
x,y,z
1/2-x,1/2-y,1/2+z
1/2+x,1/2-y,-z
-x,y,1/2-z
-x,-y,-z
1/2+x,1/2+y,1/2-z
1/2-x,1/2+y,z
x,-y,1/2+z
loop_
_atom_site_type_symbol
_atom_site_label
_atom_site_fract_x
_atom_site_fract_y
_atom_site_fract_z
Si Si1 0.363455 0.384172 0.938183
Si Si2 0.135479 0.311044 0.397583
Si Si3 0.449709 0.094264 0.048309
Si Si4 0.992093 0.085242 0.618461
Si Si5 0.135441 0.461744 0.178046
O O1 0.438965 0.293411 0.894032
O O2 0.402793 0.483025 0.896944
O O3 0.146292 0.363919 0.932949
O O4 0.421258 0.390731 0.030967
O O5 0.159124 0.337935 0.490856
O O6 0.330315 0.342375 0.361225
O O7 0.980768 0.380138 0.364654
O O8 0.347634 0.054331 0.124094
O O9 0.500000 0.000000 0.000000
O O10 0.157089 0.075655 0.681392
O O11 0.000000 0.485714 0.250000
#
# Coordination Sequence:
#
# PCOD9453883 Si02
#       5
#     8   8   8   8   8
#     4  11  20  37  69 100 126 161 218 284 324 382
#     4  11  22  40  65  98 128 164 227 277 317 390
#     4  10  17  39  60  87 123 159 213 268 317 372
#     4  11  21  38  66  98 127 172 212 263 345 383
#     4  11  24  43  61  89 134 178 212 272 330 396
#
# _framework density 22.751622000000001
#
# number of rings (size 3 to 8) (size 9 to 14) (size 15 to 20)
#    0.000    1.200    8.000    2.400    0.000    0.800 
#    3.600    2.000    0.000    0.000    0.000    0.000 
#    0.000    0.000    0.000    0.000    0.000    0.000 
#
# Total GULP energy -223283.422347 kJ/mol
# GULP energy per Si atom -5582.085559 kJ/mol
# Density = 2.269984 g / cm^3
# Si number density = 22.751622 Si / 1000 Ang^3
#
#
#
# Elastic Constant Matrix: (Units=GPa)
#
#
# Indices 1 2 3 4 5 6 
#
# 1 127.2940 -5.6579 11.5444 0.0000 0.0000 0.0000
# 2 -5.6579 81.7110 12.2722 0.0000 0.0000 0.0000
# 3 11.5444 12.2722 39.2467 0.0000 0.0000 0.0000
# 4 0.0000 0.0000 0.0000 10.8165 0.0000 0.0000
# 5 0.0000 0.0000 0.0000 0.0000 33.3192 0.0000
# 6 0.0000 0.0000 0.0000 0.0000 0.0000 16.9630
#
#
#
# Elastic Compliance Matrix: (Units=1/GPa)
#
#
# Indices 1 2 3 4 5 6 
#
# 1 0.008144 0.000969 -0.002699 0.000000 0.000000 0.000000
# 2 0.000969 0.012957 -0.004337 0.000000 0.000000 0.000000
# 3 -0.002699 -0.004337 0.027630 0.000000 0.000000 0.000000
# 4 0.000000 0.000000 0.000000 0.092452 0.000000 0.000000
# 5 0.000000 0.000000 0.000000 0.000000 0.030013 0.000000
# 6 0.000000 0.000000 0.000000 0.000000 0.000000 0.058952
#
#
# Mechanical properties :
#
#
# Convention : Reuss Voigt Hill
#
# Bulk Modulus (GPa) = 27.32376 31.61880 29.47128
# Shear Modulus (GPa) = 19.64810 27.55925 23.60367
#
# Velocity S-wave (km/s) = 2.94188 3.48416 3.22444
# Velocity P-wave (km/s) = 4.85543 5.48757 5.18115
#
# Compressibility (1/GPa) = 0.03659818
#
# Stress axis : x y z
#
# Youngs Moduli (GPa) = 122.79525 77.18027 36.19298
#
# Poissons Ratio (x) = -0.07480 0.09767
# Poissons Ratio (y) = -0.11901 0.15695
# Poissons Ratio (z) = 0.33136 0.33470
#
# Static dielectric constant tensor:
#      x y z
#    x 1.890490 0.000000 0.000000 
#    y 0.000000 2.056280 0.000000 
#    z 0.000000 0.000000 1.909690 
# 
# From -- ./inp_files/19153.got.cif
#   From: 2010.05.17/outbox.cif.g08.bks.cpg/sg60_10_cif.got.tgz:19153.got - 2010.06.03 14:59:27.
