data_PCOD9453603
_publ_section_title
;
Structure prediction by ZEFSAII (Michael W. Deem and Ramdas Pophale) SiO2 
 PCOD9453603
Probable space group: P M M N
;
_chemical_formula_sum "Si O2"
_cell_formula_units_Z 56
_cell_length_a 15.000000
_cell_length_b 9.000000
_cell_length_c 21.000000
_cell_angle_alpha 90.000000
_cell_angle_beta 90.000000
_cell_angle_gamma 90.000000
_cell_volume 2835.000000
_symmetry_space_group_name_H-M "P M M N"
_symmetry_group_IT_number 59
_space_group.IT_coordinate_system_code '2'
_symmetry_cell_setting 'orthorhombic'
loop_
_space_group_symop_operation_xyz
x,y,z
1/2-x,1/2-y,z
1/2+x,-y,-z
-x,1/2+y,-z
-x,-y,-z
1/2+x,1/2+y,-z
1/2-x,y,z
x,1/2-y,z
loop_
_atom_site_type_symbol
_atom_site_label
_atom_site_fract_x
_atom_site_fract_y
_atom_site_fract_z
Si Si1 0.350873 0.928554 0.607791
Si Si2 0.856605 0.575991 0.896308
Si Si3 0.141774 0.581695 0.976805
Si Si4 0.649839 0.430694 0.538936
Si Si5 0.353027 0.929327 0.831762
Si Si6 0.528612 0.426471 0.787507
Si Si7 0.024229 0.928043 0.350081
O O1 0.250000 0.968646 0.625697
O O2 0.357846 0.750000 0.611690
O O3 0.365865 0.973920 0.534016
O O4 0.426270 0.005394 0.647846
O O5 0.750000 0.548983 0.891199
O O6 0.872729 0.750000 0.889552
O O7 0.887423 0.522053 0.965934
O O8 0.909822 0.490408 0.842483
O O9 0.250000 0.587293 0.979012
O O10 0.109016 0.750000 0.986349
O O11 0.122543 0.532953 0.905140
O O12 0.750000 0.475742 0.556568
O O13 0.647905 0.250000 0.539640
O O14 0.579543 0.486681 0.589890
O O15 0.250000 0.972959 0.819101
O O16 0.356704 0.750000 0.826012
O O17 0.429927 0.004780 0.791664
O O18 0.522242 0.250000 0.793678
O O19 0.567327 0.462986 0.717805
O O20 0.018788 0.750000 0.355385
#
# Coordination Sequence:
#
# PCOD9453603 Si02
#       7
#     8   8   8   8   8   8   8
#     4   9  18  33  55  81 105 133 169 209 259 314
#     4  10  21  37  57  80 106 137 174 218 267 317
#     4   8  15  31  56  82 104 129 167 217 271 321
#     4   8  15  31  55  80 104 131 168 213 259 309
#     4   9  19  37  59  80 104 137 177 222 270 317
#     4  11  24  37  51  76 108 145 185 218 256 310
#     4  10  21  35  52  76 105 139 177 215 255 299
#
# _framework density 19.753086
#
# number of rings (size 3 to 8) (size 9 to 14) (size 15 to 20)
#    0.000    2.714    0.000    3.000    0.000    4.857 
#    0.000    5.714    0.000    1.286    0.000    0.000 
#    0.000    0.000    0.000    0.000    0.000    0.000 
#
# Total GULP energy -312346.572880 kJ/mol
# GULP energy per Si atom -5577.617373 kJ/mol
# Density = 1.970813 g / cm^3
# Si number density = 19.753086 Si / 1000 Ang^3
#
#
#
# Elastic Constant Matrix: (Units=GPa)
#
#
# Indices 1 2 3 4 5 6 
#
# 1 16.2799 24.6658 32.3427 0.0000 0.0000 0.0000
# 2 24.6658 2.2104 27.3658 0.0000 0.0000 0.0000
# 3 32.3427 27.3658 60.5156 0.0000 0.0000 0.0000
# 4 0.0000 0.0000 0.0000 14.3642 0.0000 0.0000
# 5 0.0000 0.0000 0.0000 0.0000 123.5482 0.0000
# 6 0.0000 0.0000 0.0000 0.0000 0.0000 21.6600
#
#
#
# Elastic Compliance Matrix: (Units=1/GPa)
#
#
# Indices 1 2 3 4 5 6 
#
# 1 0.112216 0.110841 -0.110097 0.000000 0.000000 0.000000
# 2 0.110841 0.011102 -0.064260 0.000000 0.000000 0.000000
# 3 -0.110097 -0.064260 0.104425 0.000000 0.000000 0.000000
# 4 0.000000 0.000000 0.000000 0.069617 0.000000 0.000000
# 5 0.000000 0.000000 0.000000 0.000000 0.008094 0.000000
# 6 0.000000 0.000000 0.000000 0.000000 0.000000 0.046168
#
#
# Mechanical properties :
#
#
# Convention : Reuss Voigt Hill
#
# Bulk Modulus (GPa) = 9.92941 27.52828 18.72884
# Shear Modulus (GPa) = 9.76133 31.55659 20.65896
#
# Velocity S-wave (km/s) = 2.22540 4.00128 3.23748
# Velocity P-wave (km/s) = 3.41187 5.94251 4.84532
#
# Compressibility (1/GPa) = 0.10071088
#
# Stress axis : x y z
#
# Youngs Moduli (GPa) = 8.91141 90.07137 9.57623
#
# Poissons Ratio (x) = -9.98357 1.05432
# Poissons Ratio (y) = -0.98775 0.61536
# Poissons Ratio (z) = 0.98112 5.78795
#
# Static dielectric constant tensor:
#      x y z
#    x 1.691970 0.000000 0.000000 
#    y 0.000000 1.660710 0.000000 
#    z 0.000000 0.000000 1.728550 
# 
# From -- ./inp_files/29154.got.cif
#   From: 2010.05.17/outbox.ucp.g08.bks.cvg/sg59_15_cif.got.tgz:29154.got - 2010.06.11 16:43:56.
