data_PCOD9453542
_publ_section_title
;
Structure prediction by ZEFSAII (Michael W. Deem and Ramdas Pophale) SiO2 
 PCOD9453542
Probable space group: P M M N
;
_chemical_formula_sum "Si O2"
_cell_formula_units_Z 48
_cell_length_a 9.000000
_cell_length_b 15.000000
_cell_length_c 18.000000
_cell_angle_alpha 90.000000
_cell_angle_beta 90.000000
_cell_angle_gamma 90.000000
_cell_volume 2430.000000
_symmetry_space_group_name_H-M "P M M N"
_symmetry_group_IT_number 59
_space_group.IT_coordinate_system_code '2'
_symmetry_cell_setting 'orthorhombic'
loop_
_space_group_symop_operation_xyz
x,y,z
1/2-x,1/2-y,z
1/2+x,-y,-z
-x,1/2+y,-z
-x,-y,-z
1/2+x,1/2+y,-z
1/2-x,y,z
x,1/2-y,z
loop_
_atom_site_type_symbol
_atom_site_label
_atom_site_fract_x
_atom_site_fract_y
_atom_site_fract_z
Si Si1 0.423545 0.969800 0.643597
Si Si2 0.573388 0.649580 0.523324
Si Si3 0.071997 0.650580 0.360572
Si Si4 0.428464 0.647223 0.038907
Si Si5 0.578727 0.540410 0.907478
Si Si6 0.083211 0.145739 0.245201
O O1 0.250000 0.982175 0.629100
O O2 0.507668 0.930114 0.571969
O O3 0.456741 0.892588 0.702583
O O4 0.495684 0.062283 0.672030
O O5 0.750000 0.638424 0.512672
O O6 0.551329 0.750000 0.556766
O O7 0.489720 0.650429 0.444745
O O8 0.250000 0.640968 0.359218
O O9 0.036377 0.750000 0.329434
O O10 0.250000 0.653535 0.039971
O O11 0.483739 0.750000 0.049927
O O12 0.469332 0.564009 0.093670
O O13 0.483376 0.603205 0.961800
O O14 0.750000 0.541283 0.935402
O O15 0.578984 0.586586 0.828232
O O16 0.250000 0.134590 0.279722
O O17 0.065915 0.250000 0.228549
#
# Coordination Sequence:
#
# PCOD9453542 Si02
#       6
#     8   8   8   8   8   8
#     4  12  24  36  53  77 107 140 175 218 265 316
#     4  10  20  35  56  81 109 139 173 217 266 314
#     4  10  21  38  59  80 103 134 174 218 264 316
#     4   9  17  30  51  80 111 139 170 213 262 311
#     4   9  18  33  53  77 106 141 179 217 259 307
#     4  10  21  37  55  75 103 139 178 219 262 312
#
# _framework density 19.753086
#
# number of rings (size 3 to 8) (size 9 to 14) (size 15 to 20)
#    0.000    2.000    0.000    4.000    0.000    6.000 
#    0.000    0.833    0.000    3.000    0.000    0.000 
#    0.000    0.000    0.000    0.000    0.000    0.000 
#
# Total GULP energy -267615.232239 kJ/mol
# GULP energy per Si atom -5575.317338 kJ/mol
# Density = 1.970813 g / cm^3
# Si number density = 19.753086 Si / 1000 Ang^3
#
#
#
# Elastic Constant Matrix: (Units=GPa)
#
#
# Indices 1 2 3 4 5 6 
#
# 1 58.8577 34.9223 1.7064 0.0000 0.0000 0.0000
# 2 34.9223 171.2009 19.1357 0.0000 0.0000 0.0000
# 3 1.7064 19.1357 21.6533 0.0000 0.0000 0.0000
# 4 0.0000 0.0000 0.0000 24.7942 0.0000 0.0000
# 5 0.0000 0.0000 0.0000 0.0000 20.4053 0.0000
# 6 0.0000 0.0000 0.0000 0.0000 0.0000 33.6328
#
#
#
# Elastic Compliance Matrix: (Units=1/GPa)
#
#
# Indices 1 2 3 4 5 6 
#
# 1 0.019422 -0.004206 0.002187 0.000000 0.000000 0.000000
# 2 -0.004206 0.007392 -0.006201 0.000000 0.000000 0.000000
# 3 0.002187 -0.006201 0.051490 0.000000 0.000000 0.000000
# 4 0.000000 0.000000 0.000000 0.040332 0.000000 0.000000
# 5 0.000000 0.000000 0.000000 0.000000 0.049007 0.000000
# 6 0.000000 0.000000 0.000000 0.000000 0.000000 0.029733
#
#
# Mechanical properties :
#
#
# Convention : Reuss Voigt Hill
#
# Bulk Modulus (GPa) = 16.16472 40.36008 28.26240
# Shear Modulus (GPa) = 21.32745 28.82962 25.07853
#
# Velocity S-wave (km/s) = 3.28945 3.82448 3.56701
# Velocity P-wave (km/s) = 4.75694 6.32289 5.59497
#
# Compressibility (1/GPa) = 0.06186310
#
# Stress axis : x y z
#
# Youngs Moduli (GPa) = 51.48671 135.27692 19.42116
#
# Poissons Ratio (x) = 0.56901 -0.04247
# Poissons Ratio (y) = 0.21657 0.12044
# Poissons Ratio (z) = -0.11258 0.83889
#
# Static dielectric constant tensor:
#      x y z
#    x 1.671340 0.000000 0.000000 
#    y 0.000000 1.744080 0.000000 
#    z 0.000000 0.000000 1.727770 
# 
# From -- ./inp_files/25501.got.cif
#   From: 2010.05.17/outbox.ucp.g08.bks.cvg/sg59_13_cif.got.tgz:25501.got - 2010.06.11 16:43:56.
