data_PCOD9453345
_publ_section_title
;
Structure prediction by ZEFSAII (Michael W. Deem and Ramdas Pophale) SiO2 
 PCOD9453345
Probable space group: P M M N
;
_chemical_formula_sum "Si O2"
_cell_formula_units_Z 56
_cell_length_a 9.000000
_cell_length_b 15.000000
_cell_length_c 21.000000
_cell_angle_alpha 90.000000
_cell_angle_beta 90.000000
_cell_angle_gamma 90.000000
_cell_volume 2835.000000
_symmetry_space_group_name_H-M "P M M N"
_symmetry_group_IT_number 59
_space_group.IT_coordinate_system_code '2'
_symmetry_cell_setting 'orthorhombic'
loop_
_space_group_symop_operation_xyz
x,y,z
1/2-x,1/2-y,z
1/2+x,-y,-z
-x,1/2+y,-z
-x,-y,-z
1/2+x,1/2+y,-z
1/2-x,y,z
x,1/2-y,z
loop_
_atom_site_type_symbol
_atom_site_label
_atom_site_fract_x
_atom_site_fract_y
_atom_site_fract_z
Si Si1 0.073321 0.355143 0.085033
Si Si2 0.068771 0.581518 0.665864
Si Si3 0.572492 0.950630 0.438807
Si Si4 0.416523 0.857451 0.043698
Si Si5 0.575679 0.750000 0.461031
Si Si6 0.072139 0.151470 0.823296
Si Si7 0.571296 0.040754 0.199244
Si Si8 0.926721 0.250000 0.407609
O O1 0.250000 0.360300 0.080240
O O2 0.034554 0.250000 0.095774
O O3 0.999291 0.386855 0.019482
O O4 0.010849 0.417164 0.140043
O O5 0.250000 0.580088 0.667145
O O6 0.021490 0.496195 0.626295
O O7 0.024057 0.592334 0.737987
O O8 0.012490 0.663204 0.625238
O O9 0.750000 0.964362 0.446174
O O10 0.548111 0.845514 0.430188
O O11 0.500000 0.000000 0.500000
O O12 0.250000 0.894209 0.049414
O O13 0.405239 0.750000 0.038268
O O14 0.511830 0.870941 0.106642
O O15 0.750000 0.750000 0.480240
O O16 0.467994 0.750000 0.520290
O O17 0.250000 0.156937 0.825118
O O18 0.015752 0.250000 0.804249
O O19 0.034914 0.062531 0.785295
O O20 0.750000 0.046812 0.189187
O O21 0.750000 0.250000 0.399686
#
# Coordination Sequence:
#
# PCOD9453345 Si02
#       8
#     8   8   8   8   4   8   8   4
#     4  10  21  36  53  77 109 140 170 213 267 315
#     4   9  19  34  53  78 106 140 179 216 256 308
#     4  10  19  34  54  79 110 140 175 219 264 310
#     4   9  17  31  54  81 104 133 174 217 262 313
#     4  10  20  32  52  84 112 136 169 220 273 308
#     4   9  18  34  54  76 103 134 171 219 269 313
#     4  10  21  36  54  76 102 139 182 216 254 310
#     4  10  18  32  56  80 104 140 179 212 255 314
#
# _framework density 19.753086
#
# number of rings (size 3 to 8) (size 9 to 14) (size 15 to 20)
#    0.000    2.429    1.429    0.857    1.000    3.714 
#    1.286    1.429    0.000    0.000    0.000    0.000 
#    0.000    0.000    0.000    0.000    0.000    0.000 
#
# Total GULP energy -311751.751713 kJ/mol
# GULP energy per Si atom -5566.995566 kJ/mol
# Density = 1.970813 g / cm^3
# Si number density = 19.753086 Si / 1000 Ang^3
#
#
#
# Elastic Constant Matrix: (Units=GPa)
#
#
# Indices 1 2 3 4 5 6 
#
# 1 -36.6262 19.3307 -15.8587 0.0000 0.0000 0.0000
# 2 19.3307 54.6278 -15.1891 0.0000 0.0000 0.0000
# 3 -15.8587 -15.1891 -3.8786 0.0000 0.0000 0.0000
# 4 0.0000 0.0000 0.0000 25.5785 0.0000 0.0000
# 5 0.0000 0.0000 0.0000 0.0000 6.7917 0.0000
# 6 0.0000 0.0000 0.0000 0.0000 0.0000 21.1594
#
#
#
# Elastic Compliance Matrix: (Units=1/GPa)
#
#
# Indices 1 2 3 4 5 6 
#
# 1 -0.033445 0.023868 0.043278 0.000000 0.000000 0.000000
# 2 0.023868 -0.008270 -0.065204 0.000000 0.000000 0.000000
# 3 0.043278 -0.065204 -0.179430 0.000000 0.000000 0.000000
# 4 0.000000 0.000000 0.000000 0.039095 0.000000 0.000000
# 5 0.000000 0.000000 0.000000 0.000000 0.147239 0.000000
# 6 0.000000 0.000000 0.000000 0.000000 0.000000 0.047260
#
#
# Mechanical properties :
#
#
# Convention : Reuss Voigt Hill
#
# Bulk Modulus (GPa) = -4.60275 -1.03457 -2.81866
# Shear Modulus (GPa) = -78.30487 12.42860 -32.93813
#
# Velocity S-wave (km/s) = -6.30301 2.51110 -4.08792
# Velocity P-wave (km/s) = 7.43678 2.80760 4.86945
#
# Compressibility (1/GPa) = -0.21726161
#
# Stress axis : x y z
#
# Youngs Moduli (GPa) = -29.90028 -120.91873 -5.57321
#
# Poissons Ratio (x) = 2.88608 0.24119
# Poissons Ratio (y) = 0.71366 -0.36340
# Poissons Ratio (z) = 1.29401 -7.88439
#
# Static dielectric constant tensor:
#      x y z
#    x 1.677590 0.000000 0.000000 
#    y 0.000000 1.771770 0.000000 
#    z 0.000000 0.000000 1.666650 
# 
# From -- ./inp_files/29235.got.cif
#   From: 2010.05.17/outbox.ucp.g08.bks.cvg/sg59_15_cif.got.tgz:29235.got - 2010.06.11 16:43:56.
