data_PCOD9453886
_publ_section_title
;
Structure prediction by ZEFSAII (Michael W. Deem and Ramdas Pophale) SiO2 
 PCOD9453886
Probable space group: P B C N
;
_chemical_formula_sum "Si O2"
_cell_formula_units_Z 60
_cell_length_a 14.649690
_cell_length_b 12.562589
_cell_length_c 16.846403
_cell_angle_alpha 90.000000
_cell_angle_beta 90.000000
_cell_angle_gamma 90.000000
_cell_volume 3100.378896
_symmetry_space_group_name_H-M "P B C N"
_symmetry_group_IT_number 60
_symmetry_cell_setting 'orthorhombic'
loop_
_space_group_symop_operation_xyz
x,y,z
1/2-x,1/2-y,1/2+z
1/2+x,1/2-y,-z
-x,y,1/2-z
-x,-y,-z
1/2+x,1/2+y,1/2-z
1/2-x,1/2+y,z
x,-y,1/2+z
loop_
_atom_site_type_symbol
_atom_site_label
_atom_site_fract_x
_atom_site_fract_y
_atom_site_fract_z
Si Si1 0.808588 0.596000 0.363647
Si Si2 0.262585 0.737433 0.777157
Si Si3 0.494846 0.959788 0.159865
Si Si4 0.056051 0.314749 0.835109
Si Si5 0.659512 0.446012 0.324428
Si Si6 0.500000 0.580533 0.250000
Si Si7 0.574735 0.258410 0.625076
Si Si8 0.593191 0.273647 0.446472
O O1 0.783131 0.666334 0.285468
O O2 0.720801 0.525275 0.375285
O O3 0.831732 0.681894 0.430479
O O4 0.897330 0.518525 0.354296
O O5 0.350556 0.751174 0.832737
O O6 0.274427 0.627502 0.729446
O O7 0.167958 0.743482 0.824049
O O8 0.500000 0.919948 0.250000
O O9 0.523780 0.855444 0.112082
O O10 0.565792 0.058062 0.155675
O O11 0.000000 0.298678 0.750000
O O12 0.997986 0.277315 0.909933
O O13 0.586868 0.507031 0.269793
O O14 0.610956 0.369208 0.386317
O O15 0.483927 0.658261 0.324405
O O16 0.592334 0.302994 0.537640
#
# Coordination Sequence:
#
# PCOD9453886 Si02
#       8
#     8   8   8   8   8   4   8   8
#     4  10  20  39  67  93 120 170 224 262 312 387
#     4  11  21  40  67  95 124 172 229 263 307 400
#     4  10  18  36  66  90 122 166 209 269 310 371
#     4  10  17  39  68  89 119 173 227 255 314 394
#     4  11  22  42  68  90 126 181 217 261 325 392
#     4  12  26  42  70  92 130 176 218 262 334 398
#     4  12  26  41  61 105 137 162 215 280 327 379
#     4  10  24  44  61  96 134 165 216 272 329 383
#
# _framework density 19.352473
#
# number of rings (size 3 to 8) (size 9 to 14) (size 15 to 20)
#    0.000    1.333    7.333    1.600    0.000    2.667 
#    9.600    0.000    0.000    0.000    0.000    0.000 
#    0.000    0.000    0.000    0.000    0.000    0.000 
#
# Total GULP energy -334579.970948 kJ/mol
# GULP energy per Si atom -5576.332849 kJ/mol
# Density = 1.930843 g / cm^3
# Si number density = 19.352473 Si / 1000 Ang^3
#
#
#
# Elastic Constant Matrix: (Units=GPa)
#
#
# Indices 1 2 3 4 5 6 
#
# 1 35.3058 17.6773 -6.9505 0.0000 0.0000 0.0000
# 2 17.6773 74.0764 9.4110 0.0000 0.0000 0.0000
# 3 -6.9505 9.4110 67.6432 0.0000 0.0000 0.0000
# 4 0.0000 0.0000 0.0000 5.2818 0.0000 0.0000
# 5 0.0000 0.0000 0.0000 0.0000 17.0449 0.0000
# 6 0.0000 0.0000 0.0000 0.0000 0.0000 24.5121
#
#
#
# Elastic Compliance Matrix: (Units=1/GPa)
#
#
# Indices 1 2 3 4 5 6 
#
# 1 0.033541 -0.008594 0.004642 0.000000 0.000000 0.000000
# 2 -0.008594 0.015944 -0.003101 0.000000 0.000000 0.000000
# 3 0.004642 -0.003101 0.015692 0.000000 0.000000 0.000000
# 4 0.000000 0.000000 0.000000 0.189330 0.000000 0.000000
# 5 0.000000 0.000000 0.000000 0.000000 0.058669 0.000000
# 6 0.000000 0.000000 0.000000 0.000000 0.000000 0.040796
#
#
# Mechanical properties :
#
#
# Convention : Reuss Voigt Hill
#
# Bulk Modulus (GPa) = 19.58066 24.14455 21.86260
# Shear Modulus (GPa) = 12.98360 19.82692 16.40526
#
# Velocity S-wave (km/s) = 2.59299 3.20428 2.91470
# Velocity P-wave (km/s) = 4.37089 5.11793 4.75909
#
# Compressibility (1/GPa) = 0.05107081
#
# Stress axis : x y z
#
# Youngs Moduli (GPa) = 29.81453 62.71802 63.72713
#
# Poissons Ratio (x) = 0.53898 -0.29582
# Poissons Ratio (y) = 0.25622 0.19764
# Poissons Ratio (z) = -0.13840 0.19451
#
# Static dielectric constant tensor:
#      x y z
#    x 1.718180 0.000000 0.000000 
#    y 0.000000 1.710400 0.000000 
#    z 0.000000 0.000000 1.687350 
# 
# From -- ./inp_files/20631.got.cif
#   From: 2010.05.17/outbox.cif.g08.bks.cpg/sg60_11_cif.got.tgz:20631.got - 2010.06.03 14:59:27.
