data_PCOD9453220
_publ_section_title
;
Structure prediction by ZEFSAII (Michael W. Deem and Ramdas Pophale) SiO2 
 PCOD9453220
Probable space group: P M M N
;
_chemical_formula_sum "Si O2"
_cell_formula_units_Z 56
_cell_length_a 7.344490
_cell_length_b 14.300559
_cell_length_c 21.239970
_cell_angle_alpha 90.000000
_cell_angle_beta 90.000000
_cell_angle_gamma 90.000000
_cell_volume 2230.840688
_symmetry_space_group_name_H-M "P M M N"
_symmetry_group_IT_number 59
_space_group.IT_coordinate_system_code '2'
_symmetry_cell_setting 'orthorhombic'
loop_
_space_group_symop_operation_xyz
x,y,z
1/2-x,1/2-y,z
1/2+x,-y,-z
-x,1/2+y,-z
-x,-y,-z
1/2+x,1/2+y,-z
1/2-x,y,z
x,1/2-y,z
loop_
_atom_site_type_symbol
_atom_site_label
_atom_site_fract_x
_atom_site_fract_y
_atom_site_fract_z
Si Si1 0.526148 0.940111 0.147723
Si Si2 0.535277 0.891292 0.014120
Si Si3 0.528317 0.606252 0.552579
Si Si4 0.957431 0.891435 0.419304
Si Si5 0.969202 0.650497 0.691930
Si Si6 0.462644 0.066394 0.715829
Si Si7 0.457452 0.848935 0.876390
O O1 0.750000 0.942065 0.146065
O O2 0.470715 0.881281 0.086094
O O3 0.466238 0.904459 0.215880
O O4 0.464507 0.049122 0.140788
O O5 0.750000 0.870402 0.012635
O O6 0.452573 0.846127 0.952417
O O7 0.500000 0.000000 0.000000
O O8 0.750000 0.603281 0.549470
O O9 0.463971 0.645548 0.485343
O O10 0.456448 0.501793 0.564257
O O11 0.482546 0.654041 0.618002
O O12 0.750000 0.857235 0.414504
O O13 0.040635 0.890515 0.349133
O O14 0.750000 0.648499 0.697424
O O15 0.033208 0.750000 0.719772
O O16 0.029009 0.547672 0.714365
O O17 0.250000 0.090885 0.714587
O O18 0.250000 0.850325 0.852913
O O19 0.543576 0.750000 0.856487
#
# Coordination Sequence:
#
# PCOD9453220 Si02
#       7
#     8   8   8   8   8   8   8
#     4   8  15  27  42  60  82 109 135 160 198 244
#     4   9  16  28  45  62  81 106 137 171 205 241
#     4   8  13  22  35  49  67  92 119 150 188 220
#     4   8  13  21  35  54  70  86 116 156 187 212
#     4   9  17  27  36  49  74 105 131 155 187 227
#     4   9  16  26  40  57  76  99 128 158 188 226
#     4   9  17  29  44  62  84 108 135 167 202 242
#
# _framework density 25.102644000000002
#
# number of rings (size 3 to 8) (size 9 to 14) (size 15 to 20)
#    0.000    3.429    0.000    1.286    0.000    1.143 
#    0.000    5.000    0.000    0.000    0.000    1.000 
#    0.000    5.714    0.000    2.857    0.000    4.429 
#
# Total GULP energy -311917.836957 kJ/mol
# GULP energy per Si atom -5569.961374 kJ/mol
# Density = 2.504551 g / cm^3
# Si number density = 25.102644 Si / 1000 Ang^3
#
#
#
# Elastic Constant Matrix: (Units=GPa)
#
#
# Indices 1 2 3 4 5 6 
#
# 1 99.4195 -6.7526 3.2800 0.0000 0.0000 0.0000
# 2 -6.7526 48.4085 -2.9297 0.0000 0.0000 0.0000
# 3 3.2800 -2.9297 235.3516 0.0000 0.0000 0.0000
# 4 0.0000 0.0000 0.0000 -14.7431 0.0000 0.0000
# 5 0.0000 0.0000 0.0000 0.0000 5.1676 0.0000
# 6 0.0000 0.0000 0.0000 0.0000 0.0000 -11.4729
#
#
#
# Elastic Compliance Matrix: (Units=1/GPa)
#
#
# Indices 1 2 3 4 5 6 
#
# 1 0.010158 0.001409 -0.000124 0.000000 0.000000 0.000000
# 2 0.001409 0.020869 0.000240 0.000000 0.000000 0.000000
# 3 -0.000124 0.000240 0.004254 0.000000 0.000000 0.000000
# 4 0.000000 0.000000 0.000000 -0.067828 0.000000 0.000000
# 5 0.000000 0.000000 0.000000 0.000000 0.193512 0.000000
# 6 0.000000 0.000000 0.000000 0.000000 0.000000 -0.087162
#
#
# Mechanical properties :
#
#
# Convention : Reuss Voigt Hill
#
# Bulk Modulus (GPa) = 26.08805 41.15279 33.62042
# Shear Modulus (GPa) = 59.85960 21.76246 40.81103
#
# Velocity S-wave (km/s) = 4.88853 2.94758 4.03645
# Velocity P-wave (km/s) = 6.50221 5.29279 5.92842
#
# Compressibility (1/GPa) = 0.03833173
#
# Stress axis : x y z
#
# Youngs Moduli (GPa) = 98.44255 47.91875 235.09058
#
# Poissons Ratio (x) = -0.06754 0.02916
# Poissons Ratio (y) = -0.13875 -0.05645
# Poissons Ratio (z) = 0.01221 -0.01151
#
# Static dielectric constant tensor:
#      x y z
#    x 1.947140 0.000000 0.000000 
#    y 0.000000 1.976040 0.000000 
#    z 0.000000 0.000000 2.048260 
# 
# From -- ./inp_files/27134.got.cif
#   From: 2010.05.17/outbox.cif.g08.bks.cpg/sg59_14_cif.got.tgz:27134.got - 2010.06.03 14:40:33.
