data_PCOD9453601
_publ_section_title
;
Structure prediction by ZEFSAII (Michael W. Deem and Ramdas Pophale) SiO2 
 PCOD9453601
Probable space group: P M M N
;
_chemical_formula_sum "Si O2"
_cell_formula_units_Z 56
_cell_length_a 9.000000
_cell_length_b 15.000000
_cell_length_c 21.000000
_cell_angle_alpha 90.000000
_cell_angle_beta 90.000000
_cell_angle_gamma 90.000000
_cell_volume 2835.000000
_symmetry_space_group_name_H-M "P M M N"
_symmetry_group_IT_number 59
_space_group.IT_coordinate_system_code '2'
_symmetry_cell_setting 'orthorhombic'
loop_
_space_group_symop_operation_xyz
x,y,z
1/2-x,1/2-y,z
1/2+x,-y,-z
-x,1/2+y,-z
-x,-y,-z
1/2+x,1/2+y,-z
1/2-x,y,z
x,1/2-y,z
loop_
_atom_site_type_symbol
_atom_site_label
_atom_site_fract_x
_atom_site_fract_y
_atom_site_fract_z
Si Si1 0.428826 0.966605 0.155578
Si Si2 0.430977 0.651934 0.659937
Si Si3 0.078274 0.152858 0.602232
Si Si4 0.428840 0.028965 0.717030
Si Si5 0.071234 0.150572 0.102122
Si Si6 0.076123 0.854799 0.033003
Si Si7 0.426932 0.593505 0.518323
O O1 0.250000 0.962739 0.159666
O O2 0.499671 0.931732 0.220067
O O3 0.473851 0.912407 0.092920
O O4 0.477715 0.069045 0.145750
O O5 0.250000 0.652420 0.660376
O O6 0.483965 0.750000 0.677757
O O7 0.478556 0.572637 0.705727
O O8 0.474830 0.628732 0.587388
O O9 0.250000 0.132809 0.584422
O O10 0.076041 0.250000 0.633079
O O11 0.028073 0.080969 0.653217
O O12 0.980463 0.153726 0.539512
O O13 0.250000 0.032568 0.721449
O O14 0.250000 0.151708 0.102413
O O15 0.017147 0.250000 0.119366
O O16 0.016563 0.130168 0.030753
O O17 0.250000 0.875211 0.020298
O O18 0.065833 0.750000 0.048655
O O19 0.500000 0.500000 0.500000
O O20 0.250000 0.585521 0.519834
#
# Coordination Sequence:
#
# PCOD9453601 Si02
#       7
#     8   8   8   8   8   8   8
#     4  10  21  35  51  74 105 139 172 211 259 306
#     4   9  18  34  55  77 103 135 173 218 266 315
#     4  10  21  38  57  79 109 142 179 226 276 322
#     4  10  21  37  53  74 104 141 180 219 262 312
#     4   9  18  33  53  77 105 134 166 208 258 309
#     4   9  18  33  53  77 104 132 166 211 258 303
#     4  11  20  34  58  84 111 140 176 222 276 328
#
# _framework density 19.753086
#
# number of rings (size 3 to 8) (size 9 to 14) (size 15 to 20)
#    0.000    2.286    1.429    1.286    0.000    3.714 
#    0.000    0.000    0.000    1.714    0.000    0.000 
#    0.000    0.000    0.000    0.000    0.000    0.000 
#
# Total GULP energy -312278.215861 kJ/mol
# GULP energy per Si atom -5576.396712 kJ/mol
# Density = 1.970813 g / cm^3
# Si number density = 19.753086 Si / 1000 Ang^3
#
#
#
# Elastic Constant Matrix: (Units=GPa)
#
#
# Indices 1 2 3 4 5 6 
#
# 1 0.5388 7.5699 3.9587 0.0000 0.0000 0.0000
# 2 7.5699 63.7334 19.5527 0.0000 0.0000 0.0000
# 3 3.9587 19.5527 53.1016 0.0000 0.0000 0.0000
# 4 0.0000 0.0000 0.0000 -13.9218 0.0000 0.0000
# 5 0.0000 0.0000 0.0000 0.0000 23.3759 0.0000
# 6 0.0000 0.0000 0.0000 0.0000 0.0000 8.0385
#
#
#
# Elastic Compliance Matrix: (Units=1/GPa)
#
#
# Indices 1 2 3 4 5 6 
#
# 1 -2.397087 0.259164 0.083276 0.000000 0.000000 0.000000
# 2 0.259164 -0.010331 -0.015517 0.000000 0.000000 0.000000
# 3 0.083276 -0.015517 0.018337 0.000000 0.000000 0.000000
# 4 0.000000 0.000000 0.000000 -0.071830 0.000000 0.000000
# 5 0.000000 0.000000 0.000000 0.000000 0.042779 0.000000
# 6 0.000000 0.000000 0.000000 0.000000 0.000000 0.124402
#
#
# Mechanical properties :
#
#
# Convention : Reuss Voigt Hill
#
# Bulk Modulus (GPa) = -0.57629 19.94848 9.68610
# Shear Modulus (GPa) = -1.41804 9.25133 3.91664
#
# Velocity S-wave (km/s) = -0.84820 2.16648 1.40965
# Velocity P-wave (km/s) = 1.11877 4.04710 2.75022
#
# Compressibility (1/GPa) = -1.73523428
#
# Stress axis : x y z
#
# Youngs Moduli (GPa) = -0.41717 -96.79220 54.53459
#
# Poissons Ratio (x) = 25.08510 -4.54141
# Poissons Ratio (y) = 0.10812 0.84619
# Poissons Ratio (z) = 0.03474 -1.50189
#
# Static dielectric constant tensor:
#      x y z
#    x 1.660200 0.000000 0.000000 
#    y 0.000000 1.780420 0.000000 
#    z 0.000000 0.000000 1.659040 
# 
# From -- ./inp_files/29107.got.cif
#   From: 2010.05.17/outbox.ucp.g08.bks.cvg/sg59_15_cif.got.tgz:29107.got - 2010.06.11 16:43:56.
