data_PCOD9453042
_publ_section_title
;
Structure prediction by ZEFSAII (Michael W. Deem and Ramdas Pophale) SiO2 
 PCOD9453042
Probable space group: P M M N
;
_chemical_formula_sum "Si O2"
_cell_formula_units_Z 48
_cell_length_a 8.763464
_cell_length_b 10.477174
_cell_length_c 29.734594
_cell_angle_alpha 90.000000
_cell_angle_beta 90.000000
_cell_angle_gamma 90.000000
_cell_volume 2730.121508
_symmetry_space_group_name_H-M "P M M N"
_symmetry_group_IT_number 59
_space_group.IT_coordinate_system_code '2'
_symmetry_cell_setting 'orthorhombic'
loop_
_space_group_symop_operation_xyz
x,y,z
1/2-x,1/2-y,z
1/2+x,-y,-z
-x,1/2+y,-z
-x,-y,-z
1/2+x,1/2+y,-z
1/2-x,y,z
x,1/2-y,z
loop_
_atom_site_type_symbol
_atom_site_label
_atom_site_fract_x
_atom_site_fract_y
_atom_site_fract_z
Si Si1 0.564646 0.250000 0.951277
Si Si2 0.066924 0.100086 0.808091
Si Si3 0.065956 0.104233 0.362632
Si Si4 0.933978 0.604595 0.533370
Si Si5 0.933237 0.250000 0.055209
Si Si6 0.567162 0.997891 0.897126
Si Si7 0.065857 0.103154 0.704973
O O1 0.750000 0.250000 0.951021
O O2 0.515640 0.123244 0.924959
O O3 0.515168 0.250000 0.003074
O O4 0.250000 0.085267 0.811765
O O5 0.031784 0.250000 0.815983
O O6 0.022354 0.071658 0.756587
O O7 0.985615 0.017603 0.845932
O O8 0.250000 0.099743 0.360746
O O9 0.019543 0.250000 0.351027
O O10 0.021113 0.080871 0.414656
O O11 0.999290 0.998643 0.329657
O O12 0.750000 0.600458 0.531596
O O13 0.980920 0.750000 0.521734
O O14 0.000000 0.500000 0.500000
O O15 0.750000 0.250000 0.055848
O O16 0.995017 0.374400 0.080243
O O17 0.750000 0.990034 0.899168
O O18 0.250000 0.101115 0.703138
O O19 0.017838 0.250000 0.695620
#
# Coordination Sequence:
#
# PCOD9453042 Si02
#       7
#     4   8   8   8   4   8   8
#     4   9  20  37  59  83 109 139 179 223 266 315
#     4   9  18  35  57  80 106 140 180 218 264 324
#     4   9  19  36  54  75 107 144 180 219 266 319
#     4   9  19  35  53  75 106 142 180 223 268 316
#     4  11  23  39  55  79 113 147 179 217 264 319
#     4  11  21  37  58  83 111 140 176 224 271 316
#     4   9  19  35  55  80 108 136 174 222 265 314
#
# _framework density 17.581634999999999
#
# number of rings (size 3 to 8) (size 9 to 14) (size 15 to 20)
#    0.000    2.500    0.833    3.250    0.000    3.000 
#    1.500    9.167    0.000    0.000    0.000    0.000 
#    0.000    0.000    0.000    0.000    0.000    0.000 
#
# Total GULP energy -267802.525015 kJ/mol
# GULP energy per Si atom -5579.219271 kJ/mol
# Density = 1.754162 g / cm^3
# Si number density = 17.581635 Si / 1000 Ang^3
#
#
#
# Elastic Constant Matrix: (Units=GPa)
#
#
# Indices 1 2 3 4 5 6 
#
# 1 26.8175 41.7118 40.4955 0.0000 0.0000 0.0000
# 2 41.7118 163.1351 120.1169 0.0000 0.0000 0.0000
# 3 40.4955 120.1169 151.7323 0.0000 0.0000 0.0000
# 4 0.0000 0.0000 0.0000 39.9133 0.0000 0.0000
# 5 0.0000 0.0000 0.0000 0.0000 29.8618 0.0000
# 6 0.0000 0.0000 0.0000 0.0000 0.0000 25.9970
#
#
#
# Elastic Compliance Matrix: (Units=1/GPa)
#
#
# Indices 1 2 3 4 5 6 
#
# 1 0.068306 -0.009691 -0.010558 0.000000 0.000000 0.000000
# 2 -0.009691 0.016071 -0.010136 0.000000 0.000000 0.000000
# 3 -0.010558 -0.010136 0.017432 0.000000 0.000000 0.000000
# 4 0.000000 0.000000 0.000000 0.025054 0.000000 0.000000
# 5 0.000000 0.000000 0.000000 0.000000 0.033488 0.000000
# 6 0.000000 0.000000 0.000000 0.000000 0.000000 0.038466
#
#
# Mechanical properties :
#
#
# Convention : Reuss Voigt Hill
#
# Bulk Modulus (GPa) = 24.36720 82.92592 53.64656
# Shear Modulus (GPa) = 18.29716 28.44513 23.37114
#
# Velocity S-wave (km/s) = 3.22948 4.02666 3.64990
# Velocity P-wave (km/s) = 5.27216 8.29984 6.95280
#
# Compressibility (1/GPa) = 0.04103877
#
# Stress axis : x y z
#
# Youngs Moduli (GPa) = 14.64007 62.22462 57.36448
#
# Poissons Ratio (x) = 0.60301 0.60567
# Poissons Ratio (y) = 0.14187 0.58144
# Poissons Ratio (z) = 0.15457 0.63070
#
# Static dielectric constant tensor:
#      x y z
#    x 1.592530 0.000000 0.000000 
#    y 0.000000 1.577240 0.000000 
#    z 0.000000 0.000000 1.584340 
# 
# From -- ./inp_files/32955.got.cif
#   From: 2010.05.17/outbox.cif.g08.bks.cpg/sg59_17_cif.got.tgz:32955.got - 2010.06.03 14:40:33.
