data_PCOD9453153
_publ_section_title
;
Structure prediction by ZEFSAII (Michael W. Deem and Ramdas Pophale) SiO2 
 PCOD9453153
Probable space group: P M M N
;
_chemical_formula_sum "Si O2"
_cell_formula_units_Z 64
_cell_length_a 18.704336
_cell_length_b 8.613398
_cell_length_c 20.177595
_cell_angle_alpha 90.000000
_cell_angle_beta 90.000000
_cell_angle_gamma 90.000000
_cell_volume 3250.769762
_symmetry_space_group_name_H-M "P M M N"
_symmetry_group_IT_number 59
_space_group.IT_coordinate_system_code '2'
_symmetry_cell_setting 'orthorhombic'
loop_
_space_group_symop_operation_xyz
x,y,z
1/2-x,1/2-y,z
1/2+x,-y,-z
-x,1/2+y,-z
-x,-y,-z
1/2+x,1/2+y,-z
1/2-x,y,z
x,1/2-y,z
loop_
_atom_site_type_symbol
_atom_site_label
_atom_site_fract_x
_atom_site_fract_y
_atom_site_fract_z
Si Si1 0.417408 0.933622 0.131969
Si Si2 0.567647 0.068351 0.095825
Si Si3 0.332330 0.434062 0.017128
Si Si4 0.079151 0.936551 0.515436
Si Si5 0.093107 0.565124 0.668202
Si Si6 0.833758 0.564385 0.607052
Si Si7 0.167159 0.066500 0.791527
Si Si8 0.441126 0.935505 0.284935
O O1 0.404105 0.750000 0.127187
O O2 0.422457 0.977002 0.209278
O O3 0.494205 0.973766 0.100170
O O4 0.357730 0.024200 0.090866
O O5 0.550662 0.250000 0.094242
O O6 0.614886 0.026686 0.160150
O O7 0.615071 0.020738 0.033085
O O8 0.250000 0.479336 0.006115
O O9 0.338495 0.250000 0.005658
O O10 0.078121 0.750000 0.509641
O O11 0.099344 0.976947 0.590938
O O12 0.133059 0.006849 0.462058
O O13 0.986261 0.018743 0.307775
O O14 0.102539 0.750000 0.674704
O O15 0.000000 0.500000 0.500000
O O16 0.750000 0.527271 0.611144
O O17 0.842779 0.750000 0.611956
O O18 0.878547 0.484359 0.665433
O O19 0.250000 0.032967 0.806088
O O20 0.154840 0.250000 0.801872
O O21 0.147694 0.021334 0.716610
O O22 0.452781 0.750000 0.287770
#
# Coordination Sequence:
#
# PCOD9453153 Si02
#       8
#     8   8   8   8   8   8   8   8
#     4  11  24  42  66  95 127 163 210 263 313 375
#     4  12  24  40  66  95 126 166 210 260 313 373
#     4  11  25  44  65  91 127 168 209 258 317 377
#     4  11  23  39  64  93 124 164 209 261 315 375
#     4  11  23  39  63  93 125 162 207 259 312 373
#     4  11  25  43  64  93 130 170 215 267 321 378
#     4  11  24  41  62  91 128 167 207 253 309 372
#     4  11  23  40  66  94 125 167 211 261 318 377
#
# _framework density 19.687643999999999
#
# number of rings (size 3 to 8) (size 9 to 14) (size 15 to 20)
#    0.000    0.875    2.500    4.500    0.000    8.500 
#    0.000    5.000    0.000    0.000    0.000    0.000 
#    0.000    0.000    0.000    0.000    0.000    0.000 
#
# Total GULP energy -358198.119376 kJ/mol
# GULP energy per Si atom -5596.845615 kJ/mol
# Density = 1.964283 g / cm^3
# Si number density = 19.687644 Si / 1000 Ang^3
#
#
#
# Elastic Constant Matrix: (Units=GPa)
#
#
# Indices 1 2 3 4 5 6 
#
# 1 36.2952 -6.6052 6.3437 0.0000 0.0000 0.0000
# 2 -6.6052 16.7125 2.2149 0.0000 0.0000 0.0000
# 3 6.3437 2.2149 87.9668 0.0000 0.0000 0.0000
# 4 0.0000 0.0000 0.0000 34.2536 0.0000 0.0000
# 5 0.0000 0.0000 0.0000 0.0000 22.1433 0.0000
# 6 0.0000 0.0000 0.0000 0.0000 0.0000 31.0288
#
#
#
# Elastic Compliance Matrix: (Units=1/GPa)
#
#
# Indices 1 2 3 4 5 6 
#
# 1 0.030220 0.012274 -0.002488 0.000000 0.000000 0.000000
# 2 0.012274 0.065021 -0.002522 0.000000 0.000000 0.000000
# 3 -0.002488 -0.002522 0.011611 0.000000 0.000000 0.000000
# 4 0.000000 0.000000 0.000000 0.029194 0.000000 0.000000
# 5 0.000000 0.000000 0.000000 0.000000 0.045160 0.000000
# 6 0.000000 0.000000 0.000000 0.000000 0.000000 0.032228
#
#
# Mechanical properties :
#
#
# Convention : Reuss Voigt Hill
#
# Bulk Modulus (GPa) = 8.23872 16.09791 12.16831
# Shear Modulus (GPa) = 20.88835 26.75321 23.82078
#
# Velocity S-wave (km/s) = 3.26081 3.69030 3.48219
# Velocity P-wave (km/s) = 4.28614 5.13344 4.72881
#
# Compressibility (1/GPa) = 0.12137812
#
# Stress axis : x y z
#
# Youngs Moduli (GPa) = 33.09021 15.37972 86.12613
#
# Poissons Ratio (x) = -0.18877 0.21431
# Poissons Ratio (y) = -0.40614 0.21723
# Poissons Ratio (z) = 0.08234 0.03879
#
# Static dielectric constant tensor:
#      x y z
#    x 1.654580 0.000000 0.000000 
#    y 0.000000 1.584500 0.000000 
#    z 0.000000 0.000000 1.689990 
# 
# From -- ./inp_files/32266.got.cif
#   From: 2010.05.17/outbox.cif.g08.bks.cpg/sg59_17_cif.got.tgz:32266.got - 2010.06.03 14:40:33.
