data_PCOD9453534
_publ_section_title
;
Structure prediction by ZEFSAII (Michael W. Deem and Ramdas Pophale) SiO2 
 PCOD9453534
Probable space group: P M M N
;
_chemical_formula_sum "Si O2"
_cell_formula_units_Z 64
_cell_length_a 15.000000
_cell_length_b 9.000000
_cell_length_c 24.000000
_cell_angle_alpha 90.000000
_cell_angle_beta 90.000000
_cell_angle_gamma 90.000000
_cell_volume 3240.000000
_symmetry_space_group_name_H-M "P M M N"
_symmetry_group_IT_number 59
_space_group.IT_coordinate_system_code '2'
_symmetry_cell_setting 'orthorhombic'
loop_
_space_group_symop_operation_xyz
x,y,z
1/2-x,1/2-y,z
1/2+x,-y,-z
-x,1/2+y,-z
-x,-y,-z
1/2+x,1/2+y,-z
1/2-x,y,z
x,1/2-y,z
loop_
_atom_site_type_symbol
_atom_site_label
_atom_site_fract_x
_atom_site_fract_y
_atom_site_fract_z
Si Si1 0.472025 0.568624 0.310397
Si Si2 0.347656 0.921663 0.408799
Si Si3 0.358450 0.581256 0.976100
Si Si4 0.405970 0.427239 0.514928
Si Si5 0.851078 0.571873 0.140089
Si Si6 0.143658 0.425841 0.089424
Si Si7 0.535992 0.071219 0.810873
Si Si8 0.652132 0.930987 0.360846
O O1 0.469391 0.750000 0.310985
O O2 0.416738 0.519171 0.363840
O O3 0.435813 0.522282 0.250758
O O4 0.573438 0.521697 0.320390
O O5 0.250000 0.920145 0.382706
O O6 0.371347 0.750000 0.422820
O O7 0.346349 0.015720 0.464596
O O8 0.250000 0.584453 0.978627
O O9 0.391171 0.750000 0.974469
O O10 0.388525 0.498739 0.031723
O O11 0.378588 0.496310 0.919257
O O12 0.500000 0.500000 0.500000
O O13 0.412578 0.250000 0.515148
O O14 0.371580 0.473445 0.575701
O O15 0.750000 0.521927 0.154253
O O16 0.847971 0.750000 0.134751
O O17 0.930860 0.536680 0.181977
O O18 0.250000 0.454465 0.094921
O O19 0.130678 0.250000 0.086933
O O20 0.091861 0.495288 0.140950
O O21 0.545754 0.250000 0.815555
O O22 0.750000 0.984189 0.345531
O O23 0.653287 0.750000 0.360023
#
# Coordination Sequence:
#
# PCOD9453534 Si02
#       8
#     8   8   8   8   8   8   8   8
#     4   9  18  34  52  75 106 139 180 224 266 313
#     4  10  20  35  55  79 109 145 181 221 272 325
#     4   9  17  31  54  82 108 137 176 218 261 318
#     4  11  20  33  55  82 113 144 177 220 272 326
#     4   9  18  33  52  78 112 143 172 214 269 322
#     4  10  21  37  56  78 107 141 174 218 275 325
#     4  10  21  35  55  80 105 140 185 227 264 313
#     4   9  17  30  52  80 107 135 171 218 268 316
#
# _framework density 19.753086
#
# number of rings (size 3 to 8) (size 9 to 14) (size 15 to 20)
#    0.000    2.375    1.250    1.500    0.000    5.000 
#    0.000    4.375    0.000    0.000    0.000    0.000 
#    0.000    0.000    0.000    0.000    0.000    0.000 
#
# Total GULP energy -356933.557237 kJ/mol
# GULP energy per Si atom -5577.086832 kJ/mol
# Density = 1.970813 g / cm^3
# Si number density = 19.753086 Si / 1000 Ang^3
#
#
#
# Elastic Constant Matrix: (Units=GPa)
#
#
# Indices 1 2 3 4 5 6 
#
# 1 57.1060 13.9040 8.8315 0.0000 0.0000 0.0000
# 2 13.9040 7.9593 9.9712 0.0000 0.0000 0.0000
# 3 8.8315 9.9712 66.0748 0.0000 0.0000 0.0000
# 4 0.0000 0.0000 0.0000 18.3193 0.0000 0.0000
# 5 0.0000 0.0000 0.0000 0.0000 -26.2930 0.0000
# 6 0.0000 0.0000 0.0000 0.0000 0.0000 15.3770
#
#
#
# Elastic Compliance Matrix: (Units=1/GPa)
#
#
# Indices 1 2 3 4 5 6 
#
# 1 0.031805 -0.061946 0.005097 0.000000 0.000000 0.000000
# 2 -0.061946 0.275579 -0.033307 0.000000 0.000000 0.000000
# 3 0.005097 -0.033307 0.019479 0.000000 0.000000 0.000000
# 4 0.000000 0.000000 0.000000 0.054587 0.000000 0.000000
# 5 0.000000 0.000000 0.000000 0.000000 -0.038033 0.000000
# 6 0.000000 0.000000 0.000000 0.000000 0.000000 0.065032
#
#
# Mechanical properties :
#
#
# Convention : Reuss Voigt Hill
#
# Bulk Modulus (GPa) = 6.82356 21.83929 14.33142
# Shear Modulus (GPa) = 7.84174 8.04289 7.94232
#
# Velocity S-wave (km/s) = 1.99462 2.02004 2.00737
# Velocity P-wave (km/s) = 2.96084 4.06459 3.55580
#
# Compressibility (1/GPa) = 0.14655099
#
# Stress axis : x y z
#
# Youngs Moduli (GPa) = 31.44111 3.62873 51.33626
#
# Poissons Ratio (x) = 0.22479 -0.26166
# Poissons Ratio (y) = 1.94766 1.70987
# Poissons Ratio (z) = -0.16026 0.12086
#
# Static dielectric constant tensor:
#      x y z
#    x 1.770130 0.000000 0.000000 
#    y 0.000000 1.667940 0.000000 
#    z 0.000000 0.000000 1.673710 
# 
# From -- ./inp_files/32172.got.cif
#   From: 2010.05.17/outbox.ucp.g08.bks.cvg/sg59_17_cif.got.tgz:32172.got - 2010.06.11 16:43:56.
