data_PCOD9453058
_publ_section_title
;
Structure prediction by ZEFSAII (Michael W. Deem and Ramdas Pophale) SiO2 
 PCOD9453058
Probable space group: P M M N
;
_chemical_formula_sum "Si O2"
_cell_formula_units_Z 40
_cell_length_a 9.766303
_cell_length_b 8.490722
_cell_length_c 23.888715
_cell_angle_alpha 90.000000
_cell_angle_beta 90.000000
_cell_angle_gamma 90.000000
_cell_volume 1980.923048
_symmetry_space_group_name_H-M "P M M N"
_symmetry_group_IT_number 59
_space_group.IT_coordinate_system_code '2'
_symmetry_cell_setting 'orthorhombic'
loop_
_space_group_symop_operation_xyz
x,y,z
1/2-x,1/2-y,z
1/2+x,-y,-z
-x,1/2+y,-z
-x,-y,-z
1/2+x,1/2+y,-z
1/2-x,y,z
x,1/2-y,z
loop_
_atom_site_type_symbol
_atom_site_label
_atom_site_fract_x
_atom_site_fract_y
_atom_site_fract_z
Si Si1 0.598171 0.562258 0.753069
Si Si2 0.750000 0.939785 0.541866
Si Si3 0.750000 0.558954 0.413206
Si Si4 0.590628 0.561386 0.948307
Si Si5 0.908463 0.937814 0.153557
Si Si6 0.039543 0.560808 0.368974
O O1 0.750000 0.515534 0.774579
O O2 0.586001 0.750000 0.759115
O O3 0.477221 0.480520 0.787284
O O4 0.591284 0.515909 0.688072
O O5 0.750000 0.750000 0.542967
O O6 0.750000 0.994623 0.477650
O O7 0.877451 0.004478 0.576952
O O8 0.750000 0.750000 0.415698
O O9 0.615665 0.511839 0.380154
O O10 0.750000 0.505542 0.949350
O O11 0.594817 0.750000 0.950882
O O12 0.508454 0.510853 0.892942
O O13 0.500000 0.500000 0.000000
O O14 0.750000 0.992544 0.149180
O O15 0.907745 0.750000 0.146302
O O16 0.050709 0.750000 0.364236
#
# Coordination Sequence:
#
# PCOD9453058 Si02
#       6
#     8   4   4   8   8   8
#     4  11  24  42  63  89 122 159 204 258 313 372
#     4  11  21  39  61  87 121 157 198 251 306 369
#     4   9  22  39  59  87 121 155 198 253 308 367
#     4  11  24  42  66  98 135 174 218 265 312 366
#     4  11  25  43  65  95 129 166 211 261 312 371
#     4  11  22  39  62  88 118 158 203 251 309 373
#
# _framework density 20.192606999999999
#
# number of rings (size 3 to 8) (size 9 to 14) (size 15 to 20)
#    0.000    1.200    1.000    4.500    1.400    9.200 
#    0.000    4.500    0.000    0.000    0.000    0.000 
#    0.000    0.000    0.000    0.000    0.000    0.000 
#
# Total GULP energy -223623.278405 kJ/mol
# GULP energy per Si atom -5590.581960 kJ/mol
# Density = 2.014665 g / cm^3
# Si number density = 20.192607 Si / 1000 Ang^3
#
#
#
# Elastic Constant Matrix: (Units=GPa)
#
#
# Indices 1 2 3 4 5 6 
#
# 1 186.1253 30.6452 41.0567 0.0000 0.0000 0.0000
# 2 30.6452 44.0827 4.6256 0.0000 0.0000 0.0000
# 3 41.0567 4.6256 81.5287 0.0000 0.0000 0.0000
# 4 0.0000 0.0000 0.0000 34.7423 0.0000 0.0000
# 5 0.0000 0.0000 0.0000 0.0000 48.6419 0.0000
# 6 0.0000 0.0000 0.0000 0.0000 0.0000 30.0591
#
#
#
# Elastic Compliance Matrix: (Units=1/GPa)
#
#
# Indices 1 2 3 4 5 6 
#
# 1 0.006796 -0.004391 -0.003173 0.000000 0.000000 0.000000
# 2 -0.004391 0.025658 0.000756 0.000000 0.000000 0.000000
# 3 -0.003173 0.000756 0.013821 0.000000 0.000000 0.000000
# 4 0.000000 0.000000 0.000000 0.028783 0.000000 0.000000
# 5 0.000000 0.000000 0.000000 0.000000 0.020558 0.000000
# 6 0.000000 0.000000 0.000000 0.000000 0.000000 0.033268
#
#
# Mechanical properties :
#
#
# Convention : Reuss Voigt Hill
#
# Bulk Modulus (GPa) = 30.62129 51.59907 41.11018
# Shear Modulus (GPa) = 32.59731 38.38261 35.48996
#
# Velocity S-wave (km/s) = 4.02222 4.36457 4.19689
# Velocity P-wave (km/s) = 6.06370 7.14201 6.62483
#
# Compressibility (1/GPa) = 0.03265702
#
# Stress axis : x y z
#
# Youngs Moduli (GPa) = 147.15263 38.97421 72.35548
#
# Poissons Ratio (x) = 0.17114 0.22959
# Poissons Ratio (y) = 0.64618 -0.05467
# Poissons Ratio (z) = 0.46692 -0.02945
#
# Static dielectric constant tensor:
#      x y z
#    x 1.746420 0.000000 0.000000 
#    y 0.000000 1.688450 0.000000 
#    z 0.000000 0.000000 1.693700 
# 
# From -- ./inp_files/31155.got.cif
#   From: 2010.05.17/outbox.cif.g08.bks.cpg/sg59_16_cif.got.tgz:31155.got - 2010.06.03 14:40:33.
