data_PCOD9453023
_publ_section_title
;
Structure prediction by ZEFSAII (Michael W. Deem and Ramdas Pophale) SiO2 
 PCOD9453023
Probable space group: P M M N
;
_chemical_formula_sum "Si O2"
_cell_formula_units_Z 56
_cell_length_a 8.366288
_cell_length_b 14.956635
_cell_length_c 22.086302
_cell_angle_alpha 90.000000
_cell_angle_beta 90.000000
_cell_angle_gamma 90.000000
_cell_volume 2763.692450
_symmetry_space_group_name_H-M "P M M N"
_symmetry_group_IT_number 59
_space_group.IT_coordinate_system_code '2'
_symmetry_cell_setting 'orthorhombic'
loop_
_space_group_symop_operation_xyz
x,y,z
1/2-x,1/2-y,z
1/2+x,-y,-z
-x,1/2+y,-z
-x,-y,-z
1/2+x,1/2+y,-z
1/2-x,y,z
x,1/2-y,z
loop_
_atom_site_type_symbol
_atom_site_label
_atom_site_fract_x
_atom_site_fract_y
_atom_site_fract_z
Si Si1 0.943329 0.646228 0.976012
Si Si2 0.058720 0.410754 0.533193
Si Si3 0.443138 0.471996 0.909621
Si Si4 0.559547 0.352332 0.663961
Si Si5 0.055497 0.352769 0.282653
Si Si6 0.059253 0.027229 0.774944
Si Si7 0.072224 0.352231 0.409897
O O1 0.750000 0.648039 0.974883
O O2 0.997175 0.750000 0.968949
O O3 0.994851 0.600163 0.039727
O O4 0.999162 0.571791 0.927493
O O5 0.250000 0.408124 0.541156
O O6 0.007229 0.347490 0.477552
O O7 0.000000 0.500000 0.500000
O O8 0.986702 0.392193 0.598369
O O9 0.250000 0.473639 0.910745
O O10 0.496026 0.445730 0.842157
O O11 0.750000 0.350097 0.666473
O O12 0.497613 0.250000 0.667015
O O13 0.501707 0.411080 0.720313
O O14 0.250000 0.355255 0.285242
O O15 0.006837 0.250000 0.269807
O O16 0.991880 0.387957 0.349024
O O17 0.996450 0.425530 0.235816
O O18 0.250000 0.030371 0.773612
O O19 0.250000 0.394281 0.414922
O O20 0.091793 0.250000 0.391283
#
# Coordination Sequence:
#
# PCOD9453023 Si02
#       7
#     8   8   8   8   8   8   8
#     4   9  18  35  60  87 114 146 185 229 277 332
#     4  11  21  34  56  83 110 142 184 236 294 352
#     4   9  20  37  56  83 117 150 186 231 281 334
#     4  11  25  43  60  81 114 156 203 253 299 347
#     4   9  18  34  56  81 112 151 192 236 290 351
#     4  11  23  38  58  83 114 154 196 239 289 345
#     4   8  15  29  49  71  94 125 168 217 269 324
#
# _framework density 20.262748999999999
#
# number of rings (size 3 to 8) (size 9 to 14) (size 15 to 20)
#    0.000    2.286    0.000    3.429    0.000    5.714 
#    0.000    5.000    0.000    1.714    0.000    0.000 
#    0.000    0.000    0.000    0.000    0.000    0.000 
#
# Total GULP energy -311778.232314 kJ/mol
# GULP energy per Si atom -5567.468434 kJ/mol
# Density = 2.021663 g / cm^3
# Si number density = 20.262749 Si / 1000 Ang^3
#
#
#
# Elastic Constant Matrix: (Units=GPa)
#
#
# Indices 1 2 3 4 5 6 
#
# 1 20.4031 8.2282 13.5775 0.0000 0.0000 0.0000
# 2 8.2282 97.2144 19.7978 0.0000 0.0000 0.0000
# 3 13.5775 19.7978 109.7403 0.0000 0.0000 0.0000
# 4 0.0000 0.0000 0.0000 19.1956 0.0000 0.0000
# 5 0.0000 0.0000 0.0000 0.0000 24.5119 0.0000
# 6 0.0000 0.0000 0.0000 0.0000 0.0000 17.7717
#
#
#
# Elastic Compliance Matrix: (Units=1/GPa)
#
#
# Indices 1 2 3 4 5 6 
#
# 1 0.054447 -0.003360 -0.006130 0.000000 0.000000 0.000000
# 2 -0.003360 0.010886 -0.001548 0.000000 0.000000 0.000000
# 3 -0.006130 -0.001548 0.010150 0.000000 0.000000 0.000000
# 4 0.000000 0.000000 0.000000 0.052095 0.000000 0.000000
# 5 0.000000 0.000000 0.000000 0.000000 0.040797 0.000000
# 6 0.000000 0.000000 0.000000 0.000000 0.000000 0.056269
#
#
# Mechanical properties :
#
#
# Convention : Reuss Voigt Hill
#
# Bulk Modulus (GPa) = 18.72438 34.50718 26.61578
# Shear Modulus (GPa) = 18.90195 24.67945 21.79070
#
# Velocity S-wave (km/s) = 3.05756 3.49373 3.28290
# Velocity P-wave (km/s) = 4.66109 5.77423 5.24726
#
# Compressibility (1/GPa) = 0.05340632
#
# Stress axis : x y z
#
# Youngs Moduli (GPa) = 18.36662 91.85922 98.52038
#
# Poissons Ratio (x) = 0.30864 0.60395
# Poissons Ratio (y) = 0.06171 0.15253
# Poissons Ratio (z) = 0.11259 0.14222
#
# Static dielectric constant tensor:
#      x y z
#    x 1.718800 0.000000 0.000000 
#    y 0.000000 1.706710 0.000000 
#    z 0.000000 0.000000 1.765040 
# 
# From -- ./inp_files/29074.got.cif
#   From: 2010.05.17/outbox.cif.g08.bks.cpg/sg59_15_cif.got.tgz:29074.got - 2010.06.03 14:40:33.
