data_PCOD9453105
_publ_section_title
;
Structure prediction by ZEFSAII (Michael W. Deem and Ramdas Pophale) SiO2 
 PCOD9453105
Probable space group: P M M N
;
_chemical_formula_sum "Si O2"
_cell_formula_units_Z 48
_cell_length_a 15.588587
_cell_length_b 16.740404
_cell_length_c 9.358908
_cell_angle_alpha 90.000000
_cell_angle_beta 90.000000
_cell_angle_gamma 90.000000
_cell_volume 2442.293558
_symmetry_space_group_name_H-M "P M M N"
_symmetry_group_IT_number 59
_space_group.IT_coordinate_system_code '2'
_symmetry_cell_setting 'orthorhombic'
loop_
_space_group_symop_operation_xyz
x,y,z
1/2-x,1/2-y,z
1/2+x,-y,-z
-x,1/2+y,-z
-x,-y,-z
1/2+x,1/2+y,-z
1/2-x,y,z
x,1/2-y,z
loop_
_atom_site_type_symbol
_atom_site_label
_atom_site_fract_x
_atom_site_fract_y
_atom_site_fract_z
Si Si1 0.843468 0.841855 0.906642
Si Si2 0.152705 0.097943 0.797876
Si Si3 0.001610 0.342666 0.269378
Si Si4 0.414253 0.550185 0.949972
Si Si5 0.001584 0.911761 0.428024
Si Si6 0.147428 0.846586 0.220302
O O1 0.750000 0.879538 0.896840
O O2 0.836398 0.750000 0.863314
O O3 0.911154 0.877857 0.799330
O O4 0.870841 0.842632 0.072166
O O5 0.250000 0.114089 0.747394
O O6 0.080320 0.096630 0.676975
O O7 0.149129 0.015677 0.886814
O O8 0.992342 0.250000 0.231152
O O9 0.932305 0.393563 0.185453
O O10 0.003404 0.353231 0.437260
O O11 0.500000 0.500000 0.000000
O O12 0.379663 0.605598 0.076861
O O13 0.086937 0.887669 0.340391
O O14 0.000000 0.000000 0.500000
O O15 0.250000 0.855966 0.245290
O O16 0.130439 0.750000 0.211414
#
# Coordination Sequence:
#
# PCOD9453105 Si02
#       6
#     8   8   8   8   8   8
#     4   9  19  36  58  88 122 156 202 259 316 374
#     4  11  23  39  64  92 123 164 212 265 319 382
#     4  11  22  37  62  90 123 168 208 254 315 378
#     4  12  20  41  65  95 127 163 214 271 329 381
#     4  12  24  43  62  90 133 171 214 263 322 388
#     4  11  25  45  70  98 131 175 223 272 328 393
#
# _framework density 19.653656999999999
#
# number of rings (size 3 to 8) (size 9 to 14) (size 15 to 20)
#    0.000    1.000    5.000    1.500    0.000    4.000 
#    0.000    0.000    0.000    3.000    0.000    0.000 
#    0.000    0.000    0.000    0.000    0.000    0.000 
#
# Total GULP energy -267594.445380 kJ/mol
# GULP energy per Si atom -5574.884279 kJ/mol
# Density = 1.960892 g / cm^3
# Si number density = 19.653657 Si / 1000 Ang^3
#
#
#
# Elastic Constant Matrix: (Units=GPa)
#
#
# Indices 1 2 3 4 5 6 
#
# 1 110.4604 30.1704 62.4089 0.0000 0.0000 0.0000
# 2 30.1704 85.0339 17.2299 0.0000 0.0000 0.0000
# 3 62.4089 17.2299 106.1186 0.0000 0.0000 0.0000
# 4 0.0000 0.0000 0.0000 37.6050 0.0000 0.0000
# 5 0.0000 0.0000 0.0000 0.0000 24.7044 0.0000
# 6 0.0000 0.0000 0.0000 0.0000 0.0000 25.2253
#
#
#
# Elastic Compliance Matrix: (Units=1/GPa)
#
#
# Indices 1 2 3 4 5 6 
#
# 1 0.014519 -0.003538 -0.007964 0.000000 0.000000 0.000000
# 2 -0.003538 0.013022 -0.000034 0.000000 0.000000 0.000000
# 3 -0.007964 -0.000034 0.014113 0.000000 0.000000 0.000000
# 4 0.000000 0.000000 0.000000 0.026592 0.000000 0.000000
# 5 0.000000 0.000000 0.000000 0.000000 0.040479 0.000000
# 6 0.000000 0.000000 0.000000 0.000000 0.000000 0.039643
#
#
# Mechanical properties :
#
#
# Convention : Reuss Voigt Hill
#
# Bulk Modulus (GPa) = 53.81474 57.91459 55.86467
# Shear Modulus (GPa) = 28.14794 30.29388 29.22091
#
# Velocity S-wave (km/s) = 3.78855 3.93031 3.86008
# Velocity P-wave (km/s) = 6.82484 7.08011 6.95365
#
# Compressibility (1/GPa) = 0.01858227
#
# Stress axis : x y z
#
# Youngs Moduli (GPa) = 68.87518 76.79293 70.85780
#
# Poissons Ratio (x) = 0.27167 0.56433
# Poissons Ratio (y) = 0.24366 0.00240
# Poissons Ratio (z) = 0.54854 0.00260
#
# Static dielectric constant tensor:
#      x y z
#    x 1.825820 0.000000 0.000000 
#    y 0.000000 1.752740 0.000000 
#    z 0.000000 0.000000 1.666960 
# 
# From -- ./inp_files/9056.got.cif
#   From: 2010.05.17/outbox.cif.g08.bks.cpg/sg59_5_cif.got.tgz:9056.got - 2010.06.03 14:40:33.
