data_PCOD9453211
_publ_section_title
;
Structure prediction by ZEFSAII (Michael W. Deem and Ramdas Pophale) SiO2 
 PCOD9453211
Probable space group: P M M N
;
_chemical_formula_sum "Si O2"
_cell_formula_units_Z 64
_cell_length_a 7.271538
_cell_length_b 18.018469
_cell_length_c 22.148110
_cell_angle_alpha 90.000000
_cell_angle_beta 90.000000
_cell_angle_gamma 90.000000
_cell_volume 2901.889271
_symmetry_space_group_name_H-M "P M M N"
_symmetry_group_IT_number 59
_space_group.IT_coordinate_system_code '2'
_symmetry_cell_setting 'orthorhombic'
loop_
_space_group_symop_operation_xyz
x,y,z
1/2-x,1/2-y,z
1/2+x,-y,-z
-x,1/2+y,-z
-x,-y,-z
1/2+x,1/2+y,-z
1/2-x,y,z
x,1/2-y,z
loop_
_atom_site_type_symbol
_atom_site_label
_atom_site_fract_x
_atom_site_fract_y
_atom_site_fract_z
Si Si1 0.042377 0.444329 0.097078
Si Si2 0.473039 0.429000 0.314598
Si Si3 0.473627 0.667456 0.373526
Si Si4 0.027559 0.595331 0.031317
Si Si5 0.027555 0.583571 0.256014
Si Si6 0.531327 0.486613 0.570153
Si Si7 0.974694 0.835082 0.796827
Si Si8 0.026595 0.829515 0.146293
O O1 0.250000 0.464949 0.116465
O O2 0.965589 0.395373 0.152185
O O3 0.045551 0.395801 0.035881
O O4 0.965054 0.520181 0.066939
O O5 0.250000 0.423959 0.316452
O O6 0.528755 0.503497 0.278902
O O7 0.534119 0.449032 0.383168
O O8 0.530746 0.362244 0.270532
O O9 0.250000 0.668908 0.376788
O O10 0.536737 0.750000 0.390300
O O11 0.523045 0.645699 0.304999
O O12 0.536573 0.595652 0.411427
O O13 0.250000 0.591323 0.026497
O O14 0.974492 0.659034 0.077521
O O15 0.250000 0.581322 0.255664
O O16 0.963058 0.605862 0.190308
O O17 0.500000 0.500000 0.500000
O O18 0.750000 0.483920 0.579771
O O19 0.750000 0.835825 0.798885
O O20 0.031434 0.750000 0.808550
O O21 0.250000 0.831323 0.147599
O O22 0.968517 0.750000 0.170029
#
# Coordination Sequence:
#
# PCOD9453211 Si02
#       8
#     8   8   8   8   8   8   8   8
#     4   9  17  29  44  60  78 104 141 179 211 248
#     4   8  14  25  41  61  83 107 137 172 208 245
#     4   8  13  22  38  61  86 110 139 175 211 245
#     4   9  17  28  41  58  82 110 136 167 211 258
#     4   8  12  19  34  56  81 105 129 165 209 246
#     4   9  17  29  46  67  91 118 145 173 208 254
#     4   9  16  26  42  63  85 110 143 184 224 256
#     4   9  15  21  32  54  82 106 127 156 199 247
#
# _framework density 22.054597999999999
#
# number of rings (size 3 to 8) (size 9 to 14) (size 15 to 20)
#    0.000    3.375    0.000    2.625    0.000    5.000 
#    0.000    0.625    0.000    1.875    0.000    5.250 
#    0.000    4.000    0.000    0.000    0.000    0.000 
#
# Total GULP energy -356555.913067 kJ/mol
# GULP energy per Si atom -5571.186142 kJ/mol
# Density = 2.200440 g / cm^3
# Si number density = 22.054598 Si / 1000 Ang^3
#
#
#
# Elastic Constant Matrix: (Units=GPa)
#
#
# Indices 1 2 3 4 5 6 
#
# 1 93.9404 0.6936 -3.6459 0.0000 0.0000 0.0000
# 2 0.6936 69.5892 43.9423 0.0000 0.0000 0.0000
# 3 -3.6459 43.9423 145.9675 0.0000 0.0000 0.0000
# 4 0.0000 0.0000 0.0000 23.3945 0.0000 0.0000
# 5 0.0000 0.0000 0.0000 0.0000 6.1883 0.0000
# 6 0.0000 0.0000 0.0000 0.0000 0.0000 -15.5538
#
#
#
# Elastic Compliance Matrix: (Units=1/GPa)
#
#
# Indices 1 2 3 4 5 6 
#
# 1 0.010662 -0.000339 0.000368 0.000000 0.000000 0.000000
# 2 -0.000339 0.017754 -0.005353 0.000000 0.000000 0.000000
# 3 0.000368 -0.005353 0.008472 0.000000 0.000000 0.000000
# 4 0.000000 0.000000 0.000000 0.042745 0.000000 0.000000
# 5 0.000000 0.000000 0.000000 0.000000 0.161596 0.000000
# 6 0.000000 0.000000 0.000000 0.000000 0.000000 -0.064293
#
#
# Mechanical properties :
#
#
# Convention : Reuss Voigt Hill
#
# Bulk Modulus (GPa) = 38.10998 43.49746 40.80372
# Shear Modulus (GPa) = 25.46750 20.70626 23.08688
#
# Velocity S-wave (km/s) = 3.40184 3.06741 3.23895
# Velocity P-wave (km/s) = 5.72254 5.68426 5.70343
#
# Compressibility (1/GPa) = 0.02623984
#
# Stress axis : x y z
#
# Youngs Moduli (GPa) = 93.79246 56.32662 118.04249
#
# Poissons Ratio (x) = 0.01909 -0.04348
# Poissons Ratio (y) = 0.03178 0.63189
# Poissons Ratio (z) = -0.03454 0.30152
#
# Static dielectric constant tensor:
#      x y z
#    x 1.918800 0.000000 0.000000 
#    y 0.000000 1.829840 0.000000 
#    z 0.000000 0.000000 1.812410 
# 
# From -- ./inp_files/27159.got.cif
#   From: 2010.05.17/outbox.cif.g08.bks.cpg/sg59_14_cif.got.tgz:27159.got - 2010.06.03 14:40:33.
