data_PCOD9453583
_publ_section_title
;
Structure prediction by ZEFSAII (Michael W. Deem and Ramdas Pophale) SiO2 
 PCOD9453583
Probable space group: P M M N
;
_chemical_formula_sum "Si O2"
_cell_formula_units_Z 64
_cell_length_a 18.000000
_cell_length_b 15.000000
_cell_length_c 12.000000
_cell_angle_alpha 90.000000
_cell_angle_beta 90.000000
_cell_angle_gamma 90.000000
_cell_volume 3240.000000
_symmetry_space_group_name_H-M "P M M N"
_symmetry_group_IT_number 59
_space_group.IT_coordinate_system_code '2'
_symmetry_cell_setting 'orthorhombic'
loop_
_space_group_symop_operation_xyz
x,y,z
1/2-x,1/2-y,z
1/2+x,-y,-z
-x,1/2+y,-z
-x,-y,-z
1/2+x,1/2+y,-z
1/2-x,y,z
x,1/2-y,z
loop_
_atom_site_type_symbol
_atom_site_label
_atom_site_fract_x
_atom_site_fract_y
_atom_site_fract_z
Si Si1 0.665299 0.143070 0.900533
Si Si2 0.663097 0.528548 0.174305
Si Si3 0.406262 0.852122 0.858234
Si Si4 0.338884 0.149248 0.022108
Si Si5 0.078374 0.478463 0.443012
Si Si6 0.068845 0.148207 0.232227
Si Si7 0.421418 0.645559 0.322007
Si Si8 0.099444 0.146095 0.638634
O O1 0.750000 0.105934 0.899050
O O2 0.672306 0.250000 0.891455
O O3 0.613631 0.117661 0.796579
O O4 0.624400 0.129029 0.017880
O O5 0.750000 0.510734 0.161179
O O6 0.625574 0.435781 0.209690
O O7 0.647827 0.605120 0.263307
O O8 0.632868 0.572578 0.060070
O O9 0.383346 0.750000 0.828539
O O10 0.494441 0.855929 0.842628
O O11 0.250000 0.150068 0.013432
O O12 0.365648 0.250000 0.992229
O O13 0.363867 0.132369 0.147843
O O14 0.066366 0.422534 0.330435
O O15 0.110627 0.574935 0.410789
O O16 0.116940 0.413392 0.530586
O O17 0.000000 0.500000 0.500000
O O18 0.073098 0.250000 0.276665
O O19 0.404296 0.750000 0.343272
O O20 0.511500 0.637523 0.327128
O O21 0.113267 0.250000 0.619363
#
# Coordination Sequence:
#
# PCOD9453583 Si02
#       8
#     8   8   8   8   8   8   8   8
#     4   9  18  33  52  78 116 154 186 226 279 341
#     4  11  23  38  58  83 115 156 196 236 292 354
#     4  10  21  35  55  85 118 153 190 232 284 349
#     4   9  20  38  58  84 119 154 189 236 293 351
#     4  10  20  37  58  84 115 149 194 245 297 341
#     4  10  21  37  60  87 114 150 195 243 296 350
#     4   9  19  34  56  83 111 150 193 237 289 346
#     4  10  21  38  60  83 111 149 199 249 291 340
#
# _framework density 19.753086
#
# number of rings (size 3 to 8) (size 9 to 14) (size 15 to 20)
#    0.000    2.250    0.000    2.625    3.500    2.500 
#    0.000    1.875    0.000    1.500    0.000    0.000 
#    0.000    0.000    0.000    0.000    0.000    0.000 
#
# Total GULP energy -356776.138679 kJ/mol
# GULP energy per Si atom -5574.627167 kJ/mol
# Density = 1.970813 g / cm^3
# Si number density = 19.753086 Si / 1000 Ang^3
#
#
#
# Elastic Constant Matrix: (Units=GPa)
#
#
# Indices 1 2 3 4 5 6 
#
# 1 3.2373 -2.1857 -7.6397 0.0000 0.0000 0.0000
# 2 -2.1857 86.1460 15.2970 0.0000 0.0000 0.0000
# 3 -7.6397 15.2970 34.8392 0.0000 0.0000 0.0000
# 4 0.0000 0.0000 0.0000 33.7738 0.0000 0.0000
# 5 0.0000 0.0000 0.0000 0.0000 2.5448 0.0000
# 6 0.0000 0.0000 0.0000 0.0000 0.0000 14.7592
#
#
#
# Elastic Compliance Matrix: (Units=1/GPa)
#
#
# Indices 1 2 3 4 5 6 
#
# 1 0.647312 -0.009524 0.146127 0.000000 0.000000 0.000000
# 2 -0.009524 0.012730 -0.007678 0.000000 0.000000 0.000000
# 3 0.146127 -0.007678 0.064118 0.000000 0.000000 0.000000
# 4 0.000000 0.000000 0.000000 0.029609 0.000000 0.000000
# 5 0.000000 0.000000 0.000000 0.000000 0.392957 0.000000
# 6 0.000000 0.000000 0.000000 0.000000 0.000000 0.067754
#
#
# Mechanical properties :
#
#
# Convention : Reuss Voigt Hill
#
# Bulk Modulus (GPa) = 1.01832 15.01840 8.01836
# Shear Modulus (GPa) = 3.89418 18.13228 11.01323
#
# Velocity S-wave (km/s) = 1.40560 3.03305 2.36380
# Velocity P-wave (km/s) = 1.77508 4.45931 3.39384
#
# Compressibility (1/GPa) = 0.98201067
#
# Stress axis : x y z
#
# Youngs Moduli (GPa) = 1.54485 78.55509 15.59627
#
# Poissons Ratio (x) = 0.74816 -2.27904
# Poissons Ratio (y) = 0.01471 0.11975
# Poissons Ratio (z) = -0.22574 0.60313
#
# Static dielectric constant tensor:
#      x y z
#    x 1.685660 0.000000 0.000000 
#    y 0.000000 1.750410 0.000000 
#    z 0.000000 0.000000 1.714650 
# 
# From -- ./inp_files/17230.got.cif
#   From: 2010.05.17/outbox.ucp.g08.bks.cvg/sg59_9_cif.got.tgz:17230.got - 2010.06.11 16:43:56.
