data_PCOD9453758
_publ_section_title
;
Structure prediction by ZEFSAII (Michael W. Deem and Ramdas Pophale) SiO2 
 PCOD9453758
Probable space group: P B C N
;
_chemical_formula_sum "Si O2"
_cell_formula_units_Z 52
_cell_length_a 11.835016
_cell_length_b 27.834566
_cell_length_c 8.047136
_cell_angle_alpha 90.000000
_cell_angle_beta 90.000000
_cell_angle_gamma 90.000000
_cell_volume 2650.907932
_symmetry_space_group_name_H-M "P B C N"
_symmetry_group_IT_number 60
_symmetry_cell_setting 'orthorhombic'
loop_
_space_group_symop_operation_xyz
x,y,z
1/2-x,1/2-y,1/2+z
1/2+x,1/2-y,-z
-x,y,1/2-z
-x,-y,-z
1/2+x,1/2+y,1/2-z
1/2-x,1/2+y,z
x,-y,1/2+z
loop_
_atom_site_type_symbol
_atom_site_label
_atom_site_fract_x
_atom_site_fract_y
_atom_site_fract_z
Si Si1 0.919260 0.360575 0.907994
Si Si2 0.969727 0.158650 0.570943
Si Si3 0.240281 0.909130 0.825443
Si Si4 0.000000 0.908268 0.750000
Si Si5 0.793719 0.807682 0.493296
Si Si6 0.771869 0.705829 0.631825
Si Si7 0.043612 0.550541 0.438623
O O1 0.812035 0.389985 0.832423
O O2 0.000000 0.345523 0.750000
O O3 0.990288 0.400412 0.011470
O O4 0.869486 0.317976 0.019205
O O5 0.974837 0.124107 0.412455
O O6 0.847822 0.182935 0.577310
O O7 0.000000 0.134729 0.750000
O O8 0.073118 0.195978 0.550935
O O9 0.120156 0.932849 0.784873
O O10 0.322233 0.943324 0.930710
O O11 0.220331 0.859487 0.924125
O O12 0.765595 0.762982 0.609033
O O13 0.719705 0.805169 0.326969
O O14 0.000000 0.552603 0.250000
O O15 0.000000 0.500000 0.500000
#
# Coordination Sequence:
#
# PCOD9453758 Si02
#       7
#     8   8   8   4   8   8   8
#     4   9  19  35  55  78 110 151 194 239 297 348
#     4   9  20  33  48  75 105 147 196 237 288 345
#     4   9  18  35  54  83 107 147 194 231 295 360
#     4  10  16  32  62  74 108 150 184 236 290 350
#     4  10  22  32  50  79 110 151 200 240 296 351
#     4  11  20  35  52  74 115 153 192 253 287 354
#     4   9  20  37  60  85 115 149 187 245 302 357
#
# _framework density 19.615921
#
# number of rings (size 3 to 8) (size 9 to 14) (size 15 to 20)
#    0.000    2.769    1.538    0.923    2.154    5.538 
#    0.000    6.154    0.000    3.692    6.000    0.000 
#    0.000    0.000    0.000    0.000    0.000    0.000 
#
# Total GULP energy -289559.584713 kJ/mol
# GULP energy per Si atom -5568.453552 kJ/mol
# Density = 1.957127 g / cm^3
# Si number density = 19.615921 Si / 1000 Ang^3
#
#
#
# Elastic Constant Matrix: (Units=GPa)
#
#
# Indices 1 2 3 4 5 6 
#
# 1 129.0102 34.7303 18.3017 0.0000 0.0000 0.0000
# 2 34.7303 65.5140 12.7803 0.0000 0.0000 0.0000
# 3 18.3017 12.7803 44.8370 0.0000 0.0000 0.0000
# 4 0.0000 0.0000 0.0000 12.8961 0.0000 0.0000
# 5 0.0000 0.0000 0.0000 0.0000 20.1827 0.0000
# 6 0.0000 0.0000 0.0000 0.0000 0.0000 19.0753
#
#
#
# Elastic Compliance Matrix: (Units=1/GPa)
#
#
# Indices 1 2 3 4 5 6 
#
# 1 0.009306 -0.004439 -0.002533 0.000000 0.000000 0.000000
# 2 -0.004439 0.018280 -0.003399 0.000000 0.000000 0.000000
# 3 -0.002533 -0.003399 0.024306 0.000000 0.000000 0.000000
# 4 0.000000 0.000000 0.000000 0.077543 0.000000 0.000000
# 5 0.000000 0.000000 0.000000 0.000000 0.049547 0.000000
# 6 0.000000 0.000000 0.000000 0.000000 0.000000 0.052424
#
#
# Mechanical properties :
#
#
# Convention : Reuss Voigt Hill
#
# Bulk Modulus (GPa) = 32.10269 41.22064 36.66166
# Shear Modulus (GPa) = 19.04542 22.00074 20.52308
#
# Velocity S-wave (km/s) = 3.11933 3.35263 3.23808
# Velocity P-wave (km/s) = 5.41985 6.00386 5.71931
#
# Compressibility (1/GPa) = 0.03115004
#
# Stress axis : x y z
#
# Youngs Moduli (GPa) = 107.46120 54.70425 41.14253
#
# Poissons Ratio (x) = 0.24283 0.10422
# Poissons Ratio (y) = 0.47702 0.13983
# Poissons Ratio (z) = 0.27221 0.18592
#
# Static dielectric constant tensor:
#      x y z
#    x 1.745770 0.000000 0.000000 
#    y 0.000000 1.707470 0.000000 
#    z 0.000000 0.000000 1.733860 
# 
# From -- ./inp_files/5206.got.cif
#   From: 2010.05.17/outbox.cif.g08.bks.cpg/sg60_3_cif.got.tgz:5206.got - 2010.06.03 14:59:27.
