data_PCOD9453786
_publ_section_title
;
Structure prediction by ZEFSAII (Michael W. Deem and Ramdas Pophale) SiO2 
 PCOD9453786
Probable space group: P B C N
;
_chemical_formula_sum "Si O2"
_cell_formula_units_Z 56
_cell_length_a 22.652481
_cell_length_b 25.723282
_cell_length_c 5.472524
_cell_angle_alpha 90.000000
_cell_angle_beta 90.000000
_cell_angle_gamma 90.000000
_cell_volume 3188.818703
_symmetry_space_group_name_H-M "P B C N"
_symmetry_group_IT_number 60
_symmetry_cell_setting 'orthorhombic'
loop_
_space_group_symop_operation_xyz
x,y,z
1/2-x,1/2-y,1/2+z
1/2+x,1/2-y,-z
-x,y,1/2-z
-x,-y,-z
1/2+x,1/2+y,1/2-z
1/2-x,1/2+y,z
x,-y,1/2+z
loop_
_atom_site_type_symbol
_atom_site_label
_atom_site_fract_x
_atom_site_fract_y
_atom_site_fract_z
Si Si1 0.638283 0.258939 0.112294
Si Si2 0.387679 0.726482 0.391645
Si Si3 0.789045 0.980818 0.226774
Si Si4 0.079129 0.983043 0.150547
Si Si5 0.713677 0.359680 0.117849
Si Si6 0.536494 0.374911 0.502679
Si Si7 0.752833 0.812542 0.615932
O O1 0.604031 0.243793 0.356245
O O2 0.656126 0.320984 0.115754
O O3 0.700442 0.228890 0.115578
O O4 0.601364 0.248572 0.869514
O O5 0.424192 0.674061 0.422987
O O6 0.317037 0.714995 0.383871
O O7 0.854844 0.002354 0.286989
O O8 0.796910 0.920719 0.150509
O O9 0.760763 0.989335 0.495632
O O10 0.053119 0.983811 0.425017
O O11 0.076973 0.924442 0.056264
O O12 0.749071 0.342937 0.360484
O O13 0.746135 0.346840 0.862354
O O14 0.500000 0.386979 0.750000
O O15 0.500000 0.365007 0.250000
#
# Coordination Sequence:
#
# PCOD9453786 Si02
#       7
#     8   8   8   8   8   8   8
#     4  10  18  30  50  73  90 105 132 171 237 294
#     4  10  19  32  47  62  87 112 130 169 221 272
#     4  10  20  32  45  63  84 114 155 187 226 283
#     4  10  21  35  50  62  76 102 145 206 257 283
#     4  10  17  27  43  63  92 114 131 171 220 269
#     4  12  25  37  48  63  83 113 155 190 232 291
#     4  10  18  29  49  74  90 105 132 171 237 293
#
# _framework density 17.561361999999999
#
# number of rings (size 3 to 8) (size 9 to 14) (size 15 to 20)
#    0.000    1.714    0.000    8.571    0.000    8.571 
#    0.000    0.000    0.000    0.000    0.000    0.000 
#    0.000    0.000    0.000    0.000    0.000    0.000 
#
# Total GULP energy -312092.408872 kJ/mol
# GULP energy per Si atom -5573.078730 kJ/mol
# Density = 1.752139 g / cm^3
# Si number density = 17.561362 Si / 1000 Ang^3
#
#
#
# Elastic Constant Matrix: (Units=GPa)
#
#
# Indices 1 2 3 4 5 6 
#
# 1 7.8067 9.8416 17.7092 0.0000 0.0000 0.0000
# 2 9.8416 37.7312 31.1264 0.0000 0.0000 0.0000
# 3 17.7092 31.1264 208.6218 0.0000 0.0000 0.0000
# 4 0.0000 0.0000 0.0000 30.3961 0.0000 0.0000
# 5 0.0000 0.0000 0.0000 0.0000 15.9676 0.0000
# 6 0.0000 0.0000 0.0000 0.0000 0.0000 17.1412
#
#
#
# Elastic Compliance Matrix: (Units=1/GPa)
#
#
# Indices 1 2 3 4 5 6 
#
# 1 0.211108 -0.045934 -0.011067 0.000000 0.000000 0.000000
# 2 -0.045934 0.040218 -0.002101 0.000000 0.000000 0.000000
# 3 -0.011067 -0.002101 0.006046 0.000000 0.000000 0.000000
# 4 0.000000 0.000000 0.000000 0.032899 0.000000 0.000000
# 5 0.000000 0.000000 0.000000 0.000000 0.062627 0.000000
# 6 0.000000 0.000000 0.000000 0.000000 0.000000 0.058339
#
#
# Mechanical properties :
#
#
# Convention : Reuss Voigt Hill
#
# Bulk Modulus (GPa) = 7.18562 41.27933 24.23247
# Shear Modulus (GPa) = 8.68311 25.73314 17.20812
#
# Velocity S-wave (km/s) = 2.22602 3.83211 3.13371
# Velocity P-wave (km/s) = 3.27223 6.56787 5.18866
#
# Compressibility (1/GPa) = 0.13916690
#
# Stress axis : x y z
#
# Youngs Moduli (GPa) = 4.73692 24.86450 165.39044
#
# Poissons Ratio (x) = 1.14214 1.83034
# Poissons Ratio (y) = 0.21759 0.34754
# Poissons Ratio (z) = 0.05242 0.05225
#
# Static dielectric constant tensor:
#      x y z
#    x 1.595570 0.000000 0.000000 
#    y 0.000000 1.601290 0.000000 
#    z 0.000000 0.000000 1.805330 
# 
# From -- ./inp_files/2131.got.cif
#   From: 2010.05.17/outbox.cif.g08.bks.cpg/sg60_2_cif.got.tgz:2131.got - 2010.06.03 14:59:27.
