data_PCOD9453768
_publ_section_title
;
Structure prediction by ZEFSAII (Michael W. Deem and Ramdas Pophale) SiO2 
 PCOD9453768
Probable space group: P B C N
;
_chemical_formula_sum "Si O2"
_cell_formula_units_Z 48
_cell_length_a 18.589723
_cell_length_b 11.960745
_cell_length_c 10.591632
_cell_angle_alpha 90.000000
_cell_angle_beta 90.000000
_cell_angle_gamma 90.000000
_cell_volume 2355.016927
_symmetry_space_group_name_H-M "P B C N"
_symmetry_group_IT_number 60
_symmetry_cell_setting 'orthorhombic'
loop_
_space_group_symop_operation_xyz
x,y,z
1/2-x,1/2-y,1/2+z
1/2+x,1/2-y,-z
-x,y,1/2-z
-x,-y,-z
1/2+x,1/2+y,1/2-z
1/2-x,1/2+y,z
x,-y,1/2+z
loop_
_atom_site_type_symbol
_atom_site_label
_atom_site_fract_x
_atom_site_fract_y
_atom_site_fract_z
Si Si1 0.206102 0.724989 0.651951
Si Si2 0.078919 0.587092 0.201479
Si Si3 0.453932 0.152915 0.620196
Si Si4 0.785338 0.857310 0.590988
Si Si5 0.596299 0.769755 0.006310
Si Si6 0.308982 0.046109 0.847589
O O1 0.119732 0.721349 0.629254
O O2 0.244362 0.718922 0.515391
O O3 0.223147 0.815442 0.762847
O O4 0.221737 0.607380 0.723826
O O5 0.069126 0.477992 0.108579
O O6 0.132542 0.545918 0.308014
O O7 0.000000 0.610014 0.250000
O O8 0.110580 0.696131 0.136576
O O9 0.500000 0.155572 0.750000
O O10 0.512352 0.203721 0.525693
O O11 0.869183 0.844674 0.553099
O O12 0.752453 0.980508 0.579662
O O13 0.643526 0.860062 0.084406
#
# Coordination Sequence:
#
# PCOD9453768 Si02
#       6
#     8   8   8   8   8   8
#     4  10  22  36  57  84 116 147 189 227 283 344
#     4  10  18  27  49  81 108 139 170 223 281 333
#     4  10  16  34  54  80 109 146 177 226 286 342
#     4  11  22  36  53  82 121 151 183 226 280 353
#     4  11  20  33  52  81 116 140 184 223 282 341
#     4  10  19  33  52  77 112 150 180 219 275 336
#
# _framework density 20.382019
#
# number of rings (size 3 to 8) (size 9 to 14) (size 15 to 20)
#    0.000    1.667    6.667    3.500    2.333    1.333 
#    0.000    0.000    0.000    0.000    0.000   18.667 
#    0.000    0.000    0.000    0.000    0.000    0.000 
#
# Total GULP energy -267334.359277 kJ/mol
# GULP energy per Si atom -5569.465818 kJ/mol
# Density = 2.033563 g / cm^3
# Si number density = 20.382019 Si / 1000 Ang^3
#
#
#
# Elastic Constant Matrix: (Units=GPa)
#
#
# Indices 1 2 3 4 5 6 
#
# 1 83.0309 19.8397 13.4165 0.0000 0.0000 0.0000
# 2 19.8397 15.9446 -1.2327 0.0000 0.0000 0.0000
# 3 13.4165 -1.2327 53.7171 0.0000 0.0000 0.0000
# 4 0.0000 0.0000 0.0000 21.0305 0.0000 0.0000
# 5 0.0000 0.0000 0.0000 0.0000 26.4829 0.0000
# 6 0.0000 0.0000 0.0000 0.0000 0.0000 29.6897
#
#
#
# Elastic Compliance Matrix: (Units=1/GPa)
#
#
# Indices 1 2 3 4 5 6 
#
# 1 0.018458 -0.023365 -0.005146 0.000000 0.000000 0.000000
# 2 -0.023365 0.092405 0.007956 0.000000 0.000000 0.000000
# 3 -0.005146 0.007956 0.020084 0.000000 0.000000 0.000000
# 4 0.000000 0.000000 0.000000 0.047550 0.000000 0.000000
# 5 0.000000 0.000000 0.000000 0.000000 0.037760 0.000000
# 6 0.000000 0.000000 0.000000 0.000000 0.000000 0.033682
#
#
# Mechanical properties :
#
#
# Convention : Reuss Voigt Hill
#
# Bulk Modulus (GPa) = 11.13127 24.08218 17.60673
# Shear Modulus (GPa) = 15.57651 23.48522 19.53087
#
# Velocity S-wave (km/s) = 2.76747 3.39817 3.09890
# Velocity P-wave (km/s) = 3.96043 5.21898 4.63264
#
# Compressibility (1/GPa) = 0.08983700
#
# Stress axis : x y z
#
# Youngs Moduli (GPa) = 54.17619 10.82187 49.79088
#
# Poissons Ratio (x) = 0.25286 0.25624
# Poissons Ratio (y) = 1.26585 -0.39615
# Poissons Ratio (z) = 0.27881 -0.08610
#
# Static dielectric constant tensor:
#      x y z
#    x 1.761200 0.000000 0.000000 
#    y 0.000000 1.755090 0.000000 
#    z 0.000000 0.000000 1.852980 
# 
# From -- ./inp_files/12798.got.cif
#   From: 2010.05.17/outbox.cif.g08.bks.cpg/sg60_7_cif.got.tgz:12798.got - 2010.06.03 14:59:27.
