data_PCOD9453610
_publ_section_title
;
Structure prediction by ZEFSAII (Michael W. Deem and Ramdas Pophale) SiO2 
 PCOD9453610
Probable space group: P M M N
;
_chemical_formula_sum "Si O2"
_cell_formula_units_Z 64
_cell_length_a 15.000000
_cell_length_b 9.000000
_cell_length_c 30.000000
_cell_angle_alpha 90.000000
_cell_angle_beta 90.000000
_cell_angle_gamma 90.000000
_cell_volume 4050.000000
_symmetry_space_group_name_H-M "P M M N"
_symmetry_group_IT_number 59
_space_group.IT_coordinate_system_code '2'
_symmetry_cell_setting 'orthorhombic'
loop_
_space_group_symop_operation_xyz
x,y,z
1/2-x,1/2-y,z
1/2+x,-y,-z
-x,1/2+y,-z
-x,-y,-z
1/2+x,1/2+y,-z
1/2-x,y,z
x,1/2-y,z
loop_
_atom_site_type_symbol
_atom_site_label
_atom_site_fract_x
_atom_site_fract_y
_atom_site_fract_z
Si Si1 0.405427 0.428648 0.013465
Si Si2 0.650867 0.422719 0.074754
Si Si3 0.853867 0.569729 0.343289
Si Si4 0.476868 0.569699 0.841832
Si Si5 0.356237 0.430015 0.761648
Si Si6 0.355335 0.929149 0.109653
Si Si7 0.642433 0.929370 0.521196
Si Si8 0.469423 0.070333 0.568865
O O1 0.408858 0.250000 0.017668
O O2 0.373975 0.498886 0.060565
O O3 0.500000 0.500000 0.000000
O O4 0.350758 0.478244 0.969680
O O5 0.750000 0.429670 0.094442
O O6 0.633425 0.250000 0.061708
O O7 0.581562 0.463306 0.113474
O O8 0.750000 0.523730 0.352148
O O9 0.854012 0.750000 0.344027
O O10 0.874962 0.529076 0.291036
O O11 0.922310 0.524703 0.383562
O O12 0.483498 0.750000 0.837609
O O13 0.422856 0.504429 0.798518
O O14 0.573811 0.499205 0.854834
O O15 0.250000 0.465014 0.769718
O O16 0.365022 0.250000 0.765127
O O17 0.250000 0.955343 0.120359
O O18 0.368869 0.750000 0.107249
O O19 0.750000 0.971746 0.524958
O O20 0.640042 0.750000 0.526616
O O21 0.600666 0.963039 0.471785
O O22 0.566656 0.999924 0.554912
O O23 0.480443 0.250000 0.570047
#
# Coordination Sequence:
#
# PCOD9453610 Si02
#       8
#     8   8   8   8   8   8   8   8
#     4  12  23  36  55  78 105 137 171 204 243 289
#     4  10  21  36  53  75 104 136 165 196 238 288
#     4   8  14  27  49  75 100 129 167 209 251 297
#     4  11  22  36  56  79 105 136 166 202 247 299
#     4   9  18  33  54  79 106 134 165 205 254 306
#     4  11  24  41  60  80 103 133 169 210 253 296
#     4   9  17  28  42  64  98 137 171 207 255 307
#     4   9  16  27  46  70  95 128 173 217 253 296
#
# _framework density 15.802469
#
# number of rings (size 3 to 8) (size 9 to 14) (size 15 to 20)
#    0.000    2.125    1.250    3.750    0.000    5.750 
#    0.000    0.625    0.000    2.625    0.000    1.750 
#    0.000    0.000    0.000    0.000    0.000    0.000 
#
# Total GULP energy -356433.609572 kJ/mol
# GULP energy per Si atom -5569.275150 kJ/mol
# Density = 1.576650 g / cm^3
# Si number density = 15.802469 Si / 1000 Ang^3
#
#
#
# Elastic Constant Matrix: (Units=GPa)
#
#
# Indices 1 2 3 4 5 6 
#
# 1 147.5434 41.5131 66.0936 0.0000 0.0000 0.0000
# 2 41.5131 69.2151 38.7466 0.0000 0.0000 0.0000
# 3 66.0936 38.7466 127.1855 0.0000 0.0000 0.0000
# 4 0.0000 0.0000 0.0000 28.1004 0.0000 0.0000
# 5 0.0000 0.0000 0.0000 0.0000 37.2861 0.0000
# 6 0.0000 0.0000 0.0000 0.0000 0.0000 28.1233
#
#
#
# Elastic Compliance Matrix: (Units=1/GPa)
#
#
# Indices 1 2 3 4 5 6 
#
# 1 0.009502 -0.003538 -0.003860 0.000000 0.000000 0.000000
# 2 -0.003538 0.018736 -0.003869 0.000000 0.000000 0.000000
# 3 -0.003860 -0.003869 0.011047 0.000000 0.000000 0.000000
# 4 0.000000 0.000000 0.000000 0.035587 0.000000 0.000000
# 5 0.000000 0.000000 0.000000 0.000000 0.026820 0.000000
# 6 0.000000 0.000000 0.000000 0.000000 0.000000 0.035558
#
#
# Mechanical properties :
#
#
# Convention : Reuss Voigt Hill
#
# Bulk Modulus (GPa) = 59.70015 70.73896 65.21955
# Shear Modulus (GPa) = 30.23563 31.87468 31.05515
#
# Velocity S-wave (km/s) = 4.37893 4.49605 4.43788
# Velocity P-wave (km/s) = 7.96415 8.47433 8.22320
#
# Compressibility (1/GPa) = 0.01675038
#
# Stress axis : x y z
#
# Youngs Moduli (GPa) = 105.23656 53.37375 90.52094
#
# Poissons Ratio (x) = 0.18886 0.34942
# Poissons Ratio (y) = 0.37237 0.35023
# Poissons Ratio (z) = 0.40622 0.20650
#
# Static dielectric constant tensor:
#      x y z
#    x 1.582440 0.000000 0.000000 
#    y 0.000000 1.539210 0.000000 
#    z 0.000000 0.000000 1.531420 
# 
# From -- ./inp_files/33320.got.cif
#   From: 2010.05.17/outbox.ucp.g08.bks.cvg/sg59_17_cif.got.tgz:33320.got - 2010.06.11 16:43:56.
