data_PCOD9453552
_publ_section_title
;
Structure prediction by ZEFSAII (Michael W. Deem and Ramdas Pophale) SiO2 
 PCOD9453552
Probable space group: P M M N
;
_chemical_formula_sum "Si O2"
_cell_formula_units_Z 64
_cell_length_a 9.000000
_cell_length_b 24.000000
_cell_length_c 15.000000
_cell_angle_alpha 90.000000
_cell_angle_beta 90.000000
_cell_angle_gamma 90.000000
_cell_volume 3240.000000
_symmetry_space_group_name_H-M "P M M N"
_symmetry_group_IT_number 59
_space_group.IT_coordinate_system_code '2'
_symmetry_cell_setting 'orthorhombic'
loop_
_space_group_symop_operation_xyz
x,y,z
1/2-x,1/2-y,z
1/2+x,-y,-z
-x,1/2+y,-z
-x,-y,-z
1/2+x,1/2+y,-z
1/2-x,y,z
x,1/2-y,z
loop_
_atom_site_type_symbol
_atom_site_label
_atom_site_fract_x
_atom_site_fract_y
_atom_site_fract_z
Si Si1 0.072673 0.125003 0.196382
Si Si2 0.570646 0.005109 0.211613
Si Si3 0.570934 0.314571 0.031243
Si Si4 0.423980 0.683837 0.638804
Si Si5 0.076726 0.689526 0.280731
Si Si6 0.577571 0.974314 0.413580
Si Si7 0.428319 0.898567 0.129186
Si Si8 0.921197 0.843478 0.454804
O O1 0.250000 0.120778 0.191857
O O2 0.009937 0.166379 0.121046
O O3 0.020389 0.149347 0.291158
O O4 0.997903 0.064417 0.185441
O O5 0.750000 0.006716 0.208984
O O6 0.522943 0.991436 0.314634
O O7 0.511498 0.956425 0.146619
O O8 0.750000 0.316986 0.043313
O O9 0.534938 0.250000 0.008338
O O10 0.532231 0.360374 0.955838
O O11 0.250000 0.669746 0.649652
O O12 0.441293 0.750000 0.653954
O O13 0.478372 0.669742 0.539678
O O14 0.250000 0.682613 0.306317
O O15 0.063806 0.750000 0.235430
O O16 0.037362 0.640419 0.214079
O O17 0.978595 0.688297 0.368351
O O18 0.750000 0.991177 0.416532
O O19 0.567949 0.908131 0.427030
O O20 0.500000 0.000000 0.500000
O O21 0.250000 0.908074 0.126494
O O22 0.750000 0.830353 0.475613
#
# Coordination Sequence:
#
# PCOD9453552 Si02
#       8
#     8   8   8   8   8   8   8   8
#     4  12  26  43  65  94 125 161 209 263 321 379
#     4  11  23  42  64  90 127 169 212 257 313 378
#     4  10  22  43  70  98 128 165 209 257 315 380
#     4  11  24  42  63  89 123 165 212 260 315 378
#     4  10  20  35  57  87 123 163 204 247 299 361
#     4  10  22  37  56  83 117 159 207 255 304 361
#     4  10  21  39  65  95 127 164 208 258 307 363
#     4  11  22  37  56  86 123 161 207 257 308 364
#
# _framework density 19.753086
#
# number of rings (size 3 to 8) (size 9 to 14) (size 15 to 20)
#    0.000    1.375    1.250    4.125    0.000   11.000 
#    0.000    0.000    0.000    2.250    0.000    0.000 
#    0.000    0.000    0.000    0.000    0.000    0.000 
#
# Total GULP energy -357708.679660 kJ/mol
# GULP energy per Si atom -5589.198120 kJ/mol
# Density = 1.970813 g / cm^3
# Si number density = 19.753086 Si / 1000 Ang^3
#
#
#
# Elastic Constant Matrix: (Units=GPa)
#
#
# Indices 1 2 3 4 5 6 
#
# 1 52.3077 39.2966 19.2856 0.0000 0.0000 0.0000
# 2 39.2966 78.9462 19.3063 0.0000 0.0000 0.0000
# 3 19.2856 19.3063 42.6127 0.0000 0.0000 0.0000
# 4 0.0000 0.0000 0.0000 32.9077 0.0000 0.0000
# 5 0.0000 0.0000 0.0000 0.0000 10.7575 0.0000
# 6 0.0000 0.0000 0.0000 0.0000 0.0000 79.8345
#
#
#
# Elastic Compliance Matrix: (Units=1/GPa)
#
#
# Indices 1 2 3 4 5 6 
#
# 1 0.033029 -0.014378 -0.008434 0.000000 0.000000 0.000000
# 2 -0.014378 0.020504 -0.002783 0.000000 0.000000 0.000000
# 3 -0.008434 -0.002783 0.028545 0.000000 0.000000 0.000000
# 4 0.000000 0.000000 0.000000 0.030388 0.000000 0.000000
# 5 0.000000 0.000000 0.000000 0.000000 0.092958 0.000000
# 6 0.000000 0.000000 0.000000 0.000000 0.000000 0.012526
#
#
# Mechanical properties :
#
#
# Convention : Reuss Voigt Hill
#
# Bulk Modulus (GPa) = 32.37415 36.62707 34.50061
# Shear Modulus (GPa) = 17.89322 31.09848 24.49585
#
# Velocity S-wave (km/s) = 3.01299 3.97213 3.52533
# Velocity P-wave (km/s) = 5.34127 6.29442 5.83733
#
# Compressibility (1/GPa) = 0.03088884
#
# Stress axis : x y z
#
# Youngs Moduli (GPa) = 30.27653 48.77050 35.03254
#
# Poissons Ratio (x) = 0.70123 0.29546
# Poissons Ratio (y) = 0.43532 0.09748
# Poissons Ratio (z) = 0.25535 0.13570
#
# Static dielectric constant tensor:
#      x y z
#    x 1.666480 0.000000 0.000000 
#    y 0.000000 1.718150 0.000000 
#    z 0.000000 0.000000 1.676080 
# 
# From -- ./inp_files/21471.got.cif
#   From: 2010.05.17/outbox.ucp.g08.bks.cvg/sg59_11_cif.got.tgz:21471.got - 2010.06.11 16:43:56.
