data_PCOD9453675
_publ_section_title
;
Structure prediction by ZEFSAII (Michael W. Deem and Ramdas Pophale) SiO2 
 PCOD9453675
Probable space group: P M M N
;
_chemical_formula_sum "Si O2"
_cell_formula_units_Z 56
_cell_length_a 15.000000
_cell_length_b 9.000000
_cell_length_c 21.000000
_cell_angle_alpha 90.000000
_cell_angle_beta 90.000000
_cell_angle_gamma 90.000000
_cell_volume 2835.000000
_symmetry_space_group_name_H-M "P M M N"
_symmetry_group_IT_number 59
_space_group.IT_coordinate_system_code '2'
_symmetry_cell_setting 'orthorhombic'
loop_
_space_group_symop_operation_xyz
x,y,z
1/2-x,1/2-y,z
1/2+x,-y,-z
-x,1/2+y,-z
-x,-y,-z
1/2+x,1/2+y,-z
1/2-x,y,z
x,1/2-y,z
loop_
_atom_site_type_symbol
_atom_site_label
_atom_site_fract_x
_atom_site_fract_y
_atom_site_fract_z
Si Si1 0.847923 0.923046 0.618910
Si Si2 0.550746 0.426165 0.059921
Si Si3 0.591812 0.576548 0.480137
Si Si4 0.071948 0.919758 0.157818
Si Si5 0.992413 0.416952 0.699881
Si Si6 0.848387 0.425314 0.350527
Si Si7 0.750000 0.075507 0.020858
Si Si8 0.750000 0.575204 0.886308
O O1 0.750000 0.958739 0.644441
O O2 0.868244 0.750000 0.633452
O O3 0.848267 0.937161 0.542910
O O4 0.922897 0.025553 0.648084
O O5 0.534004 0.250000 0.058585
O O6 0.507645 0.499245 0.121556
O O7 0.656904 0.450010 0.056529
O O8 0.500000 0.500000 0.000000
O O9 0.500000 0.500000 0.500000
O O10 0.577165 0.750000 0.468064
O O11 0.631675 0.501345 0.418064
O O12 0.078860 0.750000 0.134445
O O13 0.053921 0.919409 0.232320
O O14 0.162408 0.004332 0.143429
O O15 0.021190 0.250000 0.685084
O O16 0.077270 0.521789 0.697932
O O17 0.750000 0.466309 0.328695
O O18 0.853770 0.250000 0.359741
O O19 0.750000 0.250000 0.000708
O O20 0.750000 0.970546 0.959936
O O21 0.750000 0.750000 0.878180
#
# Coordination Sequence:
#
# PCOD9453675 Si02
#       8
#     8   8   8   8   8   8   4   4
#     4  10  22  39  60  88 122 158 198 249 306 366
#     4  11  22  39  65  95 127 166 208 255 309 364
#     4  11  21  36  61  91 123 160 201 252 312 370
#     4  11  25  44  63  90 130 169 207 259 312 368
#     4  11  25  43  64  88 120 165 208 254 310 367
#     4  11  24  42  65  91 120 160 208 261 316 374
#     4  10  22  40  64  94 132 166 201 258 315 364
#     4  12  24  38  66 100 126 166 211 248 301 374
#
# _framework density 19.753086
#
# number of rings (size 3 to 8) (size 9 to 14) (size 15 to 20)
#    0.000    1.143    2.857    3.214    1.000    5.429 
#    1.286    0.000    0.000    0.000    0.000    0.000 
#    0.000    0.000    0.000    0.000    0.000    0.000 
#
# Total GULP energy -312872.219481 kJ/mol
# GULP energy per Si atom -5587.003919 kJ/mol
# Density = 1.970813 g / cm^3
# Si number density = 19.753086 Si / 1000 Ang^3
#
#
#
# Elastic Constant Matrix: (Units=GPa)
#
#
# Indices 1 2 3 4 5 6 
#
# 1 117.6996 82.0002 26.3926 0.0000 0.0000 0.0000
# 2 82.0002 98.2303 33.0067 0.0000 0.0000 0.0000
# 3 26.3926 33.0067 46.1486 0.0000 0.0000 0.0000
# 4 0.0000 0.0000 0.0000 25.7669 0.0000 0.0000
# 5 0.0000 0.0000 0.0000 0.0000 -9.2227 0.0000
# 6 0.0000 0.0000 0.0000 0.0000 0.0000 19.3720
#
#
#
# Elastic Compliance Matrix: (Units=1/GPa)
#
#
# Indices 1 2 3 4 5 6 
#
# 1 0.020321 -0.017190 0.000673 0.000000 0.000000 0.000000
# 2 -0.017190 0.027942 -0.010154 0.000000 0.000000 0.000000
# 3 0.000673 -0.010154 0.028546 0.000000 0.000000 0.000000
# 4 0.000000 0.000000 0.000000 0.038809 0.000000 0.000000
# 5 0.000000 0.000000 0.000000 0.000000 -0.108428 0.000000
# 6 0.000000 0.000000 0.000000 0.000000 0.000000 0.051621
#
#
# Mechanical properties :
#
#
# Convention : Reuss Voigt Hill
#
# Bulk Modulus (GPa) = 42.61113 60.54196 51.57654
# Shear Modulus (GPa) = 41.67525 15.22851 28.45188
#
# Velocity S-wave (km/s) = 4.59825 2.77960 3.79935
# Velocity P-wave (km/s) = 7.05766 6.40449 6.73899
#
# Compressibility (1/GPa) = 0.02346805
#
# Stress axis : x y z
#
# Youngs Moduli (GPa) = 49.20940 35.78906 35.03057
#
# Poissons Ratio (x) = 0.61521 -0.02357
# Poissons Ratio (y) = 0.84590 0.35569
# Poissons Ratio (z) = -0.03310 0.36339
#
# Static dielectric constant tensor:
#      x y z
#    x 1.698270 0.000000 0.000000 
#    y 0.000000 1.667300 0.000000 
#    z 0.000000 0.000000 1.675980 
# 
# From -- ./inp_files/30479.got.cif
#   From: 2010.05.17/outbox.ucp.g08.bks.cvg/sg59_16_cif.got.tgz:30479.got - 2010.06.11 16:43:56.
