data_PCOD9453164
_publ_section_title
;
Structure prediction by ZEFSAII (Michael W. Deem and Ramdas Pophale) SiO2 
 PCOD9453164
Probable space group: P M M N
;
_chemical_formula_sum "Si O2"
_cell_formula_units_Z 48
_cell_length_a 13.516172
_cell_length_b 10.556897
_cell_length_c 16.642354
_cell_angle_alpha 90.000000
_cell_angle_beta 90.000000
_cell_angle_gamma 90.000000
_cell_volume 2374.678115
_symmetry_space_group_name_H-M "P M M N"
_symmetry_group_IT_number 59
_space_group.IT_coordinate_system_code '2'
_symmetry_cell_setting 'orthorhombic'
loop_
_space_group_symop_operation_xyz
x,y,z
1/2-x,1/2-y,z
1/2+x,-y,-z
-x,1/2+y,-z
-x,-y,-z
1/2+x,1/2+y,-z
1/2-x,y,z
x,1/2-y,z
loop_
_atom_site_type_symbol
_atom_site_label
_atom_site_fract_x
_atom_site_fract_y
_atom_site_fract_z
Si Si1 0.871109 0.999168 0.941993
Si Si2 0.868066 0.250000 0.660459
Si Si3 0.133070 0.402043 0.709339
Si Si4 0.129545 0.750000 0.152051
Si Si5 0.971792 0.001701 0.593084
Si Si6 0.630714 0.750000 0.657803
Si Si7 0.629869 0.750000 0.845395
Si Si8 0.129809 0.102816 0.890645
O O1 0.750000 0.000286 0.941498
O O2 0.902241 0.875543 0.892181
O O3 0.902799 0.125269 0.895879
O O4 0.900817 0.983875 0.034930
O O5 0.750000 0.250000 0.659813
O O6 0.900338 0.250000 0.754550
O O7 0.907765 0.124747 0.617133
O O8 0.250000 0.426969 0.702434
O O9 0.120107 0.250000 0.696577
O O10 0.099406 0.431418 0.800435
O O11 0.070249 0.480785 0.646330
O O12 0.250000 0.750000 0.152374
O O13 0.913534 0.875281 0.617241
O O14 0.000000 0.000000 0.500000
O O15 0.750000 0.750000 0.652338
O O16 0.602169 0.750000 0.752124
O O17 0.750000 0.750000 0.847441
O O18 0.250000 0.099710 0.888688
O O19 0.105007 0.250000 0.906611
#
# Coordination Sequence:
#
# PCOD9453164 Si02
#       8
#     8   4   8   4   8   4   4   8
#     4   9  14  24  46  80 116 154 208 253 287 355
#     4  11  23  43  67  92 127 169 211 257 315 385
#     4   9  19  38  66  95 125 167 216 265 318 378
#     4   9  18  29  48  80 120 163 200 244 306 363
#     4  12  25  44  66  97 123 161 211 265 327 387
#     4  11  25  43  65  94 133 169 203 255 323 387
#     4   9  16  29  52  80 112 159 206 246 296 357
#     4   8  13  25  50  84 117 157 207 253 300 355
#
# _framework density 20.213266000000001
#
# number of rings (size 3 to 8) (size 9 to 14) (size 15 to 20)
#    0.000    2.333    1.667    3.000    0.000    4.000 
#    0.000    1.250    0.000    8.000    0.000    0.000 
#    0.000    0.000    0.000    0.000    0.000    0.000 
#
# Total GULP energy -268408.274877 kJ/mol
# GULP energy per Si atom -5591.839060 kJ/mol
# Density = 2.016726 g / cm^3
# Si number density = 20.213266 Si / 1000 Ang^3
#
#
#
# Elastic Constant Matrix: (Units=GPa)
#
#
# Indices 1 2 3 4 5 6 
#
# 1 100.8115 45.0721 60.7645 0.0000 0.0000 0.0000
# 2 45.0721 165.0405 106.2991 0.0000 0.0000 0.0000
# 3 60.7645 106.2991 217.2818 0.0000 0.0000 0.0000
# 4 0.0000 0.0000 0.0000 16.3508 0.0000 0.0000
# 5 0.0000 0.0000 0.0000 0.0000 37.8676 0.0000
# 6 0.0000 0.0000 0.0000 0.0000 0.0000 31.1783
#
#
#
# Elastic Compliance Matrix: (Units=1/GPa)
#
#
# Indices 1 2 3 4 5 6 
#
# 1 0.012235 -0.001661 -0.002609 0.000000 0.000000 0.000000
# 2 -0.001661 0.009072 -0.003974 0.000000 0.000000 0.000000
# 3 -0.002609 -0.003974 0.007276 0.000000 0.000000 0.000000
# 4 0.000000 0.000000 0.000000 0.061159 0.000000 0.000000
# 5 0.000000 0.000000 0.000000 0.000000 0.026408 0.000000
# 6 0.000000 0.000000 0.000000 0.000000 0.000000 0.032074
#
#
# Mechanical properties :
#
#
# Convention : Reuss Voigt Hill
#
# Bulk Modulus (GPa) = 82.67549 100.82281 91.74915
# Shear Modulus (GPa) = 29.63096 35.14589 32.38843
#
# Velocity S-wave (km/s) = 3.83288 4.17436 4.00726
# Velocity P-wave (km/s) = 7.78321 8.55696 8.17924
#
# Compressibility (1/GPa) = 0.01209548
#
# Stress axis : x y z
#
# Youngs Moduli (GPa) = 81.73514 110.22739 137.43765
#
# Poissons Ratio (x) = 0.18307 0.35857
# Poissons Ratio (y) = 0.13575 0.54615
# Poissons Ratio (z) = 0.21325 0.43802
#
# Static dielectric constant tensor:
#      x y z
#    x 1.793800 0.000000 0.000000 
#    y 0.000000 1.668260 0.000000 
#    z 0.000000 0.000000 1.683440 
# 
# From -- ./inp_files/27524.got.cif
#   From: 2010.05.17/outbox.cif.g08.bks.cpg/sg59_14_cif.got.tgz:27524.got - 2010.06.03 14:40:33.
