data_PCOD9453652
_publ_section_title
;
Structure prediction by ZEFSAII (Michael W. Deem and Ramdas Pophale) SiO2 
 PCOD9453652
Probable space group: P M M N
;
_chemical_formula_sum "Si O2"
_cell_formula_units_Z 64
_cell_length_a 24.000000
_cell_length_b 15.000000
_cell_length_c 9.000000
_cell_angle_alpha 90.000000
_cell_angle_beta 90.000000
_cell_angle_gamma 90.000000
_cell_volume 3240.000000
_symmetry_space_group_name_H-M "P M M N"
_symmetry_group_IT_number 59
_space_group.IT_coordinate_system_code '2'
_symmetry_cell_setting 'orthorhombic'
loop_
_space_group_symop_operation_xyz
x,y,z
1/2-x,1/2-y,z
1/2+x,-y,-z
-x,1/2+y,-z
-x,-y,-z
1/2+x,1/2+y,-z
1/2-x,y,z
x,1/2-y,z
loop_
_atom_site_type_symbol
_atom_site_label
_atom_site_fract_x
_atom_site_fract_y
_atom_site_fract_z
Si Si1 0.851446 0.648595 0.417308
Si Si2 0.687855 0.148805 0.357509
Si Si3 0.381422 0.502197 0.125468
Si Si4 0.375657 0.999654 0.795520
Si Si5 0.495737 0.509097 0.260722
Si Si6 0.017430 0.146631 0.493029
Si Si7 0.688229 0.643540 0.735106
Si Si8 0.313633 0.849521 0.286473
O O1 0.836545 0.750000 0.381242
O O2 0.845737 0.583308 0.280050
O O3 0.916536 0.646560 0.467534
O O4 0.817477 0.618530 0.561611
O O5 0.750000 0.117823 0.311517
O O6 0.680671 0.250000 0.304615
O O7 0.640018 0.085147 0.301287
O O8 0.686891 0.150195 0.535384
O O9 0.447494 0.510359 0.140128
O O10 0.359987 0.406294 0.178307
O O11 0.353952 0.574766 0.231160
O O12 0.358842 0.517652 0.962307
O O13 0.441502 0.017286 0.794416
O O14 0.490537 0.415951 0.350214
O O15 0.487279 0.591279 0.375880
O O16 0.999968 0.250000 0.478372
O O17 0.750000 0.618772 0.788540
O O18 0.681945 0.750000 0.742785
O O19 0.250000 0.866046 0.237041
O O20 0.330039 0.750000 0.236799
#
# Coordination Sequence:
#
# PCOD9453652 Si02
#       8
#     8   8   8   8   8   8   8   8
#     4   9  18  37  60  82 107 142 189 237 283 330
#     4   9  20  40  63  86 113 147 192 243 289 336
#     4  12  23  37  56  83 122 158 188 228 288 344
#     4  11  24  37  55  84 121 158 187 226 283 348
#     4  10  22  37  54  84 117 150 192 232 278 342
#     4   9  18  35  60  84 106 139 190 242 281 318
#     4  10  21  38  61  86 110 143 193 245 288 334
#     4   9  20  39  62  86 112 148 195 243 288 336
#
# _framework density 19.753086
#
# number of rings (size 3 to 8) (size 9 to 14) (size 15 to 20)
#    0.000    2.125    1.250    2.250    3.500    4.500 
#    0.000    1.250    0.000    6.000    0.000    0.000 
#    0.000    0.000    0.000    0.000    0.000    0.000 
#
# Total GULP energy -357014.085290 kJ/mol
# GULP energy per Si atom -5578.345083 kJ/mol
# Density = 1.970813 g / cm^3
# Si number density = 19.753086 Si / 1000 Ang^3
#
#
#
# Elastic Constant Matrix: (Units=GPa)
#
#
# Indices 1 2 3 4 5 6 
#
# 1 25.4115 4.7729 -7.4571 0.0000 0.0000 0.0000
# 2 4.7729 66.1617 14.1008 0.0000 0.0000 0.0000
# 3 -7.4571 14.1008 24.8236 0.0000 0.0000 0.0000
# 4 0.0000 0.0000 0.0000 47.6933 0.0000 0.0000
# 5 0.0000 0.0000 0.0000 0.0000 20.1359 0.0000
# 6 0.0000 0.0000 0.0000 0.0000 0.0000 12.3801
#
#
#
# Elastic Compliance Matrix: (Units=1/GPa)
#
#
# Indices 1 2 3 4 5 6 
#
# 1 0.045923 -0.007114 0.017837 0.000000 0.000000 0.000000
# 2 -0.007114 0.018298 -0.012531 0.000000 0.000000 0.000000
# 3 0.017837 -0.012531 0.052761 0.000000 0.000000 0.000000
# 4 0.000000 0.000000 0.000000 0.020967 0.000000 0.000000
# 5 0.000000 0.000000 0.000000 0.000000 0.049663 0.000000
# 6 0.000000 0.000000 0.000000 0.000000 0.000000 0.080775
#
#
# Mechanical properties :
#
#
# Convention : Reuss Voigt Hill
#
# Bulk Modulus (GPa) = 8.82118 15.47000 12.14559
# Shear Modulus (GPa) = 16.13983 23.04055 19.59019
#
# Velocity S-wave (km/s) = 2.86156 3.41901 3.15263
# Velocity P-wave (km/s) = 3.92345 4.84095 4.40615
#
# Compressibility (1/GPa) = 0.11336357
#
# Stress axis : x y z
#
# Youngs Moduli (GPa) = 21.77572 54.64934 18.95351
#
# Poissons Ratio (x) = 0.38879 -0.33806
# Poissons Ratio (y) = 0.15492 0.23751
# Poissons Ratio (z) = -0.38840 0.68483
#
# Static dielectric constant tensor:
#      x y z
#    x 1.698440 0.000000 0.000000 
#    y 0.000000 1.669440 0.000000 
#    z 0.000000 0.000000 1.697240 
# 
# From -- ./inp_files/12194.got.cif
#   From: 2010.05.17/outbox.ucp.g08.bks.cvg/sg59_7_cif.got.tgz:12194.got - 2010.06.11 16:43:56.
