data_PCOD9453401
_publ_section_title
;
Structure prediction by ZEFSAII (Michael W. Deem and Ramdas Pophale) SiO2 
 PCOD9453401
Probable space group: P M M N
;
_chemical_formula_sum "Si O2"
_cell_formula_units_Z 56
_cell_length_a 21.000000
_cell_length_b 9.000000
_cell_length_c 18.000000
_cell_angle_alpha 90.000000
_cell_angle_beta 90.000000
_cell_angle_gamma 90.000000
_cell_volume 3402.000000
_symmetry_space_group_name_H-M "P M M N"
_symmetry_group_IT_number 59
_space_group.IT_coordinate_system_code '2'
_symmetry_cell_setting 'orthorhombic'
loop_
_space_group_symop_operation_xyz
x,y,z
1/2-x,1/2-y,z
1/2+x,-y,-z
-x,1/2+y,-z
-x,-y,-z
1/2+x,1/2+y,-z
1/2-x,y,z
x,1/2-y,z
loop_
_atom_site_type_symbol
_atom_site_label
_atom_site_fract_x
_atom_site_fract_y
_atom_site_fract_z
Si Si1 0.536155 0.571871 0.876389
Si Si2 0.938908 0.070636 0.544427
Si Si3 0.678616 0.069357 0.147235
Si Si4 0.588666 0.428065 0.020283
Si Si5 0.383046 0.570229 0.695664
Si Si6 0.520896 0.071113 0.712294
Si Si7 0.824704 0.928727 0.450422
O O1 0.542453 0.750000 0.867428
O O2 0.469209 0.544087 0.920583
O O3 0.539982 0.497152 0.794008
O O4 0.582704 0.507765 0.940680
O O5 0.940798 0.250000 0.533842
O O6 0.940851 0.043180 0.634306
O O7 0.875275 0.001691 0.507480
O O8 0.000000 0.000000 0.500000
O O9 0.750000 0.015990 0.154091
O O10 0.677857 0.250000 0.145518
O O11 0.648276 0.022172 0.069510
O O12 0.642034 0.029532 0.222344
O O13 0.589227 0.250000 0.007362
O O14 0.383898 0.750000 0.688699
O O15 0.453275 0.502609 0.692636
O O16 0.341389 0.499557 0.629906
O O17 0.516518 0.250000 0.720803
O O18 0.750000 0.956749 0.468011
O O19 0.834273 0.750000 0.448144
#
# Coordination Sequence:
#
# PCOD9453401 Si02
#       7
#     8   8   8   8   8   8   8
#     4  10  19  32  51  76 102 135 174 217 266 318
#     4  11  23  38  59  84 112 147 189 235 284 338
#     4   9  17  30  49  75 107 141 178 217 259 315
#     4   9  17  31  49  73 103 136 175 216 260 309
#     4  11  20  33  54  81 112 148 187 223 268 331
#     4  11  22  35  54  81 112 143 177 227 281 329
#     4  11  24  40  57  81 115 152 190 233 283 339
#
# _framework density 16.460905
#
# number of rings (size 3 to 8) (size 9 to 14) (size 15 to 20)
#    0.000    1.714    2.857    2.571    0.000    4.000 
#    0.000    0.000    0.000    3.000    0.000    2.000 
#    0.000    0.000    0.000    0.000    0.000    0.000 
#
# Total GULP energy -312057.261634 kJ/mol
# GULP energy per Si atom -5572.451101 kJ/mol
# Density = 1.642344 g / cm^3
# Si number density = 16.460905 Si / 1000 Ang^3
#
#
#
# Elastic Constant Matrix: (Units=GPa)
#
#
# Indices 1 2 3 4 5 6 
#
# 1 83.3690 34.5098 50.8862 0.0000 0.0000 0.0000
# 2 34.5098 82.7850 56.6113 0.0000 0.0000 0.0000
# 3 50.8862 56.6113 149.3912 0.0000 0.0000 0.0000
# 4 0.0000 0.0000 0.0000 36.5022 0.0000 0.0000
# 5 0.0000 0.0000 0.0000 0.0000 25.5205 0.0000
# 6 0.0000 0.0000 0.0000 0.0000 0.0000 19.6466
#
#
#
# Elastic Compliance Matrix: (Units=1/GPa)
#
#
# Indices 1 2 3 4 5 6 
#
# 1 0.016063 -0.003988 -0.003960 0.000000 0.000000 0.000000
# 2 -0.003988 0.017295 -0.005195 0.000000 0.000000 0.000000
# 3 -0.003960 -0.005195 0.010012 0.000000 0.000000 0.000000
# 4 0.000000 0.000000 0.000000 0.027396 0.000000 0.000000
# 5 0.000000 0.000000 0.000000 0.000000 0.039184 0.000000
# 6 0.000000 0.000000 0.000000 0.000000 0.000000 0.050899
#
#
# Mechanical properties :
#
#
# Convention : Reuss Voigt Hill
#
# Bulk Modulus (GPa) = 58.54063 66.61774 62.57918
# Shear Modulus (GPa) = 25.92972 27.90307 26.91639
#
# Velocity S-wave (km/s) = 3.97322 4.12164 4.04811
# Velocity P-wave (km/s) = 7.52923 7.95039 7.74267
#
# Compressibility (1/GPa) = 0.01708215
#
# Stress axis : x y z
#
# Youngs Moduli (GPa) = 62.25569 57.82140 99.88458
#
# Poissons Ratio (x) = 0.23058 0.39556
# Poissons Ratio (y) = 0.24826 0.51894
# Poissons Ratio (z) = 0.24655 0.30041
#
# Static dielectric constant tensor:
#      x y z
#    x 1.579510 0.000000 0.000000 
#    y 0.000000 1.555680 0.000000 
#    z 0.000000 0.000000 1.574600 
# 
# From -- ./inp_files/28061.got.cif
#   From: 2010.05.17/outbox.ucp.g08.bks.cvg/sg59_15_cif.got.tgz:28061.got - 2010.06.11 16:43:56.
