data_PCOD9453111
_publ_section_title
;
Structure prediction by ZEFSAII (Michael W. Deem and Ramdas Pophale) SiO2 
 PCOD9453111
Probable space group: P M M N
;
_chemical_formula_sum "Si O2"
_cell_formula_units_Z 56
_cell_length_a 18.996859
_cell_length_b 14.069930
_cell_length_c 9.862361
_cell_angle_alpha 90.000000
_cell_angle_beta 90.000000
_cell_angle_gamma 90.000000
_cell_volume 2636.055995
_symmetry_space_group_name_H-M "P M M N"
_symmetry_group_IT_number 59
_space_group.IT_coordinate_system_code '2'
_symmetry_cell_setting 'orthorhombic'
loop_
_space_group_symop_operation_xyz
x,y,z
1/2-x,1/2-y,z
1/2+x,-y,-z
-x,1/2+y,-z
-x,-y,-z
1/2+x,1/2+y,-z
1/2-x,y,z
x,1/2-y,z
loop_
_atom_site_type_symbol
_atom_site_label
_atom_site_fract_x
_atom_site_fract_y
_atom_site_fract_z
Si Si1 0.665349 0.468910 0.209324
Si Si2 0.519369 0.356326 0.543854
Si Si3 0.829849 0.852714 0.732325
Si Si4 0.330121 0.750000 0.116892
Si Si5 0.578371 0.578319 0.969861
Si Si6 0.541074 0.385057 0.847802
Si Si7 0.882961 0.522683 0.500614
Si Si8 0.671146 0.250000 0.205952
O O1 0.750000 0.467462 0.180466
O O2 0.650676 0.523358 0.351123
O O3 0.641639 0.357471 0.230139
O O4 0.622301 0.521906 0.088235
O O5 0.524590 0.250000 0.491092
O O6 0.508708 0.356935 0.705348
O O7 0.453272 0.413170 0.487231
O O8 0.590203 0.415817 0.522805
O O9 0.750000 0.853122 0.777411
O O10 0.845731 0.750000 0.665989
O O11 0.874294 0.863418 0.867969
O O12 0.837704 0.936217 0.622730
O O13 0.250000 0.750000 0.174023
O O14 0.381514 0.838746 0.148442
O O15 0.322699 0.750000 0.956138
O O16 0.547146 0.497242 0.870550
O O17 0.515039 0.638367 0.035291
O O18 0.750000 0.250000 0.268774
#
# Coordination Sequence:
#
# PCOD9453111 Si02
#       8
#     8   8   8   4   8   8   8   4
#     4  11  22  40  66  96 135 179 222 274 338 405
#     4  11  23  41  65  94 129 173 228 280 331 402
#     4  11  25  45  68  97 132 175 230 283 335 398
#     4  11  22  38  63  97 134 172 208 262 344 405
#     4  11  23  41  65  98 128 173 218 274 337 393
#     4  11  22  39  64  95 133 168 215 271 328 399
#     4  11  24  44  64  93 132 180 222 277 341 399
#     4   9  20  36  57  95 137 172 214 266 329 401
#
# _framework density 21.243860000000002
#
# number of rings (size 3 to 8) (size 9 to 14) (size 15 to 20)
#    0.000    1.143    5.000    1.286    2.000    0.571 
#    0.000    0.000    0.000    2.571    0.000    0.000 
#    0.000    0.000    0.000    0.000    0.000    0.000 
#
# Total GULP energy -312238.987902 kJ/mol
# GULP energy per Si atom -5575.696213 kJ/mol
# Density = 2.119551 g / cm^3
# Si number density = 21.243860 Si / 1000 Ang^3
#
#
#
# Elastic Constant Matrix: (Units=GPa)
#
#
# Indices 1 2 3 4 5 6 
#
# 1 82.7579 21.1879 0.3519 0.0000 0.0000 0.0000
# 2 21.1879 89.1665 -0.9251 0.0000 0.0000 0.0000
# 3 0.3519 -0.9251 41.3403 0.0000 0.0000 0.0000
# 4 0.0000 0.0000 0.0000 -52.8684 0.0000 0.0000
# 5 0.0000 0.0000 0.0000 0.0000 27.9923 0.0000
# 6 0.0000 0.0000 0.0000 0.0000 0.0000 23.7456
#
#
#
# Elastic Compliance Matrix: (Units=1/GPa)
#
#
# Indices 1 2 3 4 5 6 
#
# 1 0.012867 -0.003059 -0.000178 0.000000 0.000000 0.000000
# 2 -0.003059 0.011945 0.000293 0.000000 0.000000 0.000000
# 3 -0.000178 0.000293 0.024198 0.000000 0.000000 0.000000
# 4 0.000000 0.000000 0.000000 -0.018915 0.000000 0.000000
# 5 0.000000 0.000000 0.000000 0.000000 0.035724 0.000000
# 6 0.000000 0.000000 0.000000 0.000000 0.000000 0.042113
#
#
# Mechanical properties :
#
#
# Convention : Reuss Voigt Hill
#
# Bulk Modulus (GPa) = 23.19009 28.27712 25.73360
# Shear Modulus (GPa) = 39.00325 12.61723 25.81024
#
# Velocity S-wave (km/s) = 4.28948 2.43970 3.48940
# Velocity P-wave (km/s) = 5.95589 4.61257 5.32675
#
# Compressibility (1/GPa) = 0.04312187
#
# Stress axis : x y z
#
# Youngs Moduli (GPa) = 77.71524 83.71696 41.32648
#
# Poissons Ratio (x) = 0.25613 0.00736
# Poissons Ratio (y) = 0.23777 -0.01212
# Poissons Ratio (z) = 0.01383 -0.02456
#
# Static dielectric constant tensor:
#      x y z
#    x 1.800180 0.000000 0.000000 
#    y 0.000000 1.828100 0.000000 
#    z 0.000000 0.000000 1.745220 
# 
# From -- ./inp_files/11465.got.cif
#   From: 2010.05.17/outbox.cif.g08.bks.cpg/sg59_6_cif.got.tgz:11465.got - 2010.06.03 14:40:33.
