data_PCOD9453385
_publ_section_title
;
Structure prediction by ZEFSAII (Michael W. Deem and Ramdas Pophale) SiO2 
 PCOD9453385
Probable space group: P M M N
;
_chemical_formula_sum "Si O2"
_cell_formula_units_Z 64
_cell_length_a 15.000000
_cell_length_b 9.000000
_cell_length_c 24.000000
_cell_angle_alpha 90.000000
_cell_angle_beta 90.000000
_cell_angle_gamma 90.000000
_cell_volume 3240.000000
_symmetry_space_group_name_H-M "P M M N"
_symmetry_group_IT_number 59
_space_group.IT_coordinate_system_code '2'
_symmetry_cell_setting 'orthorhombic'
loop_
_space_group_symop_operation_xyz
x,y,z
1/2-x,1/2-y,z
1/2+x,-y,-z
-x,1/2+y,-z
-x,-y,-z
1/2+x,1/2+y,-z
1/2-x,y,z
x,1/2-y,z
loop_
_atom_site_type_symbol
_atom_site_label
_atom_site_fract_x
_atom_site_fract_y
_atom_site_fract_z
Si Si1 0.851151 0.571201 0.915495
Si Si2 0.347932 0.430489 0.293224
Si Si3 0.645120 0.074057 0.033422
Si Si4 0.029893 0.929158 0.858264
Si Si5 0.647945 0.582817 0.473237
Si Si6 0.099416 0.079772 0.411314
Si Si7 0.600471 0.418547 0.363948
Si Si8 0.033111 0.427213 0.743499
O O1 0.750000 0.520241 0.902939
O O2 0.850443 0.750000 0.917367
O O3 0.927453 0.528540 0.871957
O O4 0.876605 0.511960 0.976697
O O5 0.250000 0.460633 0.268673
O O6 0.361125 0.250000 0.292241
O O7 0.347664 0.480256 0.358250
O O8 0.433109 0.507141 0.265807
O O9 0.750000 0.049440 0.044977
O O10 0.631934 0.250000 0.023514
O O11 0.586948 0.032840 0.086907
O O12 0.034254 0.750000 0.850166
O O13 0.062661 0.011563 0.803336
O O14 0.750000 0.592647 0.491504
O O15 0.611755 0.750000 0.462954
O O16 0.601487 0.509667 0.527340
O O17 0.648048 0.497258 0.415225
O O18 0.130326 0.250000 0.420110
O O19 0.000148 0.085859 0.387754
O O20 0.630971 0.250000 0.354478
O O21 0.593801 0.508052 0.306466
O O22 0.031665 0.250000 0.741347
#
# Coordination Sequence:
#
# PCOD9453385 Si02
#       8
#     8   8   8   8   8   8   8   8
#     4   9  18  32  52  80 112 143 173 205 246 303
#     4   9  17  32  54  77 104 139 174 208 253 312
#     4   9  18  33  54  80 108 137 171 214 263 311
#     4  10  20  35  54  76 105 141 179 217 260 312
#     4  10  19  31  50  77 106 131 159 203 259 314
#     4   8  15  29  51  77 101 129 165 203 249 309
#     4  10  20  36  55  72  96 133 175 213 254 309
#     4  11  23  37  53  74 101 134 177 224 266 308
#
# _framework density 19.753086
#
# number of rings (size 3 to 8) (size 9 to 14) (size 15 to 20)
#    0.000    2.500    0.000    3.375    0.000    3.500 
#    0.000    4.375    0.000    5.250    0.000    0.000 
#    0.000    0.000    0.000    0.000    0.000    0.000 
#
# Total GULP energy -356712.998958 kJ/mol
# GULP energy per Si atom -5573.640609 kJ/mol
# Density = 1.970813 g / cm^3
# Si number density = 19.753086 Si / 1000 Ang^3
#
#
#
# Elastic Constant Matrix: (Units=GPa)
#
#
# Indices 1 2 3 4 5 6 
#
# 1 20.5429 0.5357 4.6405 0.0000 0.0000 0.0000
# 2 0.5357 46.6023 25.2903 0.0000 0.0000 0.0000
# 3 4.6405 25.2903 98.5079 0.0000 0.0000 0.0000
# 4 0.0000 0.0000 0.0000 30.5868 0.0000 0.0000
# 5 0.0000 0.0000 0.0000 0.0000 13.3278 0.0000
# 6 0.0000 0.0000 0.0000 0.0000 0.0000 9.4220
#
#
#
# Elastic Compliance Matrix: (Units=1/GPa)
#
#
# Indices 1 2 3 4 5 6 
#
# 1 0.049228 0.000805 -0.002526 0.000000 0.000000 0.000000
# 2 0.000805 0.024945 -0.006442 0.000000 0.000000 0.000000
# 3 -0.002526 -0.006442 0.011924 0.000000 0.000000 0.000000
# 4 0.000000 0.000000 0.000000 0.032694 0.000000 0.000000
# 5 0.000000 0.000000 0.000000 0.000000 0.075031 0.000000
# 6 0.000000 0.000000 0.000000 0.000000 0.000000 0.106134
#
#
# Mechanical properties :
#
#
# Convention : Reuss Voigt Hill
#
# Bulk Modulus (GPa) = 14.33254 25.17625 19.75440
# Shear Modulus (GPa) = 14.72582 19.67977 17.20279
#
# Velocity S-wave (km/s) = 2.73334 3.15983 2.95429
# Velocity P-wave (km/s) = 4.15128 5.10743 4.65397
#
# Compressibility (1/GPa) = 0.06977130
#
# Stress axis : x y z
#
# Youngs Moduli (GPa) = 20.31360 40.08823 83.86194
#
# Poissons Ratio (x) = -0.03226 0.21181
# Poissons Ratio (y) = -0.01635 0.54025
# Poissons Ratio (z) = 0.05130 0.25825
#
# Static dielectric constant tensor:
#      x y z
#    x 1.749220 0.000000 0.000000 
#    y 0.000000 1.694760 0.000000 
#    z 0.000000 0.000000 1.705380 
# 
# From -- ./inp_files/32173.got.cif
#   From: 2010.05.17/outbox.ucp.g08.bks.cvg/sg59_17_cif.got.tgz:32173.got - 2010.06.11 16:43:56.
