data_PCOD9453448
_publ_section_title
;
Structure prediction by ZEFSAII (Michael W. Deem and Ramdas Pophale) SiO2 
 PCOD9453448
Probable space group: P M M N
;
_chemical_formula_sum "Si O2"
_cell_formula_units_Z 56
_cell_length_a 21.000000
_cell_length_b 15.000000
_cell_length_c 9.000000
_cell_angle_alpha 90.000000
_cell_angle_beta 90.000000
_cell_angle_gamma 90.000000
_cell_volume 2835.000000
_symmetry_space_group_name_H-M "P M M N"
_symmetry_group_IT_number 59
_space_group.IT_coordinate_system_code '2'
_symmetry_cell_setting 'orthorhombic'
loop_
_space_group_symop_operation_xyz
x,y,z
1/2-x,1/2-y,z
1/2+x,-y,-z
-x,1/2+y,-z
-x,-y,-z
1/2+x,1/2+y,-z
1/2-x,y,z
x,1/2-y,z
loop_
_atom_site_type_symbol
_atom_site_label
_atom_site_fract_x
_atom_site_fract_y
_atom_site_fract_z
Si Si1 0.924808 0.038612 0.786958
Si Si2 0.677311 0.464019 0.030302
Si Si3 0.611503 0.398312 0.315818
Si Si4 0.175294 0.849275 0.392156
Si Si5 0.678883 0.651685 0.171933
Si Si6 0.029400 0.348288 0.311848
Si Si7 0.056816 0.093664 0.647638
O O1 0.871203 0.078431 0.678783
O O2 0.993163 0.084821 0.750485
O O3 0.937449 0.933348 0.764409
O O4 0.887147 0.056098 0.938985
O O5 0.750000 0.440332 0.978370
O O6 0.661529 0.419035 0.186848
O O7 0.676484 0.570321 0.057709
O O8 0.650406 0.347839 0.440590
O O9 0.545672 0.350738 0.272670
O O10 0.583457 0.493411 0.373950
O O11 0.250000 0.871659 0.383636
O O12 0.166491 0.750000 0.325326
O O13 0.750000 0.643617 0.245635
O O14 0.676446 0.750000 0.103863
O O15 0.617255 0.642101 0.277669
O O16 0.055046 0.250000 0.275495
O O17 0.036725 0.365143 0.489843
#
# Coordination Sequence:
#
# PCOD9453448 Si02
#       7
#     8   8   8   8   8   8   8
#     4  11  22  40  59  90 124 160 197 252 309 362
#     4  10  22  39  60  84 121 166 202 247 304 360
#     4  10  19  37  60  86 114 157 204 251 299 355
#     4  11  22  37  61  88 115 157 209 255 304 360
#     4   9  19  35  56  84 118 160 207 246 291 361
#     4  11  21  36  61  93 125 157 198 253 308 362
#     4  10  19  35  60  88 120 157 199 255 306 352
#
# _framework density 19.753086
#
# number of rings (size 3 to 8) (size 9 to 14) (size 15 to 20)
#    0.000    1.714    2.857    2.571    0.000    6.857 
#    0.000    1.429    0.000    5.571    0.000    0.000 
#    0.000    0.000    0.000    0.000    0.000    0.000 
#
# Total GULP energy -311880.321573 kJ/mol
# GULP energy per Si atom -5569.291457 kJ/mol
# Density = 1.970813 g / cm^3
# Si number density = 19.753086 Si / 1000 Ang^3
#
#
#
# Elastic Constant Matrix: (Units=GPa)
#
#
# Indices 1 2 3 4 5 6 
#
# 1 141.8396 18.1154 2.9004 0.0000 0.0000 0.0000
# 2 18.1154 67.2425 1.5078 0.0000 0.0000 0.0000
# 3 2.9004 1.5078 9.5993 0.0000 0.0000 0.0000
# 4 0.0000 0.0000 0.0000 -13.6288 0.0000 0.0000
# 5 0.0000 0.0000 0.0000 0.0000 22.7047 0.0000
# 6 0.0000 0.0000 0.0000 0.0000 0.0000 15.4818
#
#
#
# Elastic Compliance Matrix: (Units=1/GPa)
#
#
# Indices 1 2 3 4 5 6 
#
# 1 0.007336 -0.001934 -0.001913 0.000000 0.000000 0.000000
# 2 -0.001934 0.015434 -0.001840 0.000000 0.000000 0.000000
# 3 -0.001913 -0.001840 0.105041 0.000000 0.000000 0.000000
# 4 0.000000 0.000000 0.000000 -0.073374 0.000000 0.000000
# 5 0.000000 0.000000 0.000000 0.000000 0.044044 0.000000
# 6 0.000000 0.000000 0.000000 0.000000 0.000000 0.064592
#
#
# Mechanical properties :
#
#
# Convention : Reuss Voigt Hill
#
# Bulk Modulus (GPa) = 8.58827 29.30319 18.94573
# Shear Modulus (GPa) = 23.44574 17.98873 20.71723
#
# Velocity S-wave (km/s) = 3.44894 3.02102 3.24205
# Velocity P-wave (km/s) = 4.49638 5.19959 4.86072
#
# Compressibility (1/GPa) = 0.11643793
#
# Stress axis : x y z
#
# Youngs Moduli (GPa) = 136.30888 64.79322 9.52009
#
# Poissons Ratio (x) = 0.12528 0.01821
# Poissons Ratio (y) = 0.26356 0.01752
# Poissons Ratio (z) = 0.26075 0.11922
#
# Static dielectric constant tensor:
#      x y z
#    x 1.672510 0.000000 0.000000 
#    y 0.000000 1.735300 0.000000 
#    z 0.000000 0.000000 1.770940 
# 
# From -- ./inp_files/11416.got.cif
#   From: 2010.05.17/outbox.ucp.g08.bks.cvg/sg59_6_cif.got.tgz:11416.got - 2010.06.11 16:43:56.
