data_PCOD9453867
_publ_section_title
;
Structure prediction by ZEFSAII (Michael W. Deem and Ramdas Pophale) SiO2 
 PCOD9453867
Probable space group: P B C N
;
_chemical_formula_sum "Si O2"
_cell_formula_units_Z 48
_cell_length_a 15.936642
_cell_length_b 9.652685
_cell_length_c 17.852822
_cell_angle_alpha 90.000000
_cell_angle_beta 90.000000
_cell_angle_gamma 90.000000
_cell_volume 2746.324338
_symmetry_space_group_name_H-M "P B C N"
_symmetry_group_IT_number 60
_symmetry_cell_setting 'orthorhombic'
loop_
_space_group_symop_operation_xyz
x,y,z
1/2-x,1/2-y,1/2+z
1/2+x,1/2-y,-z
-x,y,1/2-z
-x,-y,-z
1/2+x,1/2+y,1/2-z
1/2-x,1/2+y,z
x,-y,1/2+z
loop_
_atom_site_type_symbol
_atom_site_label
_atom_site_fract_x
_atom_site_fract_y
_atom_site_fract_z
Si Si1 0.156395 0.336269 0.946319
Si Si2 0.991067 0.306961 0.662563
Si Si3 0.012776 0.971025 0.835667
Si Si4 0.415922 0.920565 0.524507
Si Si5 0.847278 0.839866 0.561889
Si Si6 0.912348 0.932748 0.970052
O O1 0.095395 0.360774 0.875175
O O2 0.251044 0.306076 0.920838
O O3 0.153364 0.465133 0.003896
O O4 0.114554 0.207046 0.989616
O O5 0.000000 0.344430 0.750000
O O6 0.064989 0.364771 0.608135
O O7 0.988143 0.138833 0.657931
O O8 0.934287 0.914759 0.883818
O O9 0.000000 0.933587 0.750000
O O10 0.098214 0.908939 0.871531
O O11 0.396693 0.791425 0.470736
O O12 0.500000 0.000000 0.500000
O O13 0.846954 0.951271 0.494318
O O14 0.000000 0.000000 0.000000
#
# Coordination Sequence:
#
# PCOD9453867 Si02
#       6
#     8   8   8   8   8   8
#     4  11  21  35  56  88 115 144 187 242 283 320
#     4  10  19  36  60  80 110 152 190 224 284 350
#     4  10  19  35  61  82 106 152 195 225 273 349
#     4  10  20  35  56  83 106 145 190 226 272 340
#     4  11  20  35  57  84 114 143 189 241 279 317
#     4  10  17  36  59  78 105 148 193 221 264 344
#
# _framework density 17.477906999999998
#
# number of rings (size 3 to 8) (size 9 to 14) (size 15 to 20)
#    0.000    1.667    5.000    4.000    0.000    0.000 
#    0.000   10.833    0.000    0.000    0.000    0.000 
#    0.000    0.000    0.000    0.000    0.000    0.000 
#
# Total GULP energy -267224.277171 kJ/mol
# GULP energy per Si atom -5567.172441 kJ/mol
# Density = 1.743813 g / cm^3
# Si number density = 17.477907 Si / 1000 Ang^3
#
#
#
# Elastic Constant Matrix: (Units=GPa)
#
#
# Indices 1 2 3 4 5 6 
#
# 1 102.1464 26.7760 54.7075 0.0000 0.0000 0.0000
# 2 26.7760 96.7498 44.9269 0.0000 0.0000 0.0000
# 3 54.7075 44.9269 149.1789 0.0000 0.0000 0.0000
# 4 0.0000 0.0000 0.0000 24.7107 0.0000 0.0000
# 5 0.0000 0.0000 0.0000 0.0000 12.2970 0.0000
# 6 0.0000 0.0000 0.0000 0.0000 0.0000 3.1650
#
#
#
# Elastic Compliance Matrix: (Units=1/GPa)
#
#
# Indices 1 2 3 4 5 6 
#
# 1 0.012375 -0.001532 -0.004077 0.000000 0.000000 0.000000
# 2 -0.001532 0.012206 -0.003114 0.000000 0.000000 0.000000
# 3 -0.004077 -0.003114 0.009136 0.000000 0.000000 0.000000
# 4 0.000000 0.000000 0.000000 0.040468 0.000000 0.000000
# 5 0.000000 0.000000 0.000000 0.000000 0.081320 0.000000
# 6 0.000000 0.000000 0.000000 0.000000 0.000000 0.315957
#
#
# Mechanical properties :
#
#
# Convention : Reuss Voigt Hill
#
# Bulk Modulus (GPa) = 61.45690 66.76621 64.11155
# Shear Modulus (GPa) = 10.11466 22.81218 16.46342
#
# Velocity S-wave (km/s) = 2.40825 3.61668 3.07246
# Velocity P-wave (km/s) = 6.55529 7.46483 7.02480
#
# Compressibility (1/GPa) = 0.01627157
#
# Stress axis : x y z
#
# Youngs Moduli (GPa) = 80.80896 81.92697 109.45288
#
# Poissons Ratio (x) = 0.12548 0.44623
# Poissons Ratio (y) = 0.12377 0.34087
# Poissons Ratio (z) = 0.32945 0.25514
#
# Static dielectric constant tensor:
#      x y z
#    x 1.639750 0.000000 0.000000 
#    y 0.000000 1.642200 0.000000 
#    z 0.000000 0.000000 1.632500 
# 
# From -- ./inp_files/20520.got.cif
#   From: 2010.05.17/outbox.cif.g08.bks.cpg/sg60_11_cif.got.tgz:20520.got - 2010.06.03 14:59:27.
