data_PCOD9453668
_publ_section_title
;
Structure prediction by ZEFSAII (Michael W. Deem and Ramdas Pophale) SiO2 
 PCOD9453668
Probable space group: P M M N
;
_chemical_formula_sum "Si O2"
_cell_formula_units_Z 64
_cell_length_a 30.000000
_cell_length_b 9.000000
_cell_length_c 12.000000
_cell_angle_alpha 90.000000
_cell_angle_beta 90.000000
_cell_angle_gamma 90.000000
_cell_volume 3240.000000
_symmetry_space_group_name_H-M "P M M N"
_symmetry_group_IT_number 59
_space_group.IT_coordinate_system_code '2'
_symmetry_cell_setting 'orthorhombic'
loop_
_space_group_symop_operation_xyz
x,y,z
1/2-x,1/2-y,z
1/2+x,-y,-z
-x,1/2+y,-z
-x,-y,-z
1/2+x,1/2+y,-z
1/2-x,y,z
x,1/2-y,z
loop_
_atom_site_type_symbol
_atom_site_label
_atom_site_fract_x
_atom_site_fract_y
_atom_site_fract_z
Si Si1 0.325936 0.420268 0.997444
Si Si2 0.372773 0.575675 0.411916
Si Si3 0.301230 0.579599 0.777046
Si Si4 0.877728 0.924807 0.352191
Si Si5 0.931936 0.922154 0.992306
Si Si6 0.802492 0.423586 0.773057
Si Si7 0.546003 0.424209 0.759296
Si Si8 0.457523 0.573577 0.782354
O O1 0.310864 0.250000 0.983923
O O2 0.304873 0.525352 0.904367
O O3 0.379231 0.423658 0.981428
O O4 0.315079 0.479235 0.120206
O O5 0.368425 0.750000 0.444333
O O6 0.377475 0.476704 0.520481
O O7 0.330618 0.534093 0.335430
O O8 0.415334 0.561602 0.331510
O O9 0.250000 0.574379 0.741918
O O10 0.317195 0.750000 0.768222
O O11 0.331416 0.472696 0.703698
O O12 0.885178 0.750000 0.340864
O O13 0.915623 0.012199 0.284968
O O14 0.946331 0.750000 0.983101
O O15 0.956157 0.003757 0.093785
O O16 0.938427 0.006184 0.876238
O O17 0.750000 0.434033 0.752853
O O18 0.813701 0.250000 0.797468
O O19 0.535852 0.250000 0.773885
O O20 0.502135 0.513314 0.725133
O O21 0.456741 0.750000 0.788784
#
# Coordination Sequence:
#
# PCOD9453668 Si02
#       8
#     8   8   8   8   8   8   8   8
#     4  11  22  36  61  94 131 167 203 253 311 369
#     4  10  23  43  65  90 122 165 212 258 309 367
#     4  11  24  42  66  94 126 166 210 255 308 372
#     4  12  26  44  66  92 124 162 208 262 314 368
#     4  11  22  38  62  94 130 166 206 253 313 374
#     4  10  21  39  64  93 126 165 209 255 306 368
#     4  11  23  41  66  94 127 165 209 257 310 371
#     4  12  25  42  66  93 126 165 208 256 312 374
#
# _framework density 19.753086
#
# number of rings (size 3 to 8) (size 9 to 14) (size 15 to 20)
#    0.000    1.000    2.500    4.500    0.000    6.250 
#    0.000    1.250    0.000    0.000    0.000    0.000 
#    0.000    0.000    0.000    0.000    0.000    0.000 
#
# Total GULP energy -358061.305172 kJ/mol
# GULP energy per Si atom -5594.707893 kJ/mol
# Density = 1.970813 g / cm^3
# Si number density = 19.753086 Si / 1000 Ang^3
#
#
#
# Elastic Constant Matrix: (Units=GPa)
#
#
# Indices 1 2 3 4 5 6 
#
# 1 60.1319 27.6411 9.9475 0.0000 0.0000 0.0000
# 2 27.6411 123.2608 42.1457 0.0000 0.0000 0.0000
# 3 9.9475 42.1457 71.4225 0.0000 0.0000 0.0000
# 4 0.0000 0.0000 0.0000 30.4371 0.0000 0.0000
# 5 0.0000 0.0000 0.0000 0.0000 -57.2372 0.0000
# 6 0.0000 0.0000 0.0000 0.0000 0.0000 21.2710
#
#
#
# Elastic Compliance Matrix: (Units=1/GPa)
#
#
# Indices 1 2 3 4 5 6 
#
# 1 0.018543 -0.004103 -0.000161 0.000000 0.000000 0.000000
# 2 -0.004103 0.011071 -0.005962 0.000000 0.000000 0.000000
# 3 -0.000161 -0.005962 0.017542 0.000000 0.000000 0.000000
# 4 0.000000 0.000000 0.000000 0.032855 0.000000 0.000000
# 5 0.000000 0.000000 0.000000 0.000000 -0.017471 0.000000
# 6 0.000000 0.000000 0.000000 0.000000 0.000000 0.047012
#
#
# Mechanical properties :
#
#
# Convention : Reuss Voigt Hill
#
# Bulk Modulus (GPa) = 37.44815 46.03154 41.73984
# Shear Modulus (GPa) = 35.99579 10.56624 23.28102
#
# Velocity S-wave (km/s) = 4.27346 2.31533 3.43680
# Velocity P-wave (km/s) = 6.58401 5.52284 6.07663
#
# Compressibility (1/GPa) = 0.02670359
#
# Stress axis : x y z
#
# Youngs Moduli (GPa) = 53.92916 90.32287 57.00740
#
# Poissons Ratio (x) = 0.37059 0.00920
# Poissons Ratio (y) = 0.22127 0.33986
# Poissons Ratio (z) = 0.00871 0.53847
#
# Static dielectric constant tensor:
#      x y z
#    x 1.718560 0.000000 0.000000 
#    y 0.000000 1.666320 0.000000 
#    z 0.000000 0.000000 1.653540 
# 
# From -- ./inp_files/19376.got.cif
#   From: 2010.05.17/outbox.ucp.g08.bks.cvg/sg59_10_cif.got.tgz:19376.got - 2010.06.11 16:43:56.
