data_PCOD9453029
_publ_section_title
;
Structure prediction by ZEFSAII (Michael W. Deem and Ramdas Pophale) SiO2 
 PCOD9453029
Probable space group: P M M N
;
_chemical_formula_sum "Si O2"
_cell_formula_units_Z 48
_cell_length_a 8.657682
_cell_length_b 25.979486
_cell_length_c 12.059598
_cell_angle_alpha 90.000000
_cell_angle_beta 90.000000
_cell_angle_gamma 90.000000
_cell_volume 2712.470449
_symmetry_space_group_name_H-M "P M M N"
_symmetry_group_IT_number 59
_space_group.IT_coordinate_system_code '2'
_symmetry_cell_setting 'orthorhombic'
loop_
_space_group_symop_operation_xyz
x,y,z
1/2-x,1/2-y,z
1/2+x,-y,-z
-x,1/2+y,-z
-x,-y,-z
1/2+x,1/2+y,-z
1/2-x,y,z
x,1/2-y,z
loop_
_atom_site_type_symbol
_atom_site_label
_atom_site_fract_x
_atom_site_fract_y
_atom_site_fract_z
Si Si1 0.566002 0.595410 0.259093
Si Si2 0.064264 0.809989 0.131454
Si Si3 0.934993 0.558007 0.503186
Si Si4 0.566027 0.999932 0.876148
Si Si5 0.937957 0.308334 0.123475
Si Si6 0.564161 0.094770 0.266626
O O1 0.750000 0.588600 0.247791
O O2 0.516330 0.650816 0.214042
O O3 0.525252 0.585587 0.387426
O O4 0.482540 0.552239 0.185459
O O5 0.250000 0.816332 0.138412
O O6 0.029560 0.750000 0.153217
O O7 0.017804 0.821013 0.003522
O O8 0.750000 0.555390 0.512644
O O9 0.000000 0.500000 0.500000
O O10 0.002522 0.586870 0.609635
O O11 0.750000 0.995625 0.879096
O O12 0.495999 0.952558 0.807189
O O13 0.500000 0.000000 0.000000
O O14 0.750000 0.307703 0.124367
O O15 0.989391 0.250000 0.148997
O O16 0.987884 0.352108 0.208751
O O17 0.750000 0.093454 0.267777
#
# Coordination Sequence:
#
# PCOD9453029 Si02
#       6
#     8   8   8   8   8   8
#     4  11  23  38  57  82 113 149 194 238 289 346
#     4   9  18  35  60  87 115 150 191 234 287 347
#     4  11  23  39  58  79 110 153 196 238 287 344
#     4  12  24  37  56  82 116 149 185 234 289 347
#     4   8  16  33  57  84 113 146 183 227 279 337
#     4  11  21  35  58  86 115 147 190 236 287 343
#
# _framework density 17.696045999999999
#
# number of rings (size 3 to 8) (size 9 to 14) (size 15 to 20)
#    0.000    1.667    1.667    5.000    0.000    3.667 
#    0.000    1.667    0.000    7.000    0.000    0.000 
#    0.000    0.000    0.000    0.000    0.000    0.000 
#
# Total GULP energy -268159.537635 kJ/mol
# GULP energy per Si atom -5586.657034 kJ/mol
# Density = 1.765577 g / cm^3
# Si number density = 17.696046 Si / 1000 Ang^3
#
#
#
# Elastic Constant Matrix: (Units=GPa)
#
#
# Indices 1 2 3 4 5 6 
#
# 1 63.6138 40.5393 59.3394 0.0000 0.0000 0.0000
# 2 40.5393 113.9990 90.6021 0.0000 0.0000 0.0000
# 3 59.3394 90.6021 169.4553 0.0000 0.0000 0.0000
# 4 0.0000 0.0000 0.0000 10.5673 0.0000 0.0000
# 5 0.0000 0.0000 0.0000 0.0000 32.8256 0.0000
# 6 0.0000 0.0000 0.0000 0.0000 0.0000 25.1393
#
#
#
# Elastic Compliance Matrix: (Units=1/GPa)
#
#
# Indices 1 2 3 4 5 6 
#
# 1 0.024010 -0.003227 -0.006682 0.000000 0.000000 0.000000
# 2 -0.003227 0.015688 -0.007258 0.000000 0.000000 0.000000
# 3 -0.006682 -0.007258 0.012122 0.000000 0.000000 0.000000
# 4 0.000000 0.000000 0.000000 0.094632 0.000000 0.000000
# 5 0.000000 0.000000 0.000000 0.000000 0.030464 0.000000
# 6 0.000000 0.000000 0.000000 0.000000 0.000000 0.039778
#
#
# Mechanical properties :
#
#
# Convention : Reuss Voigt Hill
#
# Bulk Modulus (GPa) = 57.19226 80.89219 69.04222
# Shear Modulus (GPa) = 19.46622 24.14559 21.80590
#
# Velocity S-wave (km/s) = 3.32027 3.69787 3.51415
# Velocity P-wave (km/s) = 6.86209 8.00272 7.45426
#
# Compressibility (1/GPa) = 0.01748488
#
# Stress axis : x y z
#
# Youngs Moduli (GPa) = 41.64986 63.74404 82.49792
#
# Poissons Ratio (x) = 0.20573 0.55125
# Poissons Ratio (y) = 0.13442 0.59873
# Poissons Ratio (z) = 0.27831 0.46262
#
# Static dielectric constant tensor:
#      x y z
#    x 1.599440 0.000000 0.000000 
#    y 0.000000 1.586390 0.000000 
#    z 0.000000 0.000000 1.582920 
# 
# From -- ./inp_files/14371.got.cif
#   From: 2010.05.17/outbox.cif.g08.bks.cpg/sg59_8_cif.got.tgz:14371.got - 2010.06.03 14:40:33.
