data_PCOD9453315
_publ_section_title
;
Structure prediction by ZEFSAII (Michael W. Deem and Ramdas Pophale) SiO2 
 PCOD9453315
Probable space group: P M M N
;
_chemical_formula_sum "Si O2"
_cell_formula_units_Z 40
_cell_length_a 7.534681
_cell_length_b 14.966118
_cell_length_c 17.310882
_cell_angle_alpha 90.000000
_cell_angle_beta 90.000000
_cell_angle_gamma 90.000000
_cell_volume 1952.060309
_symmetry_space_group_name_H-M "P M M N"
_symmetry_group_IT_number 59
_space_group.IT_coordinate_system_code '2'
_symmetry_cell_setting 'orthorhombic'
loop_
_space_group_symop_operation_xyz
x,y,z
1/2-x,1/2-y,z
1/2+x,-y,-z
-x,1/2+y,-z
-x,-y,-z
1/2+x,1/2+y,-z
1/2-x,y,z
x,1/2-y,z
loop_
_atom_site_type_symbol
_atom_site_label
_atom_site_fract_x
_atom_site_fract_y
_atom_site_fract_z
Si Si1 0.461921 0.850640 0.403315
Si Si2 0.463136 0.352231 0.990940
Si Si3 0.531998 0.991464 0.703151
Si Si4 0.962701 0.988606 0.878580
Si Si5 0.036898 0.148505 0.424121
O O1 0.250000 0.845475 0.394470
O O2 0.534678 0.750000 0.398765
O O3 0.494679 0.885763 0.489958
O O4 0.527143 0.917063 0.337645
O O5 0.250000 0.347209 0.997782
O O6 0.529290 0.250000 0.986818
O O7 0.530291 0.410628 0.064085
O O8 0.500943 0.415243 0.917389
O O9 0.750000 0.991204 0.703980
O O10 0.473888 0.912819 0.645670
O O11 0.471569 0.982353 0.791094
O O12 0.750000 0.978829 0.876059
O O13 0.250000 0.151500 0.418757
O O14 0.968722 0.250000 0.419121
#
# Coordination Sequence:
#
# PCOD9453315 Si02
#       5
#     8   8   8   8   8
#     4   9  17  29  44  62  87 119 152 184 219 260
#     4   9  18  33  51  70  95 124 150 184 234 282
#     4   9  17  29  46  68  91 115 147 187 225 260
#     4   9  18  32  50  72  94 119 156 193 225 273
#     4   9  17  29  45  65  89 117 150 186 222 262
#
# _framework density 20.491167999999998
#
# number of rings (size 3 to 8) (size 9 to 14) (size 15 to 20)
#    0.000    3.000    0.000    0.600    0.000    2.000 
#    0.000    8.000    0.000    2.400    0.000    2.800 
#    0.000    0.000    0.000    0.000    0.000    0.000 
#
# Total GULP energy -223133.421075 kJ/mol
# GULP energy per Si atom -5578.335527 kJ/mol
# Density = 2.044453 g / cm^3
# Si number density = 20.491168 Si / 1000 Ang^3
#
#
#
# Elastic Constant Matrix: (Units=GPa)
#
#
# Indices 1 2 3 4 5 6 
#
# 1 51.5952 -3.0607 -5.3299 0.0000 0.0000 0.0000
# 2 -3.0607 17.5907 -42.4815 0.0000 0.0000 0.0000
# 3 -5.3299 -42.4815 41.7784 0.0000 0.0000 0.0000
# 4 0.0000 0.0000 0.0000 75.4627 0.0000 0.0000
# 5 0.0000 0.0000 0.0000 0.0000 25.3174 0.0000
# 6 0.0000 0.0000 0.0000 0.0000 0.0000 -13.5383
#
#
#
# Elastic Compliance Matrix: (Units=1/GPa)
#
#
# Indices 1 2 3 4 5 6 
#
# 1 0.018614 -0.006165 -0.003894 0.000000 0.000000 0.000000
# 2 -0.006165 -0.037012 -0.038421 0.000000 0.000000 0.000000
# 3 -0.003894 -0.038421 -0.015629 0.000000 0.000000 0.000000
# 4 0.000000 0.000000 0.000000 0.013252 0.000000 0.000000
# 5 0.000000 0.000000 0.000000 0.000000 0.039498 0.000000
# 6 0.000000 0.000000 0.000000 0.000000 0.000000 -0.073865
#
#
# Mechanical properties :
#
#
# Convention : Reuss Voigt Hill
#
# Bulk Modulus (GPa) = -7.63435 1.02446 -3.30495
# Shear Modulus (GPa) = -2710.49384 28.23746 -1341.12819
#
# Velocity S-wave (km/s) = -36.40925 3.71621 -25.61077
# Velocity P-wave (km/s) = 42.08616 4.34910 29.60009
#
# Compressibility (1/GPa) = -0.13098692
#
# Stress axis : x y z
#
# Youngs Moduli (GPa) = 53.72383 -27.01818 -63.98374
#
# Poissons Ratio (x) = -0.16656 -0.24913
# Poissons Ratio (y) = 0.33119 -2.45835
# Poissons Ratio (z) = 0.20919 -1.03808
#
# Static dielectric constant tensor:
#      x y z
#    x 1.772720 0.000000 0.000000 
#    y 0.000000 1.735510 0.000000 
#    z 0.000000 0.000000 1.694830 
# 
# From -- ./inp_files/19850.got.cif
#   From: 2010.05.17/outbox.cif.g08.bks.cpg/sg59_10_cif.got.tgz:19850.got - 2010.06.03 14:40:33.
