data_PCOD9453533
_publ_section_title
;
Structure prediction by ZEFSAII (Michael W. Deem and Ramdas Pophale) SiO2 
 PCOD9453533
Probable space group: P M M N
;
_chemical_formula_sum "Si O2"
_cell_formula_units_Z 64
_cell_length_a 30.000000
_cell_length_b 9.000000
_cell_length_c 12.000000
_cell_angle_alpha 90.000000
_cell_angle_beta 90.000000
_cell_angle_gamma 90.000000
_cell_volume 3240.000000
_symmetry_space_group_name_H-M "P M M N"
_symmetry_group_IT_number 59
_space_group.IT_coordinate_system_code '2'
_symmetry_cell_setting 'orthorhombic'
loop_
_space_group_symop_operation_xyz
x,y,z
1/2-x,1/2-y,z
1/2+x,-y,-z
-x,1/2+y,-z
-x,-y,-z
1/2+x,1/2+y,-z
1/2-x,y,z
x,1/2-y,z
loop_
_atom_site_type_symbol
_atom_site_label
_atom_site_fract_x
_atom_site_fract_y
_atom_site_fract_z
Si Si1 0.887972 0.426383 0.808990
Si Si2 0.799371 0.929983 0.370033
Si Si3 0.554133 0.928118 0.630930
Si Si4 0.299563 0.422743 0.118268
Si Si5 0.078561 0.571891 0.959644
Si Si6 0.464652 0.570237 0.749650
Si Si7 0.397938 0.070278 0.588612
Si Si8 0.668120 0.576546 0.125517
O O1 0.892377 0.250000 0.794837
O O2 0.905545 0.514859 0.704821
O O3 0.837542 0.471145 0.835622
O O4 0.918257 0.479444 0.913560
O O5 0.750000 0.984460 0.405321
O O6 0.797907 0.750000 0.378764
O O7 0.846174 0.975643 0.427845
O O8 0.807667 0.966718 0.239564
O O9 0.552195 0.750000 0.632084
O O10 0.508122 0.984691 0.684029
O O11 0.567845 0.975852 0.508030
O O12 0.250000 0.457412 0.158090
O O13 0.309890 0.250000 0.145978
O O14 0.301434 0.432812 0.983986
O O15 0.079086 0.750000 0.963007
O O16 0.038250 0.525910 0.879549
O O17 0.124694 0.517411 0.904828
O O18 0.463532 0.750000 0.742341
O O19 0.420249 0.503330 0.695364
O O20 0.398344 0.250000 0.597995
O O21 0.654759 0.750000 0.138575
#
# Coordination Sequence:
#
# PCOD9453533 Si02
#       8
#     8   8   8   8   8   8   8   8
#     4  10  21  36  53  75 105 140 178 221 265 315
#     4   9  16  27  47  76 106 133 163 204 255 306
#     4  10  22  38  54  75 104 140 182 226 268 316
#     4   9  17  30  51  78 105 136 175 216 259 312
#     4   9  18  32  50  75 107 137 166 208 264 319
#     4  10  20  35  56  79 106 138 171 217 277 328
#     4  10  20  35  55  79 106 135 175 221 262 313
#     4   9  15  26  47  75 105 135 166 204 251 307
#
# _framework density 19.753086
#
# number of rings (size 3 to 8) (size 9 to 14) (size 15 to 20)
#    0.000    2.500    1.250    1.125    0.000    3.750 
#    0.000    0.625    0.000    4.500    0.000    0.000 
#    0.000    0.000    0.000    0.000    0.000    0.000 
#
# Total GULP energy -356438.467465 kJ/mol
# GULP energy per Si atom -5569.351054 kJ/mol
# Density = 1.970813 g / cm^3
# Si number density = 19.753086 Si / 1000 Ang^3
#
#
#
# Elastic Constant Matrix: (Units=GPa)
#
#
# Indices 1 2 3 4 5 6 
#
# 1 28.1473 -20.8281 -16.0475 0.0000 0.0000 0.0000
# 2 -20.8281 -35.3131 -3.1312 0.0000 0.0000 0.0000
# 3 -16.0475 -3.1312 38.1983 0.0000 0.0000 0.0000
# 4 0.0000 0.0000 0.0000 9.4173 0.0000 0.0000
# 5 0.0000 0.0000 0.0000 0.0000 35.7998 0.0000
# 6 0.0000 0.0000 0.0000 0.0000 0.0000 14.8227
#
#
#
# Elastic Compliance Matrix: (Units=1/GPa)
#
#
# Indices 1 2 3 4 5 6 
#
# 1 0.028417 -0.017690 0.010488 0.000000 0.000000 0.000000
# 2 -0.017690 -0.017101 -0.008834 0.000000 0.000000 0.000000
# 3 0.010488 -0.008834 0.029861 0.000000 0.000000 0.000000
# 4 0.000000 0.000000 0.000000 0.106188 0.000000 0.000000
# 5 0.000000 0.000000 0.000000 0.000000 0.027933 0.000000
# 6 0.000000 0.000000 0.000000 0.000000 0.000000 0.067464
#
#
# Mechanical properties :
#
#
# Convention : Reuss Voigt Hill
#
# Bulk Modulus (GPa) = 109.83342 -5.44236 52.19553
# Shear Modulus (GPa) = 17.99408 16.74390 17.36899
#
# Velocity S-wave (km/s) = 3.02147 2.91462 2.96853
# Velocity P-wave (km/s) = 8.23992 2.92669 6.18311
#
# Compressibility (1/GPa) = 0.00910470
#
# Stress axis : x y z
#
# Youngs Moduli (GPa) = 35.19077 -58.47684 33.48830
#
# Poissons Ratio (x) = -1.03448 -0.35123
# Poissons Ratio (y) = 0.62254 0.29583
# Poissons Ratio (z) = -0.36908 -0.51657
#
# Static dielectric constant tensor:
#      x y z
#    x 1.706470 0.000000 0.000000 
#    y 0.000000 1.647100 0.000000 
#    z 0.000000 0.000000 1.735240 
# 
# From -- ./inp_files/19219.got.cif
#   From: 2010.05.17/outbox.ucp.g08.bks.cvg/sg59_10_cif.got.tgz:19219.got - 2010.06.11 16:43:56.
