data_PCOD9453902
_publ_section_title
;
Structure prediction by ZEFSAII (Michael W. Deem and Ramdas Pophale) SiO2 
 PCOD9453902
Probable space group: P B C N
;
_chemical_formula_sum "Si O2"
_cell_formula_units_Z 52
_cell_length_a 10.688021
_cell_length_b 12.360652
_cell_length_c 14.025196
_cell_angle_alpha 90.000000
_cell_angle_beta 90.000000
_cell_angle_gamma 90.000000
_cell_volume 1852.881381
_symmetry_space_group_name_H-M "P B C N"
_symmetry_group_IT_number 60
_symmetry_cell_setting 'orthorhombic'
loop_
_space_group_symop_operation_xyz
x,y,z
1/2-x,1/2-y,1/2+z
1/2+x,1/2-y,-z
-x,y,1/2-z
-x,-y,-z
1/2+x,1/2+y,1/2-z
1/2-x,1/2+y,z
x,-y,1/2+z
loop_
_atom_site_type_symbol
_atom_site_label
_atom_site_fract_x
_atom_site_fract_y
_atom_site_fract_z
Si Si1 0.546714 0.812038 0.394670
Si Si2 0.186969 0.654564 0.421931
Si Si3 0.673770 0.375801 0.308553
Si Si4 0.344262 0.150125 0.194159
Si Si5 0.500000 0.038728 0.750000
Si Si6 0.090197 0.085111 0.095055
Si Si7 0.282046 0.404395 0.414138
O O1 0.568213 0.834755 0.505771
O O2 0.684740 0.848622 0.349672
O O3 0.450047 0.883255 0.333499
O O4 0.508049 0.687613 0.375362
O O5 0.181302 0.655318 0.307389
O O6 0.226592 0.526899 0.439064
O O7 0.252931 0.775303 0.440078
O O8 0.600204 0.265673 0.328695
O O9 0.596875 0.472146 0.353795
O O10 0.689447 0.403317 0.197860
O O11 0.225734 0.129362 0.129812
O O12 0.425889 0.045090 0.185312
O O13 0.096291 0.083077 0.982167
#
# Coordination Sequence:
#
# PCOD9453902 Si02
#       7
#     8   8   8   8   4   8   8
#     4  10  21  32  56  78 114 141 181 224 276 320
#     4  10  18  33  50  85 108 146 179 229 268 326
#     4  10  18  35  53  81 106 144 183 226 265 328
#     4  10  21  32  56  78 114 141 181 224 276 320
#     4  12  20  38  50  84 112 148 176 228 276 328
#     4  10  18  35  53  81 106 144 183 226 265 328
#     4  10  18  28  52  79 114 136 186 228 273 309
#
# _framework density 28.064399000000002
#
# number of rings (size 3 to 8) (size 9 to 14) (size 15 to 20)
#    0.000    1.846    4.615    0.000    0.000    0.615 
#    0.000    2.308    0.000    0.000    0.000    6.462 
#    0.000    0.000    0.000    0.000    0.000    0.000 
#
# Total GULP energy -289675.642532 kJ/mol
# GULP energy per Si atom -5570.685433 kJ/mol
# Density = 2.800052 g / cm^3
# Si number density = 28.064399 Si / 1000 Ang^3
#
#
#
# Elastic Constant Matrix: (Units=GPa)
#
#
# Indices 1 2 3 4 5 6 
#
# 1 63.0699 41.7491 29.6722 0.0000 0.0000 0.0000
# 2 41.7491 321.1168 36.8364 0.0000 0.0000 0.0000
# 3 29.6722 36.8364 166.0075 0.0000 0.0000 0.0000
# 4 0.0000 0.0000 0.0000 -84.0628 0.0000 0.0000
# 5 0.0000 0.0000 0.0000 0.0000 39.8007 0.0000
# 6 0.0000 0.0000 0.0000 0.0000 0.0000 19.9032
#
#
#
# Elastic Compliance Matrix: (Units=1/GPa)
#
#
# Indices 1 2 3 4 5 6 
#
# 1 0.018582 -0.002088 -0.002858 0.000000 0.000000 0.000000
# 2 -0.002088 0.003430 -0.000388 0.000000 0.000000 0.000000
# 3 -0.002858 -0.000388 0.006621 0.000000 0.000000 0.000000
# 4 0.000000 0.000000 0.000000 -0.011896 0.000000 0.000000
# 5 0.000000 0.000000 0.000000 0.000000 0.025125 0.000000
# 6 0.000000 0.000000 0.000000 0.000000 0.000000 0.050243
#
#
# Mechanical properties :
#
#
# Convention : Reuss Voigt Hill
#
# Bulk Modulus (GPa) = 55.66367 85.18995 70.42681
# Shear Modulus (GPa) = 45.97194 24.59065 35.28130
#
# Velocity S-wave (km/s) = 4.05172 2.96332 3.54948
# Velocity P-wave (km/s) = 6.46265 6.49072 6.47670
#
# Compressibility (1/GPa) = 0.01796504
#
# Stress axis : x y z
#
# Youngs Moduli (GPa) = 53.81486 291.53642 151.04040
#
# Poissons Ratio (x) = 0.60875 0.43168
# Poissons Ratio (y) = 0.11237 0.05859
# Poissons Ratio (z) = 0.15381 0.11309
#
# Static dielectric constant tensor:
#      x y z
#    x 2.516110 0.000000 0.000000 
#    y 0.000000 2.323220 0.000000 
#    z 0.000000 0.000000 2.111860 
# 
# From -- ./inp_files/17426.got.cif
#   From: 2010.05.17/outbox.cif.g08.bks.cpg/sg60_9_cif.got.tgz:17426.got - 2010.06.03 14:59:27.
