data_PCOD9453026
_publ_section_title
;
Structure prediction by ZEFSAII (Michael W. Deem and Ramdas Pophale) SiO2 
 PCOD9453026
Probable space group: P M M N
;
_chemical_formula_sum "Si O2"
_cell_formula_units_Z 40
_cell_length_a 10.480786
_cell_length_b 8.126078
_cell_length_c 25.662628
_cell_angle_alpha 90.000000
_cell_angle_beta 90.000000
_cell_angle_gamma 90.000000
_cell_volume 2185.626606
_symmetry_space_group_name_H-M "P M M N"
_symmetry_group_IT_number 59
_space_group.IT_coordinate_system_code '2'
_symmetry_cell_setting 'orthorhombic'
loop_
_space_group_symop_operation_xyz
x,y,z
1/2-x,1/2-y,z
1/2+x,-y,-z
-x,1/2+y,-z
-x,-y,-z
1/2+x,1/2+y,-z
1/2-x,y,z
x,1/2-y,z
loop_
_atom_site_type_symbol
_atom_site_label
_atom_site_fract_x
_atom_site_fract_y
_atom_site_fract_z
Si Si1 0.750000 0.451844 0.562114
Si Si2 0.095021 0.939728 0.842916
Si Si3 0.997987 0.553924 0.378356
Si Si4 0.897055 0.449408 0.042721
Si Si5 0.250000 0.553009 0.557681
Si Si6 0.603142 0.051387 0.269813
O O1 0.750000 0.250000 0.561518
O O2 0.624233 0.507881 0.592579
O O3 0.750000 0.506320 0.502043
O O4 0.250000 0.935459 0.841482
O O5 0.049669 0.750000 0.843603
O O6 0.063822 0.012694 0.899414
O O7 0.057518 0.012498 0.786846
O O8 0.004419 0.750000 0.376979
O O9 0.874712 0.503781 0.411550
O O10 0.980160 0.494033 0.319373
O O11 0.750000 0.502203 0.031850
O O12 0.894220 0.250000 0.045425
O O13 0.000000 0.500000 0.000000
O O14 0.250000 0.750000 0.557196
O O15 0.750000 0.995132 0.278766
O O16 0.607632 0.250000 0.266133
#
# Coordination Sequence:
#
# PCOD9453026 Si02
#       6
#     4   8   8   8   4   8
#     4   9  22  39  53  71 103 139 166 197 246 303
#     4   7  12  25  46  70  95 127 164 204 246 287
#     4  11  21  35  54  77 103 132 164 203 252 299
#     4   9  17  30  49  73 101 133 169 207 249 297
#     4  11  21  37  57  77  99 129 170 209 242 289
#     4   9  16  29  51  76 100 125 162 209 251 293
#
# _framework density 18.301386999999998
#
# number of rings (size 3 to 8) (size 9 to 14) (size 15 to 20)
#    0.000    2.800    1.000    3.900    0.000    0.400 
#    0.000    6.000    2.200    3.600    0.000    0.000 
#    0.000    0.000    0.000    0.000    0.000    0.000 
#
# Total GULP energy -222838.712866 kJ/mol
# GULP energy per Si atom -5570.967822 kJ/mol
# Density = 1.825973 g / cm^3
# Si number density = 18.301387 Si / 1000 Ang^3
#
#
#
# Elastic Constant Matrix: (Units=GPa)
#
#
# Indices 1 2 3 4 5 6 
#
# 1 100.3964 6.0630 85.2265 0.0000 0.0000 0.0000
# 2 6.0630 14.8604 14.0302 0.0000 0.0000 0.0000
# 3 85.2265 14.0302 220.9779 0.0000 0.0000 0.0000
# 4 0.0000 0.0000 0.0000 24.7229 0.0000 0.0000
# 5 0.0000 0.0000 0.0000 0.0000 22.0390 0.0000
# 6 0.0000 0.0000 0.0000 0.0000 0.0000 -32.8305
#
#
#
# Elastic Compliance Matrix: (Units=1/GPa)
#
#
# Indices 1 2 3 4 5 6 
#
# 1 0.014816 -0.000691 -0.005670 0.000000 0.000000 0.000000
# 2 -0.000691 0.071616 -0.004280 0.000000 0.000000 0.000000
# 3 -0.005670 -0.004280 0.006984 0.000000 0.000000 0.000000
# 4 0.000000 0.000000 0.000000 0.040448 0.000000 0.000000
# 5 0.000000 0.000000 0.000000 0.000000 0.045374 0.000000
# 6 0.000000 0.000000 0.000000 0.000000 0.000000 -0.030460
#
#
# Mechanical properties :
#
#
# Convention : Reuss Voigt Hill
#
# Bulk Modulus (GPa) = 13.86343 60.76377 37.31360
# Shear Modulus (GPa) = 25.75902 18.18063 21.96983
#
# Velocity S-wave (km/s) = 3.75572 3.15525 3.46850
# Velocity P-wave (km/s) = 5.13798 6.82260 6.03932
#
# Compressibility (1/GPa) = 0.07213222
#
# Stress axis : x y z
#
# Youngs Moduli (GPa) = 67.49588 13.96330 143.18456
#
# Poissons Ratio (x) = 0.00965 0.81189
# Poissons Ratio (y) = 0.04666 0.61289
# Poissons Ratio (z) = 0.38272 0.05977
#
# Static dielectric constant tensor:
#      x y z
#    x 1.596750 0.000000 0.000000 
#    y 0.000000 1.659090 0.000000 
#    z 0.000000 0.000000 1.674300 
# 
# From -- ./inp_files/32434.got.cif
#   From: 2010.05.17/outbox.cif.g08.bks.cpg/sg59_17_cif.got.tgz:32434.got - 2010.06.03 14:40:33.
