data_PCOD9453637
_publ_section_title
;
Structure prediction by ZEFSAII (Michael W. Deem and Ramdas Pophale) SiO2 
 PCOD9453637
Probable space group: P M M N
;
_chemical_formula_sum "Si O2"
_cell_formula_units_Z 64
_cell_length_a 24.000000
_cell_length_b 9.000000
_cell_length_c 15.000000
_cell_angle_alpha 90.000000
_cell_angle_beta 90.000000
_cell_angle_gamma 90.000000
_cell_volume 3240.000000
_symmetry_space_group_name_H-M "P M M N"
_symmetry_group_IT_number 59
_space_group.IT_coordinate_system_code '2'
_symmetry_cell_setting 'orthorhombic'
loop_
_space_group_symop_operation_xyz
x,y,z
1/2-x,1/2-y,z
1/2+x,-y,-z
-x,1/2+y,-z
-x,-y,-z
1/2+x,1/2+y,-z
1/2-x,y,z
x,1/2-y,z
loop_
_atom_site_type_symbol
_atom_site_label
_atom_site_fract_x
_atom_site_fract_y
_atom_site_fract_z
Si Si1 0.008984 0.429514 0.212650
Si Si2 0.357573 0.078301 0.550175
Si Si3 0.185435 0.071750 0.019606
Si Si4 0.108949 0.925727 0.869342
Si Si5 0.626852 0.071970 0.813875
Si Si6 0.812553 0.579224 0.261537
Si Si7 0.472648 0.927191 0.587097
Si Si8 0.315320 0.574599 0.372748
O O1 0.015003 0.250000 0.209780
O O2 0.064680 0.507520 0.178578
O O3 0.954617 0.468962 0.153755
O O4 0.997979 0.471694 0.316645
O O5 0.375226 0.250000 0.540201
O O6 0.314636 0.070794 0.631808
O O7 0.409308 0.980249 0.581617
O O8 0.333903 0.018584 0.457928
O O9 0.250000 0.031232 0.999150
O O10 0.182255 0.250000 0.022290
O O11 0.166878 0.002668 0.113615
O O12 0.141293 0.010248 0.947762
O O13 0.110024 0.750000 0.886892
O O14 0.144729 0.966499 0.782050
O O15 0.627044 0.250000 0.825294
O O16 0.649421 0.037468 0.714872
O O17 0.750000 0.552173 0.229309
O O18 0.827974 0.750000 0.237311
O O19 0.476954 0.750000 0.580899
O O20 0.500000 0.000000 0.500000
O O21 0.250000 0.551109 0.354544
O O22 0.323481 0.750000 0.392085
#
# Coordination Sequence:
#
# PCOD9453637 Si02
#       8
#     8   8   8   8   8   8   8   8
#     4  10  23  42  62  89 128 167 208 256 311 374
#     4  11  22  36  57  87 123 164 209 255 310 373
#     4  11  25  45  69  97 128 163 203 252 315 381
#     4  11  23  41  65  93 125 164 208 256 308 366
#     4  11  24  42  67  95 123 161 210 262 316 373
#     4  10  21  37  57  85 123 163 204 251 303 363
#     4  11  22  38  59  86 122 165 215 263 310 369
#     4  10  22  40  61  88 124 164 209 264 320 375
#
# _framework density 19.753086
#
# number of rings (size 3 to 8) (size 9 to 14) (size 15 to 20)
#    0.000    1.375    1.250    3.750    0.000   10.000 
#    0.000    0.000    0.000    0.000    0.000    0.000 
#    0.000    0.000    0.000    0.000    0.000    0.000 
#
# Total GULP energy -357694.723953 kJ/mol
# GULP energy per Si atom -5588.980062 kJ/mol
# Density = 1.970813 g / cm^3
# Si number density = 19.753086 Si / 1000 Ang^3
#
#
#
# Elastic Constant Matrix: (Units=GPa)
#
#
# Indices 1 2 3 4 5 6 
#
# 1 78.5313 28.2205 22.9998 0.0000 0.0000 0.0000
# 2 28.2205 44.6669 28.3848 0.0000 0.0000 0.0000
# 3 22.9998 28.3848 75.4527 0.0000 0.0000 0.0000
# 4 0.0000 0.0000 0.0000 37.6670 0.0000 0.0000
# 5 0.0000 0.0000 0.0000 0.0000 31.0531 0.0000
# 6 0.0000 0.0000 0.0000 0.0000 0.0000 27.3783
#
#
#
# Elastic Compliance Matrix: (Units=1/GPa)
#
#
# Indices 1 2 3 4 5 6 
#
# 1 0.016596 -0.009555 -0.001464 0.000000 0.000000 0.000000
# 2 -0.009555 0.034923 -0.010225 0.000000 0.000000 0.000000
# 3 -0.001464 -0.010225 0.017546 0.000000 0.000000 0.000000
# 4 0.000000 0.000000 0.000000 0.026548 0.000000 0.000000
# 5 0.000000 0.000000 0.000000 0.000000 0.032203 0.000000
# 6 0.000000 0.000000 0.000000 0.000000 0.000000 0.036525
#
#
# Mechanical properties :
#
#
# Convention : Reuss Voigt Hill
#
# Bulk Modulus (GPa) = 37.62749 39.76235 38.69492
# Shear Modulus (GPa) = 23.18151 27.15608 25.16879
#
# Velocity S-wave (km/s) = 3.42945 3.71182 3.57342
# Velocity P-wave (km/s) = 5.89676 6.20834 6.05456
#
# Compressibility (1/GPa) = 0.02657631
#
# Stress axis : x y z
#
# Youngs Moduli (GPa) = 60.25448 28.63483 56.99198
#
# Poissons Ratio (x) = 0.27360 0.08346
# Poissons Ratio (y) = 0.57573 0.58275
# Poissons Ratio (z) = 0.08824 0.29279
#
# Static dielectric constant tensor:
#      x y z
#    x 1.765220 0.000000 0.000000 
#    y 0.000000 1.662240 0.000000 
#    z 0.000000 0.000000 1.708330 
# 
# From -- ./inp_files/24712.got.cif
#   From: 2010.05.17/outbox.ucp.g08.bks.cvg/sg59_13_cif.got.tgz:24712.got - 2010.06.11 16:43:56.
