data_PCOD9453769
_publ_section_title
;
Structure prediction by ZEFSAII (Michael W. Deem and Ramdas Pophale) SiO2 
 PCOD9453769
Probable space group: P B C N
;
_chemical_formula_sum "Si O2"
_cell_formula_units_Z 52
_cell_length_a 10.811252
_cell_length_b 29.326107
_cell_length_c 8.340290
_cell_angle_alpha 90.000000
_cell_angle_beta 90.000000
_cell_angle_gamma 90.000000
_cell_volume 2644.305066
_symmetry_space_group_name_H-M "P B C N"
_symmetry_group_IT_number 60
_symmetry_cell_setting 'orthorhombic'
loop_
_space_group_symop_operation_xyz
x,y,z
1/2-x,1/2-y,1/2+z
1/2+x,1/2-y,-z
-x,y,1/2-z
-x,-y,-z
1/2+x,1/2+y,1/2-z
1/2-x,1/2+y,z
x,-y,1/2+z
loop_
_atom_site_type_symbol
_atom_site_label
_atom_site_fract_x
_atom_site_fract_y
_atom_site_fract_z
Si Si1 0.701301 0.531379 0.559170
Si Si2 0.131019 0.705373 0.848798
Si Si3 0.322946 0.365214 0.013453
Si Si4 0.855577 0.942069 0.714896
Si Si5 0.000000 0.079930 0.750000
Si Si6 0.357932 0.104630 0.755003
Si Si7 0.627068 0.731013 0.854047
O O1 0.715812 0.546400 0.377361
O O2 0.698282 0.477298 0.583775
O O3 0.568703 0.548705 0.622259
O O4 0.790679 0.560769 0.672090
O O5 0.160997 0.651247 0.856457
O O6 0.249082 0.728400 0.757059
O O7 0.000000 0.710480 0.750000
O O8 0.119872 0.726371 0.025757
O O9 0.409056 0.388684 0.148671
O O10 0.188700 0.378698 0.080584
O O11 0.355035 0.312537 0.027762
O O12 0.344235 0.390753 0.847726
O O13 0.000000 0.950844 0.750000
O O14 0.500000 0.093828 0.750000
O O15 0.500000 0.727360 0.750000
#
# Coordination Sequence:
#
# PCOD9453769 Si02
#       7
#     8   8   8   8   4   8   8
#     4  11  21  35  58  85 116 156 196 238 294 358
#     4  10  22  40  61  88 123 164 204 249 314 370
#     4  10  21  35  58  87 121 155 195 241 302 350
#     4  12  22  35  56  92 125 152 193 243 308 364
#     4  10  16  34  54  80 118 150 182 236 286 346
#     4   9  21  42  61  77 113 162 202 245 298 351
#     4  11  22  39  64  93 126 161 204 258 305 364
#
# _framework density 19.664902000000001
#
# number of rings (size 3 to 8) (size 9 to 14) (size 15 to 20)
#    0.000    1.538    3.077    3.231    0.000    1.846 
#    0.000    3.846    0.000    0.000    0.000    0.000 
#    0.000    0.000    0.000    0.000    0.000    0.000 
#
# Total GULP energy -290014.315343 kJ/mol
# GULP energy per Si atom -5577.198372 kJ/mol
# Density = 1.962014 g / cm^3
# Si number density = 19.664902 Si / 1000 Ang^3
#
#
#
# Elastic Constant Matrix: (Units=GPa)
#
#
# Indices 1 2 3 4 5 6 
#
# 1 90.2588 10.6014 7.4209 0.0000 0.0000 0.0000
# 2 10.6014 74.1191 18.9792 0.0000 0.0000 0.0000
# 3 7.4209 18.9792 65.4123 0.0000 0.0000 0.0000
# 4 0.0000 0.0000 0.0000 23.4716 0.0000 0.0000
# 5 0.0000 0.0000 0.0000 0.0000 10.6863 0.0000
# 6 0.0000 0.0000 0.0000 0.0000 0.0000 8.8710
#
#
#
# Elastic Compliance Matrix: (Units=1/GPa)
#
#
# Indices 1 2 3 4 5 6 
#
# 1 0.011315 -0.001393 -0.000879 0.000000 0.000000 0.000000
# 2 -0.001393 0.014746 -0.004121 0.000000 0.000000 0.000000
# 3 -0.000879 -0.004121 0.016583 0.000000 0.000000 0.000000
# 4 0.000000 0.000000 0.000000 0.042605 0.000000 0.000000
# 5 0.000000 0.000000 0.000000 0.000000 0.093578 0.000000
# 6 0.000000 0.000000 0.000000 0.000000 0.000000 0.112727
#
#
# Mechanical properties :
#
#
# Convention : Reuss Voigt Hill
#
# Bulk Modulus (GPa) = 33.49190 33.75482 33.62336
# Shear Modulus (GPa) = 15.90870 21.45834 18.68352
#
# Velocity S-wave (km/s) = 2.84736 3.30692 3.08570
# Velocity P-wave (km/s) = 5.27998 5.63766 5.46175
#
# Compressibility (1/GPa) = 0.02985797
#
# Stress axis : x y z
#
# Youngs Moduli (GPa) = 88.37667 67.81407 60.30282
#
# Poissons Ratio (x) = 0.09448 0.05303
# Poissons Ratio (y) = 0.12313 0.24848
# Poissons Ratio (z) = 0.07772 0.27943
#
# Static dielectric constant tensor:
#      x y z
#    x 1.725180 0.000000 0.000000 
#    y 0.000000 1.700580 0.000000 
#    z 0.000000 0.000000 1.712850 
# 
# From -- ./inp_files/5279.got.cif
#   From: 2010.05.17/outbox.cif.g08.bks.cpg/sg60_3_cif.got.tgz:5279.got - 2010.06.03 14:59:27.
