data_PCOD9453872
_publ_section_title
;
Structure prediction by ZEFSAII (Michael W. Deem and Ramdas Pophale) SiO2 
 PCOD9453872
Probable space group: P B C N
;
_chemical_formula_sum "Si O2"
_cell_formula_units_Z 56
_cell_length_a 19.251768
_cell_length_b 17.055208
_cell_length_c 6.948612
_cell_angle_alpha 90.000000
_cell_angle_beta 90.000000
_cell_angle_gamma 90.000000
_cell_volume 2281.527468
_symmetry_space_group_name_H-M "P B C N"
_symmetry_group_IT_number 60
_symmetry_cell_setting 'orthorhombic'
loop_
_space_group_symop_operation_xyz
x,y,z
1/2-x,1/2-y,1/2+z
1/2+x,1/2-y,-z
-x,y,1/2-z
-x,-y,-z
1/2+x,1/2+y,1/2-z
1/2-x,1/2+y,z
x,-y,1/2+z
loop_
_atom_site_type_symbol
_atom_site_label
_atom_site_fract_x
_atom_site_fract_y
_atom_site_fract_z
Si Si1 0.730540 0.854101 0.363587
Si Si2 0.665664 0.312605 0.865626
Si Si3 0.493596 0.891117 0.976669
Si Si4 0.384182 0.953336 0.249713
Si Si5 0.014199 0.204533 0.029649
Si Si6 0.132958 0.783690 0.091890
Si Si7 0.695917 0.113542 0.286895
O O1 0.701904 0.768717 0.418991
O O2 0.680704 0.895757 0.211652
O O3 0.809847 0.839489 0.311066
O O4 0.720787 0.896956 0.564739
O O5 0.594574 0.320868 0.985478
O O6 0.647843 0.294507 0.638596
O O7 0.727440 0.375456 0.880770
O O8 0.500000 0.905258 0.750000
O O9 0.445481 0.068228 0.900441
O O10 0.421294 0.922465 0.056007
O O11 0.490055 0.799133 0.019491
O O12 0.350438 0.036093 0.192743
O O13 0.000000 0.179438 0.250000
O O14 0.946920 0.187569 0.896448
O O15 0.150526 0.693840 0.163890
#
# Coordination Sequence:
#
# PCOD9453872 Si02
#       7
#     8   8   8   8   8   8   8
#     4  10  20  40  61  88 126 178 231 282 338 416
#     4   9  18  39  64  88 123 172 232 285 337 409
#     4  11  24  44  68  97 141 193 229 274 349 429
#     4  11  23  46  63  97 144 182 229 282 339 429
#     4  10  17  36  66  98 133 172 230 292 342 405
#     4   9  20  36  64  92 124 170 229 286 345 405
#     4  10  23  40  61  88 127 181 228 278 346 416
#
# _framework density 24.54496
#
# number of rings (size 3 to 8) (size 9 to 14) (size 15 to 20)
#    0.000    2.000    2.857    0.857    2.000    2.286 
#    7.714    4.286    0.000    0.857    0.000    0.000 
#    0.000    0.000    0.000    1.286    0.000    0.143 
#
# Total GULP energy -312817.426693 kJ/mol
# GULP energy per Si atom -5586.025477 kJ/mol
# Density = 2.448909 g / cm^3
# Si number density = 24.544960 Si / 1000 Ang^3
#
#
#
# Elastic Constant Matrix: (Units=GPa)
#
#
# Indices 1 2 3 4 5 6 
#
# 1 270.2856 50.8481 56.1250 0.0000 0.0000 0.0000
# 2 50.8481 50.8450 10.7362 0.0000 0.0000 0.0000
# 3 56.1250 10.7362 97.2221 0.0000 0.0000 0.0000
# 4 0.0000 0.0000 0.0000 57.7668 0.0000 0.0000
# 5 0.0000 0.0000 0.0000 0.0000 62.4126 0.0000
# 6 0.0000 0.0000 0.0000 0.0000 0.0000 18.0487
#
#
#
# Elastic Compliance Matrix: (Units=1/GPa)
#
#
# Indices 1 2 3 4 5 6 
#
# 1 0.005057 -0.004547 -0.002417 0.000000 0.000000 0.000000
# 2 -0.004547 0.024226 -0.000050 0.000000 0.000000 0.000000
# 3 -0.002417 -0.000050 0.011687 0.000000 0.000000 0.000000
# 4 0.000000 0.000000 0.000000 0.017311 0.000000 0.000000
# 5 0.000000 0.000000 0.000000 0.000000 0.016022 0.000000
# 6 0.000000 0.000000 0.000000 0.000000 0.000000 0.055406
#
#
# Mechanical properties :
#
#
# Convention : Reuss Voigt Hill
#
# Bulk Modulus (GPa) = 37.11922 72.64125 54.88023
# Shear Modulus (GPa) = 32.74012 47.68851 40.21431
#
# Velocity S-wave (km/s) = 3.65620 4.41262 4.05210
# Velocity P-wave (km/s) = 5.74278 7.45795 6.65585
#
# Compressibility (1/GPa) = 0.02694022
#
# Stress axis : x y z
#
# Youngs Moduli (GPa) = 197.73914 41.27875 85.56692
#
# Poissons Ratio (x) = 0.18770 0.20684
# Poissons Ratio (y) = 0.89913 0.00430
# Poissons Ratio (z) = 0.47800 0.00208
#
# Static dielectric constant tensor:
#      x y z
#    x 2.036020 0.000000 0.000000 
#    y 0.000000 1.915580 0.000000 
#    z 0.000000 0.000000 2.260350 
# 
# From -- ./inp_files/7523.got.cif
#   From: 2010.05.17/outbox.cif.g08.bks.cpg/sg60_4_cif.got.tgz:7523.got - 2010.06.03 14:59:27.
