data_PCOD9453183
_publ_section_title
;
Structure prediction by ZEFSAII (Michael W. Deem and Ramdas Pophale) SiO2 
 PCOD9453183
Probable space group: P M M N
;
_chemical_formula_sum "Si O2"
_cell_formula_units_Z 32
_cell_length_a 14.655888
_cell_length_b 8.498331
_cell_length_c 10.654233
_cell_angle_alpha 90.000000
_cell_angle_beta 90.000000
_cell_angle_gamma 90.000000
_cell_volume 1326.990978
_symmetry_space_group_name_H-M "P M M N"
_symmetry_group_IT_number 59
_space_group.IT_coordinate_system_code '2'
_symmetry_cell_setting 'orthorhombic'
loop_
_space_group_symop_operation_xyz
x,y,z
1/2-x,1/2-y,z
1/2+x,-y,-z
-x,1/2+y,-z
-x,-y,-z
1/2+x,1/2+y,-z
1/2-x,y,z
x,1/2-y,z
loop_
_atom_site_type_symbol
_atom_site_label
_atom_site_fract_x
_atom_site_fract_y
_atom_site_fract_z
Si Si1 0.929456 0.568591 0.400127
Si Si2 0.439911 0.920619 0.161791
Si Si3 0.897143 0.750000 0.922657
Si Si4 0.750000 0.083326 0.682664
Si Si5 0.750000 0.069724 0.307952
Si Si6 0.250000 0.250000 0.302098
Si Si7 0.750000 0.750000 0.138899
O O1 0.905109 0.750000 0.430698
O O2 0.842239 0.458002 0.385844
O O3 0.000000 0.500000 0.500000
O O4 0.983023 0.571906 0.268284
O O5 0.446921 0.750000 0.096979
O O6 0.340817 0.916854 0.231260
O O7 0.444387 0.081702 0.086492
O O8 0.834864 0.750000 0.794726
O O9 0.835782 0.750000 0.046252
O O10 0.750000 0.250000 0.611745
O O11 0.750000 0.911308 0.621318
O O12 0.750000 0.250000 0.255908
O O13 0.750000 0.914556 0.215847
#
# Coordination Sequence:
#
# PCOD9453183 Si02
#       7
#     8   8   4   4   4   2   2
#     4  11  24  45  74 109 148 191 246 304 376 455
#     4   9  19  34  61 100 143 178 232 297 351 422
#     4   9  18  34  65  91 134 180 236 287 345 413
#     4   8  13  26  46  79 121 163 197 262 334 383
#     4  12  27  50  75  98 148 199 240 301 377 446
#     4   7  12  24  42  79 108 153 202 258 318 371
#     4  11  24  48  70 107 142 195 248 304 370 435
#
# _framework density 24.114706999999999
#
# number of rings (size 3 to 8) (size 9 to 14) (size 15 to 20)
#    0.000    2.250    1.250    1.500    3.500    2.000 
#    0.000    5.000    0.000    0.000    0.000    0.000 
#    0.000    0.000    0.000    0.000    0.000    0.000 
#
# Total GULP energy -178930.449506 kJ/mol
# GULP energy per Si atom -5591.576547 kJ/mol
# Density = 2.405982 g / cm^3
# Si number density = 24.114707 Si / 1000 Ang^3
#
#
#
# Elastic Constant Matrix: (Units=GPa)
#
#
# Indices 1 2 3 4 5 6 
#
# 1 125.5058 55.3410 34.6979 0.0000 0.0000 0.0000
# 2 55.3410 323.6343 76.1578 0.0000 0.0000 0.0000
# 3 34.6979 76.1578 66.4820 0.0000 0.0000 0.0000
# 4 0.0000 0.0000 0.0000 40.5910 0.0000 0.0000
# 5 0.0000 0.0000 0.0000 0.0000 173.2210 0.0000
# 6 0.0000 0.0000 0.0000 0.0000 0.0000 47.9787
#
#
#
# Elastic Compliance Matrix: (Units=1/GPa)
#
#
# Indices 1 2 3 4 5 6 
#
# 1 0.009401 -0.000620 -0.004196 0.000000 0.000000 0.000000
# 2 -0.000620 0.004271 -0.004569 0.000000 0.000000 0.000000
# 3 -0.004196 -0.004569 0.022466 0.000000 0.000000 0.000000
# 4 0.000000 0.000000 0.000000 0.024636 0.000000 0.000000
# 5 0.000000 0.000000 0.000000 0.000000 0.005773 0.000000
# 6 0.000000 0.000000 0.000000 0.000000 0.000000 0.020843
#
#
# Mechanical properties :
#
#
# Convention : Reuss Voigt Hill
#
# Bulk Modulus (GPa) = 57.57961 94.22396 75.90179
# Shear Modulus (GPa) = 44.66274 75.65318 60.15796
#
# Velocity S-wave (km/s) = 4.30827 5.60717 5.00007
# Velocity P-wave (km/s) = 6.97692 9.00436 8.05469
#
# Compressibility (1/GPa) = 0.01736726
#
# Stress axis : x y z
#
# Youngs Moduli (GPa) = 106.36792 234.12849 44.51192
#
# Poissons Ratio (x) = 0.14519 0.18679
# Poissons Ratio (y) = 0.06596 0.20338
# Poissons Ratio (z) = 0.44635 1.06976
#
# Static dielectric constant tensor:
#      x y z
#    x 1.877470 0.000000 0.000000 
#    y 0.000000 1.942580 0.000000 
#    z 0.000000 0.000000 1.887490 
# 
# From -- ./inp_files/16521.got.cif
#   From: 2010.05.17/outbox.cif.g08.bks.cpg/sg59_9_cif.got.tgz:16521.got - 2010.06.03 14:40:33.
