data_PCOD9453378
_publ_section_title
;
Structure prediction by ZEFSAII (Michael W. Deem and Ramdas Pophale) SiO2 
 PCOD9453378
Probable space group: P M M N
;
_chemical_formula_sum "Si O2"
_cell_formula_units_Z 64
_cell_length_a 24.000000
_cell_length_b 9.000000
_cell_length_c 15.000000
_cell_angle_alpha 90.000000
_cell_angle_beta 90.000000
_cell_angle_gamma 90.000000
_cell_volume 3240.000000
_symmetry_space_group_name_H-M "P M M N"
_symmetry_group_IT_number 59
_space_group.IT_coordinate_system_code '2'
_symmetry_cell_setting 'orthorhombic'
loop_
_space_group_symop_operation_xyz
x,y,z
1/2-x,1/2-y,z
1/2+x,-y,-z
-x,1/2+y,-z
-x,-y,-z
1/2+x,1/2+y,-z
1/2-x,y,z
x,1/2-y,z
loop_
_atom_site_type_symbol
_atom_site_label
_atom_site_fract_x
_atom_site_fract_y
_atom_site_fract_z
Si Si1 0.499339 0.924939 0.734703
Si Si2 0.377140 0.075803 0.285090
Si Si3 0.344764 0.582206 0.104882
Si Si4 0.316396 0.913765 0.637741
Si Si5 0.612576 0.922631 0.234387
Si Si6 0.812013 0.570858 0.074843
Si Si7 0.183209 0.584124 0.433787
Si Si8 0.975783 0.419037 0.916257
O O1 0.493899 0.750000 0.720757
O O2 0.559012 0.975892 0.695350
O O3 0.440396 0.001740 0.718309
O O4 0.508687 0.972528 0.836417
O O5 0.380241 0.250000 0.264046
O O6 0.347994 0.994814 0.201432
O O7 0.341942 0.039882 0.371578
O O8 0.322609 0.750000 0.111655
O O9 0.409613 0.589744 0.078095
O O10 0.316773 0.492653 0.024774
O O11 0.250000 0.911542 0.636470
O O12 0.335295 0.750000 0.671176
O O13 0.335287 0.929949 0.535869
O O14 0.337412 0.044657 0.698721
O O15 0.600741 0.750000 0.224148
O O16 0.637192 0.980136 0.139299
O O17 0.750000 0.530102 0.110113
O O18 0.814981 0.750000 0.071830
O O19 0.250000 0.577588 0.432109
O O20 0.166830 0.750000 0.401401
O O21 0.996817 0.250000 0.903962
O O22 0.000000 0.500000 0.000000
#
# Coordination Sequence:
#
# PCOD9453378 Si02
#       8
#     8   8   8   8   8   8   8   8
#     4  10  21  36  53  76 108 144 184 228 274 328
#     4  10  21  37  58  83 112 147 184 226 276 327
#     4  10  21  35  52  75 103 138 179 219 261 315
#     4   9  19  37  60  85 113 145 181 224 276 331
#     4  11  22  36  57  83 111 146 187 231 280 331
#     4  10  22  38  53  74 108 145 181 226 277 326
#     4   9  19  37  61  87 113 142 178 222 273 329
#     4  10  19  31  49  73 100 133 175 221 267 314
#
# _framework density 19.753086
#
# number of rings (size 3 to 8) (size 9 to 14) (size 15 to 20)
#    0.000    2.125    0.000    3.750    0.000    8.250 
#    0.000    1.875    0.000    0.000    0.000    0.000 
#    0.000    0.000    0.000    0.000    0.000    0.000 
#
# Total GULP energy -356500.995261 kJ/mol
# GULP energy per Si atom -5570.328051 kJ/mol
# Density = 1.970813 g / cm^3
# Si number density = 19.753086 Si / 1000 Ang^3
#
#
#
# Elastic Constant Matrix: (Units=GPa)
#
#
# Indices 1 2 3 4 5 6 
#
# 1 11.3514 14.9643 29.9086 0.0000 0.0000 0.0000
# 2 14.9643 19.9812 13.1951 0.0000 0.0000 0.0000
# 3 29.9086 13.1951 37.3557 0.0000 0.0000 0.0000
# 4 0.0000 0.0000 0.0000 16.6190 0.0000 0.0000
# 5 0.0000 0.0000 0.0000 0.0000 -6.3298 0.0000
# 6 0.0000 0.0000 0.0000 0.0000 0.0000 25.5930
#
#
#
# Elastic Compliance Matrix: (Units=1/GPa)
#
#
# Indices 1 2 3 4 5 6 
#
# 1 -0.072159 0.020723 0.050454 0.000000 0.000000 0.000000
# 2 0.020723 0.059322 -0.037546 0.000000 0.000000 0.000000
# 3 0.050454 -0.037546 -0.000364 0.000000 0.000000 0.000000
# 4 0.000000 0.000000 0.000000 0.060172 0.000000 0.000000
# 5 0.000000 0.000000 0.000000 0.000000 -0.157982 0.000000
# 6 0.000000 0.000000 0.000000 0.000000 0.000000 0.039073
#
#
# Mechanical properties :
#
#
# Convention : Reuss Voigt Hill
#
# Bulk Modulus (GPa) = 18.49770 20.53602 19.51686
# Shear Modulus (GPa) = -41.26103 7.88444 -16.68830
#
# Velocity S-wave (km/s) = -4.57534 2.00004 -2.90978
# Velocity P-wave (km/s) = 4.30429 3.96894 1.17779
#
# Compressibility (1/GPa) = 0.05406079
#
# Stress axis : x y z
#
# Youngs Moduli (GPa) = -13.85820 16.85718 -2749.53989
#
# Poissons Ratio (x) = -0.34933 138.72551
# Poissons Ratio (y) = 0.28718 -103.23377
# Poissons Ratio (z) = 0.69920 0.63292
#
# Static dielectric constant tensor:
#      x y z
#    x 1.752940 0.000000 0.000000 
#    y 0.000000 1.704480 0.000000 
#    z 0.000000 0.000000 1.644010 
# 
# From -- ./inp_files/24679.got.cif
#   From: 2010.05.17/outbox.ucp.g08.bks.cvg/sg59_13_cif.got.tgz:24679.got - 2010.06.11 16:43:56.
