data_PCOD9453960
_publ_section_title
;
Structure prediction by ZEFSAII (Michael W. Deem and Ramdas Pophale) SiO2 
 PCOD9453960
Probable space group: P B C N
;
_chemical_formula_sum "Si O2"
_cell_formula_units_Z 56
_cell_length_a 17.526700
_cell_length_b 18.763839
_cell_length_c 8.368155
_cell_angle_alpha 90.000000
_cell_angle_beta 90.000000
_cell_angle_gamma 90.000000
_cell_volume 2752.019880
_symmetry_space_group_name_H-M "P B C N"
_symmetry_group_IT_number 60
_symmetry_cell_setting 'orthorhombic'
loop_
_space_group_symop_operation_xyz
x,y,z
1/2-x,1/2-y,1/2+z
1/2+x,1/2-y,-z
-x,y,1/2-z
-x,-y,-z
1/2+x,1/2+y,1/2-z
1/2-x,1/2+y,z
x,-y,1/2+z
loop_
_atom_site_type_symbol
_atom_site_label
_atom_site_fract_x
_atom_site_fract_y
_atom_site_fract_z
Si Si1 0.692787 0.375571 0.091948
Si Si2 0.409924 0.479013 0.224596
Si Si3 0.234556 0.332549 0.085742
Si Si4 0.632351 0.608014 0.095735
Si Si5 0.952943 0.259527 0.090264
Si Si6 0.679355 0.819447 0.907915
Si Si7 0.396349 0.224529 0.412243
O O1 0.633934 0.437492 0.133097
O O2 0.744743 0.371170 0.251550
O O3 0.642979 0.302819 0.087052
O O4 0.754985 0.376275 0.950027
O O5 0.500000 0.478098 0.250000
O O6 0.382232 0.560267 0.248545
O O7 0.393158 0.436922 0.061086
O O8 0.273618 0.254781 0.097487
O O9 0.280382 0.370303 0.940968
O O10 0.146765 0.319706 0.050209
O O11 0.583135 0.680319 0.101473
O O12 0.000000 0.274012 0.250000
O O13 0.015273 0.264902 0.948661
O O14 0.882569 0.310820 0.048911
O O15 0.629732 0.816755 0.747166
#
# Coordination Sequence:
#
# PCOD9453960 Si02
#       7
#     8   8   8   8   8   8   8
#     4   9  18  32  49  69 100 137 177 222 265 316
#     4  11  21  34  50  72 105 146 184 216 252 307
#     4   8  17  32  48  69  97 130 171 218 267 316
#     4  10  22  35  49  73 105 142 184 220 257 311
#     4  11  21  33  50  74 106 138 172 222 278 329
#     4   9  18  31  49  74  98 129 174 222 274 323
#     4  10  18  31  52  73  97 130 171 222 274 326
#
# _framework density 20.348690999999999
#
# number of rings (size 3 to 8) (size 9 to 14) (size 15 to 20)
#    0.000    2.286    0.000    3.857    0.000    5.714 
#    0.000    0.000    0.000    0.000    0.000    1.000 
#    0.000    0.000    0.000    0.429    0.000    0.000 
#
# Total GULP energy -312418.416383 kJ/mol
# GULP energy per Si atom -5578.900293 kJ/mol
# Density = 2.030238 g / cm^3
# Si number density = 20.348691 Si / 1000 Ang^3
#
#
#
# Elastic Constant Matrix: (Units=GPa)
#
#
# Indices 1 2 3 4 5 6 
#
# 1 109.7386 40.4004 21.8377 0.0000 0.0000 0.0000
# 2 40.4004 30.7729 1.8328 0.0000 0.0000 0.0000
# 3 21.8377 1.8328 63.1760 0.0000 0.0000 0.0000
# 4 0.0000 0.0000 0.0000 19.4616 0.0000 0.0000
# 5 0.0000 0.0000 0.0000 0.0000 27.0584 0.0000
# 6 0.0000 0.0000 0.0000 0.0000 0.0000 23.3723
#
#
#
# Elastic Compliance Matrix: (Units=1/GPa)
#
#
# Indices 1 2 3 4 5 6 
#
# 1 0.019719 -0.025527 -0.006076 0.000000 0.000000 0.000000
# 2 -0.025527 0.065597 0.006921 0.000000 0.000000 0.000000
# 3 -0.006076 0.006921 0.017728 0.000000 0.000000 0.000000
# 4 0.000000 0.000000 0.000000 0.051383 0.000000 0.000000
# 5 0.000000 0.000000 0.000000 0.000000 0.036957 0.000000
# 6 0.000000 0.000000 0.000000 0.000000 0.000000 0.042786
#
#
# Mechanical properties :
#
#
# Convention : Reuss Voigt Hill
#
# Bulk Modulus (GPa) = 18.62868 36.86994 27.74931
# Shear Modulus (GPa) = 16.58772 23.28622 19.93697
#
# Velocity S-wave (km/s) = 2.85822 3.38651 3.13352
# Velocity P-wave (km/s) = 4.47964 5.78357 5.17285
#
# Compressibility (1/GPa) = 0.05368066
#
# Stress axis : x y z
#
# Youngs Moduli (GPa) = 50.71168 15.24464 56.40744
#
# Poissons Ratio (x) = 0.38915 0.34271
# Poissons Ratio (y) = 1.29450 -0.39037
# Poissons Ratio (z) = 0.30811 -0.10550
#
# Static dielectric constant tensor:
#      x y z
#    x 1.700810 0.000000 0.000000 
#    y 0.000000 1.700330 0.000000 
#    z 0.000000 0.000000 1.843530 
# 
# From -- ./inp_files/6184.got.cif
#   From: 2010.05.17/outbox.cif.g08.bks.cpg/sg60_4_cif.got.tgz:6184.got - 2010.06.03 14:59:27.
