data_PCOD9453416
_publ_section_title
;
Structure prediction by ZEFSAII (Michael W. Deem and Ramdas Pophale) SiO2 
 PCOD9453416
Probable space group: P M M N
;
_chemical_formula_sum "Si O2"
_cell_formula_units_Z 64
_cell_length_a 9.000000
_cell_length_b 30.000000
_cell_length_c 15.000000
_cell_angle_alpha 90.000000
_cell_angle_beta 90.000000
_cell_angle_gamma 90.000000
_cell_volume 4050.000000
_symmetry_space_group_name_H-M "P M M N"
_symmetry_group_IT_number 59
_space_group.IT_coordinate_system_code '2'
_symmetry_cell_setting 'orthorhombic'
loop_
_space_group_symop_operation_xyz
x,y,z
1/2-x,1/2-y,z
1/2+x,-y,-z
-x,1/2+y,-z
-x,-y,-z
1/2+x,1/2+y,-z
1/2-x,y,z
x,1/2-y,z
loop_
_atom_site_type_symbol
_atom_site_label
_atom_site_fract_x
_atom_site_fract_y
_atom_site_fract_z
Si Si1 0.072327 0.452139 0.898172
Si Si2 0.074065 0.801422 0.325750
Si Si3 0.428869 0.198705 0.004000
Si Si4 0.422589 0.698349 0.680698
Si Si5 0.426317 0.044936 0.110637
Si Si6 0.428469 0.355664 0.828483
Si Si7 0.584143 0.696128 0.504396
Si Si8 0.923700 0.135365 0.149552
O O1 0.250000 0.456745 0.886781
O O2 0.023552 0.405777 0.853627
O O3 0.993203 0.496884 0.864624
O O4 0.044267 0.448753 0.004446
O O5 0.250000 0.801842 0.315767
O O6 0.022116 0.750000 0.309964
O O7 0.999352 0.835582 0.259042
O O8 0.026881 0.814569 0.425144
O O9 0.250000 0.197819 0.013452
O O10 0.478349 0.250000 0.014766
O O11 0.498874 0.164787 0.073711
O O12 0.466101 0.178726 0.907610
O O13 0.250000 0.698612 0.651748
O O14 0.459445 0.750000 0.704820
O O15 0.524150 0.682423 0.600009
O O16 0.437472 0.665306 0.762611
O O17 0.250000 0.045280 0.123852
O O18 0.500877 0.087222 0.157300
O O19 0.250000 0.356489 0.821002
O O20 0.750000 0.679822 0.485717
O O21 0.588677 0.750000 0.508175
O O22 0.750000 0.129358 0.128738
#
# Coordination Sequence:
#
# PCOD9453416 Si02
#       8
#     8   8   8   8   8   8   8   8
#     4   9  18  33  51  70  93 122 160 204 250 291
#     4  10  20  32  47  70 100 131 163 200 240 284
#     4  10  20  33  47  65  95 133 168 201 238 280
#     4   9  18  32  48  68  97 130 162 199 241 283
#     4  10  19  33  51  70  94 123 161 205 249 290
#     4  10  19  33  50  69  95 128 164 201 241 287
#     4   9  17  30  49  71  93 122 161 202 243 285
#     4  11  21  32  48  70  98 131 166 200 240 289
#
# _framework density 15.802469
#
# number of rings (size 3 to 8) (size 9 to 14) (size 15 to 20)
#    0.000    2.250    1.250    2.250    0.000    6.000 
#    0.000    1.250    0.000    0.000    0.000    0.875 
#    0.000    0.000    0.000    0.000    0.000    0.000 
#
# Total GULP energy -356764.916938 kJ/mol
# GULP energy per Si atom -5574.451827 kJ/mol
# Density = 1.576650 g / cm^3
# Si number density = 15.802469 Si / 1000 Ang^3
#
#
#
# Elastic Constant Matrix: (Units=GPa)
#
#
# Indices 1 2 3 4 5 6 
#
# 1 3.2760 25.6465 12.5052 0.0000 0.0000 0.0000
# 2 25.6465 75.9080 4.6593 0.0000 0.0000 0.0000
# 3 12.5052 4.6593 21.2975 0.0000 0.0000 0.0000
# 4 0.0000 0.0000 0.0000 -80.2257 0.0000 0.0000
# 5 0.0000 0.0000 0.0000 0.0000 21.8214 0.0000
# 6 0.0000 0.0000 0.0000 0.0000 0.0000 26.2544
#
#
#
# Elastic Compliance Matrix: (Units=1/GPa)
#
#
# Indices 1 2 3 4 5 6 
#
# 1 -0.090288 0.027622 0.046971 0.000000 0.000000 0.000000
# 2 0.027622 0.004903 -0.017291 0.000000 0.000000 0.000000
# 3 0.046971 -0.017291 0.023157 0.000000 0.000000 0.000000
# 4 0.000000 0.000000 0.000000 -0.012465 0.000000 0.000000
# 5 0.000000 0.000000 0.000000 0.000000 0.045827 0.000000
# 6 0.000000 0.000000 0.000000 0.000000 0.000000 0.038089
#
#
# Mechanical properties :
#
#
# Convention : Reuss Voigt Hill
#
# Bulk Modulus (GPa) = 19.09305 20.67816 19.88561
# Shear Modulus (GPa) = -56.86873 -2.58528 -29.72700
#
# Velocity S-wave (km/s) = -6.00544 -1.28045 -4.34194
# Velocity P-wave (km/s) = 5.99822 3.30571 3.53913
#
# Compressibility (1/GPa) = 0.05237507
#
# Stress axis : x y z
#
# Youngs Moduli (GPa) = -11.07571 203.96324 43.18352
#
# Poissons Ratio (x) = -5.63381 -2.02837
# Poissons Ratio (y) = 0.30593 0.74669
# Poissons Ratio (z) = 0.52024 3.52675
#
# Static dielectric constant tensor:
#      x y z
#    x 1.538540 0.000000 0.000000 
#    y 0.000000 1.507600 0.000000 
#    z 0.000000 0.000000 1.520070 
# 
# From -- ./inp_files/21862.got.cif
#   From: 2010.05.17/outbox.ucp.g08.bks.cvg/sg59_11_cif.got.tgz:21862.got - 2010.06.11 16:43:56.
