data_PCOD9453488
_publ_section_title
;
Structure prediction by ZEFSAII (Michael W. Deem and Ramdas Pophale) SiO2 
 PCOD9453488
Probable space group: P M M N
;
_chemical_formula_sum "Si O2"
_cell_formula_units_Z 64
_cell_length_a 21.000000
_cell_length_b 9.000000
_cell_length_c 18.000000
_cell_angle_alpha 90.000000
_cell_angle_beta 90.000000
_cell_angle_gamma 90.000000
_cell_volume 3402.000000
_symmetry_space_group_name_H-M "P M M N"
_symmetry_group_IT_number 59
_space_group.IT_coordinate_system_code '2'
_symmetry_cell_setting 'orthorhombic'
loop_
_space_group_symop_operation_xyz
x,y,z
1/2-x,1/2-y,z
1/2+x,-y,-z
-x,1/2+y,-z
-x,-y,-z
1/2+x,1/2+y,-z
1/2-x,y,z
x,1/2-y,z
loop_
_atom_site_type_symbol
_atom_site_label
_atom_site_fract_x
_atom_site_fract_y
_atom_site_fract_z
Si Si1 0.574038 0.074593 0.364979
Si Si2 0.680433 0.920041 0.631200
Si Si3 0.434282 0.074815 0.027537
Si Si4 0.820787 0.073112 0.061413
Si Si5 0.180883 0.079570 0.546998
Si Si6 0.601702 0.425804 0.197483
Si Si7 0.052981 0.583307 0.335415
Si Si8 0.025220 0.918296 0.160928
O O1 0.571687 0.250000 0.368589
O O2 0.601904 0.031598 0.283620
O O3 0.621757 0.011724 0.424939
O O4 0.503068 0.012403 0.371226
O O5 0.750000 0.970879 0.657346
O O6 0.670721 0.750000 0.656190
O O7 0.681716 0.917939 0.541853
O O8 0.622412 0.020506 0.653113
O O9 0.438531 0.250000 0.020024
O O10 0.430626 0.024852 0.113174
O O11 0.500000 0.000000 0.000000
O O12 0.374390 0.010342 0.984306
O O13 0.750000 0.023697 0.042837
O O14 0.826219 0.250000 0.047282
O O15 0.835598 0.052136 0.148964
O O16 0.250000 0.020963 0.572388
O O17 0.174965 0.250000 0.572701
O O18 0.585051 0.250000 0.193594
O O19 0.546212 0.519057 0.158543
O O20 0.047437 0.750000 0.363934
O O21 0.041545 0.581795 0.247311
O O22 0.028968 0.750000 0.132496
#
# Coordination Sequence:
#
# PCOD9453488 Si02
#       8
#     8   8   8   8   8   8   8   8
#     4  10  20  33  53  82 113 145 184 226 269 321
#     4   9  19  37  59  80 105 141 185 230 279 334
#     4  12  23  36  58  84 109 142 186 229 270 323
#     4  10  21  37  56  80 112 147 183 226 276 326
#     4   9  19  36  55  76 106 145 186 228 276 330
#     4   9  18  33  53  77 107 143 180 219 267 322
#     4  10  21  36  56  83 113 142 178 225 276 330
#     4  10  20  35  56  82 109 139 178 223 271 325
#
# _framework density 18.812463000000001
#
# number of rings (size 3 to 8) (size 9 to 14) (size 15 to 20)
#    0.000    2.125    1.250    3.000    0.000    4.250 
#    0.000    3.125    0.000    0.750    0.000    0.000 
#    0.000    0.000    0.000    0.000    0.000    0.000 
#
# Total GULP energy -356758.928248 kJ/mol
# GULP energy per Si atom -5574.358254 kJ/mol
# Density = 1.876965 g / cm^3
# Si number density = 18.812463 Si / 1000 Ang^3
#
#
#
# Elastic Constant Matrix: (Units=GPa)
#
#
# Indices 1 2 3 4 5 6 
#
# 1 91.0974 47.6100 22.3268 0.0000 0.0000 0.0000
# 2 47.6100 47.5184 19.4887 0.0000 0.0000 0.0000
# 3 22.3268 19.4887 3.7679 0.0000 0.0000 0.0000
# 4 0.0000 0.0000 0.0000 16.0694 0.0000 0.0000
# 5 0.0000 0.0000 0.0000 0.0000 49.9125 0.0000
# 6 0.0000 0.0000 0.0000 0.0000 0.0000 27.2486
#
#
#
# Elastic Compliance Matrix: (Units=1/GPa)
#
#
# Indices 1 2 3 4 5 6 
#
# 1 0.022098 -0.028149 0.014648 0.000000 0.000000 0.000000
# 2 -0.028149 0.017087 0.078414 0.000000 0.000000 0.000000
# 3 0.014648 0.078414 -0.226978 0.000000 0.000000 0.000000
# 4 0.000000 0.000000 0.000000 0.062230 0.000000 0.000000
# 5 0.000000 0.000000 0.000000 0.000000 0.020035 0.000000
# 6 0.000000 0.000000 0.000000 0.000000 0.000000 0.036699
#
#
# Mechanical properties :
#
#
# Convention : Reuss Voigt Hill
#
# Bulk Modulus (GPa) = -17.25178 35.69276 9.22049
# Shear Modulus (GPa) = -22.93813 22.17664 -0.38074
#
# Velocity S-wave (km/s) = -3.49564 3.43713 -0.45036
# Velocity P-wave (km/s) = 5.04807 5.89626 2.15441
#
# Compressibility (1/GPa) = -0.05796502
#
# Stress axis : x y z
#
# Youngs Moduli (GPa) = 45.25207 58.52359 -4.40571
#
# Poissons Ratio (x) = 1.64736 0.06453
# Poissons Ratio (y) = 1.27378 0.34547
# Poissons Ratio (z) = -0.66285 -4.58909
#
# Static dielectric constant tensor:
#      x y z
#    x 1.632160 0.000000 0.000000 
#    y 0.000000 1.645680 0.000000 
#    z 0.000000 0.000000 1.699080 
# 
# From -- ./inp_files/28251.got.cif
#   From: 2010.05.17/outbox.ucp.g08.bks.cvg/sg59_15_cif.got.tgz:28251.got - 2010.06.11 16:43:56.
