data_PCOD9453992
_publ_section_title
;
Structure prediction by ZEFSAII (Michael W. Deem and Ramdas Pophale) SiO2 
 PCOD9453992
Probable space group: P B C N
;
_chemical_formula_sum "Si O2"
_cell_formula_units_Z 48
_cell_length_a 4.965445
_cell_length_b 20.019469
_cell_length_c 26.213530
_cell_angle_alpha 90.000000
_cell_angle_beta 90.000000
_cell_angle_gamma 90.000000
_cell_volume 2605.770950
_symmetry_space_group_name_H-M "P B C N"
_symmetry_group_IT_number 60
_symmetry_cell_setting 'orthorhombic'
loop_
_space_group_symop_operation_xyz
x,y,z
1/2-x,1/2-y,1/2+z
1/2+x,1/2-y,-z
-x,y,1/2-z
-x,-y,-z
1/2+x,1/2+y,1/2-z
1/2-x,1/2+y,z
x,-y,1/2+z
loop_
_atom_site_type_symbol
_atom_site_label
_atom_site_fract_x
_atom_site_fract_y
_atom_site_fract_z
Si Si1 0.017984 0.402240 0.640167
Si Si2 0.361245 0.231371 0.533293
Si Si3 0.981107 0.807289 0.636514
Si Si4 0.773551 0.002200 0.061994
Si Si5 0.500000 0.699947 0.250000
Si Si6 0.000000 0.601086 0.250000
Si Si7 0.751860 0.578203 0.961500
O O1 0.817717 0.338350 0.636067
O O2 0.893816 0.455899 0.602616
O O3 0.008039 0.434987 0.696353
O O4 0.313674 0.370750 0.633369
O O5 0.617482 0.229876 0.494981
O O6 0.455436 0.264002 0.586572
O O7 0.251969 0.157072 0.543663
O O8 0.014980 0.770311 0.692105
O O9 0.557088 0.947852 0.042629
O O10 0.046254 0.962308 0.075036
O O11 0.843660 0.055581 0.017796
O O12 0.249301 0.650741 0.251694
#
# Coordination Sequence:
#
# PCOD9453992 Si02
#       7
#     8   8   8   8   4   4   8
#     4  10  18  32  53  78 101 131 166 209 263 299
#     4  12  23  35  52  76 107 136 169 215 260 309
#     4  10  19  32  52  77 104 131 168 213 260 308
#     4  10  19  33  50  67  98 133 166 205 245 306
#     4   8  16  30  48  73 100 129 162 204 252 296
#     4   8  16  28  48  77 102 119 160 212 248 294
#     4  10  21  33  47  71  97 132 172 202 246 302
#
# _framework density 18.420652
#
# number of rings (size 3 to 8) (size 9 to 14) (size 15 to 20)
#    0.000    2.000    0.000    5.000    0.000    2.667 
#    0.000    0.000    0.000    1.000    0.000    2.333 
#    0.000    0.000    0.000    0.000    0.000    0.000 
#
# Total GULP energy -267275.190649 kJ/mol
# GULP energy per Si atom -5568.233139 kJ/mol
# Density = 1.837873 g / cm^3
# Si number density = 18.420652 Si / 1000 Ang^3
#
#
#
# Elastic Constant Matrix: (Units=GPa)
#
#
# Indices 1 2 3 4 5 6 
#
# 1 85.6297 -11.0456 -9.4276 0.0000 0.0000 0.0000
# 2 -11.0456 50.0814 20.9848 0.0000 0.0000 0.0000
# 3 -9.4276 20.9848 106.0666 0.0000 0.0000 0.0000
# 4 0.0000 0.0000 0.0000 16.8346 0.0000 0.0000
# 5 0.0000 0.0000 0.0000 0.0000 18.9955 0.0000
# 6 0.0000 0.0000 0.0000 0.0000 0.0000 18.6358
#
#
#
# Elastic Compliance Matrix: (Units=1/GPa)
#
#
# Indices 1 2 3 4 5 6 
#
# 1 0.012054 0.002409 0.000595 0.000000 0.000000 0.000000
# 2 0.002409 0.022254 -0.004189 0.000000 0.000000 0.000000
# 3 0.000595 -0.004189 0.010310 0.000000 0.000000 0.000000
# 4 0.000000 0.000000 0.000000 0.059401 0.000000 0.000000
# 5 0.000000 0.000000 0.000000 0.000000 0.052644 0.000000
# 6 0.000000 0.000000 0.000000 0.000000 0.000000 0.053660
#
#
# Mechanical properties :
#
#
# Convention : Reuss Voigt Hill
#
# Bulk Modulus (GPa) = 23.66913 26.97785 25.32349
# Shear Modulus (GPa) = 22.04821 26.97760 24.51290
#
# Velocity S-wave (km/s) = 3.46342 3.83107 3.65187
# Velocity P-wave (km/s) = 5.37316 5.85207 5.61772
#
# Compressibility (1/GPa) = 0.04224913
#
# Stress axis : x y z
#
# Youngs Moduli (GPa) = 82.95680 44.93569 96.99681
#
# Poissons Ratio (x) = -0.10827 -0.05769
# Poissons Ratio (y) = -0.19988 0.40629
# Poissons Ratio (z) = -0.04934 0.18822
#
# Static dielectric constant tensor:
#      x y z
#    x 1.656320 0.000000 0.000000 
#    y 0.000000 1.610190 0.000000 
#    z 0.000000 0.000000 1.743610 
# 
# From -- ./inp_files/23643.got.cif
#   From: 2010.05.17/outbox.cif.g08.bks.cpg/sg60_12_cif.got.tgz:23643.got - 2010.06.03 14:59:27.
