data_PCOD9453977
_publ_section_title
;
Structure prediction by ZEFSAII (Michael W. Deem and Ramdas Pophale) SiO2 
 PCOD9453977
Probable space group: P B C N
;
_chemical_formula_sum "Si O2"
_cell_formula_units_Z 56
_cell_length_a 28.848013
_cell_length_b 5.437994
_cell_length_c 14.572903
_cell_angle_alpha 90.000000
_cell_angle_beta 90.000000
_cell_angle_gamma 90.000000
_cell_volume 2286.128845
_symmetry_space_group_name_H-M "P B C N"
_symmetry_group_IT_number 60
_symmetry_cell_setting 'orthorhombic'
loop_
_space_group_symop_operation_xyz
x,y,z
1/2-x,1/2-y,1/2+z
1/2+x,1/2-y,-z
-x,y,1/2-z
-x,-y,-z
1/2+x,1/2+y,1/2-z
1/2-x,1/2+y,z
x,-y,1/2+z
loop_
_atom_site_type_symbol
_atom_site_label
_atom_site_fract_x
_atom_site_fract_y
_atom_site_fract_z
Si Si1 0.381561 0.625079 0.541197
Si Si2 0.456165 0.276214 0.466306
Si Si3 0.410196 0.042097 0.303102
Si Si4 0.239912 0.797869 0.746231
Si Si5 0.459039 0.921223 0.620937
Si Si6 0.365346 0.547617 0.238348
Si Si7 0.274420 0.253150 0.035085
O O1 0.418435 0.491850 0.474969
O O2 0.407917 0.858395 0.582599
O O3 0.378581 0.450378 0.631034
O O4 0.328728 0.692270 0.514684
O O5 0.429399 0.076056 0.404341
O O6 0.504599 0.290494 0.409949
O O7 0.471238 0.165301 0.564357
O O8 0.451343 0.057190 0.228369
O O9 0.378379 0.280685 0.279469
O O10 0.388346 0.776524 0.289113
O O11 0.235458 0.531149 0.791612
O O12 0.188475 0.899028 0.739553
O O13 0.264265 0.763898 0.645963
O O14 0.244498 0.488469 0.002646
#
# Coordination Sequence:
#
# PCOD9453977 Si02
#       7
#     8   8   8   8   8   8   8
#     4  11  22  39  69  99 137 175 234 279 349 416
#     4  11  24  44  67 101 140 184 233 293 353 415
#     4  11  25  43  67  99 137 181 229 288 346 417
#     4  10  18  31  59  96 125 162 225 273 328 399
#     4  10  24  43  70  99 136 185 236 288 352 428
#     4  11  22  39  64  99 132 174 228 273 344 416
#     4  10  21  33  62 101 129 168 226 278 333 403
#
# _framework density 24.495557000000002
#
# number of rings (size 3 to 8) (size 9 to 14) (size 15 to 20)
#    0.000    1.429    4.286    1.714   10.000    0.000 
#    0.000    1.429    0.000    5.143    0.000    0.000 
#    0.000    0.000    0.000    0.000    0.000    0.000 
#
# Total GULP energy -312572.090307 kJ/mol
# GULP energy per Si atom -5581.644470 kJ/mol
# Density = 2.443980 g / cm^3
# Si number density = 24.495557 Si / 1000 Ang^3
#
#
#
# Elastic Constant Matrix: (Units=GPa)
#
#
# Indices 1 2 3 4 5 6 
#
# 1 117.7282 26.1213 -2.9824 0.0000 0.0000 0.0000
# 2 26.1213 163.7037 11.5531 0.0000 0.0000 0.0000
# 3 -2.9824 11.5531 61.4469 0.0000 0.0000 0.0000
# 4 0.0000 0.0000 0.0000 14.8802 0.0000 0.0000
# 5 0.0000 0.0000 0.0000 0.0000 7.1754 0.0000
# 6 0.0000 0.0000 0.0000 0.0000 0.0000 14.9210
#
#
#
# Elastic Compliance Matrix: (Units=1/GPa)
#
#
# Indices 1 2 3 4 5 6 
#
# 1 0.008836 -0.001460 0.000703 0.000000 0.000000 0.000000
# 2 -0.001460 0.006432 -0.001280 0.000000 0.000000 0.000000
# 3 0.000703 -0.001280 0.016549 0.000000 0.000000 0.000000
# 4 0.000000 0.000000 0.000000 0.067204 0.000000 0.000000
# 5 0.000000 0.000000 0.000000 0.000000 0.139364 0.000000
# 6 0.000000 0.000000 0.000000 0.000000 0.000000 0.067020
#
#
# Mechanical properties :
#
#
# Convention : Reuss Voigt Hill
#
# Bulk Modulus (GPa) = 36.04397 45.80699 40.92548
# Shear Modulus (GPa) = 15.68750 27.94110 21.81430
#
# Velocity S-wave (km/s) = 2.53340 3.38103 2.98743
# Velocity P-wave (km/s) = 4.82742 5.82945 5.35194
#
# Compressibility (1/GPa) = 0.02774389
#
# Stress axis : x y z
#
# Youngs Moduli (GPa) = 113.17604 155.47683 60.42650
#
# Poissons Ratio (x) = 0.22692 -0.04250
# Poissons Ratio (y) = 0.16518 0.07735
# Poissons Ratio (z) = -0.07959 0.19903
#
# Static dielectric constant tensor:
#      x y z
#    x 1.452290 0.000000 0.000000 
#    y 0.000000 2.111510 0.000000 
#    z 0.000000 0.000000 1.928510 
# 
# From -- ./inp_files/18164.got.cif
#   From: 2010.05.17/outbox.cif.g08.bks.cpg/sg60_10_cif.got.tgz:18164.got - 2010.06.03 14:59:27.
