data_PCOD9453459
_publ_section_title
;
Structure prediction by ZEFSAII (Michael W. Deem and Ramdas Pophale) SiO2 
 PCOD9453459
Probable space group: P M M N
;
_chemical_formula_sum "Si O2"
_cell_formula_units_Z 64
_cell_length_a 30.000000
_cell_length_b 9.000000
_cell_length_c 15.000000
_cell_angle_alpha 90.000000
_cell_angle_beta 90.000000
_cell_angle_gamma 90.000000
_cell_volume 4050.000000
_symmetry_space_group_name_H-M "P M M N"
_symmetry_group_IT_number 59
_space_group.IT_coordinate_system_code '2'
_symmetry_cell_setting 'orthorhombic'
loop_
_space_group_symop_operation_xyz
x,y,z
1/2-x,1/2-y,z
1/2+x,-y,-z
-x,1/2+y,-z
-x,-y,-z
1/2+x,1/2+y,-z
1/2-x,y,z
x,1/2-y,z
loop_
_atom_site_type_symbol
_atom_site_label
_atom_site_fract_x
_atom_site_fract_y
_atom_site_fract_z
Si Si1 0.700460 0.427644 0.845042
Si Si2 0.961895 0.072582 0.063574
Si Si3 0.064557 0.079180 0.248645
Si Si4 0.113802 0.077707 0.437791
Si Si5 0.699080 0.571785 0.654621
Si Si6 0.109860 0.926067 0.082124
Si Si7 0.527357 0.926046 0.256194
Si Si8 0.041304 0.927159 0.555141
O O1 0.750000 0.480099 0.869085
O O2 0.701765 0.250000 0.833560
O O3 0.688442 0.497406 0.749473
O O4 0.662278 0.459281 0.916415
O O5 0.970189 0.250000 0.071406
O O6 0.959659 0.998072 0.160883
O O7 0.916166 0.049947 0.009221
O O8 0.000000 0.000000 0.000000
O O9 0.048280 0.250000 0.238879
O O10 0.093960 0.075560 0.337516
O O11 0.089271 0.027242 0.159748
O O12 0.024983 0.963372 0.262073
O O13 0.110901 0.250000 0.468807
O O14 0.164657 0.030454 0.422438
O O15 0.084952 0.972672 0.499887
O O16 0.750000 0.534269 0.633174
O O17 0.695432 0.750000 0.666070
O O18 0.103840 0.750000 0.105122
O O19 0.535796 0.750000 0.256906
O O20 0.545506 0.004636 0.345625
O O21 0.034437 0.750000 0.559936
O O22 0.000000 0.000000 0.500000
#
# Coordination Sequence:
#
# PCOD9453459 Si02
#       8
#     8   8   8   8   8   8   8   8
#     4   9  17  29  46  70 100 132 166 204 246 294
#     4  11  22  35  51  73 101 134 173 212 250 299
#     4  11  20  30  49  73 102 136 171 209 246 292
#     4  10  20  33  49  74 104 137 173 207 246 296
#     4   9  17  30  48  71 101 135 168 203 245 293
#     4  10  20  32  48  71 101 136 172 206 248 296
#     4  12  24  38  53  71  99 134 171 215 256 298
#     4  12  24  37  54  75 100 133 170 210 253 302
#
# _framework density 15.802469
#
# number of rings (size 3 to 8) (size 9 to 14) (size 15 to 20)
#    0.000    1.500    3.750    3.000    0.000    1.500 
#    0.000    0.000    0.000    0.000    0.000    0.875 
#    0.000    3.000    0.000    0.000    0.000    0.000 
#
# Total GULP energy -356898.105238 kJ/mol
# GULP energy per Si atom -5576.532894 kJ/mol
# Density = 1.576650 g / cm^3
# Si number density = 15.802469 Si / 1000 Ang^3
#
#
#
# Elastic Constant Matrix: (Units=GPa)
#
#
# Indices 1 2 3 4 5 6 
#
# 1 92.4343 31.3090 44.2863 0.0000 0.0000 0.0000
# 2 31.3090 89.7275 52.0761 0.0000 0.0000 0.0000
# 3 44.2863 52.0761 107.5463 0.0000 0.0000 0.0000
# 4 0.0000 0.0000 0.0000 25.0917 0.0000 0.0000
# 5 0.0000 0.0000 0.0000 0.0000 20.1743 0.0000
# 6 0.0000 0.0000 0.0000 0.0000 0.0000 15.3917
#
#
#
# Elastic Compliance Matrix: (Units=1/GPa)
#
#
# Indices 1 2 3 4 5 6 
#
# 1 0.013757 -0.002104 -0.004646 0.000000 0.000000 0.000000
# 2 -0.002104 0.015823 -0.006795 0.000000 0.000000 0.000000
# 3 -0.004646 -0.006795 0.014502 0.000000 0.000000 0.000000
# 4 0.000000 0.000000 0.000000 0.039854 0.000000 0.000000
# 5 0.000000 0.000000 0.000000 0.000000 0.049568 0.000000
# 6 0.000000 0.000000 0.000000 0.000000 0.000000 0.064970
#
#
# Mechanical properties :
#
#
# Convention : Reuss Voigt Hill
#
# Bulk Modulus (GPa) = 58.85435 60.56121 59.70778
# Shear Modulus (GPa) = 21.62357 22.93398 22.27878
#
# Velocity S-wave (km/s) = 3.70316 3.81371 3.75884
# Velocity P-wave (km/s) = 7.45715 7.60261 7.53023
#
# Compressibility (1/GPa) = 0.01699110
#
# Stress axis : x y z
#
# Youngs Moduli (GPa) = 72.68930 63.19963 68.95514
#
# Poissons Ratio (x) = 0.13295 0.32039
# Poissons Ratio (y) = 0.15291 0.46858
# Poissons Ratio (z) = 0.33774 0.42947
#
# Static dielectric constant tensor:
#      x y z
#    x 1.579880 0.000000 0.000000 
#    y 0.000000 1.533260 0.000000 
#    z 0.000000 0.000000 1.549130 
# 
# From -- ./inp_files/25084.got.cif
#   From: 2010.05.17/outbox.ucp.g08.bks.cvg/sg59_13_cif.got.tgz:25084.got - 2010.06.11 16:43:56.
