data_PCOD9453850
_publ_section_title
;
Structure prediction by ZEFSAII (Michael W. Deem and Ramdas Pophale) SiO2 
 PCOD9453850
Probable space group: P B C N
;
_chemical_formula_sum "Si O2"
_cell_formula_units_Z 64
_cell_length_a 18.772099
_cell_length_b 9.237553
_cell_length_c 20.324688
_cell_angle_alpha 90.000000
_cell_angle_beta 90.000000
_cell_angle_gamma 90.000000
_cell_volume 3524.468770
_symmetry_space_group_name_H-M "P B C N"
_symmetry_group_IT_number 60
_symmetry_cell_setting 'orthorhombic'
loop_
_space_group_symop_operation_xyz
x,y,z
1/2-x,1/2-y,1/2+z
1/2+x,1/2-y,-z
-x,y,1/2-z
-x,-y,-z
1/2+x,1/2+y,1/2-z
1/2-x,1/2+y,z
x,-y,1/2+z
loop_
_atom_site_type_symbol
_atom_site_label
_atom_site_fract_x
_atom_site_fract_y
_atom_site_fract_z
Si Si1 0.858939 0.356731 0.075627
Si Si2 0.801288 0.427150 0.471686
Si Si3 0.873973 0.162668 0.538647
Si Si4 0.116518 0.371413 0.631005
Si Si5 0.674238 0.848881 0.726023
Si Si6 0.234019 0.093031 0.842115
Si Si7 0.635325 0.614734 0.966695
Si Si8 0.451679 0.899396 0.874838
O O1 0.805224 0.321077 0.134147
O O2 0.928811 0.445029 0.095464
O O3 0.813333 0.477923 0.036811
O O4 0.871619 0.224069 0.028188
O O5 0.827374 0.267997 0.491929
O O6 0.848725 0.510279 0.418017
O O7 0.718384 0.423513 0.455927
O O8 0.823254 0.098041 0.597331
O O9 0.931089 0.270097 0.573599
O O10 0.901178 0.032967 0.492057
O O11 0.161159 0.377300 0.697841
O O12 0.115727 0.213502 0.595705
O O13 0.033749 0.402759 0.642857
O O14 0.696721 0.684124 0.714835
O O15 0.600874 0.875498 0.686469
O O16 0.732874 0.947868 0.688715
#
# Coordination Sequence:
#
# PCOD9453850 Si02
#       8
#     8   8   8   8   8   8   8   8
#     4   9  17  32  60  82 108 138 188 232 273 327
#     4  10  19  33  55  83 116 143 175 230 283 336
#     4  10  18  33  60  84 110 138 187 238 278 320
#     4  11  24  37  52  79 122 154 177 215 280 354
#     4  10  22  36  59  79 111 147 191 233 260 326
#     4  10  17  34  57  84 101 138 192 239 267 304
#     4  11  19  32  56  86 115 139 175 236 289 323
#     4   9  21  39  57  79 107 156 192 221 265 327
#
# _framework density 18.158764999999999
#
# number of rings (size 3 to 8) (size 9 to 14) (size 15 to 20)
#    0.000    2.000    2.500    2.625    1.750    5.000 
#    0.000    0.000    0.000    0.000    0.000    8.750 
#    0.000    0.000    0.000    0.000    0.000    0.000 
#
# Total GULP energy -356512.865361 kJ/mol
# GULP energy per Si atom -5570.513521 kJ/mol
# Density = 1.811743 g / cm^3
# Si number density = 18.158765 Si / 1000 Ang^3
#
#
#
# Elastic Constant Matrix: (Units=GPa)
#
#
# Indices 1 2 3 4 5 6 
#
# 1 51.9226 24.5934 24.1048 0.0000 0.0000 0.0000
# 2 24.5934 76.7282 33.9648 0.0000 0.0000 0.0000
# 3 24.1048 33.9648 66.8471 0.0000 0.0000 0.0000
# 4 0.0000 0.0000 0.0000 15.4381 0.0000 0.0000
# 5 0.0000 0.0000 0.0000 0.0000 11.5490 0.0000
# 6 0.0000 0.0000 0.0000 0.0000 0.0000 13.6257
#
#
#
# Elastic Compliance Matrix: (Units=1/GPa)
#
#
# Indices 1 2 3 4 5 6 
#
# 1 0.024590 -0.005105 -0.006273 0.000000 0.000000 0.000000
# 2 -0.005105 0.017875 -0.007241 0.000000 0.000000 0.000000
# 3 -0.006273 -0.007241 0.020901 0.000000 0.000000 0.000000
# 4 0.000000 0.000000 0.000000 0.064775 0.000000 0.000000
# 5 0.000000 0.000000 0.000000 0.000000 0.086588 0.000000
# 6 0.000000 0.000000 0.000000 0.000000 0.000000 0.073391
#
#
# Mechanical properties :
#
#
# Convention : Reuss Voigt Hill
#
# Bulk Modulus (GPa) = 38.27505 40.09155 39.18330
# Shear Modulus (GPa) = 14.96713 15.64490 15.30601
#
# Velocity S-wave (km/s) = 2.87407 2.93842 2.90642
# Velocity P-wave (km/s) = 5.66899 5.79989 5.73481
#
# Compressibility (1/GPa) = 0.02612668
#
# Stress axis : x y z
#
# Youngs Moduli (GPa) = 40.66754 55.94505 47.84480
#
# Poissons Ratio (x) = 0.28558 0.30014
# Poissons Ratio (y) = 0.20759 0.34646
# Poissons Ratio (z) = 0.25512 0.40512
#
# Static dielectric constant tensor:
#      x y z
#    x 1.623650 0.000000 0.000000 
#    y 0.000000 1.643450 0.000000 
#    z 0.000000 0.000000 1.645430 
# 
# From -- ./inp_files/23086.got.cif
#   From: 2010.05.17/outbox.cif.g08.bks.cpg/sg60_12_cif.got.tgz:23086.got - 2010.06.03 14:59:27.
