data_PCOD9453571
_publ_section_title
;
Structure prediction by ZEFSAII (Michael W. Deem and Ramdas Pophale) SiO2 
 PCOD9453571
Probable space group: P M M N
;
_chemical_formula_sum "Si O2"
_cell_formula_units_Z 56
_cell_length_a 15.000000
_cell_length_b 15.000000
_cell_length_c 12.000000
_cell_angle_alpha 90.000000
_cell_angle_beta 90.000000
_cell_angle_gamma 90.000000
_cell_volume 2700.000000
_symmetry_space_group_name_H-M "P M M N"
_symmetry_group_IT_number 59
_space_group.IT_coordinate_system_code '2'
_symmetry_cell_setting 'orthorhombic'
loop_
_space_group_symop_operation_xyz
x,y,z
1/2-x,1/2-y,z
1/2+x,-y,-z
-x,1/2+y,-z
-x,-y,-z
1/2+x,1/2+y,-z
1/2-x,y,z
x,1/2-y,z
loop_
_atom_site_type_symbol
_atom_site_label
_atom_site_fract_x
_atom_site_fract_y
_atom_site_fract_z
Si Si1 0.351692 0.413418 0.114557
Si Si2 0.644358 0.657269 0.661580
Si Si3 0.528004 0.848755 0.064893
Si Si4 0.398325 0.481895 0.522745
Si Si5 0.352407 0.149682 0.718427
Si Si6 0.351363 0.884660 0.181348
Si Si7 0.645678 0.156524 0.570727
O O1 0.250000 0.386825 0.079700
O O2 0.390131 0.353773 0.214039
O O3 0.344778 0.509891 0.169428
O O4 0.423130 0.415697 0.017137
O O5 0.750000 0.661872 0.676758
O O6 0.611940 0.750000 0.610475
O O7 0.631464 0.574266 0.583291
O O8 0.548538 0.750000 0.020660
O O9 0.579661 0.857704 0.181012
O O10 0.423733 0.855198 0.090958
O O11 0.500000 0.500000 0.500000
O O12 0.374158 0.424280 0.628231
O O13 0.360157 0.580087 0.519214
O O14 0.250000 0.139646 0.756704
O O15 0.359879 0.250000 0.670518
O O16 0.250000 0.850109 0.166753
O O17 0.389002 0.863636 0.304864
O O18 0.750000 0.164167 0.592058
O O19 0.606805 0.250000 0.532177
#
# Coordination Sequence:
#
# PCOD9453571 Si02
#       7
#     8   8   8   8   8   8   8
#     4  10  20  36  60  88 117 152 195 244 298 349
#     4  10  20  36  60  87 115 149 192 243 298 353
#     4  11  22  36  57  88 123 155 195 242 292 354
#     4  12  23  35  55  83 118 152 194 240 295 351
#     4  10  22  39  59  85 121 163 201 241 297 361
#     4  10  20  36  57  84 117 152 193 240 291 351
#     4  10  20  36  58  81 108 145 192 242 286 333
#
# _framework density 20.740741
#
# number of rings (size 3 to 8) (size 9 to 14) (size 15 to 20)
#    0.000    1.571    1.429    4.286    0.000    5.714 
#    0.000    0.000    0.000    0.000    0.000    0.000 
#    0.000    0.000    0.000    0.000    0.000    0.000 
#
# Total GULP energy -311779.382690 kJ/mol
# GULP energy per Si atom -5567.488977 kJ/mol
# Density = 2.069353 g / cm^3
# Si number density = 20.740741 Si / 1000 Ang^3
#
#
#
# Elastic Constant Matrix: (Units=GPa)
#
#
# Indices 1 2 3 4 5 6 
#
# 1 44.4778 11.7967 1.6715 0.0000 0.0000 0.0000
# 2 11.7967 116.7174 41.1582 0.0000 0.0000 0.0000
# 3 1.6715 41.1582 36.8911 0.0000 0.0000 0.0000
# 4 0.0000 0.0000 0.0000 -141.6269 0.0000 0.0000
# 5 0.0000 0.0000 0.0000 0.0000 37.3739 0.0000
# 6 0.0000 0.0000 0.0000 0.0000 0.0000 60.5430
#
#
#
# Elastic Compliance Matrix: (Units=1/GPa)
#
#
# Indices 1 2 3 4 5 6 
#
# 1 0.023251 -0.003262 0.002586 0.000000 0.000000 0.000000
# 2 -0.003262 0.014582 -0.016121 0.000000 0.000000 0.000000
# 3 0.002586 -0.016121 0.044975 0.000000 0.000000 0.000000
# 4 0.000000 0.000000 0.000000 -0.007061 0.000000 0.000000
# 5 0.000000 0.000000 0.000000 0.000000 0.026757 0.000000
# 6 0.000000 0.000000 0.000000 0.000000 0.000000 0.016517
#
#
# Mechanical properties :
#
#
# Convention : Reuss Voigt Hill
#
# Bulk Modulus (GPa) = 20.31937 34.14880 27.23408
# Shear Modulus (GPa) = 29.58210 0.82196 15.20203
#
# Velocity S-wave (km/s) = 3.78071 0.63021 2.71025
# Velocity P-wave (km/s) = 5.37368 4.12673 4.79095
#
# Compressibility (1/GPa) = 0.04921413
#
# Stress axis : x y z
#
# Youngs Moduli (GPa) = 43.00876 68.57685 22.23433
#
# Poissons Ratio (x) = 0.22368 -0.05749
# Poissons Ratio (y) = 0.14028 0.35844
# Poissons Ratio (z) = -0.11120 1.10553
#
# Static dielectric constant tensor:
#      x y z
#    x 1.749750 0.000000 0.000000 
#    y 0.000000 2.800050 0.000000 
#    z 0.000000 0.000000 1.731330 
# 
# From -- ./inp_files/16920.got.cif
#   From: 2010.05.17/outbox.ucp.g08.bks.cvg/sg59_9_cif.got.tgz:16920.got - 2010.06.11 16:43:56.
