data_PCOD9453763
_publ_section_title
;
Structure prediction by ZEFSAII (Michael W. Deem and Ramdas Pophale) SiO2 
 PCOD9453763
Probable space group: P B C N
;
_chemical_formula_sum "Si O2"
_cell_formula_units_Z 44
_cell_length_a 5.566481
_cell_length_b 23.454785
_cell_length_c 14.045297
_cell_angle_alpha 90.000000
_cell_angle_beta 90.000000
_cell_angle_gamma 90.000000
_cell_volume 1833.762615
_symmetry_space_group_name_H-M "P B C N"
_symmetry_group_IT_number 60
_symmetry_cell_setting 'orthorhombic'
loop_
_space_group_symop_operation_xyz
x,y,z
1/2-x,1/2-y,1/2+z
1/2+x,1/2-y,-z
-x,y,1/2-z
-x,-y,-z
1/2+x,1/2+y,1/2-z
1/2-x,1/2+y,z
x,-y,1/2+z
loop_
_atom_site_type_symbol
_atom_site_label
_atom_site_fract_x
_atom_site_fract_y
_atom_site_fract_z
Si Si1 0.364469 0.278530 0.874785
Si Si2 0.500000 0.618900 0.250000
Si Si3 0.133723 0.257197 0.587506
Si Si4 0.899083 0.914924 0.432044
Si Si5 0.820255 0.040293 0.395380
Si Si6 0.600876 0.877729 0.024595
O O1 0.374702 0.339174 0.825007
O O2 0.111250 0.249524 0.855753
O O3 0.622054 0.250341 0.854117
O O4 0.370404 0.279250 0.990473
O O5 0.315095 0.577754 0.198462
O O6 0.129385 0.322867 0.545056
O O7 0.656135 0.878769 0.425155
O O8 0.953017 0.937655 0.540358
O O9 0.154931 0.883883 0.412665
O O10 0.851352 0.973972 0.377214
O O11 0.608315 0.063828 0.462329
#
# Coordination Sequence:
#
# PCOD9453763 Si02
#       6
#     8   4   8   8   8   8
#     4  10  22  35  54  81 118 144 190 236 292 340
#     4  12  20  40  54  94 116 144 182 260 298 320
#     4  10  19  38  56  79 109 158 191 225 279 363
#     4   9  19  33  53  78 108 145 186 219 266 355
#     4   9  20  31  54  79 116 139 179 225 288 328
#     4  10  16  33  56  76 100 145 189 218 262 332
#
# _framework density 23.994382999999999
#
# number of rings (size 3 to 8) (size 9 to 14) (size 15 to 20)
#    1.091    1.091    1.818    2.727    0.000    0.727 
#    3.273    0.000    0.000    2.182    0.000    0.000 
#    0.000    0.000    0.000    0.000    0.000    0.000 
#
# Total GULP energy -245179.296970 kJ/mol
# GULP energy per Si atom -5572.256749 kJ/mol
# Density = 2.393977 g / cm^3
# Si number density = 23.994383 Si / 1000 Ang^3
#
#
#
# Elastic Constant Matrix: (Units=GPa)
#
#
# Indices 1 2 3 4 5 6 
#
# 1 218.8086 26.7575 22.0798 0.0000 0.0000 0.0000
# 2 26.7575 126.3576 33.1298 0.0000 0.0000 0.0000
# 3 22.0798 33.1298 40.6055 0.0000 0.0000 0.0000
# 4 0.0000 0.0000 0.0000 11.4454 0.0000 0.0000
# 5 0.0000 0.0000 0.0000 0.0000 13.2056 0.0000
# 6 0.0000 0.0000 0.0000 0.0000 0.0000 11.8162
#
#
#
# Elastic Compliance Matrix: (Units=1/GPa)
#
#
# Indices 1 2 3 4 5 6 
#
# 1 0.004854 -0.000427 -0.002291 0.000000 0.000000 0.000000
# 2 -0.000427 0.010105 -0.008013 0.000000 0.000000 0.000000
# 3 -0.002291 -0.008013 0.032410 0.000000 0.000000 0.000000
# 4 0.000000 0.000000 0.000000 0.087372 0.000000 0.000000
# 5 0.000000 0.000000 0.000000 0.000000 0.075725 0.000000
# 6 0.000000 0.000000 0.000000 0.000000 0.000000 0.084630
#
#
# Mechanical properties :
#
#
# Convention : Reuss Voigt Hill
#
# Bulk Modulus (GPa) = 38.59773 61.07843 49.83808
# Shear Modulus (GPa) = 15.37548 27.54707 21.46127
#
# Velocity S-wave (km/s) = 2.53414 3.39198 2.99395
# Velocity P-wave (km/s) = 4.96825 6.39150 5.72428
#
# Compressibility (1/GPa) = 0.02590826
#
# Stress axis : x y z
#
# Youngs Moduli (GPa) = 206.03289 98.95758 30.85444
#
# Poissons Ratio (x) = 0.04228 0.07068
# Poissons Ratio (y) = 0.08802 0.24722
# Poissons Ratio (z) = 0.47195 0.79291
#
# Static dielectric constant tensor:
#      x y z
#    x 2.031080 0.000000 0.000000 
#    y 0.000000 1.946410 0.000000 
#    z 0.000000 0.000000 1.912440 
# 
# From -- ./inp_files/13883.got.cif
#   From: 2010.05.17/outbox.cif.g08.bks.cpg/sg60_7_cif.got.tgz:13883.got - 2010.06.03 14:59:27.
