data_PCOD9453335
_publ_section_title
;
Structure prediction by ZEFSAII (Michael W. Deem and Ramdas Pophale) SiO2 
 PCOD9453335
Probable space group: P M M N
;
_chemical_formula_sum "Si O2"
_cell_formula_units_Z 64
_cell_length_a 9.000000
_cell_length_b 30.000000
_cell_length_c 15.000000
_cell_angle_alpha 90.000000
_cell_angle_beta 90.000000
_cell_angle_gamma 90.000000
_cell_volume 4050.000000
_symmetry_space_group_name_H-M "P M M N"
_symmetry_group_IT_number 59
_space_group.IT_coordinate_system_code '2'
_symmetry_cell_setting 'orthorhombic'
loop_
_space_group_symop_operation_xyz
x,y,z
1/2-x,1/2-y,z
1/2+x,-y,-z
-x,1/2+y,-z
-x,-y,-z
1/2+x,1/2+y,-z
1/2-x,y,z
x,1/2-y,z
loop_
_atom_site_type_symbol
_atom_site_label
_atom_site_fract_x
_atom_site_fract_y
_atom_site_fract_z
Si Si1 0.930927 0.798561 0.806276
Si Si2 0.570288 0.882408 0.702612
Si Si3 0.928891 0.562194 0.545494
Si Si4 0.572974 0.975261 0.365327
Si Si5 0.073125 0.888541 0.041356
Si Si6 0.428460 0.966409 0.174345
Si Si7 0.071719 0.200088 0.985164
Si Si8 0.927971 0.562923 0.875563
O O1 0.750000 0.799710 0.804846
O O2 0.979210 0.750000 0.776327
O O3 0.989405 0.837134 0.743803
O O4 0.969590 0.804032 0.909988
O O5 0.750000 0.879170 0.700793
O O6 0.523053 0.895854 0.604233
O O7 0.535986 0.920081 0.776012
O O8 0.750000 0.556625 0.554360
O O9 0.962030 0.561608 0.440996
O O10 0.005840 0.520211 0.592625
O O11 0.750000 0.979395 0.357123
O O12 0.501823 0.966175 0.270579
O O13 0.250000 0.886854 0.034008
O O14 0.031009 0.923695 0.117095
O O15 0.008075 0.840263 0.062394
O O16 0.006134 0.907261 0.949284
O O17 0.250000 0.968332 0.185044
O O18 0.471390 0.011309 0.121359
O O19 0.250000 0.195578 0.979538
O O20 0.032110 0.250000 0.955837
O O21 0.750000 0.567472 0.887384
#
# Coordination Sequence:
#
# PCOD9453335 Si02
#       8
#     8   8   8   8   8   8   8   8
#     4   8  13  22  40  66  88 108 143 183 212 253
#     4   9  14  24  45  65  86 121 152 175 216 272
#     4   9  17  30  46  65  91 119 147 182 231 282
#     4  10  19  29  45  68  89 114 152 196 232 267
#     4  11  22  32  45  68  95 123 156 197 238 275
#     4  10  21  35  47  61  90 130 163 193 233 277
#     4   9  17  31  50  69  90 119 156 192 227 276
#     4  10  18  31  48  63  88 129 164 187 221 272
#
# _framework density 15.802469
#
# number of rings (size 3 to 8) (size 9 to 14) (size 15 to 20)
#    0.000    2.500    2.500    1.875    0.000    2.250 
#    0.000    0.000    0.000    0.000    0.000    0.875 
#    0.000    3.000    0.000    0.000    0.000    0.000 
#
# Total GULP energy -356357.602662 kJ/mol
# GULP energy per Si atom -5568.087542 kJ/mol
# Density = 1.576650 g / cm^3
# Si number density = 15.802469 Si / 1000 Ang^3
#
#
#
# Elastic Constant Matrix: (Units=GPa)
#
#
# Indices 1 2 3 4 5 6 
#
# 1 0.2490 21.6527 11.1096 0.0000 0.0000 0.0000
# 2 21.6527 115.9549 27.3829 0.0000 0.0000 0.0000
# 3 11.1096 27.3829 34.5840 0.0000 0.0000 0.0000
# 4 0.0000 0.0000 0.0000 16.8967 0.0000 0.0000
# 5 0.0000 0.0000 0.0000 0.0000 19.0031 0.0000
# 6 0.0000 0.0000 0.0000 0.0000 0.0000 16.8251
#
#
#
# Elastic Compliance Matrix: (Units=1/GPa)
#
#
# Indices 1 2 3 4 5 6 
#
# 1 -0.197120 0.026882 0.042037 0.000000 0.000000 0.000000
# 2 0.026882 0.006941 -0.014131 0.000000 0.000000 0.000000
# 3 0.042037 -0.014131 0.026600 0.000000 0.000000 0.000000
# 4 0.000000 0.000000 0.000000 0.059183 0.000000 0.000000
# 5 0.000000 0.000000 0.000000 0.000000 0.052623 0.000000
# 6 0.000000 0.000000 0.000000 0.000000 0.000000 0.059435
#
#
# Mechanical properties :
#
#
# Convention : Reuss Voigt Hill
#
# Bulk Modulus (GPa) = -18.51759 30.11982 5.80111
# Shear Modulus (GPa) = -41.69702 16.58781 -12.55460
#
# Velocity S-wave (km/s) = -5.14234 3.24342 -2.82169
# Velocity P-wave (km/s) = 6.85579 5.75569 2.63381
#
# Compressibility (1/GPa) = -0.05400271
#
# Stress axis : x y z
#
# Youngs Moduli (GPa) = -5.07306 144.06201 37.59367
#
# Poissons Ratio (x) = -3.87264 -1.58034
# Poissons Ratio (y) = 0.13637 0.53125
# Poissons Ratio (z) = 0.21326 2.03581
#
# Static dielectric constant tensor:
#      x y z
#    x 1.529240 0.000000 0.000000 
#    y 0.000000 1.568590 0.000000 
#    z 0.000000 0.000000 1.515970 
# 
# From -- ./inp_files/21939.got.cif
#   From: 2010.05.17/outbox.ucp.g08.bks.cvg/sg59_11_cif.got.tgz:21939.got - 2010.06.11 16:43:56.
