data_PCOD9453325
_publ_section_title
;
Structure prediction by ZEFSAII (Michael W. Deem and Ramdas Pophale) SiO2 
 PCOD9453325
Probable space group: P M M N
;
_chemical_formula_sum "Si O2"
_cell_formula_units_Z 64
_cell_length_a 24.000000
_cell_length_b 9.000000
_cell_length_c 15.000000
_cell_angle_alpha 90.000000
_cell_angle_beta 90.000000
_cell_angle_gamma 90.000000
_cell_volume 3240.000000
_symmetry_space_group_name_H-M "P M M N"
_symmetry_group_IT_number 59
_space_group.IT_coordinate_system_code '2'
_symmetry_cell_setting 'orthorhombic'
loop_
_space_group_symop_operation_xyz
x,y,z
1/2-x,1/2-y,z
1/2+x,-y,-z
-x,1/2+y,-z
-x,-y,-z
1/2+x,1/2+y,-z
1/2-x,y,z
x,1/2-y,z
loop_
_atom_site_type_symbol
_atom_site_label
_atom_site_fract_x
_atom_site_fract_y
_atom_site_fract_z
Si Si1 0.397118 0.572215 0.106883
Si Si2 0.390244 0.424066 0.613796
Si Si3 0.125064 0.426906 0.422236
Si Si4 0.372603 0.572034 0.799181
Si Si5 0.690367 0.069118 0.037758
Si Si6 0.995145 0.073541 0.158822
Si Si7 0.015986 0.925175 0.347417
Si Si8 0.686610 0.572768 0.755443
O O1 0.399851 0.750000 0.111229
O O2 0.458893 0.508052 0.100520
O O3 0.361554 0.511046 0.190368
O O4 0.359747 0.522492 0.024265
O O5 0.382169 0.250000 0.630979
O O6 0.359609 0.465570 0.523097
O O7 0.371930 0.510560 0.700639
O O8 0.457141 0.445886 0.602244
O O9 0.110865 0.250000 0.420814
O O10 0.070454 0.520193 0.397581
O O11 0.172121 0.450241 0.348428
O O12 0.373529 0.750000 0.794936
O O13 0.322237 0.524149 0.861586
O O14 0.430725 0.527956 0.847158
O O15 0.750000 0.014983 0.005576
O O16 0.690878 0.250000 0.035001
O O17 0.999421 0.250000 0.147304
O O18 0.011377 0.024663 0.259020
O O19 0.020384 0.750000 0.324401
O O20 0.750000 0.524618 0.775865
O O21 0.682441 0.750000 0.773305
#
# Coordination Sequence:
#
# PCOD9453325 Si02
#       8
#     8   8   8   8   8   8   8   8
#     4  11  21  34  56  83 108 137 176 221 271 325
#     4   9  19  33  50  76 109 141 175 217 266 313
#     4  10  19  32  50  72 104 144 179 214 262 316
#     4   9  19  36  57  79 105 141 182 221 266 322
#     4   9  19  37  59  81 105 136 177 224 272 319
#     4  10  19  32  51  78 112 144 174 212 267 328
#     4  10  18  29  48  76 107 139 177 218 259 308
#     4  10  21  36  53  74 105 145 183 219 264 320
#
# _framework density 19.753086
#
# number of rings (size 3 to 8) (size 9 to 14) (size 15 to 20)
#    0.000    2.250    1.250    1.875    0.000    2.750 
#    0.000    1.875    0.000    2.625    0.000    0.000 
#    0.000    0.000    0.000    0.000    0.000    0.000 
#
# Total GULP energy -356862.216799 kJ/mol
# GULP energy per Si atom -5575.972137 kJ/mol
# Density = 1.970813 g / cm^3
# Si number density = 19.753086 Si / 1000 Ang^3
#
#
#
# Elastic Constant Matrix: (Units=GPa)
#
#
# Indices 1 2 3 4 5 6 
#
# 1 19.8640 11.5950 38.2776 0.0000 0.0000 0.0000
# 2 11.5950 12.7055 10.3755 0.0000 0.0000 0.0000
# 3 38.2776 10.3755 72.4276 0.0000 0.0000 0.0000
# 4 0.0000 0.0000 0.0000 2.1613 0.0000 0.0000
# 5 0.0000 0.0000 0.0000 0.0000 2.3957 0.0000
# 6 0.0000 0.0000 0.0000 0.0000 0.0000 3.6047
#
#
#
# Elastic Compliance Matrix: (Units=1/GPa)
#
#
# Indices 1 2 3 4 5 6 
#
# 1 -0.270655 0.147438 0.121919 0.000000 0.000000 0.000000
# 2 0.147438 0.008817 -0.079183 0.000000 0.000000 0.000000
# 3 0.121919 -0.079183 -0.039283 0.000000 0.000000 0.000000
# 4 0.000000 0.000000 0.000000 0.462683 0.000000 0.000000
# 5 0.000000 0.000000 0.000000 0.000000 0.417407 0.000000
# 6 0.000000 0.000000 0.000000 0.000000 0.000000 0.277412
#
#
# Mechanical properties :
#
#
# Convention : Reuss Voigt Hill
#
# Bulk Modulus (GPa) = 12.62219 25.05479 18.83849
# Shear Modulus (GPa) = 9.95138 4.61563 7.28351
#
# Velocity S-wave (km/s) = 2.24696 1.53027 1.92231
# Velocity P-wave (km/s) = 3.62431 3.97918 3.80588
#
# Compressibility (1/GPa) = 0.07922554
#
# Stress axis : x y z
#
# Youngs Moduli (GPa) = -3.69474 113.41917 -25.45620
#
# Poissons Ratio (x) = -16.72227 3.10358
# Poissons Ratio (y) = 0.54474 -2.01570
# Poissons Ratio (z) = 0.45046 8.98088
#
# Static dielectric constant tensor:
#      x y z
#    x 1.692210 0.000000 0.000000 
#    y 0.000000 1.659480 0.000000 
#    z 0.000000 0.000000 1.733110 
# 
# From -- ./inp_files/21446.got.cif
#   From: 2010.05.17/outbox.ucp.g08.bks.cvg/sg59_11_cif.got.tgz:21446.got - 2010.06.11 16:43:56.
