data_PCOD9453632
_publ_section_title
;
Structure prediction by ZEFSAII (Michael W. Deem and Ramdas Pophale) SiO2 
 PCOD9453632
Probable space group: P M M N
;
_chemical_formula_sum "Si O2"
_cell_formula_units_Z 48
_cell_length_a 9.000000
_cell_length_b 15.000000
_cell_length_c 18.000000
_cell_angle_alpha 90.000000
_cell_angle_beta 90.000000
_cell_angle_gamma 90.000000
_cell_volume 2430.000000
_symmetry_space_group_name_H-M "P M M N"
_symmetry_group_IT_number 59
_space_group.IT_coordinate_system_code '2'
_symmetry_cell_setting 'orthorhombic'
loop_
_space_group_symop_operation_xyz
x,y,z
1/2-x,1/2-y,z
1/2+x,-y,-z
-x,1/2+y,-z
-x,-y,-z
1/2+x,1/2+y,-z
1/2-x,y,z
x,1/2-y,z
loop_
_atom_site_type_symbol
_atom_site_label
_atom_site_fract_x
_atom_site_fract_y
_atom_site_fract_z
Si Si1 0.072059 0.647378 0.693759
Si Si2 0.073021 0.355070 0.699930
Si Si3 0.070997 0.498364 0.580029
Si Si4 0.914529 0.354831 0.847848
Si Si5 0.572092 0.595927 0.002962
Si Si6 0.084101 0.354952 0.159692
O O1 0.250000 0.645975 0.696134
O O2 0.025597 0.750000 0.681929
O O3 0.022017 0.583706 0.627940
O O4 0.014633 0.611710 0.772885
O O5 0.250000 0.365050 0.711198
O O6 0.043032 0.250000 0.689267
O O7 0.029489 0.411914 0.628421
O O8 0.992528 0.390195 0.773943
O O9 0.250000 0.499996 0.573862
O O10 0.000000 0.500000 0.500000
O O11 0.750000 0.393005 0.859855
O O12 0.900488 0.250000 0.834008
O O13 0.010008 0.362656 0.922018
O O14 0.750000 0.596422 0.005924
O O15 0.500000 0.500000 0.000000
O O16 0.526111 0.636764 0.923915
O O17 0.250000 0.394027 0.162802
O O18 0.095967 0.250000 0.172584
#
# Coordination Sequence:
#
# PCOD9453632 Si02
#       6
#     8   8   8   8   8   8
#     4   9  19  36  57  81 111 145 181 224 275 331
#     4   9  19  37  59  82 111 148 188 231 280 335
#     4  10  22  38  57  84 112 143 181 224 279 340
#     4  10  21  37  57  82 111 146 190 236 284 338
#     4  11  23  36  52  79 114 151 191 235 282 331
#     4   9  19  36  56  78 105 141 185 229 274 325
#
# _framework density 19.753086
#
# number of rings (size 3 to 8) (size 9 to 14) (size 15 to 20)
#    0.000    2.333    0.000    1.500    2.333    5.000 
#    0.000    1.667    0.000    0.000    0.000    0.000 
#    0.000    0.000    0.000    0.000    0.000    0.000 
#
# Total GULP energy -267505.014265 kJ/mol
# GULP energy per Si atom -5573.021131 kJ/mol
# Density = 1.970813 g / cm^3
# Si number density = 19.753086 Si / 1000 Ang^3
#
#
#
# Elastic Constant Matrix: (Units=GPa)
#
#
# Indices 1 2 3 4 5 6 
#
# 1 33.2091 40.9316 73.1811 0.0000 0.0000 0.0000
# 2 40.9316 80.0648 62.7122 0.0000 0.0000 0.0000
# 3 73.1811 62.7122 212.8330 0.0000 0.0000 0.0000
# 4 0.0000 0.0000 0.0000 32.7635 0.0000 0.0000
# 5 0.0000 0.0000 0.0000 0.0000 36.7070 0.0000
# 6 0.0000 0.0000 0.0000 0.0000 0.0000 12.1768
#
#
#
# Elastic Compliance Matrix: (Units=1/GPa)
#
#
# Indices 1 2 3 4 5 6 
#
# 1 0.511487 -0.160859 -0.128473 0.000000 0.000000 0.000000
# 2 -0.160859 0.066826 0.035619 0.000000 0.000000 0.000000
# 3 -0.128473 0.035619 0.038378 0.000000 0.000000 0.000000
# 4 0.000000 0.000000 0.000000 0.030522 0.000000 0.000000
# 5 0.000000 0.000000 0.000000 0.000000 0.027243 0.000000
# 6 0.000000 0.000000 0.000000 0.000000 0.000000 0.082123
#
#
# Mechanical properties :
#
#
# Convention : Reuss Voigt Hill
#
# Bulk Modulus (GPa) = 9.15200 75.52848 42.34024
# Shear Modulus (GPa) = 3.84489 26.28160 15.06325
#
# Velocity S-wave (km/s) = 1.39668 3.65157 2.76448
# Velocity P-wave (km/s) = 2.69150 7.48985 5.62770
#
# Compressibility (1/GPa) = 0.10926572
#
# Stress axis : x y z
#
# Youngs Moduli (GPa) = 1.95508 14.96419 26.05679
#
# Poissons Ratio (x) = 2.40712 3.34760
# Poissons Ratio (y) = 0.31449 -0.92813
# Poissons Ratio (z) = 0.25118 -0.53302
#
# Static dielectric constant tensor:
#      x y z
#    x 1.563310 0.000000 0.000000 
#    y 0.000000 1.716460 0.000000 
#    z 0.000000 0.000000 1.775490 
# 
# From -- ./inp_files/20475.got.cif
#   From: 2010.05.17/outbox.ucp.g08.bks.cvg/sg59_11_cif.got.tgz:20475.got - 2010.06.11 16:43:56.
