data_PCOD9453602
_publ_section_title
;
Structure prediction by ZEFSAII (Michael W. Deem and Ramdas Pophale) SiO2 
 PCOD9453602
Probable space group: P M M N
;
_chemical_formula_sum "Si O2"
_cell_formula_units_Z 64
_cell_length_a 9.000000
_cell_length_b 24.000000
_cell_length_c 15.000000
_cell_angle_alpha 90.000000
_cell_angle_beta 90.000000
_cell_angle_gamma 90.000000
_cell_volume 3240.000000
_symmetry_space_group_name_H-M "P M M N"
_symmetry_group_IT_number 59
_space_group.IT_coordinate_system_code '2'
_symmetry_cell_setting 'orthorhombic'
loop_
_space_group_symop_operation_xyz
x,y,z
1/2-x,1/2-y,z
1/2+x,-y,-z
-x,1/2+y,-z
-x,-y,-z
1/2+x,1/2+y,-z
1/2-x,y,z
x,1/2-y,z
loop_
_atom_site_type_symbol
_atom_site_label
_atom_site_fract_x
_atom_site_fract_y
_atom_site_fract_z
Si Si1 0.582297 0.525729 0.895524
Si Si2 0.925001 0.190240 0.304976
Si Si3 0.074087 0.187011 0.496824
Si Si4 0.584631 0.909563 0.723330
Si Si5 0.927971 0.093017 0.961793
Si Si6 0.430397 0.815565 0.175831
Si Si7 0.070954 0.112008 0.664942
Si Si8 0.428776 0.998330 0.403520
O O1 0.750000 0.526885 0.933115
O O2 0.589602 0.541322 0.793755
O O3 0.525824 0.462907 0.906933
O O4 0.492109 0.574448 0.943775
O O5 0.750000 0.190811 0.310612
O O6 0.979131 0.250000 0.271802
O O7 0.990241 0.181716 0.403739
O O8 0.979082 0.139281 0.247362
O O9 0.250000 0.181989 0.480061
O O10 0.046050 0.250000 0.530878
O O11 0.033801 0.143186 0.572134
O O12 0.750000 0.886235 0.713204
O O13 0.536971 0.940635 0.634951
O O14 0.750000 0.094961 0.965559
O O15 0.975119 0.149581 0.912991
O O16 0.250000 0.818321 0.183616
O O17 0.471624 0.750000 0.174868
O O18 0.502758 0.850261 0.256626
O O19 0.250000 0.108910 0.673769
O O20 0.000277 0.051019 0.654745
O O21 0.250000 0.992059 0.405319
O O22 0.500000 0.000000 0.500000
#
# Coordination Sequence:
#
# PCOD9453602 Si02
#       8
#     8   8   8   8   8   8   8   8
#     4   9  18  34  57  82 105 134 175 220 266 319
#     4  10  21  35  52  76 103 131 169 218 264 306
#     4   9  18  33  51  70  97 136 178 217 259 308
#     4  10  21  37  56  77 105 141 177 214 261 318
#     4   9  18  35  57  81 109 138 171 216 271 329
#     4  10  21  37  57  81 112 151 188 224 277 343
#     4  11  22  35  53  79 110 145 186 230 276 325
#     4  11  23  38  55  79 113 150 188 232 281 331
#
# _framework density 19.753086
#
# number of rings (size 3 to 8) (size 9 to 14) (size 15 to 20)
#    0.000    2.125    0.000    3.000    0.000    9.500 
#    0.000    4.375    0.000    2.250    0.000    0.000 
#    0.000    0.000    0.000    0.000    0.000    0.000 
#
# Total GULP energy -356581.071939 kJ/mol
# GULP energy per Si atom -5571.579249 kJ/mol
# Density = 1.970813 g / cm^3
# Si number density = 19.753086 Si / 1000 Ang^3
#
#
#
# Elastic Constant Matrix: (Units=GPa)
#
#
# Indices 1 2 3 4 5 6 
#
# 1 4.2139 62.5607 10.9153 0.0000 0.0000 0.0000
# 2 62.5607 115.8148 35.3222 0.0000 0.0000 0.0000
# 3 10.9153 35.3222 37.4490 0.0000 0.0000 0.0000
# 4 0.0000 0.0000 0.0000 24.2652 0.0000 0.0000
# 5 0.0000 0.0000 0.0000 0.0000 20.6275 0.0000
# 6 0.0000 0.0000 0.0000 0.0000 0.0000 25.5119
#
#
#
# Elastic Compliance Matrix: (Units=1/GPa)
#
#
# Indices 1 2 3 4 5 6 
#
# 1 -0.031173 0.019749 -0.009541 0.000000 0.000000 0.000000
# 2 0.019749 -0.000390 -0.005388 0.000000 0.000000 0.000000
# 3 -0.009541 -0.005388 0.034566 0.000000 0.000000 0.000000
# 4 0.000000 0.000000 0.000000 0.041211 0.000000 0.000000
# 5 0.000000 0.000000 0.000000 0.000000 0.048479 0.000000
# 6 0.000000 0.000000 0.000000 0.000000 0.000000 0.039197
#
#
# Mechanical properties :
#
#
# Convention : Reuss Voigt Hill
#
# Bulk Modulus (GPa) = 79.10225 41.67490 60.38858
# Shear Modulus (GPa) = 39.53621 17.32623 28.43122
#
# Velocity S-wave (km/s) = 4.47869 2.96487 3.79797
# Velocity P-wave (km/s) = 8.17786 5.73274 7.06193
#
# Compressibility (1/GPa) = 0.01264186
#
# Stress axis : x y z
#
# Youngs Moduli (GPa) = -32.07920 -2563.52277 28.92996
#
# Poissons Ratio (x) = 50.62675 0.27603
# Poissons Ratio (y) = 0.63353 0.15588
# Poissons Ratio (z) = -0.30608 -13.81301
#
# Static dielectric constant tensor:
#      x y z
#    x 1.690720 0.000000 0.000000 
#    y 0.000000 1.726160 0.000000 
#    z 0.000000 0.000000 1.746160 
# 
# From -- ./inp_files/21557.got.cif
#   From: 2010.05.17/outbox.ucp.g08.bks.cvg/sg59_11_cif.got.tgz:21557.got - 2010.06.11 16:43:56.
