data_PCOD9453373
_publ_section_title
;
Structure prediction by ZEFSAII (Michael W. Deem and Ramdas Pophale) SiO2 
 PCOD9453373
Probable space group: P M M N
;
_chemical_formula_sum "Si O2"
_cell_formula_units_Z 64
_cell_length_a 24.000000
_cell_length_b 12.000000
_cell_length_c 12.000000
_cell_angle_alpha 90.000000
_cell_angle_beta 90.000000
_cell_angle_gamma 90.000000
_cell_volume 3456.000000
_symmetry_space_group_name_H-M "P M M N"
_symmetry_group_IT_number 59
_space_group.IT_coordinate_system_code '2'
_symmetry_cell_setting 'orthorhombic'
loop_
_space_group_symop_operation_xyz
x,y,z
1/2-x,1/2-y,z
1/2+x,-y,-z
-x,1/2+y,-z
-x,-y,-z
1/2+x,1/2+y,-z
1/2-x,y,z
x,1/2-y,z
loop_
_atom_site_type_symbol
_atom_site_label
_atom_site_fract_x
_atom_site_fract_y
_atom_site_fract_z
Si Si1 0.187603 0.620944 0.693243
Si Si2 0.312193 0.016890 0.920341
Si Si3 0.453120 0.369443 0.415351
Si Si4 0.078373 0.374630 0.997318
Si Si5 0.313828 0.621208 0.145839
Si Si6 0.416704 0.001056 0.219911
Si Si7 0.075070 0.954770 0.599027
Si Si8 0.475059 0.375984 0.765477
O O1 0.250000 0.600744 0.645985
O O2 0.185475 0.750000 0.728205
O O3 0.181726 0.544819 0.802750
O O4 0.135195 0.599159 0.613455
O O5 0.250000 0.066001 0.926055
O O6 0.316265 0.926410 0.020037
O O7 0.361073 0.103451 0.943406
O O8 0.437604 0.250000 0.461163
O O9 0.426375 0.392131 0.295944
O O10 0.430640 0.467468 0.492096
O O11 0.520185 0.377688 0.405302
O O12 0.075455 0.250000 0.043026
O O13 0.070006 0.462856 0.094187
O O14 0.035422 0.384300 0.896706
O O15 0.250000 0.612625 0.182923
O O16 0.330869 0.750000 0.146346
O O17 0.355476 0.548945 0.219474
O O18 0.461842 0.910989 0.259718
O O19 0.063742 0.036378 0.703301
O O20 0.463757 0.250000 0.730685
#
# Coordination Sequence:
#
# PCOD9453373 Si02
#       8
#     8   8   8   8   8   8   8   8
#     4  10  19  33  55  82 111 137 165 209 263 315
#     4   9  17  30  49  75 107 140 173 207 250 311
#     4  10  21  37  57  77 102 139 180 219 255 303
#     4  10  19  31  48  72 107 141 169 209 256 306
#     4   9  17  31  51  75 103 136 174 214 259 311
#     4  10  20  33  51  74 103 135 176 215 259 306
#     4  10  20  36  57  80 105 135 176 217 262 310
#     4  10  19  32  51  75 104 135 169 214 265 313
#
# _framework density 18.518519000000001
#
# number of rings (size 3 to 8) (size 9 to 14) (size 15 to 20)
#    0.000    2.250    1.250    2.250    0.000    1.750 
#    0.000    2.500    0.000    4.875    0.000    0.000 
#    0.000    0.000    0.000    0.000    0.000    0.000 
#
# Total GULP energy -356469.447006 kJ/mol
# GULP energy per Si atom -5569.835109 kJ/mol
# Density = 1.847637 g / cm^3
# Si number density = 18.518519 Si / 1000 Ang^3
#
#
#
# Elastic Constant Matrix: (Units=GPa)
#
#
# Indices 1 2 3 4 5 6 
#
# 1 81.4732 11.6276 17.9416 0.0000 0.0000 0.0000
# 2 11.6276 43.8618 3.1050 0.0000 0.0000 0.0000
# 3 17.9416 3.1050 38.6533 0.0000 0.0000 0.0000
# 4 0.0000 0.0000 0.0000 22.1089 0.0000 0.0000
# 5 0.0000 0.0000 0.0000 0.0000 18.5650 0.0000
# 6 0.0000 0.0000 0.0000 0.0000 0.0000 12.8871
#
#
#
# Elastic Compliance Matrix: (Units=1/GPa)
#
#
# Indices 1 2 3 4 5 6 
#
# 1 0.014131 -0.003301 -0.006294 0.000000 0.000000 0.000000
# 2 -0.003301 0.023700 -0.000372 0.000000 0.000000 0.000000
# 3 -0.006294 -0.000372 0.028822 0.000000 0.000000 0.000000
# 4 0.000000 0.000000 0.000000 0.045231 0.000000 0.000000
# 5 0.000000 0.000000 0.000000 0.000000 0.053865 0.000000
# 6 0.000000 0.000000 0.000000 0.000000 0.000000 0.077597
#
#
# Mechanical properties :
#
#
# Convention : Reuss Voigt Hill
#
# Bulk Modulus (GPa) = 21.40376 25.48185 23.44281
# Shear Modulus (GPa) = 17.93064 19.46649 18.69857
#
# Velocity S-wave (km/s) = 3.11505 3.24572 3.18106
# Velocity P-wave (km/s) = 4.95189 5.27602 5.11652
#
# Compressibility (1/GPa) = 0.04672076
#
# Stress axis : x y z
#
# Youngs Moduli (GPa) = 70.76623 42.19384 34.69528
#
# Poissons Ratio (x) = 0.13926 0.21837
# Poissons Ratio (y) = 0.23356 0.01290
# Poissons Ratio (z) = 0.44540 0.01569
#
# Static dielectric constant tensor:
#      x y z
#    x 1.640180 0.000000 0.000000 
#    y 0.000000 1.627000 0.000000 
#    z 0.000000 0.000000 1.652720 
# 
# From -- ./inp_files/18741.got.cif
#   From: 2010.05.17/outbox.ucp.g08.bks.cvg/sg59_10_cif.got.tgz:18741.got - 2010.06.11 16:43:56.
