data_PCOD9453386
_publ_section_title
;
Structure prediction by ZEFSAII (Michael W. Deem and Ramdas Pophale) SiO2 
 PCOD9453386
Probable space group: P M M N
;
_chemical_formula_sum "Si O2"
_cell_formula_units_Z 56
_cell_length_a 9.000000
_cell_length_b 15.000000
_cell_length_c 21.000000
_cell_angle_alpha 90.000000
_cell_angle_beta 90.000000
_cell_angle_gamma 90.000000
_cell_volume 2835.000000
_symmetry_space_group_name_H-M "P M M N"
_symmetry_group_IT_number 59
_space_group.IT_coordinate_system_code '2'
_symmetry_cell_setting 'orthorhombic'
loop_
_space_group_symop_operation_xyz
x,y,z
1/2-x,1/2-y,z
1/2+x,-y,-z
-x,1/2+y,-z
-x,-y,-z
1/2+x,1/2+y,-z
1/2-x,y,z
x,1/2-y,z
loop_
_atom_site_type_symbol
_atom_site_label
_atom_site_fract_x
_atom_site_fract_y
_atom_site_fract_z
Si Si1 0.429856 0.502998 0.430759
Si Si2 0.079460 0.647930 0.330897
Si Si3 0.920190 0.608964 0.199264
Si Si4 0.070148 0.594061 0.933051
Si Si5 0.071788 0.152088 0.335889
Si Si6 0.420579 0.606991 0.795521
Si Si7 0.573519 0.397820 0.928581
O O1 0.500000 0.500000 0.500000
O O2 0.250000 0.503037 0.436661
O O3 0.476787 0.587755 0.388489
O O4 0.478137 0.420330 0.386805
O O5 0.250000 0.619628 0.318119
O O6 0.078054 0.750000 0.350723
O O7 0.994225 0.638598 0.264717
O O8 0.750000 0.636511 0.197661
O O9 0.925774 0.500788 0.200224
O O10 0.999252 0.640604 0.134674
O O11 0.250000 0.577047 0.931480
O O12 0.033609 0.640013 0.865882
O O13 0.983379 0.500196 0.932410
O O14 0.038182 0.639706 0.000897
O O15 0.250000 0.148429 0.334385
O O16 0.023218 0.250000 0.356062
O O17 0.015558 0.134875 0.264664
O O18 0.250000 0.633742 0.784476
O O19 0.750000 0.395058 0.920411
#
# Coordination Sequence:
#
# PCOD9453386 Si02
#       7
#     8   8   8   8   8   8   8
#     4  10  22  40  61  86 116 145 177 218 265 320
#     4  10  21  38  60  85 112 145 186 227 270 324
#     4  10  19  31  50  77 110 145 185 231 280 333
#     4   8  15  26  40  67 104 140 184 235 282 330
#     4  10  21  37  57  82 112 146 183 221 265 320
#     4   9  17  30  50  76 107 143 184 229 274 322
#     4   9  15  24  42  68 102 143 186 232 282 331
#
# _framework density 19.753086
#
# number of rings (size 3 to 8) (size 9 to 14) (size 15 to 20)
#    0.000    2.571    1.429    1.714    0.000    5.143 
#    0.000    0.000    0.000    0.857    0.000    2.000 
#    0.000    0.000    0.000    0.000    0.000    0.000 
#
# Total GULP energy -312190.432151 kJ/mol
# GULP energy per Si atom -5574.829146 kJ/mol
# Density = 1.970813 g / cm^3
# Si number density = 19.753086 Si / 1000 Ang^3
#
#
#
# Elastic Constant Matrix: (Units=GPa)
#
#
# Indices 1 2 3 4 5 6 
#
# 1 39.1404 27.8167 61.0681 0.0000 0.0000 0.0000
# 2 27.8167 72.7953 61.7354 0.0000 0.0000 0.0000
# 3 61.0681 61.7354 214.4345 0.0000 0.0000 0.0000
# 4 0.0000 0.0000 0.0000 -31.8832 0.0000 0.0000
# 5 0.0000 0.0000 0.0000 0.0000 40.2012 0.0000
# 6 0.0000 0.0000 0.0000 0.0000 0.0000 1.5469
#
#
#
# Elastic Compliance Matrix: (Units=1/GPa)
#
#
# Indices 1 2 3 4 5 6 
#
# 1 0.050390 -0.009374 -0.011652 0.000000 0.000000 0.000000
# 2 -0.009374 0.019918 -0.003065 0.000000 0.000000 0.000000
# 3 -0.011652 -0.003065 0.008864 0.000000 0.000000 0.000000
# 4 0.000000 0.000000 0.000000 -0.031365 0.000000 0.000000
# 5 0.000000 0.000000 0.000000 0.000000 0.024875 0.000000
# 6 0.000000 0.000000 0.000000 0.000000 0.000000 0.646445
#
#
# Mechanical properties :
#
#
# Convention : Reuss Voigt Hill
#
# Bulk Modulus (GPa) = 32.26653 69.73452 51.00053
# Shear Modulus (GPa) = 6.42971 13.68965 10.05968
#
# Velocity S-wave (km/s) = 1.80613 2.63542 2.25915
# Velocity P-wave (km/s) = 4.55191 6.68134 5.71665
#
# Compressibility (1/GPa) = 0.03099186
#
# Stress axis : x y z
#
# Youngs Moduli (GPa) = 19.84503 50.20499 112.81439
#
# Poissons Ratio (x) = 0.47061 1.31450
# Poissons Ratio (y) = 0.18602 0.34577
# Poissons Ratio (z) = 0.23123 0.15388
#
# Static dielectric constant tensor:
#      x y z
#    x 1.679970 0.000000 0.000000 
#    y 0.000000 1.768560 0.000000 
#    z 0.000000 0.000000 1.684470 
# 
# From -- ./inp_files/29016.got.cif
#   From: 2010.05.17/outbox.ucp.g08.bks.cvg/sg59_15_cif.got.tgz:29016.got - 2010.06.11 16:43:56.
