data_PCOD9453068
_publ_section_title
;
Structure prediction by ZEFSAII (Michael W. Deem and Ramdas Pophale) SiO2 
 PCOD9453068
Probable space group: P M M N
;
_chemical_formula_sum "Si O2"
_cell_formula_units_Z 48
_cell_length_a 8.583898
_cell_length_b 15.755587
_cell_length_c 18.138800
_cell_angle_alpha 90.000000
_cell_angle_beta 90.000000
_cell_angle_gamma 90.000000
_cell_volume 2453.170247
_symmetry_space_group_name_H-M "P M M N"
_symmetry_group_IT_number 59
_space_group.IT_coordinate_system_code '2'
_symmetry_cell_setting 'orthorhombic'
loop_
_space_group_symop_operation_xyz
x,y,z
1/2-x,1/2-y,z
1/2+x,-y,-z
-x,1/2+y,-z
-x,-y,-z
1/2+x,1/2+y,-z
1/2-x,y,z
x,1/2-y,z
loop_
_atom_site_type_symbol
_atom_site_label
_atom_site_fract_x
_atom_site_fract_y
_atom_site_fract_z
Si Si1 0.063831 0.500798 0.582858
Si Si2 0.424268 0.149016 0.153280
Si Si3 0.436114 0.905901 0.999812
Si Si4 0.426617 0.851062 0.157200
Si Si5 0.439408 0.349409 0.314992
Si Si6 0.439716 0.650639 0.317631
O O1 0.250000 0.501457 0.582460
O O2 0.000000 0.500000 0.500000
O O3 0.002703 0.584299 0.625887
O O4 0.003350 0.416282 0.624220
O O5 0.250000 0.112381 0.145229
O O6 0.411374 0.250000 0.161902
O O7 0.491205 0.121459 0.232426
O O8 0.511962 0.133404 0.077486
O O9 0.250000 0.900645 0.001660
O O10 0.498236 0.868214 0.077256
O O11 0.500000 0.000000 0.000000
O O12 0.250000 0.886755 0.155554
O O13 0.414585 0.750000 0.163555
O O14 0.497179 0.877227 0.235548
O O15 0.250000 0.351934 0.314541
O O16 0.483869 0.250000 0.327508
O O17 0.250000 0.647520 0.316795
O O18 0.482138 0.750000 0.330938
#
# Coordination Sequence:
#
# PCOD9453068 Si02
#       6
#     8   8   8   8   8   8
#     4  12  26  42  63  92 124 157 194 240 297 362
#     4   9  19  37  59  82 111 151 195 240 294 350
#     4  11  22  33  49  79 117 156 199 243 287 337
#     4   8  16  33  56  79 105 146 195 238 284 338
#     4   9  20  41  67  91 119 158 202 248 300 357
#     4   9  19  39  66  91 117 155 202 248 297 354
#
# _framework density 19.566519
#
# number of rings (size 3 to 8) (size 9 to 14) (size 15 to 20)
#    0.000    2.333    0.000    4.500    2.333    3.000 
#    0.000    2.500    0.000    2.000    0.000    0.000 
#    0.000    0.000    0.000    0.000    0.000    0.000 
#
# Total GULP energy -267520.206187 kJ/mol
# GULP energy per Si atom -5573.337629 kJ/mol
# Density = 1.952198 g / cm^3
# Si number density = 19.566519 Si / 1000 Ang^3
#
#
#
# Elastic Constant Matrix: (Units=GPa)
#
#
# Indices 1 2 3 4 5 6 
#
# 1 43.9735 27.8586 49.1352 0.0000 0.0000 0.0000
# 2 27.8586 89.3701 85.6722 0.0000 0.0000 0.0000
# 3 49.1352 85.6722 227.5254 0.0000 0.0000 0.0000
# 4 0.0000 0.0000 0.0000 42.5383 0.0000 0.0000
# 5 0.0000 0.0000 0.0000 0.0000 29.3066 0.0000
# 6 0.0000 0.0000 0.0000 0.0000 0.0000 25.7844
#
#
#
# Elastic Compliance Matrix: (Units=1/GPa)
#
#
# Indices 1 2 3 4 5 6 
#
# 1 0.031418 -0.005148 -0.004847 0.000000 0.000000 0.000000
# 2 -0.005148 0.018353 -0.005799 0.000000 0.000000 0.000000
# 3 -0.004847 -0.005799 0.007625 0.000000 0.000000 0.000000
# 4 0.000000 0.000000 0.000000 0.023508 0.000000 0.000000
# 5 0.000000 0.000000 0.000000 0.000000 0.034122 0.000000
# 6 0.000000 0.000000 0.000000 0.000000 0.000000 0.038783
#
#
# Mechanical properties :
#
#
# Convention : Reuss Voigt Hill
#
# Bulk Modulus (GPa) = 38.74506 76.24457 57.49482
# Shear Modulus (GPa) = 25.77337 32.73939 29.25638
#
# Velocity S-wave (km/s) = 3.63329 4.09496 3.87101
# Velocity P-wave (km/s) = 6.11929 7.83643 7.03048
#
# Compressibility (1/GPa) = 0.02580974
#
# Stress axis : x y z
#
# Youngs Moduli (GPa) = 31.82937 54.48670 131.14239
#
# Poissons Ratio (x) = 0.28047 0.63558
# Poissons Ratio (y) = 0.16384 0.76050
# Poissons Ratio (z) = 0.15426 0.31597
#
# Static dielectric constant tensor:
#      x y z
#    x 1.702550 0.000000 0.000000 
#    y 0.000000 1.673690 0.000000 
#    z 0.000000 0.000000 1.768230 
# 
# From -- ./inp_files/25476.got.cif
#   From: 2010.05.17/outbox.cif.g08.bks.cpg/sg59_13_cif.got.tgz:25476.got - 2010.06.03 14:40:33.
