data_PCOD9453911
_publ_section_title
;
Structure prediction by ZEFSAII (Michael W. Deem and Ramdas Pophale) SiO2 
 PCOD9453911
Probable space group: P B C N
;
_chemical_formula_sum "Si O2"
_cell_formula_units_Z 64
_cell_length_a 29.089100
_cell_length_b 13.823337
_cell_length_c 9.474899
_cell_angle_alpha 90.000000
_cell_angle_beta 90.000000
_cell_angle_gamma 90.000000
_cell_volume 3809.936783
_symmetry_space_group_name_H-M "P B C N"
_symmetry_group_IT_number 60
_symmetry_cell_setting 'orthorhombic'
loop_
_space_group_symop_operation_xyz
x,y,z
1/2-x,1/2-y,1/2+z
1/2+x,1/2-y,-z
-x,y,1/2-z
-x,-y,-z
1/2+x,1/2+y,1/2-z
1/2-x,1/2+y,z
x,-y,1/2+z
loop_
_atom_site_type_symbol
_atom_site_label
_atom_site_fract_x
_atom_site_fract_y
_atom_site_fract_z
Si Si1 0.622926 0.720185 0.076205
Si Si2 0.264696 0.484434 0.016986
Si Si3 0.823579 0.075104 0.254460
Si Si4 0.130773 0.875187 0.230565
Si Si5 0.972763 0.864084 0.605341
Si Si6 0.227310 0.197462 0.726059
Si Si7 0.294434 0.843149 0.479939
Si Si8 0.961569 0.085503 0.630430
O O1 0.648969 0.669298 0.207115
O O2 0.568555 0.712600 0.099552
O O3 0.652252 0.816707 0.046026
O O4 0.629697 0.657145 0.932699
O O5 0.297523 0.562104 0.097575
O O6 0.261295 0.393976 0.123485
O O7 0.287881 0.449044 0.872229
O O8 0.218525 0.544163 0.988137
O O9 0.860342 0.988983 0.260207
O O10 0.176694 0.824627 0.289455
O O11 0.083235 0.861180 0.310803
O O12 0.000000 0.859992 0.750000
O O13 0.012394 0.855670 0.489499
O O14 0.952198 0.973797 0.583693
O O15 0.221528 0.289077 0.623616
O O16 0.264275 0.200712 0.850458
O O17 0.000000 0.075526 0.750000
#
# Coordination Sequence:
#
# PCOD9453911 Si02
#       8
#     8   8   8   8   8   8   8   8
#     4  11  20  33  48  71 103 135 177 214 258 303
#     4  11  20  34  50  72 102 143 182 212 255 303
#     4  11  18  31  50  68 100 140 177 213 244 302
#     4  10  18  30  48  67  95 135 177 209 245 298
#     4  10  21  30  44  70  96 130 175 211 258 297
#     4  10  22  35  50  77 104 141 179 215 259 312
#     4  11  21  35  52  74 105 143 177 217 261 305
#     4  10  18  29  47  64  94 136 173 211 237 302
#
# _framework density 16.798179000000001
#
# number of rings (size 3 to 8) (size 9 to 14) (size 15 to 20)
#    0.000    1.500    8.750    0.750    0.000    1.000 
#    2.250    0.000    0.000    0.000    0.000    0.000 
#    0.000    1.000    0.250    1.875    0.000    0.000 
#
# Total GULP energy -356619.929677 kJ/mol
# GULP energy per Si atom -5572.186401 kJ/mol
# Density = 1.675995 g / cm^3
# Si number density = 16.798179 Si / 1000 Ang^3
#
#
#
# Elastic Constant Matrix: (Units=GPa)
#
#
# Indices 1 2 3 4 5 6 
#
# 1 101.3368 22.7278 10.3434 0.0000 0.0000 0.0000
# 2 22.7278 27.2454 -5.7885 0.0000 0.0000 0.0000
# 3 10.3434 -5.7885 40.2496 0.0000 0.0000 0.0000
# 4 0.0000 0.0000 0.0000 15.1490 0.0000 0.0000
# 5 0.0000 0.0000 0.0000 0.0000 25.2889 0.0000
# 6 0.0000 0.0000 0.0000 0.0000 0.0000 28.0888
#
#
#
# Elastic Compliance Matrix: (Units=1/GPa)
#
#
# Indices 1 2 3 4 5 6 
#
# 1 0.013076 -0.011988 -0.005084 0.000000 0.000000 0.000000
# 2 -0.011988 0.048850 0.010106 0.000000 0.000000 0.000000
# 3 -0.005084 0.010106 0.027605 0.000000 0.000000 0.000000
# 4 0.000000 0.000000 0.000000 0.066011 0.000000 0.000000
# 5 0.000000 0.000000 0.000000 0.000000 0.039543 0.000000
# 6 0.000000 0.000000 0.000000 0.000000 0.000000 0.035601
#
#
# Mechanical properties :
#
#
# Convention : Reuss Voigt Hill
#
# Bulk Modulus (GPa) = 13.22767 24.82193 19.02480
# Shear Modulus (GPa) = 18.53104 23.14196 20.83650
#
# Velocity S-wave (km/s) = 3.32498 3.71569 3.52576
# Velocity P-wave (km/s) = 4.75734 5.76343 5.28438
#
# Compressibility (1/GPa) = 0.07559913
#
# Stress axis : x y z
#
# Youngs Moduli (GPa) = 76.47827 20.47065 36.22552
#
# Poissons Ratio (x) = 0.24540 0.18418
# Poissons Ratio (y) = 0.91680 -0.36609
# Poissons Ratio (z) = 0.38883 -0.20688
#
# Static dielectric constant tensor:
#      x y z
#    x 1.598200 0.000000 0.000000 
#    y 0.000000 1.577480 0.000000 
#    z 0.000000 0.000000 1.595940 
# 
# From -- ./inp_files/8543.got.cif
#   From: 2010.05.17/outbox.cif.g08.bks.cpg/sg60_5_cif.got.tgz:8543.got - 2010.06.03 14:59:27.
