data_PCOD9453149
_publ_section_title
;
Structure prediction by ZEFSAII (Michael W. Deem and Ramdas Pophale) SiO2 
 PCOD9453149
Probable space group: P M M N
;
_chemical_formula_sum "Si O2"
_cell_formula_units_Z 26
_cell_length_a 22.992378
_cell_length_b 7.834502
_cell_length_c 7.544069
_cell_angle_alpha 90.000000
_cell_angle_beta 90.000000
_cell_angle_gamma 90.000000
_cell_volume 1358.942054
_symmetry_space_group_name_H-M "P M M N"
_symmetry_group_IT_number 59
_space_group.IT_coordinate_system_code '2'
_symmetry_cell_setting 'orthorhombic'
loop_
_space_group_symop_operation_xyz
x,y,z
1/2-x,1/2-y,z
1/2+x,-y,-z
-x,1/2+y,-z
-x,-y,-z
1/2+x,1/2+y,-z
1/2-x,y,z
x,1/2-y,z
loop_
_atom_site_type_symbol
_atom_site_label
_atom_site_fract_x
_atom_site_fract_y
_atom_site_fract_z
Si Si1 0.566185 0.944287 0.033920
Si Si2 0.346726 0.945788 0.253500
Si Si3 0.250000 0.250000 0.237875
Si Si4 0.936383 0.451154 0.428064
O O1 0.572066 0.750000 0.974016
O O2 0.576863 0.957672 0.243368
O O3 0.500000 0.000000 0.000000
O O4 0.611590 0.049975 0.918661
O O5 0.324143 0.750000 0.272738
O O6 0.388491 0.982742 0.421711
O O7 0.300240 0.096740 0.238623
O O8 0.937123 0.250000 0.390077
O O9 0.000000 0.500000 0.500000
#
# Coordination Sequence:
#
# PCOD9453149 Si02
#       4
#     8   8   2   8
#     4  12  23  38  65 101 140 177 221 286 354 407
#     4  11  25  46  68 100 136 181 233 281 337 407
#     4  12  26  48  74  94 140 194 238 266 334 426
#     4  11  23  38  64 100 138 174 219 286 351 406
#
# _framework density 19.132529000000002
#
# number of rings (size 3 to 8) (size 9 to 14) (size 15 to 20)
#    0.000    0.615    4.615    4.154    4.308    0.000 
#    0.000    3.077    0.000    3.692    0.000    0.000 
#    0.000    0.000    0.000    0.000    0.000    0.000 
#
# Total GULP energy -144772.799492 kJ/mol
# GULP energy per Si atom -5568.184596 kJ/mol
# Density = 1.908898 g / cm^3
# Si number density = 19.132529 Si / 1000 Ang^3
#
#
#
# Elastic Constant Matrix: (Units=GPa)
#
#
# Indices 1 2 3 4 5 6 
#
# 1 134.0561 74.5825 36.1957 0.0000 0.0000 0.0000
# 2 74.5825 145.0562 22.9866 0.0000 0.0000 0.0000
# 3 36.1957 22.9866 102.9156 0.0000 0.0000 0.0000
# 4 0.0000 0.0000 0.0000 28.1353 0.0000 0.0000
# 5 0.0000 0.0000 0.0000 0.0000 -4.9385 0.0000
# 6 0.0000 0.0000 0.0000 0.0000 0.0000 53.6390
#
#
#
# Elastic Compliance Matrix: (Units=1/GPa)
#
#
# Indices 1 2 3 4 5 6 
#
# 1 0.011145 -0.005297 -0.002737 0.000000 0.000000 0.000000
# 2 -0.005297 0.009664 -0.000296 0.000000 0.000000 0.000000
# 3 -0.002737 -0.000296 0.010745 0.000000 0.000000 0.000000
# 4 0.000000 0.000000 0.000000 0.035543 0.000000 0.000000
# 5 0.000000 0.000000 0.000000 0.000000 -0.202491 0.000000
# 6 0.000000 0.000000 0.000000 0.000000 0.000000 0.018643
#
#
# Mechanical properties :
#
#
# Convention : Reuss Voigt Hill
#
# Bulk Modulus (GPa) = 67.13071 72.17306 69.65189
# Shear Modulus (GPa) = -52.56142 31.91802 -10.32170
#
# Velocity S-wave (km/s) = -5.24709 4.08886 -2.32520
# Velocity P-wave (km/s) = 1.24332 7.75218 5.41066
#
# Compressibility (1/GPa) = 0.01489631
#
# Stress axis : x y z
#
# Youngs Moduli (GPa) = 89.72267 103.47484 93.06423
#
# Poissons Ratio (x) = 0.54809 0.25470
# Poissons Ratio (y) = 0.47525 0.02751
# Poissons Ratio (z) = 0.24555 0.03059
#
# Static dielectric constant tensor:
#      x y z
#    x 1.629590 0.000000 0.000000 
#    y 0.000000 1.685270 0.000000 
#    z 0.000000 0.000000 1.642940 
# 
# From -- ./inp_files/9844.got.cif
#   From: 2010.05.17/outbox.cif.g08.bks.cpg/sg59_5_cif.got.tgz:9844.got - 2010.06.03 14:40:33.
