data_PCOD9453715
_publ_section_title
;
Structure prediction by ZEFSAII (Michael W. Deem and Ramdas Pophale) SiO2 
 PCOD9453715
Probable space group: P B C N
;
_chemical_formula_sum "Si O2"
_cell_formula_units_Z 64
_cell_length_a 19.285545
_cell_length_b 5.473452
_cell_length_c 28.343608
_cell_angle_alpha 90.000000
_cell_angle_beta 90.000000
_cell_angle_gamma 90.000000
_cell_volume 2991.908883
_symmetry_space_group_name_H-M "P B C N"
_symmetry_group_IT_number 60
_symmetry_cell_setting 'orthorhombic'
loop_
_space_group_symop_operation_xyz
x,y,z
1/2-x,1/2-y,1/2+z
1/2+x,1/2-y,-z
-x,y,1/2-z
-x,-y,-z
1/2+x,1/2+y,1/2-z
1/2-x,1/2+y,z
x,-y,1/2+z
loop_
_atom_site_type_symbol
_atom_site_label
_atom_site_fract_x
_atom_site_fract_y
_atom_site_fract_z
Si Si1 0.120788 0.395139 0.086151
Si Si2 0.292397 0.950615 0.782720
Si Si3 0.012747 0.959888 0.805625
Si Si4 0.063273 0.541737 0.287438
Si Si5 0.795733 0.484747 0.507391
Si Si6 0.205863 0.473218 0.890058
Si Si7 0.902809 0.895429 0.379951
Si Si8 0.250354 0.141575 0.659391
O O1 0.152490 0.467276 0.036173
O O2 0.087637 0.125648 0.085344
O O3 0.184782 0.365323 0.123808
O O4 0.075412 0.624950 0.103744
O O5 0.241972 0.183742 0.778574
O O6 0.322327 0.971605 0.837060
O O7 0.366064 0.983799 0.757000
O O8 0.045928 0.699221 0.817938
O O9 0.000000 0.941310 0.750000
O O10 0.942462 0.019052 0.833199
O O11 0.061032 0.195167 0.812954
O O12 0.000000 0.559030 0.250000
O O13 0.746804 0.241270 0.503505
O O14 0.831676 0.476475 0.559123
O O15 0.249662 0.222503 0.891821
O O16 0.820642 0.864607 0.370175
O O17 0.249481 0.891571 0.687856
#
# Coordination Sequence:
#
# PCOD9453715 Si02
#       8
#     8   8   8   8   8   8   8   8
#     4  10  17  26  43  70 101 137 176 220 273 325
#     4  10  19  35  60  89 116 145 182 233 286 334
#     4  10  21  37  56  75  99 134 181 232 271 324
#     4  10  21  38  61  85 111 144 185 229 282 348
#     4  10  16  25  41  68 108 147 177 219 275 335
#     4   8  16  27  44  74 110 142 178 221 275 330
#     4  10  18  29  46  68  95 132 180 220 260 317
#     4   8  14  23  37  59  89 121 158 202 250 299
#
# _framework density 21.391027000000001
#
# number of rings (size 3 to 8) (size 9 to 14) (size 15 to 20)
#    0.000    2.500    0.000    4.500    0.000    0.000 
#    0.000    0.000    0.000   54.000    0.000    5.250 
#    0.000    0.000    0.000    0.000    0.000    0.000 
#
# Total GULP energy -356282.686404 kJ/mol
# GULP energy per Si atom -5566.916975 kJ/mol
# Density = 2.134234 g / cm^3
# Si number density = 21.391027 Si / 1000 Ang^3
#
#
#
# Elastic Constant Matrix: (Units=GPa)
#
#
# Indices 1 2 3 4 5 6 
#
# 1 43.1749 16.8188 2.8010 0.0000 0.0000 0.0000
# 2 16.8188 195.2114 0.9847 0.0000 0.0000 0.0000
# 3 2.8010 0.9847 41.0169 0.0000 0.0000 0.0000
# 4 0.0000 0.0000 0.0000 22.3413 0.0000 0.0000
# 5 0.0000 0.0000 0.0000 0.0000 4.5718 0.0000
# 6 0.0000 0.0000 0.0000 0.0000 0.0000 17.9430
#
#
#
# Elastic Compliance Matrix: (Units=1/GPa)
#
#
# Indices 1 2 3 4 5 6 
#
# 1 0.024070 -0.002066 -0.001594 0.000000 0.000000 0.000000
# 2 -0.002066 0.005301 0.000014 0.000000 0.000000 0.000000
# 3 -0.001594 0.000014 0.024489 0.000000 0.000000 0.000000
# 4 0.000000 0.000000 0.000000 0.044760 0.000000 0.000000
# 5 0.000000 0.000000 0.000000 0.000000 0.218734 0.000000
# 6 0.000000 0.000000 0.000000 0.000000 0.000000 0.055732
#
#
# Mechanical properties :
#
#
# Convention : Reuss Voigt Hill
#
# Bulk Modulus (GPa) = 21.47443 35.62355 28.54899
# Shear Modulus (GPa) = 12.62946 26.22446 19.42696
#
# Velocity S-wave (km/s) = 2.43247 3.50516 3.01688
# Velocity P-wave (km/s) = 4.23674 5.75076 5.05080
#
# Compressibility (1/GPa) = 0.04656702
#
# Stress axis : x y z
#
# Youngs Moduli (GPa) = 41.54602 188.65936 40.83510
#
# Poissons Ratio (x) = 0.38972 0.06509
# Poissons Ratio (y) = 0.08582 -0.00056
# Poissons Ratio (z) = 0.06623 -0.00261
#
# Static dielectric constant tensor:
#      x y z
#    x 1.900910 0.000000 0.000000 
#    y 0.000000 1.897210 0.000000 
#    z 0.000000 0.000000 1.826060 
# 
# From -- ./inp_files/26222.got.cif
#   From: 2010.05.17/outbox.cif.g08.bks.cpg/sg60_14_cif.got.tgz:26222.got - 2010.06.03 14:59:27.
