data_PCOD9453169
_publ_section_title
;
Structure prediction by ZEFSAII (Michael W. Deem and Ramdas Pophale) SiO2 
 PCOD9453169
Probable space group: P M M N
;
_chemical_formula_sum "Si O2"
_cell_formula_units_Z 64
_cell_length_a 9.330125
_cell_length_b 19.344278
_cell_length_c 20.884391
_cell_angle_alpha 90.000000
_cell_angle_beta 90.000000
_cell_angle_gamma 90.000000
_cell_volume 3769.309531
_symmetry_space_group_name_H-M "P M M N"
_symmetry_group_IT_number 59
_space_group.IT_coordinate_system_code '2'
_symmetry_cell_setting 'orthorhombic'
loop_
_space_group_symop_operation_xyz
x,y,z
1/2-x,1/2-y,z
1/2+x,-y,-z
-x,1/2+y,-z
-x,-y,-z
1/2+x,1/2+y,-z
1/2-x,y,z
x,1/2-y,z
loop_
_atom_site_type_symbol
_atom_site_label
_atom_site_fract_x
_atom_site_fract_y
_atom_site_fract_z
Si Si1 0.085476 0.907617 0.054086
Si Si2 0.585591 0.575428 0.928681
Si Si3 0.421769 0.434398 0.467645
Si Si4 0.918088 0.456944 0.339075
Si Si5 0.584656 0.892002 0.178141
Si Si6 0.085837 0.669283 0.443639
Si Si7 0.415102 0.559213 0.805072
Si Si8 0.081875 0.123268 0.678055
O O1 0.250000 0.886663 0.048566
O O2 0.011960 0.875984 0.117071
O O3 0.082475 0.991476 0.063172
O O4 0.000120 0.894230 0.988799
O O5 0.750000 0.597110 0.930223
O O6 0.512939 0.590088 0.860493
O O7 0.500000 0.500000 0.500000
O O8 0.250000 0.440057 0.471449
O O9 0.478975 0.431779 0.395088
O O10 0.482074 0.370266 0.507826
O O11 0.750000 0.441173 0.352682
O O12 0.955036 0.427855 0.268711
O O13 0.927704 0.540511 0.334155
O O14 0.750000 0.873041 0.165736
O O15 0.542828 0.863079 0.247805
O O16 0.581456 0.975607 0.186702
O O17 0.250000 0.642375 0.446980
O O18 0.088332 0.750000 0.458483
O O19 0.020758 0.658458 0.372984
O O20 0.250000 0.580149 0.814567
O O21 0.250000 0.142146 0.669129
#
# Coordination Sequence:
#
# PCOD9453169 Si02
#       8
#     8   8   8   8   8   8   8   8
#     4   9  15  21  30  46  69 103 145 185 225 269
#     4   9  15  21  30  45  70 105 144 185 225 269
#     4  12  23  35  54  77 100 128 163 204 249 298
#     4   9  17  30  48  70  94 121 155 197 243 289
#     4   8  14  24  37  55  78 106 143 185 228 272
#     4  11  24  39  54  74 100 130 164 204 250 299
#     4   8  14  24  37  54  79 110 143 182 228 277
#     4   9  17  30  49  69  91 122 156 195 241 290
#
# _framework density 16.979237000000001
#
# number of rings (size 3 to 8) (size 9 to 14) (size 15 to 20)
#    0.000    2.625    1.250    3.750    0.000    5.000 
#    0.000    2.500    0.000    0.000    0.000    0.000 
#    0.000    0.000    0.000    1.125    0.000   19.250 
#
# Total GULP energy -356662.906537 kJ/mol
# GULP energy per Si atom -5572.857915 kJ/mol
# Density = 1.694059 g / cm^3
# Si number density = 16.979237 Si / 1000 Ang^3
#
#
#
# Elastic Constant Matrix: (Units=GPa)
#
#
# Indices 1 2 3 4 5 6 
#
# 1 142.9496 22.2248 107.2330 0.0000 0.0000 0.0000
# 2 22.2248 17.1307 18.7922 0.0000 0.0000 0.0000
# 3 107.2330 18.7922 152.7052 0.0000 0.0000 0.0000
# 4 0.0000 0.0000 0.0000 5.6907 0.0000 0.0000
# 5 0.0000 0.0000 0.0000 0.0000 37.5226 0.0000
# 6 0.0000 0.0000 0.0000 0.0000 0.0000 11.0990
#
#
#
# Elastic Compliance Matrix: (Units=1/GPa)
#
#
# Indices 1 2 3 4 5 6 
#
# 1 0.016091 -0.009804 -0.010093 0.000000 0.000000 0.000000
# 2 -0.009804 0.073458 -0.002155 0.000000 0.000000 0.000000
# 3 -0.010093 -0.002155 0.013901 0.000000 0.000000 0.000000
# 4 0.000000 0.000000 0.000000 0.175725 0.000000 0.000000
# 5 0.000000 0.000000 0.000000 0.000000 0.026651 0.000000
# 6 0.000000 0.000000 0.000000 0.000000 0.000000 0.090099
#
#
# Mechanical properties :
#
#
# Convention : Reuss Voigt Hill
#
# Bulk Modulus (GPa) = 16.85032 67.69839 42.27436
# Shear Modulus (GPa) = 10.87403 21.83148 16.35275
#
# Velocity S-wave (km/s) = 2.53342 3.58966 3.10676
# Velocity P-wave (km/s) = 4.30154 7.55902 6.14988
#
# Compressibility (1/GPa) = 0.05934605
#
# Stress axis : x y z
#
# Youngs Moduli (GPa) = 62.14729 13.61316 71.93607
#
# Poissons Ratio (x) = 0.13346 0.72604
# Poissons Ratio (y) = 0.60929 0.15505
# Poissons Ratio (z) = 0.62724 0.02934
#
# Static dielectric constant tensor:
#      x y z
#    x 1.565310 0.000000 0.000000 
#    y 0.000000 1.552200 0.000000 
#    z 0.000000 0.000000 1.587210 
# 
# From -- ./inp_files/29787.got.cif
#   From: 2010.05.17/outbox.cif.g08.bks.cpg/sg59_15_cif.got.tgz:29787.got - 2010.06.03 14:40:33.
