data_PCOD9453324
_publ_section_title
;
Structure prediction by ZEFSAII (Michael W. Deem and Ramdas Pophale) SiO2 
 PCOD9453324
Probable space group: P M M N
;
_chemical_formula_sum "Si O2"
_cell_formula_units_Z 56
_cell_length_a 21.000000
_cell_length_b 9.000000
_cell_length_c 18.000000
_cell_angle_alpha 90.000000
_cell_angle_beta 90.000000
_cell_angle_gamma 90.000000
_cell_volume 3402.000000
_symmetry_space_group_name_H-M "P M M N"
_symmetry_group_IT_number 59
_space_group.IT_coordinate_system_code '2'
_symmetry_cell_setting 'orthorhombic'
loop_
_space_group_symop_operation_xyz
x,y,z
1/2-x,1/2-y,z
1/2+x,-y,-z
-x,1/2+y,-z
-x,-y,-z
1/2+x,1/2+y,-z
1/2-x,y,z
x,1/2-y,z
loop_
_atom_site_type_symbol
_atom_site_label
_atom_site_fract_x
_atom_site_fract_y
_atom_site_fract_z
Si Si1 0.520320 0.070706 0.786819
Si Si2 0.962847 0.428636 0.616806
Si Si3 0.618167 0.429538 0.204459
Si Si4 0.590511 0.574018 0.475136
Si Si5 0.057764 0.570014 0.048132
Si Si6 0.325351 0.580545 0.637047
Si Si7 0.321271 0.930682 0.951656
O O1 0.517391 0.250000 0.784436
O O2 0.542942 0.023648 0.703410
O O3 0.556117 0.030404 0.863962
O O4 0.450494 0.003623 0.797922
O O5 0.957042 0.250000 0.615201
O O6 0.916095 0.498576 0.555600
O O7 0.031740 0.468027 0.580498
O O8 0.612343 0.250000 0.202593
O O9 0.649585 0.470791 0.282772
O O10 0.658352 0.473669 0.131942
O O11 0.588269 0.750000 0.484624
O O12 0.651177 0.520297 0.429845
O O13 0.052094 0.750000 0.043219
O O14 0.123669 0.523802 0.008806
O O15 0.000000 0.500000 0.000000
O O16 0.250000 0.584318 0.640563
O O17 0.349088 0.750000 0.624894
O O18 0.250000 0.983173 0.968970
O O19 0.320124 0.750000 0.952943
#
# Coordination Sequence:
#
# PCOD9453324 Si02
#       7
#     8   8   8   8   8   8   8
#     4  10  19  31  48  72 103 131 158 201 254 299
#     4   9  18  32  48  67  95 127 156 197 249 293
#     4  10  18  29  48  72  98 131 167 199 239 293
#     4  10  19  31  49  71  93 124 164 200 241 289
#     4  10  19  31  50  74  99 131 167 207 252 297
#     4  10  20  32  47  70 101 134 164 197 240 292
#     4   9  17  30  48  71  99 131 168 206 242 287
#
# _framework density 16.460905
#
# number of rings (size 3 to 8) (size 9 to 14) (size 15 to 20)
#    0.000    2.286    2.857    0.857    0.000    3.143 
#    0.000    0.000    0.000    3.429    0.000    4.000 
#    0.000    0.000    0.000    0.000    0.000    0.000 
#
# Total GULP energy -311943.920334 kJ/mol
# GULP energy per Si atom -5570.427149 kJ/mol
# Density = 1.642344 g / cm^3
# Si number density = 16.460905 Si / 1000 Ang^3
#
#
#
# Elastic Constant Matrix: (Units=GPa)
#
#
# Indices 1 2 3 4 5 6 
#
# 1 86.6454 12.0984 65.0009 0.0000 0.0000 0.0000
# 2 12.0984 -0.4114 24.5773 0.0000 0.0000 0.0000
# 3 65.0009 24.5773 160.3843 0.0000 0.0000 0.0000
# 4 0.0000 0.0000 0.0000 17.4146 0.0000 0.0000
# 5 0.0000 0.0000 0.0000 0.0000 13.9240 0.0000
# 6 0.0000 0.0000 0.0000 0.0000 0.0000 19.6018
#
#
#
# Elastic Compliance Matrix: (Units=1/GPa)
#
#
# Indices 1 2 3 4 5 6 
#
# 1 0.016288 0.008335 -0.007878 0.000000 0.000000 0.000000
# 2 0.008335 -0.235108 0.032650 0.000000 0.000000 0.000000
# 3 -0.007878 0.032650 0.004425 0.000000 0.000000 0.000000
# 4 0.000000 0.000000 0.000000 0.057423 0.000000 0.000000
# 5 0.000000 0.000000 0.000000 0.000000 0.071819 0.000000
# 6 0.000000 0.000000 0.000000 0.000000 0.000000 0.051016
#
#
# Mechanical properties :
#
#
# Convention : Reuss Voigt Hill
#
# Bulk Modulus (GPa) = -6.74843 49.99685 21.62421
# Shear Modulus (GPa) = -33.39014 19.85087 -6.76964
#
# Velocity S-wave (km/s) = -4.50872 3.47643 -2.03014
# Velocity P-wave (km/s) = 5.58689 6.82299 2.76946
#
# Compressibility (1/GPa) = -0.14818265
#
# Stress axis : x y z
#
# Youngs Moduli (GPa) = 61.39556 -4.25337 226.00493
#
# Poissons Ratio (x) = 0.03545 1.78055
# Poissons Ratio (y) = -0.51170 -7.37908
# Poissons Ratio (z) = 0.48370 0.13887
#
# Static dielectric constant tensor:
#      x y z
#    x 1.558250 0.000000 0.000000 
#    y 0.000000 1.552810 0.000000 
#    z 0.000000 0.000000 1.584530 
# 
# From -- ./inp_files/26117.got.cif
#   From: 2010.05.17/outbox.ucp.g08.bks.cvg/sg59_14_cif.got.tgz:26117.got - 2010.06.11 16:43:56.
