data_PCOD9453864
_publ_section_title
;
Structure prediction by ZEFSAII (Michael W. Deem and Ramdas Pophale) SiO2 
 PCOD9453864
Probable space group: P B C N
;
_chemical_formula_sum "Si O2"
_cell_formula_units_Z 48
_cell_length_a 9.329310
_cell_length_b 15.027434
_cell_length_c 14.645277
_cell_angle_alpha 90.000000
_cell_angle_beta 90.000000
_cell_angle_gamma 90.000000
_cell_volume 2053.203254
_symmetry_space_group_name_H-M "P B C N"
_symmetry_group_IT_number 60
_symmetry_cell_setting 'orthorhombic'
loop_
_space_group_symop_operation_xyz
x,y,z
1/2-x,1/2-y,1/2+z
1/2+x,1/2-y,-z
-x,y,1/2-z
-x,-y,-z
1/2+x,1/2+y,1/2-z
1/2-x,1/2+y,z
x,-y,1/2+z
loop_
_atom_site_type_symbol
_atom_site_label
_atom_site_fract_x
_atom_site_fract_y
_atom_site_fract_z
Si Si1 0.469805 0.407235 0.852302
Si Si2 0.741168 0.454379 0.085351
Si Si3 0.570840 0.296198 0.005727
Si Si4 0.665559 0.219140 0.373089
Si Si5 0.721450 0.018068 0.383539
Si Si6 0.658302 0.850931 0.256812
O O1 0.500000 0.379989 0.750000
O O2 0.325753 0.462097 0.863492
O O3 0.605418 0.472010 0.875719
O O4 0.469768 0.325976 0.922202
O O5 0.615079 0.388268 0.053303
O O6 0.822195 0.394824 0.157919
O O7 0.815200 0.484371 0.991397
O O8 0.485822 0.240042 0.079831
O O9 0.713839 0.264067 0.952991
O O10 0.669675 0.114828 0.348828
O O11 0.720436 0.281295 0.290377
O O12 0.667927 0.933339 0.328404
O O13 0.500000 0.811692 0.250000
#
# Coordination Sequence:
#
# PCOD9453864 Si02
#       6
#     8   8   8   8   8   8
#     4  10  17  35  68  94 124 165 230 282 334 419
#     4  10  21  40  69  95 132 175 233 285 350 418
#     4  10  23  42  65  99 133 188 230 288 352 419
#     4  10  24  45  68  97 142 180 239 287 351 423
#     4  10  23  45  62 102 134 177 230 283 355 416
#     4  12  26  44  69 104 141 185 236 295 351 415
#
# _framework density 23.378104
#
# number of rings (size 3 to 8) (size 9 to 14) (size 15 to 20)
#    0.000    2.000    1.667    4.000    4.667    3.333 
#    6.000    0.000    0.000    0.000    0.000    0.000 
#    0.000    0.000    0.000    0.000    0.000    0.000 
#
# Total GULP energy -268129.495626 kJ/mol
# GULP energy per Si atom -5586.031159 kJ/mol
# Density = 2.332489 g / cm^3
# Si number density = 23.378104 Si / 1000 Ang^3
#
#
#
# Elastic Constant Matrix: (Units=GPa)
#
#
# Indices 1 2 3 4 5 6 
#
# 1 15.4564 14.9884 -7.8750 0.0000 0.0000 0.0000
# 2 14.9884 65.9021 33.3137 0.0000 0.0000 0.0000
# 3 -7.8750 33.3137 104.3487 0.0000 0.0000 0.0000
# 4 0.0000 0.0000 0.0000 -17.3645 0.0000 0.0000
# 5 0.0000 0.0000 0.0000 0.0000 25.3787 0.0000
# 6 0.0000 0.0000 0.0000 0.0000 0.0000 -12.6685
#
#
#
# Elastic Compliance Matrix: (Units=1/GPa)
#
#
# Indices 1 2 3 4 5 6 
#
# 1 0.107305 -0.033983 0.018947 0.000000 0.000000 0.000000
# 2 -0.033983 0.028856 -0.011777 0.000000 0.000000 0.000000
# 3 0.018947 -0.011777 0.014773 0.000000 0.000000 0.000000
# 4 0.000000 0.000000 0.000000 -0.057589 0.000000 0.000000
# 5 0.000000 0.000000 0.000000 0.000000 0.039403 0.000000
# 6 0.000000 0.000000 0.000000 0.000000 0.000000 -0.078936
#
#
# Mechanical properties :
#
#
# Convention : Reuss Voigt Hill
#
# Bulk Modulus (GPa) = 10.27654 29.61793 19.94724
# Shear Modulus (GPa) = 35.74653 8.75447 22.25050
#
# Velocity S-wave (km/s) = 3.91456 1.93723 3.08842
# Velocity P-wave (km/s) = 4.98368 4.20719 4.61180
#
# Compressibility (1/GPa) = 0.09730900
#
# Stress axis : x y z
#
# Youngs Moduli (GPa) = 9.31925 34.65470 67.69107
#
# Poissons Ratio (x) = 1.17765 -1.28255
# Poissons Ratio (y) = 0.31669 0.79720
# Poissons Ratio (z) = -0.17657 0.40813
#
# Static dielectric constant tensor:
#      x y z
#    x 1.920760 0.000000 0.000000 
#    y 0.000000 1.846120 0.000000 
#    z 0.000000 0.000000 1.939700 
# 
# From -- ./inp_files/16255.got.cif
#   From: 2010.05.17/outbox.cif.g08.bks.cpg/sg60_9_cif.got.tgz:16255.got - 2010.06.03 14:59:27.
