data_PCOD9453824
_publ_section_title
;
Structure prediction by ZEFSAII (Michael W. Deem and Ramdas Pophale) SiO2 
 PCOD9453824
Probable space group: P B C N
;
_chemical_formula_sum "Si O2"
_cell_formula_units_Z 48
_cell_length_a 16.039103
_cell_length_b 10.095356
_cell_length_c 18.223828
_cell_angle_alpha 90.000000
_cell_angle_beta 90.000000
_cell_angle_gamma 90.000000
_cell_volume 2950.810516
_symmetry_space_group_name_H-M "P B C N"
_symmetry_group_IT_number 60
_symmetry_cell_setting 'orthorhombic'
loop_
_space_group_symop_operation_xyz
x,y,z
1/2-x,1/2-y,1/2+z
1/2+x,1/2-y,-z
-x,y,1/2-z
-x,-y,-z
1/2+x,1/2+y,1/2-z
1/2-x,1/2+y,z
x,-y,1/2+z
loop_
_atom_site_type_symbol
_atom_site_label
_atom_site_fract_x
_atom_site_fract_y
_atom_site_fract_z
Si Si1 0.390366 0.234875 0.568357
Si Si2 0.654503 0.114995 0.572520
Si Si3 0.581791 0.528528 0.951327
Si Si4 0.754616 0.135747 0.029101
Si Si5 0.530701 0.190752 0.442704
Si Si6 0.999063 0.551916 0.836450
O O1 0.396606 0.390475 0.587672
O O2 0.300390 0.191018 0.538712
O O3 0.453078 0.210160 0.498795
O O4 0.424867 0.145244 0.633816
O O5 0.718025 0.237231 0.576138
O O6 0.604140 0.134311 0.495436
O O7 0.584893 0.117226 0.634996
O O8 0.701066 0.975341 0.570022
O O9 0.558998 0.666558 0.911662
O O10 0.500000 0.500000 0.000000
O O11 0.661311 0.565441 0.000990
O O12 0.509507 0.085465 0.380785
O O13 0.000000 0.535016 0.750000
#
# Coordination Sequence:
#
# PCOD9453824 Si02
#       6
#     8   8   8   8   8   8
#     4  10  17  32  54  81 106 135 184 236 271 315
#     4  10  19  32  55  85 102 136 184 232 275 321
#     4   9  19  30  51  87 108 130 170 235 286 313
#     4  11  17  29  58  83 106 130 178 239 272 311
#     4   9  17  33  54  79 103 132 186 226 269 330
#     4  11  21  35  55  76 114 155 183 218 280 343
#
# _framework density 16.266718000000001
#
# number of rings (size 3 to 8) (size 9 to 14) (size 15 to 20)
#    0.000    2.000    5.000    2.000    0.000    0.000 
#    0.000    0.833   11.000    0.000    0.000    0.000 
#    0.000    0.000    0.000    0.000    0.000    0.000 
#
# Total GULP energy -267394.946669 kJ/mol
# GULP energy per Si atom -5570.728056 kJ/mol
# Density = 1.622969 g / cm^3
# Si number density = 16.266718 Si / 1000 Ang^3
#
#
#
# Elastic Constant Matrix: (Units=GPa)
#
#
# Indices 1 2 3 4 5 6 
#
# 1 78.9894 18.1632 10.5620 0.0000 0.0000 0.0000
# 2 18.1632 112.7892 34.7354 0.0000 0.0000 0.0000
# 3 10.5620 34.7354 73.9469 0.0000 0.0000 0.0000
# 4 0.0000 0.0000 0.0000 8.8600 0.0000 0.0000
# 5 0.0000 0.0000 0.0000 0.0000 9.9156 0.0000
# 6 0.0000 0.0000 0.0000 0.0000 0.0000 36.1759
#
#
#
# Elastic Compliance Matrix: (Units=1/GPa)
#
#
# Indices 1 2 3 4 5 6 
#
# 1 0.013215 -0.001808 -0.001038 0.000000 0.000000 0.000000
# 2 -0.001808 0.010613 -0.004727 0.000000 0.000000 0.000000
# 3 -0.001038 -0.004727 0.015892 0.000000 0.000000 0.000000
# 4 0.000000 0.000000 0.000000 0.112867 0.000000 0.000000
# 5 0.000000 0.000000 0.000000 0.000000 0.100851 0.000000
# 6 0.000000 0.000000 0.000000 0.000000 0.000000 0.027643
#
#
# Mechanical properties :
#
#
# Convention : Reuss Voigt Hill
#
# Bulk Modulus (GPa) = 40.69549 43.62740 42.16145
# Shear Modulus (GPa) = 16.42476 24.47462 20.44969
#
# Velocity S-wave (km/s) = 3.18105 3.88310 3.54948
# Velocity P-wave (km/s) = 6.21000 6.85441 6.54014
#
# Compressibility (1/GPa) = 0.02457275
#
# Stress axis : x y z
#
# Youngs Moduli (GPa) = 75.67418 94.22339 62.92504
#
# Poissons Ratio (x) = 0.17039 0.06532
# Poissons Ratio (y) = 0.13684 0.29745
# Poissons Ratio (z) = 0.07855 0.44540
#
# Static dielectric constant tensor:
#      x y z
#    x 1.577850 0.000000 0.000000 
#    y 0.000000 1.598860 0.000000 
#    z 0.000000 0.000000 1.519020 
# 
# From -- ./inp_files/16800.got.cif
#   From: 2010.05.17/outbox.cif.g08.bks.cpg/sg60_9_cif.got.tgz:16800.got - 2010.06.03 14:59:27.
