data_PCOD9453585
_publ_section_title
;
Structure prediction by ZEFSAII (Michael W. Deem and Ramdas Pophale) SiO2 
 PCOD9453585
Probable space group: P M M N
;
_chemical_formula_sum "Si O2"
_cell_formula_units_Z 64
_cell_length_a 15.000000
_cell_length_b 18.000000
_cell_length_c 12.000000
_cell_angle_alpha 90.000000
_cell_angle_beta 90.000000
_cell_angle_gamma 90.000000
_cell_volume 3240.000000
_symmetry_space_group_name_H-M "P M M N"
_symmetry_group_IT_number 59
_space_group.IT_coordinate_system_code '2'
_symmetry_cell_setting 'orthorhombic'
loop_
_space_group_symop_operation_xyz
x,y,z
1/2-x,1/2-y,z
1/2+x,-y,-z
-x,1/2+y,-z
-x,-y,-z
1/2+x,1/2+y,-z
1/2-x,y,z
x,1/2-y,z
loop_
_atom_site_type_symbol
_atom_site_label
_atom_site_fract_x
_atom_site_fract_y
_atom_site_fract_z
Si Si1 0.534155 0.337251 0.531326
Si Si2 0.146637 0.834318 0.692037
Si Si3 0.141981 0.596006 0.271495
Si Si4 0.646530 0.660749 0.571535
Si Si5 0.856978 0.570889 0.792857
Si Si6 0.146877 0.930593 0.907692
Si Si7 0.854656 0.895874 0.046073
Si Si8 0.038475 0.666437 0.078104
O O1 0.538503 0.250000 0.565071
O O2 0.580058 0.342258 0.410340
O O3 0.592728 0.386912 0.613183
O O4 0.430093 0.358829 0.517607
O O5 0.250000 0.840839 0.653878
O O6 0.136626 0.750000 0.737661
O O7 0.131776 0.894910 0.787103
O O8 0.250000 0.600305 0.278950
O O9 0.114658 0.513933 0.227717
O O10 0.100290 0.654481 0.185584
O O11 0.750000 0.640317 0.545076
O O12 0.643776 0.750000 0.584880
O O13 0.620099 0.622389 0.688271
O O14 0.750000 0.567536 0.794650
O O15 0.879659 0.602050 0.914283
O O16 0.250000 0.912907 0.941367
O O17 0.078251 0.892459 0.991046
O O18 0.139366 0.019206 0.911910
O O19 0.750000 0.872216 0.058110
O O20 0.934140 0.849739 0.102134
O O21 0.047316 0.750000 0.035073
#
# Coordination Sequence:
#
# PCOD9453585 Si02
#       8
#     8   8   8   8   8   8   8   8
#     4  10  21  36  57  84 116 156 197 236 295 357
#     4   9  18  32  52  82 119 153 188 240 302 358
#     4  11  23  40  61  88 121 157 199 245 294 359
#     4   9  19  36  58  85 115 148 195 250 297 347
#     4   9  19  37  61  87 117 155 195 240 299 353
#     4  10  20  37  60  87 118 154 195 244 302 359
#     4  10  22  41  61  84 120 163 202 244 298 358
#     4  12  25  37  59  91 119 156 202 245 296 353
#
# _framework density 19.753086
#
# number of rings (size 3 to 8) (size 9 to 14) (size 15 to 20)
#    0.000    2.000    1.250    1.875    1.750    4.000 
#    0.000    1.875    0.000    4.500    0.000    0.000 
#    0.000    0.000    0.000    0.000    0.000    0.000 
#
# Total GULP energy -357216.109780 kJ/mol
# GULP energy per Si atom -5581.501715 kJ/mol
# Density = 1.970813 g / cm^3
# Si number density = 19.753086 Si / 1000 Ang^3
#
#
#
# Elastic Constant Matrix: (Units=GPa)
#
#
# Indices 1 2 3 4 5 6 
#
# 1 101.0979 19.1311 33.7672 0.0000 0.0000 0.0000
# 2 19.1311 19.9711 1.4009 0.0000 0.0000 0.0000
# 3 33.7672 1.4009 32.1309 0.0000 0.0000 0.0000
# 4 0.0000 0.0000 0.0000 8.9090 0.0000 0.0000
# 5 0.0000 0.0000 0.0000 0.0000 29.5044 0.0000
# 6 0.0000 0.0000 0.0000 0.0000 0.0000 22.8421
#
#
#
# Elastic Compliance Matrix: (Units=1/GPa)
#
#
# Indices 1 2 3 4 5 6 
#
# 1 0.020021 -0.017757 -0.020266 0.000000 0.000000 0.000000
# 2 -0.017757 0.065975 0.015785 0.000000 0.000000 0.000000
# 3 -0.020266 0.015785 0.051732 0.000000 0.000000 0.000000
# 4 0.000000 0.000000 0.000000 0.112246 0.000000 0.000000
# 5 0.000000 0.000000 0.000000 0.000000 0.033893 0.000000
# 6 0.000000 0.000000 0.000000 0.000000 0.000000 0.043779
#
#
# Mechanical properties :
#
#
# Convention : Reuss Voigt Hill
#
# Bulk Modulus (GPa) = 10.72363 29.08869 19.90616
# Shear Modulus (GPa) = 12.40059 18.84448 15.62254
#
# Velocity S-wave (km/s) = 2.50827 3.09204 2.81533
# Velocity P-wave (km/s) = 3.71876 5.24459 4.54615
#
# Compressibility (1/GPa) = 0.09325201
#
# Stress axis : x y z
#
# Youngs Moduli (GPa) = 49.94876 15.15721 19.33022
#
# Poissons Ratio (x) = 0.26914 0.39174
# Poissons Ratio (y) = 0.88693 -0.30512
# Poissons Ratio (z) = 1.01226 -0.23925
#
# Static dielectric constant tensor:
#      x y z
#    x 1.716170 0.000000 0.000000 
#    y 0.000000 1.689300 0.000000 
#    z 0.000000 0.000000 1.722440 
# 
# From -- ./inp_files/17197.got.cif
#   From: 2010.05.17/outbox.ucp.g08.bks.cvg/sg59_9_cif.got.tgz:17197.got - 2010.06.11 16:43:56.
