data_PCOD9453854
_publ_section_title
;
Structure prediction by ZEFSAII (Michael W. Deem and Ramdas Pophale) SiO2 
 PCOD9453854
Probable space group: P B C N
;
_chemical_formula_sum "Si O2"
_cell_formula_units_Z 48
_cell_length_a 8.047382
_cell_length_b 13.399249
_cell_length_c 18.379484
_cell_angle_alpha 90.000000
_cell_angle_beta 90.000000
_cell_angle_gamma 90.000000
_cell_volume 1981.839087
_symmetry_space_group_name_H-M "P B C N"
_symmetry_group_IT_number 60
_symmetry_cell_setting 'orthorhombic'
loop_
_space_group_symop_operation_xyz
x,y,z
1/2-x,1/2-y,1/2+z
1/2+x,1/2-y,-z
-x,y,1/2-z
-x,-y,-z
1/2+x,1/2+y,1/2-z
1/2-x,1/2+y,z
x,-y,1/2+z
loop_
_atom_site_type_symbol
_atom_site_label
_atom_site_fract_x
_atom_site_fract_y
_atom_site_fract_z
Si Si1 0.178589 0.975773 0.539356
Si Si2 0.003547 0.217699 0.443368
Si Si3 0.807735 0.358808 0.349264
Si Si4 0.170275 0.097876 0.794445
Si Si5 0.207638 0.564595 0.403327
Si Si6 0.999763 0.734438 0.385154
O O1 0.145697 0.863549 0.563472
O O2 0.226230 0.052027 0.602946
O O3 0.307927 0.996621 0.474852
O O4 0.000000 0.000000 0.500000
O O5 0.963242 0.311286 0.391655
O O6 0.006978 0.246680 0.528155
O O7 0.170618 0.157038 0.424507
O O8 0.813476 0.388046 0.265372
O O9 0.669379 0.271641 0.349887
O O10 0.133794 0.192873 0.845896
O O11 0.000000 0.080080 0.750000
O O12 0.208444 0.003156 0.843426
O O13 0.043289 0.618762 0.375690
#
# Coordination Sequence:
#
# PCOD9453854 Si02
#       6
#     8   8   8   8   8   8
#     4  10  17  34  60  84 112 159 200 234 283 369
#     4  11  19  36  62  92 117 157 206 251 292 361
#     4  11  22  38  60  91 124 150 206 260 298 349
#     4  10  22  38  58  85 119 162 199 246 295 369
#     4  11  21  36  64  87 118 157 207 241 299 368
#     4  11  19  36  60  89 119 159 200 246 305 356
#
# _framework density 24.219929
#
# number of rings (size 3 to 8) (size 9 to 14) (size 15 to 20)
#    0.000    1.333    6.667    3.000    0.000    2.667 
#    0.000    2.500    0.000    4.000    0.000    0.000 
#    0.000    0.000    0.000    0.000    0.000    0.000 
#
# Total GULP energy -268587.277865 kJ/mol
# GULP energy per Si atom -5595.568289 kJ/mol
# Density = 2.416480 g / cm^3
# Si number density = 24.219929 Si / 1000 Ang^3
#
#
#
# Elastic Constant Matrix: (Units=GPa)
#
#
# Indices 1 2 3 4 5 6 
#
# 1 65.4552 9.9126 15.7206 0.0000 0.0000 0.0000
# 2 9.9126 56.1972 21.3180 0.0000 0.0000 0.0000
# 3 15.7206 21.3180 139.1555 0.0000 0.0000 0.0000
# 4 0.0000 0.0000 0.0000 20.6605 0.0000 0.0000
# 5 0.0000 0.0000 0.0000 0.0000 20.1082 0.0000
# 6 0.0000 0.0000 0.0000 0.0000 0.0000 41.1703
#
#
#
# Elastic Compliance Matrix: (Units=1/GPa)
#
#
# Indices 1 2 3 4 5 6 
#
# 1 0.015971 -0.002264 -0.001457 0.000000 0.000000 0.000000
# 2 -0.002264 0.019213 -0.002688 0.000000 0.000000 0.000000
# 3 -0.001457 -0.002688 0.007763 0.000000 0.000000 0.000000
# 4 0.000000 0.000000 0.000000 0.048402 0.000000 0.000000
# 5 0.000000 0.000000 0.000000 0.000000 0.049731 0.000000
# 6 0.000000 0.000000 0.000000 0.000000 0.000000 0.024289
#
#
# Mechanical properties :
#
#
# Convention : Reuss Voigt Hill
#
# Bulk Modulus (GPa) = 33.19153 39.41226 36.30189
# Shear Modulus (GPa) = 26.56330 30.64490 28.60410
#
# Velocity S-wave (km/s) = 3.31532 3.56093 3.44032
# Velocity P-wave (km/s) = 5.32814 5.76324 5.54996
#
# Compressibility (1/GPa) = 0.03012817
#
# Stress axis : x y z
#
# Youngs Moduli (GPa) = 62.61529 52.04703 128.82318
#
# Poissons Ratio (x) = 0.11784 0.18774
# Poissons Ratio (y) = 0.14177 0.34623
# Poissons Ratio (z) = 0.09125 0.13988
#
# Static dielectric constant tensor:
#      x y z
#    x 2.078180 0.000000 0.000000 
#    y 0.000000 1.919360 0.000000 
#    z 0.000000 0.000000 1.927390 
# 
# From -- ./inp_files/19324.got.cif
#   From: 2010.05.17/outbox.cif.g08.bks.cpg/sg60_10_cif.got.tgz:19324.got - 2010.06.03 14:59:27.
