data_PCOD9453790
_publ_section_title
;
Structure prediction by ZEFSAII (Michael W. Deem and Ramdas Pophale) SiO2 
 PCOD9453790
Probable space group: P B C N
;
_chemical_formula_sum "Si O2"
_cell_formula_units_Z 56
_cell_length_a 17.573067
_cell_length_b 26.290612
_cell_length_c 5.388549
_cell_angle_alpha 90.000000
_cell_angle_beta 90.000000
_cell_angle_gamma 90.000000
_cell_volume 2489.545667
_symmetry_space_group_name_H-M "P B C N"
_symmetry_group_IT_number 60
_symmetry_cell_setting 'orthorhombic'
loop_
_space_group_symop_operation_xyz
x,y,z
1/2-x,1/2-y,1/2+z
1/2+x,1/2-y,-z
-x,y,1/2-z
-x,-y,-z
1/2+x,1/2+y,1/2-z
1/2-x,1/2+y,z
x,-y,1/2+z
loop_
_atom_site_type_symbol
_atom_site_label
_atom_site_fract_x
_atom_site_fract_y
_atom_site_fract_z
Si Si1 0.241023 0.941550 0.643719
Si Si2 0.166644 0.723550 0.758682
Si Si3 0.416223 0.437379 0.778822
Si Si4 0.842525 0.765816 0.238747
Si Si5 0.791540 0.391402 0.359475
Si Si6 0.915244 0.128334 0.722529
Si Si7 0.889862 0.484910 0.363741
O O1 0.160649 0.967659 0.712732
O O2 0.244312 0.914015 0.375978
O O3 0.310404 0.981456 0.646390
O O4 0.253908 0.901375 0.870304
O O5 0.252314 0.746739 0.779055
O O6 0.125112 0.748663 0.525280
O O7 0.182151 0.664986 0.700130
O O8 0.128454 0.736095 0.020605
O O9 0.500000 0.462085 0.750000
O O10 0.412679 0.395394 0.554757
O O11 0.410631 0.412693 0.052668
O O12 0.856614 0.825891 0.266034
O O13 0.866010 0.426814 0.371294
O O14 0.000000 0.151030 0.750000
O O15 0.928582 0.502566 0.610161
#
# Coordination Sequence:
#
# PCOD9453790 Si02
#       7
#     8   8   8   8   8   8   8
#     4  10  17  28  45  61  83 109 142 180 212 251
#     4  10  19  28  43  63  87 112 133 175 220 256
#     4  10  19  29  44  64  82 107 146 188 224 252
#     4  10  19  30  42  63  87 107 140 175 215 259
#     4  10  18  29  44  61  81 110 143 167 209 264
#     4  10  20  33  47  63  86 117 151 186 219 257
#     4   8  16  27  41  59  78 104 140 171 199 249
#
# _framework density 22.494063000000001
#
# number of rings (size 3 to 8) (size 9 to 14) (size 15 to 20)
#    0.000    2.286    0.000    4.286    0.000    2.286 
#    0.000    0.000    0.000    7.714    0.000    0.000 
#    0.000    0.000    0.000    0.000    0.000  128.571 
#
# Total GULP energy -312488.214934 kJ/mol
# GULP energy per Si atom -5580.146695 kJ/mol
# Density = 2.244287 g / cm^3
# Si number density = 22.494063 Si / 1000 Ang^3
#
#
#
# Elastic Constant Matrix: (Units=GPa)
#
#
# Indices 1 2 3 4 5 6 
#
# 1 62.6017 -2.8461 11.9895 0.0000 0.0000 0.0000
# 2 -2.8461 47.0109 4.0962 0.0000 0.0000 0.0000
# 3 11.9895 4.0962 157.5439 0.0000 0.0000 0.0000
# 4 0.0000 0.0000 0.0000 34.0785 0.0000 0.0000
# 5 0.0000 0.0000 0.0000 0.0000 19.1693 0.0000
# 6 0.0000 0.0000 0.0000 0.0000 0.0000 2172.4522
#
#
#
# Elastic Compliance Matrix: (Units=1/GPa)
#
#
# Indices 1 2 3 4 5 6 
#
# 1 0.016266 0.001095 -0.001266 0.000000 0.000000 0.000000
# 2 0.001095 0.021394 -0.000640 0.000000 0.000000 0.000000
# 3 -0.001266 -0.000640 0.006460 0.000000 0.000000 0.000000
# 4 0.000000 0.000000 0.000000 0.029344 0.000000 0.000000
# 5 0.000000 0.000000 0.000000 0.000000 0.052167 0.000000
# 6 0.000000 0.000000 0.000000 0.000000 0.000000 0.000460
#
#
# Mechanical properties :
#
#
# Convention : Reuss Voigt Hill
#
# Bulk Modulus (GPa) = 23.53009 32.62618 28.07813
# Shear Modulus (GPa) = 35.24119 462.06780 248.65450
#
# Velocity S-wave (km/s) = 3.96244 14.34795 10.52531
# Velocity P-wave (km/s) = 5.60516 17.00061 12.65777
#
# Compressibility (1/GPa) = 0.04249878
#
# Stress axis : x y z
#
# Youngs Moduli (GPa) = 61.47667 46.74278 154.78818
#
# Poissons Ratio (x) = -0.05119 0.19602
# Poissons Ratio (y) = -0.06732 0.09900
# Poissons Ratio (z) = 0.07785 0.02990
#
# Static dielectric constant tensor:
#      x y z
#    x 1.881080 0.000000 0.000000 
#    y 0.000000 1.788250 0.000000 
#    z 0.000000 0.000000 1.925300 
# 
# From -- ./inp_files/2467.got.cif
#   From: 2010.05.17/outbox.cif.g08.bks.cpg/sg60_2_cif.got.tgz:2467.got - 2010.06.03 14:59:27.
