data_PCOD9453126
_publ_section_title
;
Structure prediction by ZEFSAII (Michael W. Deem and Ramdas Pophale) SiO2 
 PCOD9453126
Probable space group: P M M N
;
_chemical_formula_sum "Si O2"
_cell_formula_units_Z 48
_cell_length_a 8.253811
_cell_length_b 15.029563
_cell_length_c 17.339615
_cell_angle_alpha 90.000000
_cell_angle_beta 90.000000
_cell_angle_gamma 90.000000
_cell_volume 2150.999570
_symmetry_space_group_name_H-M "P M M N"
_symmetry_group_IT_number 59
_space_group.IT_coordinate_system_code '2'
_symmetry_cell_setting 'orthorhombic'
loop_
_space_group_symop_operation_xyz
x,y,z
1/2-x,1/2-y,z
1/2+x,-y,-z
-x,1/2+y,-z
-x,-y,-z
1/2+x,1/2+y,-z
1/2-x,y,z
x,1/2-y,z
loop_
_atom_site_type_symbol
_atom_site_label
_atom_site_fract_x
_atom_site_fract_y
_atom_site_fract_z
Si Si1 0.250000 0.359040 0.692640
Si Si2 0.060802 0.141268 0.126619
Si Si3 0.750000 0.641319 0.128217
Si Si4 0.428704 0.850467 0.388109
Si Si5 0.443143 0.149158 0.292504
Si Si6 0.570701 0.358803 0.962911
Si Si7 0.937746 0.083308 0.451924
O O1 0.250000 0.250000 0.685216
O O2 0.250000 0.381916 0.782116
O O3 0.414171 0.392114 0.651678
O O4 0.250000 0.116728 0.115054
O O5 0.057251 0.250000 0.130114
O O6 0.998366 0.110457 0.210487
O O7 0.960978 0.114559 0.051568
O O8 0.750000 0.750000 0.123379
O O9 0.583998 0.611673 0.086899
O O10 0.250000 0.892758 0.375907
O O11 0.418357 0.750000 0.357211
O O12 0.455595 0.844677 0.479998
O O13 0.250000 0.154999 0.282226
O O14 0.508504 0.250000 0.301484
O O15 0.474577 0.100457 0.372252
O O16 0.750000 0.387938 0.936965
O O17 0.570214 0.250000 0.960912
O O18 0.750000 0.075029 0.433667
O O19 0.000000 0.000000 0.500000
#
# Coordination Sequence:
#
# PCOD9453126 Si02
#       7
#     4   8   4   8   8   8   8
#     4   9  18  30  50  71  93 133 168 205 254 297
#     4   8  13  24  40  60  91 129 164 197 234 287
#     4   9  16  26  38  61  95 125 161 201 242 293
#     4   9  19  35  53  74  99 130 171 213 255 304
#     4   9  18  31  50  74 100 135 173 206 247 302
#     4   9  15  22  36  58  89 130 163 192 238 291
#     4  11  23  36  51  72 100 133 166 216 259 302
#
# _framework density 22.315206
#
# number of rings (size 3 to 8) (size 9 to 14) (size 15 to 20)
#    0.000    2.833    0.833    2.000    2.333    2.333 
#    0.000    5.000    0.000    0.000    0.000    0.000 
#    0.000    1.333    0.667    0.000    0.000    0.000 
#
# Total GULP energy -267726.151221 kJ/mol
# GULP energy per Si atom -5577.628150 kJ/mol
# Density = 2.226442 g / cm^3
# Si number density = 22.315206 Si / 1000 Ang^3
#
#
#
# Elastic Constant Matrix: (Units=GPa)
#
#
# Indices 1 2 3 4 5 6 
#
# 1 149.0146 8.7064 88.3548 0.0000 0.0000 0.0000
# 2 8.7064 38.1197 5.9775 0.0000 0.0000 0.0000
# 3 88.3548 5.9775 127.7422 0.0000 0.0000 0.0000
# 4 0.0000 0.0000 0.0000 1.1253 0.0000 0.0000
# 5 0.0000 0.0000 0.0000 0.0000 3.2957 0.0000
# 6 0.0000 0.0000 0.0000 0.0000 0.0000 6.2607
#
#
#
# Elastic Compliance Matrix: (Units=1/GPa)
#
#
# Indices 1 2 3 4 5 6 
#
# 1 0.011448 -0.001383 -0.007854 0.000000 0.000000 0.000000
# 2 -0.001383 0.026594 -0.000288 0.000000 0.000000 0.000000
# 3 -0.007854 -0.000288 0.013274 0.000000 0.000000 0.000000
# 4 0.000000 0.000000 0.000000 0.888649 0.000000 0.000000
# 5 0.000000 0.000000 0.000000 0.000000 0.303428 0.000000
# 6 0.000000 0.000000 0.000000 0.000000 0.000000 0.159727
#
#
# Mechanical properties :
#
#
# Convention : Reuss Voigt Hill
#
# Bulk Modulus (GPa) = 30.99128 57.88376 44.43752
# Shear Modulus (GPa) = 3.48937 16.25886 9.87411
#
# Velocity S-wave (km/s) = 1.25183 2.70219 2.10581
# Velocity P-wave (km/s) = 4.00094 5.97756 5.08620
#
# Compressibility (1/GPa) = 0.03226714
#
# Stress axis : x y z
#
# Youngs Moduli (GPa) = 87.35027 37.60221 75.33657
#
# Poissons Ratio (x) = 0.05201 0.59166
# Poissons Ratio (y) = 0.12082 0.02167
# Poissons Ratio (z) = 0.68601 0.01082
#
# Static dielectric constant tensor:
#      x y z
#    x 1.829060 0.000000 0.000000 
#    y 0.000000 1.940010 0.000000 
#    z 0.000000 0.000000 1.777140 
# 
# From -- ./inp_files/20512.got.cif
#   From: 2010.05.17/outbox.cif.g08.bks.cpg/sg59_11_cif.got.tgz:20512.got - 2010.06.03 14:40:33.
