data_PCOD9453536
_publ_section_title
;
Structure prediction by ZEFSAII (Michael W. Deem and Ramdas Pophale) SiO2 
 PCOD9453536
Probable space group: P M M N
;
_chemical_formula_sum "Si O2"
_cell_formula_units_Z 48
_cell_length_a 30.000000
_cell_length_b 9.000000
_cell_length_c 9.000000
_cell_angle_alpha 90.000000
_cell_angle_beta 90.000000
_cell_angle_gamma 90.000000
_cell_volume 2430.000000
_symmetry_space_group_name_H-M "P M M N"
_symmetry_group_IT_number 59
_space_group.IT_coordinate_system_code '2'
_symmetry_cell_setting 'orthorhombic'
loop_
_space_group_symop_operation_xyz
x,y,z
1/2-x,1/2-y,z
1/2+x,-y,-z
-x,1/2+y,-z
-x,-y,-z
1/2+x,1/2+y,-z
1/2-x,y,z
x,1/2-y,z
loop_
_atom_site_type_symbol
_atom_site_label
_atom_site_fract_x
_atom_site_fract_y
_atom_site_fract_z
Si Si1 0.613990 0.571093 0.402822
Si Si2 0.128215 0.577909 0.290441
Si Si3 0.802861 0.581153 0.881863
Si Si4 0.300558 0.068859 0.779837
Si Si5 0.971550 0.921127 0.216658
Si Si6 0.443685 0.082140 0.128274
O O1 0.614951 0.750000 0.400425
O O2 0.612068 0.512044 0.567855
O O3 0.660036 0.518270 0.327059
O O4 0.570300 0.525949 0.311810
O O5 0.126263 0.750000 0.319952
O O6 0.176478 0.523414 0.240808
O O7 0.096376 0.529438 0.156164
O O8 0.750000 0.587544 0.868607
O O9 0.820427 0.750000 0.864618
O O10 0.812016 0.529498 0.050103
O O11 0.250000 0.019235 0.744531
O O12 0.299612 0.250000 0.777049
O O13 0.982758 0.750000 0.257466
O O14 0.956837 0.919004 0.044326
O O15 0.014433 0.025054 0.223290
O O16 0.431445 0.250000 0.169001
#
# Coordination Sequence:
#
# PCOD9453536 Si02
#       6
#     8   8   8   8   8   8
#     4  10  20  35  55  79 110 146 182 221 268 322
#     4  12  25  37  51  77 115 151 183 221 266 318
#     4   9  18  36  62  86 107 137 180 226 272 324
#     4   8  15  31  58  87 108 132 175 226 268 313
#     4   9  19  36  59  85 109 136 177 229 278 323
#     4  10  20  37  61  84 107 138 179 224 272 328
#
# _framework density 19.753086
#
# number of rings (size 3 to 8) (size 9 to 14) (size 15 to 20)
#    0.000    2.333    0.000    4.000    0.000    5.667 
#    0.000    4.167    0.000    1.000    0.000    0.000 
#    0.000    0.000    0.000    0.000    0.000    0.000 
#
# Total GULP energy -267746.630379 kJ/mol
# GULP energy per Si atom -5578.054800 kJ/mol
# Density = 1.970813 g / cm^3
# Si number density = 19.753086 Si / 1000 Ang^3
#
#
#
# Elastic Constant Matrix: (Units=GPa)
#
#
# Indices 1 2 3 4 5 6 
#
# 1 45.8161 15.5682 16.3475 0.0000 0.0000 0.0000
# 2 15.5682 -16.5737 7.8847 0.0000 0.0000 0.0000
# 3 16.3475 7.8847 9.1241 0.0000 0.0000 0.0000
# 4 0.0000 0.0000 0.0000 9.2503 0.0000 0.0000
# 5 0.0000 0.0000 0.0000 0.0000 -34.7692 0.0000
# 6 0.0000 0.0000 0.0000 0.0000 0.0000 22.6900
#
#
#
# Elastic Compliance Matrix: (Units=1/GPa)
#
#
# Indices 1 2 3 4 5 6 
#
# 1 0.060185 0.003709 -0.111037 0.000000 0.000000 0.000000
# 2 0.003709 -0.042529 0.030107 0.000000 0.000000 0.000000
# 3 -0.111037 0.030107 0.282525 0.000000 0.000000 0.000000
# 4 0.000000 0.000000 0.000000 0.108105 0.000000 0.000000
# 5 0.000000 0.000000 0.000000 0.000000 -0.028761 0.000000
# 6 0.000000 0.000000 0.000000 0.000000 0.000000 0.044072
#
#
# Mechanical properties :
#
#
# Convention : Reuss Voigt Hill
#
# Bulk Modulus (GPa) = 6.86160 13.10748 9.98454
# Shear Modulus (GPa) = 7.97936 -0.66139 3.65898
#
# Velocity S-wave (km/s) = 2.01204 -0.57927 1.36249
# Velocity P-wave (km/s) = 2.97976 2.49051 2.74606
#
# Compressibility (1/GPa) = 0.14573852
#
# Stress axis : x y z
#
# Youngs Moduli (GPa) = 16.61556 -23.51314 3.53951
#
# Poissons Ratio (x) = 0.08721 0.39302
# Poissons Ratio (y) = -0.06163 -0.10656
# Poissons Ratio (z) = 1.84494 0.70791
#
# Static dielectric constant tensor:
#      x y z
#    x 1.723970 0.000000 0.000000 
#    y 0.000000 1.662420 0.000000 
#    z 0.000000 0.000000 1.688790 
# 
# From -- ./inp_files/6185.got.cif
#   From: 2010.05.17/outbox.ucp.g08.bks.cvg/sg59_4_cif.got.tgz:6185.got - 2010.06.11 16:43:56.
