data_PCOD9453698
_publ_section_title
;
Structure prediction by ZEFSAII (Michael W. Deem and Ramdas Pophale) SiO2 
 PCOD9453698
Probable space group: P B C N
;
_chemical_formula_sum "Si O2"
_cell_formula_units_Z 60
_cell_length_a 10.949381
_cell_length_b 13.082926
_cell_length_c 19.695356
_cell_angle_alpha 90.000000
_cell_angle_beta 90.000000
_cell_angle_gamma 90.000000
_cell_volume 2821.358592
_symmetry_space_group_name_H-M "P B C N"
_symmetry_group_IT_number 60
_symmetry_cell_setting 'orthorhombic'
loop_
_space_group_symop_operation_xyz
x,y,z
1/2-x,1/2-y,1/2+z
1/2+x,1/2-y,-z
-x,y,1/2-z
-x,-y,-z
1/2+x,1/2+y,1/2-z
1/2-x,1/2+y,z
x,-y,1/2+z
loop_
_atom_site_type_symbol
_atom_site_label
_atom_site_fract_x
_atom_site_fract_y
_atom_site_fract_z
Si Si1 0.000000 0.953860 0.750000
Si Si2 0.143808 0.887123 0.511442
Si Si3 0.928104 0.376591 0.182535
Si Si4 0.225654 0.793548 0.749952
Si Si5 0.959426 0.013233 0.607241
Si Si6 0.661734 0.795156 0.388095
Si Si7 0.862801 0.540441 0.993643
Si Si8 0.305215 0.919220 0.867808
O O1 0.115824 0.877162 0.742986
O O2 0.996894 0.024942 0.816210
O O3 0.077503 0.889825 0.438291
O O4 0.166381 0.783737 0.550691
O O5 0.269810 0.946586 0.499577
O O6 0.057473 0.951903 0.562610
O O7 0.821205 0.302873 0.207060
O O8 0.875571 0.474548 0.145368
O O9 0.000000 0.411100 0.250000
O O10 0.024476 0.307559 0.141483
O O11 0.243945 0.747475 0.674167
O O12 0.319145 0.850518 0.800518
O O13 0.837806 0.944420 0.618968
O O14 0.677931 0.904852 0.423755
O O15 0.848330 0.616245 0.058230
O O16 0.000000 0.500000 0.000000
#
# Coordination Sequence:
#
# PCOD9453698 Si02
#       8
#     4   8   8   8   8   8   8   8
#     4  10  14  34  60  88 116 158 210 282 316 394
#     4  10  21  40  63  94 129 171 223 277 337 419
#     4  10  20  37  63  94 126 174 226 269 340 419
#     4  10  19  35  63  93 117 167 224 269 321 402
#     4   9  19  36  60  92 122 160 216 274 335 389
#     4  11  20  39  65  91 127 179 225 270 338 425
#     4  11  24  42  62  97 139 179 223 283 360 416
#     4  10  21  38  63  93 133 166 221 290 335 403
#
# _framework density 21.266349999999999
#
# number of rings (size 3 to 8) (size 9 to 14) (size 15 to 20)
#    0.000    1.867    4.667    0.800    0.000    4.267 
#    7.200    0.000    0.000    0.000    0.000    0.000 
#    0.000    0.000    0.000    0.000    0.000    0.000 
#
# Total GULP energy -334264.988437 kJ/mol
# GULP energy per Si atom -5571.083141 kJ/mol
# Density = 2.121795 g / cm^3
# Si number density = 21.266350 Si / 1000 Ang^3
#
#
#
# Elastic Constant Matrix: (Units=GPa)
#
#
# Indices 1 2 3 4 5 6 
#
# 1 38.5426 10.9937 9.5431 0.0000 0.0000 0.0000
# 2 10.9937 49.8114 46.7743 0.0000 0.0000 0.0000
# 3 9.5431 46.7743 164.4325 0.0000 0.0000 0.0000
# 4 0.0000 0.0000 0.0000 42.4548 0.0000 0.0000
# 5 0.0000 0.0000 0.0000 0.0000 23.5277 0.0000
# 6 0.0000 0.0000 0.0000 0.0000 0.0000 -2.8053
#
#
#
# Elastic Compliance Matrix: (Units=1/GPa)
#
#
# Indices 1 2 3 4 5 6 
#
# 1 0.027692 -0.006280 0.000179 0.000000 0.000000 0.000000
# 2 -0.006280 0.028817 -0.007833 0.000000 0.000000 0.000000
# 3 0.000179 -0.007833 0.008299 0.000000 0.000000 0.000000
# 4 0.000000 0.000000 0.000000 0.023554 0.000000 0.000000
# 5 0.000000 0.000000 0.000000 0.000000 0.042503 0.000000
# 6 0.000000 0.000000 0.000000 0.000000 0.000000 -0.356474
#
#
# Mechanical properties :
#
#
# Convention : Reuss Voigt Hill
#
# Bulk Modulus (GPa) = 27.07011 43.04540 35.05776
# Shear Modulus (GPa) = -26.96484 25.00045 -0.98219
#
# Velocity S-wave (km/s) = -3.56470 3.43240 -0.68034
# Velocity P-wave (km/s) = 2.04600 5.99946 3.98795
#
# Compressibility (1/GPa) = 0.03694111
#
# Stress axis : x y z
#
# Youngs Moduli (GPa) = 36.11115 34.70171 120.49320
#
# Poissons Ratio (x) = 0.21793 -0.02160
# Poissons Ratio (y) = 0.22679 0.94380
# Poissons Ratio (z) = -0.00647 0.27181
#
# Static dielectric constant tensor:
#      x y z
#    x 1.778070 0.000000 0.000000 
#    y 0.000000 1.758190 0.000000 
#    z 0.000000 0.000000 1.843220 
# 
# From -- ./inp_files/22669.got.cif
#   From: 2010.05.17/outbox.cif.g08.bks.cpg/sg60_12_cif.got.tgz:22669.got - 2010.06.03 14:59:27.
