data_PCOD9453976
_publ_section_title
;
Structure prediction by ZEFSAII (Michael W. Deem and Ramdas Pophale) SiO2 
 PCOD9453976
Probable space group: P B C N
;
_chemical_formula_sum "Si O2"
_cell_formula_units_Z 32
_cell_length_a 13.637490
_cell_length_b 11.279688
_cell_length_c 7.712967
_cell_angle_alpha 90.000000
_cell_angle_beta 90.000000
_cell_angle_gamma 90.000000
_cell_volume 1186.459739
_symmetry_space_group_name_H-M "P B C N"
_symmetry_group_IT_number 60
_symmetry_cell_setting 'orthorhombic'
loop_
_space_group_symop_operation_xyz
x,y,z
1/2-x,1/2-y,1/2+z
1/2+x,1/2-y,-z
-x,y,1/2-z
-x,-y,-z
1/2+x,1/2+y,1/2-z
1/2-x,1/2+y,z
x,-y,1/2+z
loop_
_atom_site_type_symbol
_atom_site_label
_atom_site_fract_x
_atom_site_fract_y
_atom_site_fract_z
Si Si1 0.406768 0.159743 0.972411
Si Si2 0.254340 0.901461 0.737642
Si Si3 0.427871 0.583400 0.396302
Si Si4 0.636754 0.176719 0.915021
O O1 0.391522 0.301873 0.001610
O O2 0.524241 0.154128 0.975913
O O3 0.365757 0.127151 0.782570
O O4 0.344945 0.083898 0.107532
O O5 0.163826 0.983105 0.806130
O O6 0.187393 0.803989 0.633995
O O7 0.302552 0.861634 0.917467
O O8 0.500000 0.636565 0.250000
O O9 0.500000 0.500000 0.500000
#
# Coordination Sequence:
#
# PCOD9453976 Si02
#       4
#     8   8   8   8
#     4  10  20  38  58  89 133 162 232 290 332 411
#     4  11  19  35  60  87 126 174 222 280 358 394
#     4  11  23  40  55  94 143 177 216 275 367 440
#     4  10  18  31  58  91 118 163 219 294 334 391
#
# _framework density 26.970993
#
# number of rings (size 3 to 8) (size 9 to 14) (size 15 to 20)
#    0.000    1.500   10.000    0.750    0.000    2.000 
#    4.500    0.000    0.000    0.000    0.000    7.000 
#    0.000    0.000    0.000    0.000    0.000    0.000 
#
# Total GULP energy -178481.207969 kJ/mol
# GULP energy per Si atom -5577.537749 kJ/mol
# Density = 2.690961 g / cm^3
# Si number density = 26.970993 Si / 1000 Ang^3
#
#
#
# Elastic Constant Matrix: (Units=GPa)
#
#
# Indices 1 2 3 4 5 6 
#
# 1 223.0293 35.8466 106.9811 0.0000 0.0000 0.0000
# 2 35.8466 85.7503 53.7899 0.0000 0.0000 0.0000
# 3 106.9811 53.7899 140.4819 0.0000 0.0000 0.0000
# 4 0.0000 0.0000 0.0000 39.7237 0.0000 0.0000
# 5 0.0000 0.0000 0.0000 0.0000 70.0162 0.0000
# 6 0.0000 0.0000 0.0000 0.0000 0.0000 33.8431
#
#
#
# Elastic Compliance Matrix: (Units=1/GPa)
#
#
# Indices 1 2 3 4 5 6 
#
# 1 0.007084 0.000556 -0.005608 0.000000 0.000000 0.000000
# 2 0.000556 0.015392 -0.006317 0.000000 0.000000 0.000000
# 3 -0.005608 -0.006317 0.013808 0.000000 0.000000 0.000000
# 4 0.000000 0.000000 0.000000 0.025174 0.000000 0.000000
# 5 0.000000 0.000000 0.000000 0.000000 0.014282 0.000000
# 6 0.000000 0.000000 0.000000 0.000000 0.000000 0.029548
#
#
# Mechanical properties :
#
#
# Convention : Reuss Voigt Hill
#
# Bulk Modulus (GPa) = 73.82018 93.61075 83.71547
# Shear Modulus (GPa) = 37.72419 45.55953 41.64186
#
# Velocity S-wave (km/s) = 3.74397 4.11445 3.93358
# Velocity P-wave (km/s) = 6.79112 7.57330 7.19285
#
# Compressibility (1/GPa) = 0.01354643
#
# Stress axis : x y z
#
# Youngs Moduli (GPa) = 141.15834 64.96949 72.42351
#
# Poissons Ratio (x) = -0.03614 0.40614
# Poissons Ratio (y) = -0.07852 0.45750
# Poissons Ratio (z) = 0.79159 0.41042
#
# Static dielectric constant tensor:
#      x y z
#    x 2.167670 0.000000 0.000000 
#    y 0.000000 2.441870 0.000000 
#    z 0.000000 0.000000 2.092250 
# 
# From -- ./inp_files/5565.got.cif
#   From: 2010.05.17/outbox.cif.g08.bks.cpg/sg60_3_cif.got.tgz:5565.got - 2010.06.03 14:59:27.
