data_PCOD9453303
_publ_section_title
;
Structure prediction by ZEFSAII (Michael W. Deem and Ramdas Pophale) SiO2 
 PCOD9453303
Probable space group: P M M N
;
_chemical_formula_sum "Si O2"
_cell_formula_units_Z 64
_cell_length_a 21.890580
_cell_length_b 21.996216
_cell_length_c 9.377021
_cell_angle_alpha 90.000000
_cell_angle_beta 90.000000
_cell_angle_gamma 90.000000
_cell_volume 4515.128688
_symmetry_space_group_name_H-M "P M M N"
_symmetry_group_IT_number 59
_space_group.IT_coordinate_system_code '2'
_symmetry_cell_setting 'orthorhombic'
loop_
_space_group_symop_operation_xyz
x,y,z
1/2-x,1/2-y,z
1/2+x,-y,-z
-x,1/2+y,-z
-x,-y,-z
1/2+x,1/2+y,-z
1/2-x,y,z
x,1/2-y,z
loop_
_atom_site_type_symbol
_atom_site_label
_atom_site_fract_x
_atom_site_fract_y
_atom_site_fract_z
Si Si1 0.678994 0.920508 0.420001
Si Si2 0.678994 0.920508 0.079999
Si Si3 0.594929 0.490441 0.914076
Si Si4 0.510879 0.405650 0.085917
Si Si5 0.922558 0.820746 0.420036
Si Si6 0.422558 0.320746 0.920036
Si Si7 0.905071 0.009559 0.585924
Si Si8 0.010879 0.905650 0.585917
O O1 0.750000 0.910624 0.452958
O O2 0.673191 0.931866 0.250000
O O3 0.637283 0.861502 0.452258
O O4 0.650565 0.976789 0.505907
O O5 0.750000 0.910624 0.047042
O O6 0.637283 0.861502 0.047742
O O7 0.650565 0.976789 0.994093
O O8 0.540815 0.541175 0.913601
O O9 0.608727 0.475686 0.750000
O O10 0.567696 0.433527 0.000003
O O11 0.525883 0.392118 0.250000
O O12 0.478714 0.349842 0.005875
O O13 0.913378 0.750000 0.453170
O O14 0.933862 0.826591 0.250000
O O15 0.978714 0.849842 0.505875
O O16 0.413378 0.250000 0.953170
O O17 0.932304 0.066473 0.499997
O O18 0.959185 0.958825 0.586399
#
# Coordination Sequence:
#
# PCOD9453303 Si02
#       8
#     8   8   8   8   8   8   8   8
#     4   9  17  28  41  58  82 112 144 175 205 239
#     4   9  17  28  41  58  82 112 144 175 205 239
#     4   9  16  26  41  59  78 101 131 169 212 253
#     4   9  16  26  41  59  78 101 131 169 212 253
#     4   9  17  28  41  58  82 112 144 175 205 239
#     4   9  17  28  41  58  82 112 144 175 205 239
#     4   9  16  26  41  59  78 101 131 169 212 253
#     4   9  16  26  41  59  78 101 131 169 212 253
#
# _framework density 14.174568000000001
#
# number of rings (size 3 to 8) (size 9 to 14) (size 15 to 20)
#    0.000    3.000    0.000    1.500    0.000    7.500 
#    0.000    2.500    0.000    0.000    0.000    7.000 
#    0.000    1.000    0.000   10.500    0.000    5.500 
#
# Total GULP energy -356338.145049 kJ/mol
# GULP energy per Si atom -5567.783516 kJ/mol
# Density = 1.414231 g / cm^3
# Si number density = 14.174568 Si / 1000 Ang^3
#
#
#
# Elastic Constant Matrix: (Units=GPa)
#
#
# Indices 1 2 3 4 5 6 
#
# 1 67.2643 70.2065 58.4091 0.0000 0.0000 0.0000
# 2 70.2065 72.7905 60.7438 0.0000 0.0000 0.0000
# 3 58.4091 60.7438 82.8815 0.0000 0.0000 0.0000
# 4 0.0000 0.0000 0.0000 20.4281 0.0000 0.0000
# 5 0.0000 0.0000 0.0000 0.0000 20.1726 0.0000
# 6 0.0000 0.0000 0.0000 0.0000 0.0000 13.0868
#
#
#
# Elastic Compliance Matrix: (Units=1/GPa)
#
#
# Indices 1 2 3 4 5 6 
#
# 1 -2.217958 2.149479 -0.012292 0.000000 0.000000 0.000000
# 2 2.149479 -2.047743 -0.014011 0.000000 0.000000 0.000000
# 3 -0.012292 -0.014011 0.030997 0.000000 0.000000 0.000000
# 4 0.000000 0.000000 0.000000 0.048952 0.000000 0.000000
# 5 0.000000 0.000000 0.000000 0.000000 0.049572 0.000000
# 6 0.000000 0.000000 0.000000 0.000000 0.000000 0.076413
#
#
# Mechanical properties :
#
#
# Convention : Reuss Voigt Hill
#
# Bulk Modulus (GPa) = 85.85554 66.85057 76.35305
# Shear Modulus (GPa) = -0.60225 12.97595 6.18685
#
# Velocity S-wave (km/s) = -0.65253 3.02890 2.09147
# Velocity P-wave (km/s) = 7.75460 7.71343 7.73405
#
# Compressibility (1/GPa) = 0.01164747
#
# Stress axis : x y z
#
# Youngs Moduli (GPa) = -0.45087 -0.48834 32.26137
#
# Poissons Ratio (x) = 1.04968 0.39656
# Poissons Ratio (y) = 0.96913 0.45202
# Poissons Ratio (z) = -0.00554 -0.00684
#
# Static dielectric constant tensor:
#      x y z
#    x 1.445590 0.000000 0.000000 
#    y 0.000000 1.445620 0.000000 
#    z 0.000000 0.000000 1.479190 
# 
# From -- ./inp_files/11736.got.cif
#   From: 2010.05.17/outbox.cif.g08.bks.cpg/sg59_6_cif.got.tgz:11736.got - 2010.06.03 14:40:33.
