data_PCOD9453530
_publ_section_title
;
Structure prediction by ZEFSAII (Michael W. Deem and Ramdas Pophale) SiO2 
 PCOD9453530
Probable space group: P M M N
;
_chemical_formula_sum "Si O2"
_cell_formula_units_Z 64
_cell_length_a 18.000000
_cell_length_b 9.000000
_cell_length_c 21.000000
_cell_angle_alpha 90.000000
_cell_angle_beta 90.000000
_cell_angle_gamma 90.000000
_cell_volume 3402.000000
_symmetry_space_group_name_H-M "P M M N"
_symmetry_group_IT_number 59
_space_group.IT_coordinate_system_code '2'
_symmetry_cell_setting 'orthorhombic'
loop_
_space_group_symop_operation_xyz
x,y,z
1/2-x,1/2-y,z
1/2+x,-y,-z
-x,1/2+y,-z
-x,-y,-z
1/2+x,1/2+y,-z
1/2-x,y,z
x,1/2-y,z
loop_
_atom_site_type_symbol
_atom_site_label
_atom_site_fract_x
_atom_site_fract_y
_atom_site_fract_z
Si Si1 0.078353 0.927861 0.984678
Si Si2 0.163201 0.427526 0.097856
Si Si3 0.336145 0.071585 0.345207
Si Si4 0.330986 0.930713 0.865662
Si Si5 0.091225 0.568766 0.741324
Si Si6 0.072964 0.431196 0.222349
Si Si7 0.159440 0.922107 0.473516
Si Si8 0.163618 0.931586 0.612497
O O1 0.072585 0.750000 0.986209
O O2 0.106273 0.975721 0.915099
O O3 0.137824 0.984371 0.035891
O O4 0.000000 0.000000 0.000000
O O5 0.250000 0.449825 0.112507
O O6 0.151929 0.250000 0.087901
O O7 0.112106 0.476294 0.157047
O O8 0.250000 0.026970 0.339136
O O9 0.338861 0.250000 0.346835
O O10 0.380350 0.019964 0.283596
O O11 0.365993 0.010528 0.411870
O O12 0.250000 0.982726 0.886389
O O13 0.330390 0.750000 0.866402
O O14 0.348912 0.975886 0.794020
O O15 0.090172 0.750000 0.739248
O O16 0.113900 0.518128 0.671299
O O17 0.011267 0.520687 0.766824
O O18 0.073549 0.250000 0.221585
O O19 0.250000 0.927258 0.474868
O O20 0.138130 0.750000 0.467292
O O21 0.136550 0.980718 0.542854
O O22 0.250000 0.974233 0.621967
O O23 0.163122 0.750000 0.610896
#
# Coordination Sequence:
#
# PCOD9453530 Si02
#       8
#     8   8   8   8   8   8   8   8
#     4  11  22  36  54  77 107 138 168 205 250 299
#     4  10  20  35  55  77 102 134 171 209 251 300
#     4   9  16  27  44  64  86 117 158 198 234 279
#     4   9  17  29  47  72  99 125 156 198 243 283
#     4   9  15  24  41  65  93 122 153 192 238 287
#     4   9  17  29  45  67  95 126 161 201 244 289
#     4   8  14  25  41  62  88 115 145 187 238 287
#     4   8  13  22  38  61  88 117 149 187 234 287
#
# _framework density 18.812463000000001
#
# number of rings (size 3 to 8) (size 9 to 14) (size 15 to 20)
#    0.000    2.875    0.000    3.000    0.000    5.750 
#    0.000    1.250    0.000    1.500    0.000    4.375 
#    0.000    8.000    0.000    0.000    0.000    0.000 
#
# Total GULP energy -356597.666073 kJ/mol
# GULP energy per Si atom -5571.838532 kJ/mol
# Density = 1.876965 g / cm^3
# Si number density = 18.812463 Si / 1000 Ang^3
#
#
#
# Elastic Constant Matrix: (Units=GPa)
#
#
# Indices 1 2 3 4 5 6 
#
# 1 35.0953 5.4444 -0.5668 0.0000 0.0000 0.0000
# 2 5.4444 1.6060 4.7435 0.0000 0.0000 0.0000
# 3 -0.5668 4.7435 79.0289 0.0000 0.0000 0.0000
# 4 0.0000 0.0000 0.0000 21.1162 0.0000 0.0000
# 5 0.0000 0.0000 0.0000 0.0000 -38.6427 0.0000
# 6 0.0000 0.0000 0.0000 0.0000 0.0000 13.8897
#
#
#
# Elastic Compliance Matrix: (Units=1/GPa)
#
#
# Indices 1 2 3 4 5 6 
#
# 1 0.080800 -0.335015 0.020688 0.000000 0.000000 0.000000
# 2 -0.335015 2.145880 -0.131202 0.000000 0.000000 0.000000
# 3 0.020688 -0.131202 0.020677 0.000000 0.000000 0.000000
# 4 0.000000 0.000000 0.000000 0.047357 0.000000 0.000000
# 5 0.000000 0.000000 0.000000 0.000000 -0.025878 0.000000
# 6 0.000000 0.000000 0.000000 0.000000 0.000000 0.071996
#
#
# Mechanical properties :
#
#
# Convention : Reuss Voigt Hill
#
# Bulk Modulus (GPa) = 0.73730 14.99693 7.86712
# Shear Modulus (GPa) = 1.35722 6.34658 3.85190
#
# Velocity S-wave (km/s) = 0.85030 1.83873 1.43247
# Velocity P-wave (km/s) = 1.16481 3.53511 2.63190
#
# Compressibility (1/GPa) = 1.35629674
#
# Stress axis : x y z
#
# Youngs Moduli (GPa) = 12.37626 0.46601 48.36298
#
# Poissons Ratio (x) = 0.15612 -1.00052
# Poissons Ratio (y) = 4.14624 6.34534
# Poissons Ratio (z) = -0.25604 0.06114
#
# Static dielectric constant tensor:
#      x y z
#    x 1.664960 0.000000 0.000000 
#    y 0.000000 1.630600 0.000000 
#    z 0.000000 0.000000 1.660840 
# 
# From -- ./inp_files/30703.got.cif
#   From: 2010.05.17/outbox.ucp.g08.bks.cvg/sg59_16_cif.got.tgz:30703.got - 2010.06.11 16:43:56.
