data_PCOD9453346
_publ_section_title
;
Structure prediction by ZEFSAII (Michael W. Deem and Ramdas Pophale) SiO2 
 PCOD9453346
Probable space group: P M M N
;
_chemical_formula_sum "Si O2"
_cell_formula_units_Z 64
_cell_length_a 15.000000
_cell_length_b 9.000000
_cell_length_c 24.000000
_cell_angle_alpha 90.000000
_cell_angle_beta 90.000000
_cell_angle_gamma 90.000000
_cell_volume 3240.000000
_symmetry_space_group_name_H-M "P M M N"
_symmetry_group_IT_number 59
_space_group.IT_coordinate_system_code '2'
_symmetry_cell_setting 'orthorhombic'
loop_
_space_group_symop_operation_xyz
x,y,z
1/2-x,1/2-y,z
1/2+x,-y,-z
-x,1/2+y,-z
-x,-y,-z
1/2+x,1/2+y,-z
1/2-x,y,z
x,1/2-y,z
loop_
_atom_site_type_symbol
_atom_site_label
_atom_site_fract_x
_atom_site_fract_y
_atom_site_fract_z
Si Si1 0.521414 0.571498 0.305692
Si Si2 0.350298 0.927978 0.366818
Si Si3 0.406240 0.427133 0.013905
Si Si4 0.406575 0.428428 0.482956
Si Si5 0.849828 0.578439 0.107227
Si Si6 0.152469 0.431309 0.136353
Si Si7 0.474385 0.925841 0.807584
Si Si8 0.656018 0.929857 0.398133
O O1 0.527638 0.750000 0.302056
O O2 0.420281 0.528529 0.319552
O O3 0.555714 0.502692 0.248960
O O4 0.576271 0.518202 0.359597
O O5 0.250000 0.962210 0.350474
O O6 0.359453 0.750000 0.375479
O O7 0.372338 0.005581 0.425310
O O8 0.417420 0.250000 0.019223
O O9 0.349257 0.453770 0.958559
O O10 0.500000 0.500000 0.000000
O O11 0.367202 0.479308 0.072700
O O12 0.500000 0.500000 0.500000
O O13 0.412394 0.250000 0.478907
O O14 0.348774 0.468846 0.537166
O O15 0.750000 0.567051 0.129343
O O16 0.880234 0.750000 0.113805
O O17 0.913670 0.470991 0.140576
O O18 0.250000 0.481911 0.153593
O O19 0.151997 0.250000 0.136033
O O20 0.073319 0.479706 0.176262
O O21 0.474931 0.750000 0.800481
O O22 0.750000 0.978808 0.373823
O O23 0.652270 0.750000 0.396973
#
# Coordination Sequence:
#
# PCOD9453346 Si02
#       8
#     8   8   8   8   8   8   8   8
#     4  10  21  39  58  78 109 151 193 233 277 332
#     4  10  21  38  59  85 117 152 189 231 283 339
#     4  10  18  32  57  85 113 144 181 225 275 335
#     4  11  20  34  58  87 118 148 184 231 285 343
#     4  10  21  37  59  85 112 148 190 228 274 340
#     4   9  18  34  56  81 111 147 182 221 276 336
#     4  11  23  38  57  83 112 146 189 241 288 327
#     4   9  18  34  57  82 107 140 183 227 274 330
#
# _framework density 19.753086
#
# number of rings (size 3 to 8) (size 9 to 14) (size 15 to 20)
#    0.000    2.000    2.500    1.500    0.000    4.000 
#    0.000    1.250    0.000    5.250    0.000    0.000 
#    0.000    0.000    0.000    0.000    0.000    0.000 
#
# Total GULP energy -356777.825835 kJ/mol
# GULP energy per Si atom -5574.653529 kJ/mol
# Density = 1.970813 g / cm^3
# Si number density = 19.753086 Si / 1000 Ang^3
#
#
#
# Elastic Constant Matrix: (Units=GPa)
#
#
# Indices 1 2 3 4 5 6 
#
# 1 73.7746 13.3943 -3.7871 0.0000 0.0000 0.0000
# 2 13.3943 -3.0432 5.8720 0.0000 0.0000 0.0000
# 3 -3.7871 5.8720 46.5134 0.0000 0.0000 0.0000
# 4 0.0000 0.0000 0.0000 22.0086 0.0000 0.0000
# 5 0.0000 0.0000 0.0000 0.0000 -31.6398 0.0000
# 6 0.0000 0.0000 0.0000 0.0000 0.0000 13.7686
#
#
#
# Elastic Compliance Matrix: (Units=1/GPa)
#
#
# Indices 1 2 3 4 5 6 
#
# 1 0.008044 0.029486 -0.003067 0.000000 0.000000 0.000000
# 2 0.029486 -0.156154 0.022114 0.000000 0.000000 0.000000
# 3 -0.003067 0.022114 0.018458 0.000000 0.000000 0.000000
# 4 0.000000 0.000000 0.000000 0.045437 0.000000 0.000000
# 5 0.000000 0.000000 0.000000 0.000000 -0.031606 0.000000
# 6 0.000000 0.000000 0.000000 0.000000 0.000000 0.072629
#
#
# Mechanical properties :
#
#
# Convention : Reuss Voigt Hill
#
# Bulk Modulus (GPa) = -30.68704 16.46703 -7.11001
# Shear Modulus (GPa) = -33.08645 7.61186 -12.73729
#
# Velocity S-wave (km/s) = -4.09712 1.96516 -2.54210
# Velocity P-wave (km/s) = 6.16043 3.67474 3.49623
#
# Compressibility (1/GPa) = -0.03258704
#
# Stress axis : x y z
#
# Youngs Moduli (GPa) = 124.31718 -6.40395 54.17792
#
# Poissons Ratio (x) = 0.18883 0.16619
# Poissons Ratio (y) = -3.66561 -1.19809
# Poissons Ratio (z) = 0.38134 0.14162
#
# Static dielectric constant tensor:
#      x y z
#    x 1.762180 0.000000 0.000000 
#    y 0.000000 1.693050 0.000000 
#    z 0.000000 0.000000 1.568430 
# 
# From -- ./inp_files/31682.got.cif
#   From: 2010.05.17/outbox.ucp.g08.bks.cvg/sg59_16_cif.got.tgz:31682.got - 2010.06.11 16:43:56.
