data_PCOD9453467
_publ_section_title
;
Structure prediction by ZEFSAII (Michael W. Deem and Ramdas Pophale) SiO2 
 PCOD9453467
Probable space group: P M M N
;
_chemical_formula_sum "Si O2"
_cell_formula_units_Z 64
_cell_length_a 9.000000
_cell_length_b 18.000000
_cell_length_c 24.000000
_cell_angle_alpha 90.000000
_cell_angle_beta 90.000000
_cell_angle_gamma 90.000000
_cell_volume 3888.000000
_symmetry_space_group_name_H-M "P M M N"
_symmetry_group_IT_number 59
_space_group.IT_coordinate_system_code '2'
_symmetry_cell_setting 'orthorhombic'
loop_
_space_group_symop_operation_xyz
x,y,z
1/2-x,1/2-y,z
1/2+x,-y,-z
-x,1/2+y,-z
-x,-y,-z
1/2+x,1/2+y,-z
1/2-x,y,z
x,1/2-y,z
loop_
_atom_site_type_symbol
_atom_site_label
_atom_site_fract_x
_atom_site_fract_y
_atom_site_fract_z
Si Si1 0.926390 0.949656 0.371435
Si Si2 0.069811 0.009905 0.260471
Si Si3 0.929742 0.472085 0.864209
Si Si4 0.928811 0.568156 0.965823
Si Si5 0.929338 0.164121 0.944499
Si Si6 0.928832 0.667995 0.690803
Si Si7 0.927048 0.111765 0.420693
Si Si8 0.428105 0.837633 0.456011
O O1 0.750000 0.941219 0.364206
O O2 0.993601 0.882683 0.406919
O O3 0.952776 0.025150 0.407013
O O4 0.002659 0.962921 0.311549
O O5 0.250000 0.005633 0.262691
O O6 0.026553 0.096124 0.272654
O O7 0.019790 0.982321 0.199412
O O8 0.750000 0.468493 0.862473
O O9 0.966043 0.544309 0.902385
O O10 0.976728 0.396871 0.897446
O O11 0.750000 0.569031 0.971060
O O12 0.000000 0.500000 0.000000
O O13 0.997285 0.639299 0.996852
O O14 0.750000 0.158099 0.949601
O O15 0.964992 0.250000 0.930905
O O16 0.750000 0.666533 0.687967
O O17 0.974266 0.750000 0.711439
O O18 0.992670 0.655786 0.628826
O O19 0.750000 0.126170 0.417003
O O20 0.975918 0.133535 0.482745
O O21 0.250000 0.849156 0.452063
O O22 0.457465 0.750000 0.452440
#
# Coordination Sequence:
#
# PCOD9453467 Si02
#       8
#     8   8   8   8   8   8   8   8
#     4  10  20  33  49  70  95 122 153 191 237 284
#     4   9  17  32  51  67  90 126 165 199 230 273
#     4   8  15  29  49  70  91 123 165 200 231 272
#     4   9  16  28  47  71  97 123 153 188 231 282
#     4   9  17  30  48  71  99 128 160 201 244 281
#     4   9  17  28  44  68  94 119 150 191 239 285
#     4   9  18  32  50  70  91 118 151 187 232 287
#     4  10  20  33  49  69  92 120 155 192 232 281
#
# _framework density 16.460905
#
# number of rings (size 3 to 8) (size 9 to 14) (size 15 to 20)
#    0.000    2.875    0.000    2.250    0.000    2.250 
#    0.000    4.375    0.000    4.500    0.000    0.000 
#    0.000    0.000    0.000    0.000    0.000    0.000 
#
# Total GULP energy -356416.271713 kJ/mol
# GULP energy per Si atom -5569.004246 kJ/mol
# Density = 1.642344 g / cm^3
# Si number density = 16.460905 Si / 1000 Ang^3
#
#
#
# Elastic Constant Matrix: (Units=GPa)
#
#
# Indices 1 2 3 4 5 6 
#
# 1 22.7568 29.8771 31.7894 0.0000 0.0000 0.0000
# 2 29.8771 94.3076 75.6127 0.0000 0.0000 0.0000
# 3 31.7894 75.6127 141.0841 0.0000 0.0000 0.0000
# 4 0.0000 0.0000 0.0000 17.9960 0.0000 0.0000
# 5 0.0000 0.0000 0.0000 0.0000 23.8598 0.0000
# 6 0.0000 0.0000 0.0000 0.0000 0.0000 22.0579
#
#
#
# Elastic Compliance Matrix: (Units=1/GPa)
#
#
# Indices 1 2 3 4 5 6 
#
# 1 0.079817 -0.019055 -0.007772 0.000000 0.000000 0.000000
# 2 -0.019055 0.023142 -0.008109 0.000000 0.000000 0.000000
# 3 -0.007772 -0.008109 0.013185 0.000000 0.000000 0.000000
# 4 0.000000 0.000000 0.000000 0.055568 0.000000 0.000000
# 5 0.000000 0.000000 0.000000 0.000000 0.041911 0.000000
# 6 0.000000 0.000000 0.000000 0.000000 0.000000 0.045335
#
#
# Mechanical properties :
#
#
# Convention : Reuss Voigt Hill
#
# Bulk Modulus (GPa) = 21.61159 59.18966 40.40062
# Shear Modulus (GPa) = 14.52412 20.84071 17.68242
#
# Velocity S-wave (km/s) = 2.97364 3.56205 3.28107
# Velocity P-wave (km/s) = 4.99476 7.27691 6.24103
#
# Compressibility (1/GPa) = 0.04627147
#
# Stress axis : x y z
#
# Youngs Moduli (GPa) = 12.52870 43.21157 75.84192
#
# Poissons Ratio (x) = 0.82338 0.58947
# Poissons Ratio (y) = 0.23873 0.61502
# Poissons Ratio (z) = 0.09738 0.35041
#
# Static dielectric constant tensor:
#      x y z
#    x 1.550930 0.000000 0.000000 
#    y 0.000000 1.573320 0.000000 
#    z 0.000000 0.000000 1.545360 
# 
# From -- ./inp_files/31713.got.cif
#   From: 2010.05.17/outbox.ucp.g08.bks.cvg/sg59_16_cif.got.tgz:31713.got - 2010.06.11 16:43:56.
