data_PCOD9453125
_publ_section_title
;
Structure prediction by ZEFSAII (Michael W. Deem and Ramdas Pophale) SiO2 
 PCOD9453125
Probable space group: P M M N
;
_chemical_formula_sum "Si O2"
_cell_formula_units_Z 48
_cell_length_a 15.746550
_cell_length_b 9.073027
_cell_length_c 17.845911
_cell_angle_alpha 90.000000
_cell_angle_beta 90.000000
_cell_angle_gamma 90.000000
_cell_volume 2549.625198
_symmetry_space_group_name_H-M "P M M N"
_symmetry_group_IT_number 59
_space_group.IT_coordinate_system_code '2'
_symmetry_cell_setting 'orthorhombic'
loop_
_space_group_symop_operation_xyz
x,y,z
1/2-x,1/2-y,z
1/2+x,-y,-z
-x,1/2+y,-z
-x,-y,-z
1/2+x,1/2+y,-z
1/2-x,y,z
x,1/2-y,z
loop_
_atom_site_type_symbol
_atom_site_label
_atom_site_fract_x
_atom_site_fract_y
_atom_site_fract_z
Si Si1 0.149381 0.428566 0.817590
Si Si2 0.351047 0.084855 0.650012
Si Si3 0.995539 0.071901 0.081640
Si Si4 0.590934 0.073639 0.497415
Si Si5 0.351011 0.915545 0.339542
Si Si6 0.151550 0.073373 0.188684
O O1 0.250000 0.465283 0.827877
O O2 0.142894 0.250000 0.823982
O O3 0.121067 0.467610 0.732288
O O4 0.086285 0.508138 0.874585
O O5 0.250000 0.097716 0.657579
O O6 0.386047 0.250000 0.636060
O O7 0.367939 0.984149 0.578886
O O8 0.990964 0.250000 0.077441
O O9 0.081836 0.031224 0.126962
O O10 0.000000 0.000000 0.000000
O O11 0.588897 0.250000 0.495690
O O12 0.632585 0.028633 0.576571
O O13 0.500000 0.000000 0.500000
O O14 0.250000 0.905755 0.332572
O O15 0.387350 0.750000 0.333087
O O16 0.378475 0.012549 0.269334
O O17 0.250000 0.024809 0.173917
O O18 0.153407 0.250000 0.192184
#
# Coordination Sequence:
#
# PCOD9453125 Si02
#       6
#     8   8   8   8   8   8
#     4   9  20  40  64  88 118 157 197 241 297 355
#     4   9  19  37  59  82 110 149 194 237 289 349
#     4  11  24  40  61  91 121 153 194 239 293 355
#     4  11  23  35  50  78 115 153 194 239 287 337
#     4   9  19  36  56  78 106 144 189 235 283 334
#     4   9  20  39  61  85 115 151 191 236 287 344
#
# _framework density 18.826298000000001
#
# number of rings (size 3 to 8) (size 9 to 14) (size 15 to 20)
#    0.000    2.333    0.000    2.500    2.333    5.333 
#    0.000    5.000    0.000    0.000    0.000    0.000 
#    0.000    0.000    0.000    0.000    0.000    0.000 
#
# Total GULP energy -267608.536826 kJ/mol
# GULP energy per Si atom -5575.177851 kJ/mol
# Density = 1.878345 g / cm^3
# Si number density = 18.826298 Si / 1000 Ang^3
#
#
#
# Elastic Constant Matrix: (Units=GPa)
#
#
# Indices 1 2 3 4 5 6 
#
# 1 82.3677 36.8649 75.5763 0.0000 0.0000 0.0000
# 2 36.8649 41.4431 69.7584 0.0000 0.0000 0.0000
# 3 75.5763 69.7584 200.0973 0.0000 0.0000 0.0000
# 4 0.0000 0.0000 0.0000 33.9246 0.0000 0.0000
# 5 0.0000 0.0000 0.0000 0.0000 40.1600 0.0000
# 6 0.0000 0.0000 0.0000 0.0000 0.0000 26.2652
#
#
#
# Elastic Compliance Matrix: (Units=1/GPa)
#
#
# Indices 1 2 3 4 5 6 
#
# 1 0.021113 -0.012968 -0.003454 0.000000 0.000000 0.000000
# 2 -0.012968 0.066363 -0.018238 0.000000 0.000000 0.000000
# 3 -0.003454 -0.018238 0.012660 0.000000 0.000000 0.000000
# 4 0.000000 0.000000 0.000000 0.029477 0.000000 0.000000
# 5 0.000000 0.000000 0.000000 0.000000 0.024900 0.000000
# 6 0.000000 0.000000 0.000000 0.000000 0.000000 0.038073
#
#
# Mechanical properties :
#
#
# Convention : Reuss Voigt Hill
#
# Bulk Modulus (GPa) = 32.44829 76.47858 54.46343
# Shear Modulus (GPa) = 18.37033 29.51722 23.94377
#
# Velocity S-wave (km/s) = 3.12714 3.96393 3.57014
# Velocity P-wave (km/s) = 5.50560 7.85250 6.78135
#
# Compressibility (1/GPa) = 0.03081827
#
# Stress axis : x y z
#
# Youngs Moduli (GPa) = 47.36309 15.06867 78.98839
#
# Poissons Ratio (x) = 0.19541 0.27280
# Poissons Ratio (y) = 0.61419 1.44057
# Poissons Ratio (z) = 0.16358 0.27482
#
# Static dielectric constant tensor:
#      x y z
#    x 1.646650 0.000000 0.000000 
#    y 0.000000 1.650450 0.000000 
#    z 0.000000 0.000000 1.718700 
# 
# From -- ./inp_files/23649.got.cif
#   From: 2010.05.17/outbox.cif.g08.bks.cpg/sg59_12_cif.got.tgz:23649.got - 2010.06.03 14:40:33.
