data_PCOD9453095
_publ_section_title
;
Structure prediction by ZEFSAII (Michael W. Deem and Ramdas Pophale) SiO2 
 PCOD9453095
Probable space group: P M M N
;
_chemical_formula_sum "Si O2"
_cell_formula_units_Z 48
_cell_length_a 8.742432
_cell_length_b 18.987249
_cell_length_c 16.778152
_cell_angle_alpha 90.000000
_cell_angle_beta 90.000000
_cell_angle_gamma 90.000000
_cell_volume 2785.084866
_symmetry_space_group_name_H-M "P M M N"
_symmetry_group_IT_number 59
_space_group.IT_coordinate_system_code '2'
_symmetry_cell_setting 'orthorhombic'
loop_
_space_group_symop_operation_xyz
x,y,z
1/2-x,1/2-y,z
1/2+x,-y,-z
-x,1/2+y,-z
-x,-y,-z
1/2+x,1/2+y,-z
1/2-x,y,z
x,1/2-y,z
loop_
_atom_site_type_symbol
_atom_site_label
_atom_site_fract_x
_atom_site_fract_y
_atom_site_fract_z
Si Si1 0.932060 0.601443 0.825347
Si Si2 0.067907 0.531463 0.580926
Si Si3 0.063512 0.669367 0.159778
Si Si4 0.064875 0.169502 0.340958
Si Si5 0.434042 0.540874 0.265113
Si Si6 0.066095 0.831455 0.980508
O O1 0.750000 0.609666 0.833256
O O2 0.980939 0.649810 0.750069
O O3 0.963519 0.521800 0.797913
O O4 0.006177 0.622522 0.908186
O O5 0.250000 0.534206 0.576349
O O6 0.000000 0.500000 0.500000
O O7 0.004191 0.609293 0.602601
O O8 0.014806 0.481664 0.653755
O O9 0.250000 0.668727 0.159837
O O10 0.015765 0.750000 0.174011
O O11 0.014648 0.613951 0.226195
O O12 0.015724 0.648241 0.069999
O O13 0.250000 0.163994 0.344521
O O14 0.021703 0.250000 0.359552
O O15 0.250000 0.542361 0.278675
O O16 0.250000 0.833331 0.980059
O O17 0.018983 0.750000 0.967896
#
# Coordination Sequence:
#
# PCOD9453095 Si02
#       6
#     8   8   8   8   8   8
#     4   9  17  28  44  69 100 133 164 196 243 300
#     4  11  22  37  57  79 104 133 166 204 249 304
#     4   8  15  30  51  71  93 127 170 212 252 294
#     4   9  18  34  55  78 106 137 167 204 252 301
#     4   9  18  34  53  72  96 127 164 207 256 306
#     4   9  17  28  43  66  96 130 169 210 247 284
#
# _framework density 17.234662
#
# number of rings (size 3 to 8) (size 9 to 14) (size 15 to 20)
#    0.000    2.833    0.000    4.000    0.000    4.667 
#    0.000    1.667    0.000    4.500    0.000    0.000 
#    0.000    0.000    0.000    0.000    0.000    0.000 
#
# Total GULP energy -267561.247978 kJ/mol
# GULP energy per Si atom -5574.192666 kJ/mol
# Density = 1.719544 g / cm^3
# Si number density = 17.234662 Si / 1000 Ang^3
#
#
#
# Elastic Constant Matrix: (Units=GPa)
#
#
# Indices 1 2 3 4 5 6 
#
# 1 31.8948 44.6146 41.9582 0.0000 0.0000 0.0000
# 2 44.6146 124.0915 94.5687 0.0000 0.0000 0.0000
# 3 41.9582 94.5687 118.7618 0.0000 0.0000 0.0000
# 4 0.0000 0.0000 0.0000 22.6699 0.0000 0.0000
# 5 0.0000 0.0000 0.0000 0.0000 27.6538 0.0000
# 6 0.0000 0.0000 0.0000 0.0000 0.0000 19.9697
#
#
#
# Elastic Compliance Matrix: (Units=1/GPa)
#
#
# Indices 1 2 3 4 5 6 
#
# 1 0.068974 -0.015840 -0.011756 0.000000 0.000000 0.000000
# 2 -0.015840 0.024134 -0.013622 0.000000 0.000000 0.000000
# 3 -0.011756 -0.013622 0.023420 0.000000 0.000000 0.000000
# 4 0.000000 0.000000 0.000000 0.044111 0.000000 0.000000
# 5 0.000000 0.000000 0.000000 0.000000 0.036161 0.000000
# 6 0.000000 0.000000 0.000000 0.000000 0.000000 0.050076
#
#
# Mechanical properties :
#
#
# Convention : Reuss Voigt Hill
#
# Bulk Modulus (GPa) = 29.32976 70.78122 50.05549
# Shear Modulus (GPa) = 14.67666 20.29912 17.48789
#
# Velocity S-wave (km/s) = 2.92135 3.43564 3.18888
# Velocity P-wave (km/s) = 5.33234 7.54297 6.53186
#
# Compressibility (1/GPa) = 0.03409506
#
# Stress axis : x y z
#
# Youngs Moduli (GPa) = 14.49816 41.43448 42.69775
#
# Poissons Ratio (x) = 0.65630 0.50194
# Poissons Ratio (y) = 0.22964 0.58163
# Poissons Ratio (z) = 0.17043 0.56442
#
# Static dielectric constant tensor:
#      x y z
#    x 1.583820 0.000000 0.000000 
#    y 0.000000 1.588990 0.000000 
#    z 0.000000 0.000000 1.562660 
# 
# From -- ./inp_files/20359.got.cif
#   From: 2010.05.17/outbox.cif.g08.bks.cpg/sg59_11_cif.got.tgz:20359.got - 2010.06.03 14:40:33.
