data_PCOD9453935
_publ_section_title
;
Structure prediction by ZEFSAII (Michael W. Deem and Ramdas Pophale) SiO2 
 PCOD9453935
Probable space group: P B C N
;
_chemical_formula_sum "Si O2"
_cell_formula_units_Z 56
_cell_length_a 7.188398
_cell_length_b 13.917197
_cell_length_c 23.796652
_cell_angle_alpha 90.000000
_cell_angle_beta 90.000000
_cell_angle_gamma 90.000000
_cell_volume 2380.673014
_symmetry_space_group_name_H-M "P B C N"
_symmetry_group_IT_number 60
_symmetry_cell_setting 'orthorhombic'
loop_
_space_group_symop_operation_xyz
x,y,z
1/2-x,1/2-y,1/2+z
1/2+x,1/2-y,-z
-x,y,1/2-z
-x,-y,-z
1/2+x,1/2+y,1/2-z
1/2-x,1/2+y,z
x,-y,1/2+z
loop_
_atom_site_type_symbol
_atom_site_label
_atom_site_fract_x
_atom_site_fract_y
_atom_site_fract_z
Si Si1 0.337746 0.368195 0.830193
Si Si2 0.200030 0.511078 0.923447
Si Si3 0.694059 0.350231 0.356579
Si Si4 0.773790 0.366966 0.858546
Si Si5 0.768993 0.511592 0.952636
Si Si6 0.640179 0.151193 0.669392
Si Si7 0.247978 0.511086 0.731491
O O1 0.235620 0.419934 0.882660
O O2 0.558313 0.365460 0.840884
O O3 0.285427 0.257769 0.821931
O O4 0.309052 0.428288 0.773985
O O5 0.242818 0.600761 0.883095
O O6 0.989089 0.531619 0.943900
O O7 0.294866 0.492940 0.983276
O O8 0.640129 0.238763 0.355604
O O9 0.669412 0.407062 0.414972
O O10 0.620609 0.421714 0.307829
O O11 0.918588 0.347013 0.343990
O O12 0.760179 0.409427 0.921051
O O13 0.861019 0.447577 0.816511
O O14 0.667841 0.087704 0.724483
#
# Coordination Sequence:
#
# PCOD9453935 Si02
#       7
#     8   8   8   8   8   8   8
#     4  10  20  34  53  78 105 136 174 214 258 309
#     4   9  19  36  55  76 104 138 176 216 259 310
#     4   9  18  33  53  75 103 140 173 205 258 318
#     4  10  20  34  53  78 105 136 174 214 258 309
#     4   9  19  36  55  76 104 138 176 216 259 310
#     4   9  18  33  53  75 103 140 173 205 258 318
#     4  10  18  30  50  74 101 130 169 212 249 298
#
# _framework density 23.522760000000002
#
# number of rings (size 3 to 8) (size 9 to 14) (size 15 to 20)
#    0.000    2.571    0.000    1.714    0.000    5.143 
#    0.000    7.143    0.000   17.143    0.000    0.000 
#    0.000    0.000    0.000    0.000    0.000    0.000 
#
# Total GULP energy -312582.142299 kJ/mol
# GULP energy per Si atom -5581.823970 kJ/mol
# Density = 2.346922 g / cm^3
# Si number density = 23.522760 Si / 1000 Ang^3
#
#
#
# Elastic Constant Matrix: (Units=GPa)
#
#
# Indices 1 2 3 4 5 6 
#
# 1 51.2212 -8.7382 6.1468 0.0000 0.0000 0.0000
# 2 -8.7382 229.3742 93.4031 0.0000 0.0000 0.0000
# 3 6.1468 93.4031 214.7134 0.0000 0.0000 0.0000
# 4 0.0000 0.0000 0.0000 6.9891 0.0000 0.0000
# 5 0.0000 0.0000 0.0000 0.0000 22.6560 0.0000
# 6 0.0000 0.0000 0.0000 0.0000 0.0000 16.9014
#
#
#
# Elastic Compliance Matrix: (Units=1/GPa)
#
#
# Indices 1 2 3 4 5 6 
#
# 1 0.019859 0.001201 -0.001091 0.000000 0.000000 0.000000
# 2 0.001201 0.005371 -0.002371 0.000000 0.000000 0.000000
# 3 -0.001091 -0.002371 0.005720 0.000000 0.000000 0.000000
# 4 0.000000 0.000000 0.000000 0.143079 0.000000 0.000000
# 5 0.000000 0.000000 0.000000 0.000000 0.044138 0.000000
# 6 0.000000 0.000000 0.000000 0.000000 0.000000 0.059167
#
#
# Mechanical properties :
#
#
# Convention : Reuss Voigt Hill
#
# Bulk Modulus (GPa) = 37.83878 75.21469 56.52673
# Shear Modulus (GPa) = 17.20193 36.27578 26.73886
#
# Velocity S-wave (km/s) = 2.70717 3.93129 3.37519
# Velocity P-wave (km/s) = 5.08848 7.25613 6.26674
#
# Compressibility (1/GPa) = 0.02642791
#
# Stress axis : x y z
#
# Youngs Moduli (GPa) = 50.35522 186.19126 174.82796
#
# Poissons Ratio (x) = -0.22357 0.19071
# Poissons Ratio (y) = -0.06046 0.41447
# Poissons Ratio (z) = 0.05493 0.44141
#
# Static dielectric constant tensor:
#      x y z
#    x 2.159350 0.000000 0.000000 
#    y 0.000000 1.869980 0.000000 
#    z 0.000000 0.000000 1.875760 
# 
# From -- ./inp_files/22603.got.cif
#   From: 2010.05.17/outbox.cif.g08.bks.cpg/sg60_12_cif.got.tgz:22603.got - 2010.06.03 14:59:27.
