data_PCOD9453017
_publ_section_title
;
Structure prediction by ZEFSAII (Michael W. Deem and Ramdas Pophale) SiO2 
 PCOD9453017
Probable space group: P M M N
;
_chemical_formula_sum "Si O2"
_cell_formula_units_Z 64
_cell_length_a 8.422902
_cell_length_b 19.762779
_cell_length_c 19.974865
_cell_angle_alpha 90.000000
_cell_angle_beta 90.000000
_cell_angle_gamma 90.000000
_cell_volume 3325.015044
_symmetry_space_group_name_H-M "P M M N"
_symmetry_group_IT_number 59
_space_group.IT_coordinate_system_code '2'
_symmetry_cell_setting 'orthorhombic'
loop_
_space_group_symop_operation_xyz
x,y,z
1/2-x,1/2-y,z
1/2+x,-y,-z
-x,1/2+y,-z
-x,-y,-z
1/2+x,1/2+y,-z
1/2-x,y,z
x,1/2-y,z
loop_
_atom_site_type_symbol
_atom_site_label
_atom_site_fract_x
_atom_site_fract_y
_atom_site_fract_z
Si Si1 0.557834 0.914737 0.570348
Si Si2 0.444231 0.171802 0.300989
Si Si3 0.564033 0.168777 0.837215
Si Si4 0.443745 0.826383 0.013893
Si Si5 0.060671 0.954713 0.938630
Si Si6 0.441205 0.430705 0.576073
Si Si7 0.562240 0.948795 0.791556
Si Si8 0.937622 0.921317 0.279384
O O1 0.750000 0.915446 0.572605
O O2 0.505523 0.864270 0.629267
O O3 0.505345 0.898049 0.494105
O O4 0.498745 0.991546 0.580094
O O5 0.250000 0.172005 0.300610
O O6 0.495665 0.250000 0.295739
O O7 0.496722 0.121897 0.240734
O O8 0.750000 0.149816 0.832386
O O9 0.553518 0.250000 0.833188
O O10 0.506124 0.149991 0.911826
O O11 0.474172 0.132612 0.777838
O O12 0.250000 0.824907 0.015981
O O13 0.498610 0.750000 0.002700
O O14 0.493045 0.878774 0.957818
O O15 0.250000 0.957895 0.939645
O O16 0.004883 0.969285 0.863824
O O17 0.000000 0.000000 0.000000
O O18 0.250000 0.431256 0.573373
O O19 0.489393 0.397992 0.646560
O O20 0.750000 0.943366 0.798685
O O21 0.522303 0.009026 0.740593
O O22 0.750000 0.934561 0.280842
#
# Coordination Sequence:
#
# PCOD9453017 Si02
#       8
#     8   8   8   8   8   8   8   8
#     4   9  16  31  53  76 100 135 180 221 268 323
#     4   9  18  33  54  79 107 142 188 236 276 322
#     4   9  18  34  56  79 103 136 177 217 262 322
#     4   8  16  33  55  75  96 128 171 213 255 311
#     4  11  22  36  56  82 110 139 173 221 275 327
#     4   9  18  30  49  77 107 134 171 223 273 317
#     4  11  22  36  54  77 107 143 185 226 272 326
#     4  11  21  33  51  78 111 142 177 225 273 322
#
# _framework density 19.248035000000002
#
# number of rings (size 3 to 8) (size 9 to 14) (size 15 to 20)
#    0.000    2.375    1.250    2.625    0.000    2.250 
#    0.000    1.250    0.000    7.875    0.000    0.000 
#    0.000    0.000    0.000    0.000    0.000    0.000 
#
# Total GULP energy -356850.886403 kJ/mol
# GULP energy per Si atom -5575.795100 kJ/mol
# Density = 1.920423 g / cm^3
# Si number density = 19.248035 Si / 1000 Ang^3
#
#
#
# Elastic Constant Matrix: (Units=GPa)
#
#
# Indices 1 2 3 4 5 6 
#
# 1 13.5821 9.3852 18.4036 0.0000 0.0000 0.0000
# 2 9.3852 33.8340 22.4507 0.0000 0.0000 0.0000
# 3 18.4036 22.4507 113.0447 0.0000 0.0000 0.0000
# 4 0.0000 0.0000 0.0000 29.4235 0.0000 0.0000
# 5 0.0000 0.0000 0.0000 0.0000 17.5048 0.0000
# 6 0.0000 0.0000 0.0000 0.0000 0.0000 15.0532
#
#
#
# Elastic Compliance Matrix: (Units=1/GPa)
#
#
# Indices 1 2 3 4 5 6 
#
# 1 0.105617 -0.020603 -0.013103 0.000000 0.000000 0.000000
# 2 -0.020603 0.038061 -0.004205 0.000000 0.000000 0.000000
# 3 -0.013103 -0.004205 0.011814 0.000000 0.000000 0.000000
# 4 0.000000 0.000000 0.000000 0.033986 0.000000 0.000000
# 5 0.000000 0.000000 0.000000 0.000000 0.057127 0.000000
# 6 0.000000 0.000000 0.000000 0.000000 0.000000 0.066431
#
#
# Mechanical properties :
#
#
# Convention : Reuss Voigt Hill
#
# Bulk Modulus (GPa) = 12.55152 28.99333 20.77242
# Shear Modulus (GPa) = 12.03618 19.74440 15.89029
#
# Velocity S-wave (km/s) = 2.50335 3.20627 2.87636
# Velocity P-wave (km/s) = 3.85886 5.36680 4.67404
#
# Compressibility (1/GPa) = 0.07967161
#
# Stress axis : x y z
#
# Youngs Moduli (GPa) = 9.46821 26.27342 84.64364
#
# Poissons Ratio (x) = 0.54131 1.10905
# Poissons Ratio (y) = 0.19507 0.35591
# Poissons Ratio (z) = 0.12406 0.11048
#
# Static dielectric constant tensor:
#      x y z
#    x 1.674050 0.000000 0.000000 
#    y 0.000000 1.664400 0.000000 
#    z 0.000000 0.000000 1.707510 
# 
# From -- ./inp_files/26213.got.cif
#   From: 2010.05.17/outbox.cif.g08.bks.cpg/sg59_14_cif.got.tgz:26213.got - 2010.06.03 14:40:33.
