data_PCOD9453691
_publ_section_title
;
Structure prediction by ZEFSAII (Michael W. Deem and Ramdas Pophale) SiO2 
 PCOD9453691
Probable space group: P M M N
;
_chemical_formula_sum "Si O2"
_cell_formula_units_Z 48
_cell_length_a 18.000000
_cell_length_b 9.000000
_cell_length_c 15.000000
_cell_angle_alpha 90.000000
_cell_angle_beta 90.000000
_cell_angle_gamma 90.000000
_cell_volume 2430.000000
_symmetry_space_group_name_H-M "P M M N"
_symmetry_group_IT_number 59
_space_group.IT_coordinate_system_code '2'
_symmetry_cell_setting 'orthorhombic'
loop_
_space_group_symop_operation_xyz
x,y,z
1/2-x,1/2-y,z
1/2+x,-y,-z
-x,1/2+y,-z
-x,-y,-z
1/2+x,1/2+y,-z
1/2-x,y,z
x,1/2-y,z
loop_
_atom_site_type_symbol
_atom_site_label
_atom_site_fract_x
_atom_site_fract_y
_atom_site_fract_z
Si Si1 0.334743 0.429593 0.304144
Si Si2 0.338020 0.572993 0.646642
Si Si3 0.835002 0.427354 0.019445
Si Si4 0.908750 0.928573 0.181912
Si Si5 0.433034 0.429419 0.132471
Si Si6 0.580767 0.929722 0.516903
O O1 0.250000 0.486686 0.308369
O O2 0.330222 0.250000 0.307388
O O3 0.377239 0.466206 0.213518
O O4 0.385926 0.473487 0.387159
O O5 0.250000 0.553277 0.662149
O O6 0.353487 0.750000 0.645030
O O7 0.385928 0.493543 0.722738
O O8 0.362872 0.496108 0.555389
O O9 0.750000 0.451382 0.988734
O O10 0.846918 0.250000 0.027343
O O11 0.894535 0.500865 0.953857
O O12 0.848138 0.507179 0.113347
O O13 0.910905 0.750000 0.181434
O O14 0.987696 0.996935 0.152162
O O15 0.440329 0.250000 0.124842
O O16 0.576707 0.750000 0.511252
O O17 0.500000 0.000000 0.500000
#
# Coordination Sequence:
#
# PCOD9453691 Si02
#       6
#     8   8   8   8   8   8
#     4   9  19  36  59  87 117 152 196 245 295 348
#     4  11  24  42  63  89 123 161 203 254 311 368
#     4  11  24  42  63  89 123 160 200 250 305 359
#     4  12  25  41  63  90 121 158 203 252 304 366
#     4  11  22  39  64  91 122 159 201 249 302 362
#     4  11  22  38  62  90 123 162 205 253 304 361
#
# _framework density 19.753086
#
# number of rings (size 3 to 8) (size 9 to 14) (size 15 to 20)
#    0.000    1.167    0.000    6.500    0.000    7.333 
#    0.000    2.500    0.000    6.000    0.000    0.000 
#    0.000    0.000    0.000    0.000    0.000    0.000 
#
# Total GULP energy -268449.586664 kJ/mol
# GULP energy per Si atom -5592.699722 kJ/mol
# Density = 1.970813 g / cm^3
# Si number density = 19.753086 Si / 1000 Ang^3
#
#
#
# Elastic Constant Matrix: (Units=GPa)
#
#
# Indices 1 2 3 4 5 6 
#
# 1 81.7489 27.2286 -14.9889 0.0000 0.0000 0.0000
# 2 27.2286 109.8495 6.8261 0.0000 0.0000 0.0000
# 3 -14.9889 6.8261 62.1841 0.0000 0.0000 0.0000
# 4 0.0000 0.0000 0.0000 29.3031 0.0000 0.0000
# 5 0.0000 0.0000 0.0000 0.0000 31.0042 0.0000
# 6 0.0000 0.0000 0.0000 0.0000 0.0000 26.8652
#
#
#
# Elastic Compliance Matrix: (Units=1/GPa)
#
#
# Indices 1 2 3 4 5 6 
#
# 1 0.014186 -0.003754 0.003831 0.000000 0.000000 0.000000
# 2 -0.003754 0.010159 -0.002020 0.000000 0.000000 0.000000
# 3 0.003831 -0.002020 0.017227 0.000000 0.000000 0.000000
# 4 0.000000 0.000000 0.000000 0.034126 0.000000 0.000000
# 5 0.000000 0.000000 0.000000 0.000000 0.032254 0.000000
# 6 0.000000 0.000000 0.000000 0.000000 0.000000 0.037223
#
#
# Mechanical properties :
#
#
# Convention : Reuss Voigt Hill
#
# Bulk Modulus (GPa) = 26.53538 32.43490 29.48514
# Shear Modulus (GPa) = 30.93635 33.08228 32.00932
#
# Velocity S-wave (km/s) = 3.96176 4.09686 4.02988
# Velocity P-wave (km/s) = 5.86430 6.23176 6.05082
#
# Compressibility (1/GPa) = 0.03768553
#
# Stress axis : x y z
#
# Youngs Moduli (GPa) = 70.49425 98.43020 58.04984
#
# Poissons Ratio (x) = 0.36954 -0.22241
# Poissons Ratio (y) = 0.26466 0.11727
# Poissons Ratio (z) = -0.27009 0.19885
#
# Static dielectric constant tensor:
#      x y z
#    x 1.674990 0.000000 0.000000 
#    y 0.000000 1.651770 0.000000 
#    z 0.000000 0.000000 1.723770 
# 
# From -- ./inp_files/23661.got.cif
#   From: 2010.05.17/outbox.ucp.g08.bks.cvg/sg59_12_cif.got.tgz:23661.got - 2010.06.11 16:43:56.
