data_PCOD9453891
_publ_section_title
;
Structure prediction by ZEFSAII (Michael W. Deem and Ramdas Pophale) SiO2 
 PCOD9453891
Probable space group: P B C N
;
_chemical_formula_sum "Si O2"
_cell_formula_units_Z 60
_cell_length_a 30.316861
_cell_length_b 5.370289
_cell_length_c 15.537653
_cell_angle_alpha 90.000000
_cell_angle_beta 90.000000
_cell_angle_gamma 90.000000
_cell_volume 2529.690026
_symmetry_space_group_name_H-M "P B C N"
_symmetry_group_IT_number 60
_symmetry_cell_setting 'orthorhombic'
loop_
_space_group_symop_operation_xyz
x,y,z
1/2-x,1/2-y,1/2+z
1/2+x,1/2-y,-z
-x,y,1/2-z
-x,-y,-z
1/2+x,1/2+y,1/2-z
1/2-x,1/2+y,z
x,-y,1/2+z
loop_
_atom_site_type_symbol
_atom_site_label
_atom_site_fract_x
_atom_site_fract_y
_atom_site_fract_z
Si Si1 0.583878 0.039874 0.190008
Si Si2 0.632553 0.548079 0.148596
Si Si3 0.870376 0.234187 0.955560
Si Si4 0.942134 0.433823 0.497699
Si Si5 0.234571 0.921453 0.353921
Si Si6 0.268362 0.157418 0.053020
Si Si7 0.500000 0.745575 0.750000
Si Si8 0.543566 0.428763 0.405638
O O1 0.612555 0.290968 0.182958
O O2 0.558658 0.035653 0.098991
O O3 0.543664 0.085016 0.254604
O O4 0.612413 0.789631 0.196631
O O5 0.685096 0.522846 0.149917
O O6 0.621827 0.594763 0.047146
O O7 0.903435 0.107220 0.887107
O O8 0.890893 0.509771 0.969786
O O9 0.818860 0.256380 0.940066
O O10 0.034624 0.327469 0.543797
O O11 0.957589 0.174639 0.461426
O O12 0.236855 0.645571 0.314574
O O13 0.252843 0.877108 0.452215
O O14 0.239573 0.383324 0.090466
O O15 0.491811 0.564545 0.669735
#
# Coordination Sequence:
#
# PCOD9453891 Si02
#       8
#     8   8   8   8   8   8   4   8
#     4  11  24  41  64  88 127 167 209 274 315 394
#     4  11  20  36  60  91 131 164 202 247 335 357
#     4   9  19  34  58  87 132 160 196 244 324 358
#     4   9  20  38  64  89 116 165 199 253 324 368
#     4  10  18  26  49  90 133 155 189 250 303 370
#     4  10  19  24  48  90 133 158 186 249 300 369
#     4  12  30  48  64  94 122 164 234 264 330 378
#     4  10  23  40  65  88 124 161 207 269 311 386
#
# _framework density 23.718321
#
# number of rings (size 3 to 8) (size 9 to 14) (size 15 to 20)
#    0.800    1.067    4.000    0.800    7.467    4.267 
#    0.000    0.000    0.000    0.000    0.000    5.600 
#    0.000    0.000    0.000    0.000    0.000    0.000 
#
# Total GULP energy -334803.880564 kJ/mol
# GULP energy per Si atom -5580.064676 kJ/mol
# Density = 2.366434 g / cm^3
# Si number density = 23.718321 Si / 1000 Ang^3
#
#
#
# Elastic Constant Matrix: (Units=GPa)
#
#
# Indices 1 2 3 4 5 6 
#
# 1 145.3461 35.8166 5.8821 0.0000 0.0000 0.0000
# 2 35.8166 183.1333 11.9094 0.0000 0.0000 0.0000
# 3 5.8821 11.9094 26.7649 0.0000 0.0000 0.0000
# 4 0.0000 0.0000 0.0000 1636.9659 0.0000 0.0000
# 5 0.0000 0.0000 0.0000 0.0000 20.6194 0.0000
# 6 0.0000 0.0000 0.0000 0.0000 0.0000 13.5632
#
#
#
# Elastic Compliance Matrix: (Units=1/GPa)
#
#
# Indices 1 2 3 4 5 6 
#
# 1 0.007254 -0.001354 -0.000992 0.000000 0.000000 0.000000
# 2 -0.001354 0.005876 -0.002317 0.000000 0.000000 0.000000
# 3 -0.000992 -0.002317 0.038611 0.000000 0.000000 0.000000
# 4 0.000000 0.000000 0.000000 0.000611 0.000000 0.000000
# 5 0.000000 0.000000 0.000000 0.000000 0.048498 0.000000
# 6 0.000000 0.000000 0.000000 0.000000 0.000000 0.073729
#
#
# Mechanical properties :
#
#
# Convention : Reuss Voigt Hill
#
# Bulk Modulus (GPa) = 23.57623 51.38451 37.48037
# Shear Modulus (GPa) = 25.24697 354.33878 189.79287
#
# Velocity S-wave (km/s) = 3.26613 12.23597 8.95507
# Velocity P-wave (km/s) = 4.91784 14.87739 11.07975
#
# Compressibility (1/GPa) = 0.04241561
#
# Stress axis : x y z
#
# Youngs Moduli (GPa) = 137.85556 170.18276 25.89915
#
# Poissons Ratio (x) = 0.23047 0.02568
# Poissons Ratio (y) = 0.18669 0.06001
# Poissons Ratio (z) = 0.13670 0.39432
#
# Static dielectric constant tensor:
#      x y z
#    x 1.957590 0.000000 0.000000 
#    y 0.000000 1.944250 0.000000 
#    z 0.000000 0.000000 2.061930 
# 
# From -- ./inp_files/21229.got.cif
#   From: 2010.05.17/outbox.cif.g08.bks.cpg/sg60_11_cif.got.tgz:21229.got - 2010.06.03 14:59:27.
