data_PCOD9453706
_publ_section_title
;
Structure prediction by ZEFSAII (Michael W. Deem and Ramdas Pophale) SiO2 
 PCOD9453706
Probable space group: P B C N
;
_chemical_formula_sum "Si O2"
_cell_formula_units_Z 64
_cell_length_a 11.884057
_cell_length_b 17.218857
_cell_length_c 17.640113
_cell_angle_alpha 90.000000
_cell_angle_beta 90.000000
_cell_angle_gamma 90.000000
_cell_volume 3609.694172
_symmetry_space_group_name_H-M "P B C N"
_symmetry_group_IT_number 60
_symmetry_cell_setting 'orthorhombic'
loop_
_space_group_symop_operation_xyz
x,y,z
1/2-x,1/2-y,1/2+z
1/2+x,1/2-y,-z
-x,y,1/2-z
-x,-y,-z
1/2+x,1/2+y,1/2-z
1/2-x,1/2+y,z
x,-y,1/2+z
loop_
_atom_site_type_symbol
_atom_site_label
_atom_site_fract_x
_atom_site_fract_y
_atom_site_fract_z
Si Si1 0.904825 0.648932 0.412569
Si Si2 0.183501 0.787830 0.542974
Si Si3 0.170773 0.062007 0.466905
Si Si4 0.990214 0.326020 0.085895
Si Si5 0.287641 0.278535 0.886481
Si Si6 0.555556 0.595784 0.554790
Si Si7 0.064402 0.763201 0.326741
Si Si8 0.098767 0.477762 0.058765
O O1 0.788675 0.694647 0.404560
O O2 0.882855 0.558442 0.397676
O O3 0.941283 0.659873 0.500742
O O4 0.000103 0.690905 0.365208
O O5 0.092504 0.732968 0.579374
O O6 0.229411 0.748203 0.465933
O O7 0.122466 0.866204 0.515877
O O8 0.179788 0.132912 0.406971
O O9 0.289639 0.047856 0.511128
O O10 0.072370 0.081846 0.527792
O O11 0.123508 0.983160 0.428313
O O12 0.045516 0.408082 0.108057
O O13 0.890586 0.280499 0.127756
O O14 0.193431 0.264563 0.823170
O O15 0.558053 0.660588 0.619990
O O16 0.000000 0.780475 0.250000
O O17 0.000000 0.500000 0.000000
#
# Coordination Sequence:
#
# PCOD9453706 Si02
#       8
#     8   8   8   8   8   8   8   8
#     4  10  18  31  50  76 106 135 180 218 270 324
#     4  10  15  28  50  82 113 134 166 223 277 330
#     4  11  18  31  56  89 122 133 171 234 301 332
#     4  10  17  28  51  84 113 137 164 227 293 327
#     4  10  18  31  52  80 112 145 182 223 268 329
#     4  10  20  32  55  89 112 143 179 229 288 338
#     4  11  23  40  57  71 105 157 201 218 257 339
#     4  10  19  27  46  84 116 138 157 213 290 334
#
# _framework density 17.730035000000001
#
# number of rings (size 3 to 8) (size 9 to 14) (size 15 to 20)
#    0.000    1.750    6.250    1.500    1.750    0.000 
#    0.000    0.000    2.750    0.750    0.000    0.000 
#    0.000    0.000    0.000    0.000    0.000    0.000 
#
# Total GULP energy -356396.902639 kJ/mol
# GULP energy per Si atom -5568.701604 kJ/mol
# Density = 1.768968 g / cm^3
# Si number density = 17.730035 Si / 1000 Ang^3
#
#
#
# Elastic Constant Matrix: (Units=GPa)
#
#
# Indices 1 2 3 4 5 6 
#
# 1 110.8438 48.7704 0.1272 0.0000 0.0000 0.0000
# 2 48.7704 127.0639 17.4952 0.0000 0.0000 0.0000
# 3 0.1272 17.4952 11.0731 0.0000 0.0000 0.0000
# 4 0.0000 0.0000 0.0000 3.5473 0.0000 0.0000
# 5 0.0000 0.0000 0.0000 0.0000 10.7459 0.0000
# 6 0.0000 0.0000 0.0000 0.0000 0.0000 32.1988
#
#
#
# Elastic Compliance Matrix: (Units=1/GPa)
#
#
# Indices 1 2 3 4 5 6 
#
# 1 0.011479 -0.005608 0.008728 0.000000 0.000000 0.000000
# 2 -0.005608 0.012798 -0.020155 0.000000 0.000000 0.000000
# 3 0.008728 -0.020155 0.122054 0.000000 0.000000 0.000000
# 4 0.000000 0.000000 0.000000 0.281908 0.000000 0.000000
# 5 0.000000 0.000000 0.000000 0.000000 0.093059 0.000000
# 6 0.000000 0.000000 0.000000 0.000000 0.000000 0.031057
#
#
# Mechanical properties :
#
#
# Convention : Reuss Voigt Hill
#
# Bulk Modulus (GPa) = 8.90784 42.41848 25.66316
# Shear Modulus (GPa) = 8.01481 21.47092 14.74287
#
# Velocity S-wave (km/s) = 2.12845 3.48371 2.88674
# Velocity P-wave (km/s) = 3.32798 6.33705 5.06131
#
# Compressibility (1/GPa) = 0.11226062
#
# Stress axis : x y z
#
# Youngs Moduli (GPa) = 87.11540 78.13963 8.19309
#
# Poissons Ratio (x) = 0.43818 -0.07151
# Poissons Ratio (y) = 0.48852 0.16514
# Poissons Ratio (z) = -0.76036 1.57494
#
# Static dielectric constant tensor:
#      x y z
#    x 1.626850 0.000000 0.000000 
#    y 0.000000 1.673560 0.000000 
#    z 0.000000 0.000000 1.590360 
# 
# From -- ./inp_files/22742.got.cif
#   From: 2010.05.17/outbox.cif.g08.bks.cpg/sg60_12_cif.got.tgz:22742.got - 2010.06.03 14:59:27.
