data_PCOD9453970
_publ_section_title
;
Structure prediction by ZEFSAII (Michael W. Deem and Ramdas Pophale) SiO2 
 PCOD9453970
Probable space group: P B C N
;
_chemical_formula_sum "Si O2"
_cell_formula_units_Z 44
_cell_length_a 14.227874
_cell_length_b 9.151971
_cell_length_c 11.905421
_cell_angle_alpha 90.000000
_cell_angle_beta 90.000000
_cell_angle_gamma 90.000000
_cell_volume 1550.241659
_symmetry_space_group_name_H-M "P B C N"
_symmetry_group_IT_number 60
_symmetry_cell_setting 'orthorhombic'
loop_
_space_group_symop_operation_xyz
x,y,z
1/2-x,1/2-y,1/2+z
1/2+x,1/2-y,-z
-x,y,1/2-z
-x,-y,-z
1/2+x,1/2+y,1/2-z
1/2-x,1/2+y,z
x,-y,1/2+z
loop_
_atom_site_type_symbol
_atom_site_label
_atom_site_fract_x
_atom_site_fract_y
_atom_site_fract_z
Si Si1 0.892527 0.928990 0.052237
Si Si2 0.186239 0.621324 0.975775
Si Si3 0.369594 0.932034 0.154937
Si Si4 0.664894 0.372337 0.338640
Si Si5 0.000000 0.689383 0.250000
Si Si6 0.515612 0.715034 0.104123
O O1 0.788533 0.878099 0.075872
O O2 0.970565 0.808303 0.021955
O O3 0.875865 0.006148 0.925819
O O4 0.932775 0.062189 0.125368
O O5 0.158484 0.463926 0.024926
O O6 0.191122 0.737423 0.078271
O O7 0.099161 0.669479 0.901497
O O8 0.265391 0.930255 0.206865
O O9 0.427566 0.782907 0.168374
O O10 0.440523 0.063970 0.181672
O O11 0.588091 0.307660 0.251234
#
# Coordination Sequence:
#
# PCOD9453970 Si02
#       6
#     8   8   8   8   4   8
#     4   9  18  32  55  85 116 149 180 218 291 357
#     4   9  17  32  57  86 113 147 175 227 286 352
#     4  10  19  35  58  83 111 148 195 233 285 331
#     4   9  18  36  61  80 110 148 194 234 282 345
#     4  10  22  38  62  80 106 156 206 244 274 326
#     4  10  18  31  56  86 114 143 181 228 281 353
#
# _framework density 28.382670000000001
#
# number of rings (size 3 to 8) (size 9 to 14) (size 15 to 20)
#    0.000    2.545    1.818    0.545    0.000    0.000 
#    0.000    2.727   12.000    0.000    0.000    0.000 
#    0.000    0.000    0.000    0.000    0.000    0.000 
#
# Total GULP energy -245551.721753 kJ/mol
# GULP energy per Si atom -5580.720949 kJ/mol
# Density = 2.831807 g / cm^3
# Si number density = 28.382670 Si / 1000 Ang^3
#
#
#
# Elastic Constant Matrix: (Units=GPa)
#
#
# Indices 1 2 3 4 5 6 
#
# 1 268.5081 67.7088 41.7477 0.0000 0.0000 0.0000
# 2 67.7088 128.9662 10.9233 0.0000 0.0000 0.0000
# 3 41.7477 10.9233 63.9103 0.0000 0.0000 0.0000
# 4 0.0000 0.0000 0.0000 23.9294 0.0000 0.0000
# 5 0.0000 0.0000 0.0000 0.0000 43.8455 0.0000
# 6 0.0000 0.0000 0.0000 0.0000 0.0000 47.3051
#
#
#
# Elastic Compliance Matrix: (Units=1/GPa)
#
#
# Indices 1 2 3 4 5 6 
#
# 1 0.004709 -0.002244 -0.002692 0.000000 0.000000 0.000000
# 2 -0.002244 0.008937 -0.000062 0.000000 0.000000 0.000000
# 3 -0.002692 -0.000062 0.017416 0.000000 0.000000 0.000000
# 4 0.000000 0.000000 0.000000 0.041790 0.000000 0.000000
# 5 0.000000 0.000000 0.000000 0.000000 0.022807 0.000000
# 6 0.000000 0.000000 0.000000 0.000000 0.000000 0.021139
#
#
# Mechanical properties :
#
#
# Convention : Reuss Voigt Hill
#
# Bulk Modulus (GPa) = 47.46952 78.01601 62.74277
# Shear Modulus (GPa) = 37.36450 45.74966 41.55708
#
# Velocity S-wave (km/s) = 3.63223 4.01919 3.83060
# Velocity P-wave (km/s) = 5.86106 7.00609 6.45900
#
# Compressibility (1/GPa) = 0.02106615
#
# Stress axis : x y z
#
# Youngs Moduli (GPa) = 212.36924 111.88960 57.41798
#
# Poissons Ratio (x) = 0.25109 0.15459
# Poissons Ratio (y) = 0.47658 0.00354
# Poissons Ratio (z) = 0.57177 0.00690
#
# Static dielectric constant tensor:
#      x y z
#    x 2.191070 0.000000 0.000000 
#    y 0.000000 2.210930 0.000000 
#    z 0.000000 0.000000 2.497550 
# 
# From -- ./inp_files/24199.got.cif
#   From: 2010.05.17/outbox.cif.g08.bks.cpg/sg60_13_cif.got.tgz:24199.got - 2010.06.03 14:59:27.
