data_PCOD9453495
_publ_section_title
;
Structure prediction by ZEFSAII (Michael W. Deem and Ramdas Pophale) SiO2 
 PCOD9453495
Probable space group: P M M N
;
_chemical_formula_sum "Si O2"
_cell_formula_units_Z 40
_cell_length_a 9.000000
_cell_length_b 15.000000
_cell_length_c 15.000000
_cell_angle_alpha 90.000000
_cell_angle_beta 90.000000
_cell_angle_gamma 90.000000
_cell_volume 2025.000000
_symmetry_space_group_name_H-M "P M M N"
_symmetry_group_IT_number 59
_space_group.IT_coordinate_system_code '2'
_symmetry_cell_setting 'orthorhombic'
loop_
_space_group_symop_operation_xyz
x,y,z
1/2-x,1/2-y,z
1/2+x,-y,-z
-x,1/2+y,-z
-x,-y,-z
1/2+x,1/2+y,-z
1/2-x,y,z
x,1/2-y,z
loop_
_atom_site_type_symbol
_atom_site_label
_atom_site_fract_x
_atom_site_fract_y
_atom_site_fract_z
Si Si1 0.417033 0.355892 0.618992
Si Si2 0.070571 0.250000 0.132311
Si Si3 0.431409 0.145631 0.429210
Si Si4 0.429670 0.750000 0.058848
Si Si5 0.930804 0.918634 0.756700
Si Si6 0.071945 0.894227 0.197804
O O1 0.250000 0.391460 0.634004
O O2 0.402761 0.250000 0.603587
O O3 0.483538 0.388329 0.525344
O O4 0.515020 0.366100 0.705669
O O5 0.250000 0.250000 0.126812
O O6 0.021662 0.333965 0.189027
O O7 0.001759 0.250000 0.036136
O O8 0.250000 0.143815 0.432949
O O9 0.471390 0.250000 0.413559
O O10 0.481678 0.087887 0.345277
O O11 0.250000 0.750000 0.051985
O O12 0.480074 0.666343 0.117734
O O13 0.750000 0.918789 0.753041
O O14 0.978536 0.004974 0.809508
O O15 0.250000 0.888784 0.198521
#
# Coordination Sequence:
#
# PCOD9453495 Si02
#       6
#     8   4   8   4   8   8
#     4   9  17  29  49  76 104 135 171 207 241 282
#     4  10  20  36  59  80  94 118 169 226 257 286
#     4   8  13  25  47  75 104 132 163 205 251 286
#     4  10  22  38  51  68 102 138 163 198 259 318
#     4   9  17  31  53  79 102 127 167 211 249 295
#     4  10  20  34  52  74 103 139 169 197 245 306
#
# _framework density 19.753086
#
# number of rings (size 3 to 8) (size 9 to 14) (size 15 to 20)
#    0.000    2.800    2.000    1.200    0.000    2.400 
#    0.000    1.000    0.000    1.200    0.000    0.000 
#    0.000    0.000    0.000    0.000    0.000    0.000 
#
# Total GULP energy -222675.591869 kJ/mol
# GULP energy per Si atom -5566.889797 kJ/mol
# Density = 1.970813 g / cm^3
# Si number density = 19.753086 Si / 1000 Ang^3
#
#
#
# Elastic Constant Matrix: (Units=GPa)
#
#
# Indices 1 2 3 4 5 6 
#
# 1 -11.8802 5.9920 2.7473 0.0000 0.0000 0.0000
# 2 5.9920 70.2334 40.5641 0.0000 0.0000 0.0000
# 3 2.7473 40.5641 122.5599 0.0000 0.0000 0.0000
# 4 0.0000 0.0000 0.0000 2422.3091 0.0000 0.0000
# 5 0.0000 0.0000 0.0000 0.0000 -5.0155 0.0000
# 6 0.0000 0.0000 0.0000 0.0000 0.0000 -20.2855
#
#
#
# Elastic Compliance Matrix: (Units=1/GPa)
#
#
# Indices 1 2 3 4 5 6 
#
# 1 -0.080668 0.007217 -0.000581 0.000000 0.000000 0.000000
# 2 0.007217 0.016957 -0.005774 0.000000 0.000000 0.000000
# 3 -0.000581 -0.005774 0.010083 0.000000 0.000000 0.000000
# 4 0.000000 0.000000 0.000000 0.000413 0.000000 0.000000
# 5 0.000000 0.000000 0.000000 0.000000 -0.199382 0.000000
# 6 0.000000 0.000000 0.000000 0.000000 0.000000 -0.049296
#
#
# Mechanical properties :
#
#
# Convention : Reuss Voigt Hill
#
# Bulk Modulus (GPa) = -19.26720 31.05775 5.89527
# Shear Modulus (GPa) = -15.58029 488.17562 236.29767
#
# Velocity S-wave (km/s) = -2.81152 15.73771 10.94922
# Velocity P-wave (km/s) = 4.50719 18.60083 12.76081
#
# Compressibility (1/GPa) = -0.05190168
#
# Stress axis : x y z
#
# Youngs Moduli (GPa) = -12.39651 58.97113 99.17278
#
# Poissons Ratio (x) = -0.42562 0.05758
# Poissons Ratio (y) = 0.08947 0.57265
# Poissons Ratio (z) = -0.00720 0.34051
#
# Static dielectric constant tensor:
#      x y z
#    x 1.655920 0.000000 0.000000 
#    y 0.000000 1.784180 0.000000 
#    z 0.000000 0.000000 1.679060 
# 
# From -- ./inp_files/19930.got.cif
#   From: 2010.05.17/outbox.ucp.g08.bks.cvg/sg59_10_cif.got.tgz:19930.got - 2010.06.11 16:43:56.
