data_PCOD9453670
_publ_section_title
;
Structure prediction by ZEFSAII (Michael W. Deem and Ramdas Pophale) SiO2 
 PCOD9453670
Probable space group: P M M N
;
_chemical_formula_sum "Si O2"
_cell_formula_units_Z 48
_cell_length_a 15.000000
_cell_length_b 18.000000
_cell_length_c 9.000000
_cell_angle_alpha 90.000000
_cell_angle_beta 90.000000
_cell_angle_gamma 90.000000
_cell_volume 2430.000000
_symmetry_space_group_name_H-M "P M M N"
_symmetry_group_IT_number 59
_space_group.IT_coordinate_system_code '2'
_symmetry_cell_setting 'orthorhombic'
loop_
_space_group_symop_operation_xyz
x,y,z
1/2-x,1/2-y,z
1/2+x,-y,-z
-x,1/2+y,-z
-x,-y,-z
1/2+x,1/2+y,-z
1/2-x,y,z
x,1/2-y,z
loop_
_atom_site_type_symbol
_atom_site_label
_atom_site_fract_x
_atom_site_fract_y
_atom_site_fract_z
Si Si1 0.965872 0.162295 0.653506
Si Si2 0.028848 0.661713 0.835945
Si Si3 0.353507 0.425665 0.704586
Si Si4 0.855206 0.104356 0.909371
Si Si5 0.855665 0.404479 0.407429
Si Si6 0.646104 0.570517 0.935355
O O1 0.967119 0.250000 0.614437
O O2 0.926248 0.153051 0.818541
O O3 0.890040 0.112064 0.572584
O O4 0.064988 0.125860 0.646650
O O5 0.021032 0.750000 0.861765
O O6 0.068702 0.645049 0.674072
O O7 0.934378 0.620663 0.869633
O O8 0.109978 0.623336 0.926759
O O9 0.250000 0.402628 0.669905
O O10 0.364634 0.509405 0.641152
O O11 0.360739 0.427611 0.884548
O O12 0.750000 0.122205 0.889852
O O13 0.866282 0.015558 0.886725
O O14 0.750000 0.384625 0.388851
O O15 0.750000 0.591671 0.898251
#
# Coordination Sequence:
#
# PCOD9453670 Si02
#       6
#     8   8   8   8   8   8
#     4  12  25  40  60  92 129 161 196 251 312 359
#     4  12  23  37  61  91 122 159 201 248 306 365
#     4  10  21  41  67  91 117 159 210 252 297 360
#     4  11  22  38  61  87 118 159 205 250 296 355
#     4  11  24  43  64  87 122 167 207 246 298 361
#     4  10  21  40  65  91 122 157 203 260 304 349
#
# _framework density 19.753086
#
# number of rings (size 3 to 8) (size 9 to 14) (size 15 to 20)
#    0.000    1.000    3.333    4.000    0.000    4.667 
#    0.000    4.167    0.000    2.000    0.000    0.000 
#    0.000    0.000    0.000    0.000    0.000    0.000 
#
# Total GULP energy -267684.277547 kJ/mol
# GULP energy per Si atom -5576.755782 kJ/mol
# Density = 1.970813 g / cm^3
# Si number density = 19.753086 Si / 1000 Ang^3
#
#
#
# Elastic Constant Matrix: (Units=GPa)
#
#
# Indices 1 2 3 4 5 6 
#
# 1 163.6959 73.5069 -9.5593 0.0000 0.0000 0.0000
# 2 73.5069 117.6367 -0.2360 0.0000 0.0000 0.0000
# 3 -9.5593 -0.2360 6.7617 0.0000 0.0000 0.0000
# 4 0.0000 0.0000 0.0000 18.9960 0.0000 0.0000
# 5 0.0000 0.0000 0.0000 0.0000 37.3799 0.0000
# 6 0.0000 0.0000 0.0000 0.0000 0.0000 28.8427
#
#
#
# Elastic Compliance Matrix: (Units=1/GPa)
#
#
# Indices 1 2 3 4 5 6 
#
# 1 0.009555 -0.005944 0.013300 0.000000 0.000000 0.000000
# 2 -0.005944 0.012199 -0.007977 0.000000 0.000000 0.000000
# 3 0.013300 -0.007977 0.166416 0.000000 0.000000 0.000000
# 4 0.000000 0.000000 0.000000 0.052643 0.000000 0.000000
# 5 0.000000 0.000000 0.000000 0.000000 0.026752 0.000000
# 6 0.000000 0.000000 0.000000 0.000000 0.000000 0.034671
#
#
# Mechanical properties :
#
#
# Convention : Reuss Voigt Hill
#
# Bulk Modulus (GPa) = 5.34964 46.16863 25.75914
# Shear Modulus (GPa) = 13.66921 32.00256 22.83589
#
# Velocity S-wave (km/s) = 2.63345 4.02945 3.40379
# Velocity P-wave (km/s) = 3.45845 6.71359 5.34009
#
# Compressibility (1/GPa) = 0.18692844
#
# Stress axis : x y z
#
# Youngs Moduli (GPa) = 104.66258 81.97602 6.00903
#
# Poissons Ratio (x) = 0.48723 -0.07992
# Poissons Ratio (y) = 0.62207 0.04793
# Poissons Ratio (z) = -1.39203 0.65392
#
# Static dielectric constant tensor:
#      x y z
#    x 1.655170 0.000000 0.000000 
#    y 0.000000 1.651370 0.000000 
#    z 0.000000 0.000000 1.727760 
# 
# From -- ./inp_files/9000.got.cif
#   From: 2010.05.17/outbox.ucp.g08.bks.cvg/sg59_5_cif.got.tgz:9000.got - 2010.06.11 16:43:56.
