data_PCOD9453537
_publ_section_title
;
Structure prediction by ZEFSAII (Michael W. Deem and Ramdas Pophale) SiO2 
 PCOD9453537
Probable space group: P M M N
;
_chemical_formula_sum "Si O2"
_cell_formula_units_Z 64
_cell_length_a 24.000000
_cell_length_b 9.000000
_cell_length_c 15.000000
_cell_angle_alpha 90.000000
_cell_angle_beta 90.000000
_cell_angle_gamma 90.000000
_cell_volume 3240.000000
_symmetry_space_group_name_H-M "P M M N"
_symmetry_group_IT_number 59
_space_group.IT_coordinate_system_code '2'
_symmetry_cell_setting 'orthorhombic'
loop_
_space_group_symop_operation_xyz
x,y,z
1/2-x,1/2-y,z
1/2+x,-y,-z
-x,1/2+y,-z
-x,-y,-z
1/2+x,1/2+y,-z
1/2-x,y,z
x,1/2-y,z
loop_
_atom_site_type_symbol
_atom_site_label
_atom_site_fract_x
_atom_site_fract_y
_atom_site_fract_z
Si Si1 0.912882 0.425756 0.718147
Si Si2 0.816246 0.578300 0.082959
Si Si3 0.358083 0.073336 0.582852
Si Si4 0.576824 0.076070 0.033865
Si Si5 0.986508 0.927570 0.406923
Si Si6 0.314915 0.428109 0.384447
Si Si7 0.684847 0.413095 0.254091
Si Si8 0.471519 0.418801 0.128776
O O1 0.907022 0.250000 0.707701
O O2 0.855470 0.500782 0.688552
O O3 0.934946 0.468782 0.814509
O O4 0.965386 0.480759 0.659015
O O5 0.750000 0.554472 0.067364
O O6 0.828200 0.750000 0.061472
O O7 0.858112 0.463502 0.036928
O O8 0.831222 0.543130 0.186052
O O9 0.347277 0.250000 0.595353
O O10 0.421824 0.041215 0.610629
O O11 0.343242 0.039228 0.480438
O O12 0.322724 0.970210 0.646771
O O13 0.568854 0.250000 0.008066
O O14 0.538468 0.058968 0.123087
O O15 0.550785 0.951417 0.969850
O O16 0.990959 0.750000 0.412340
O O17 0.000000 0.000000 0.500000
O O18 0.250000 0.476431 0.382258
O O19 0.315286 0.250000 0.374085
O O20 0.750000 0.396112 0.237373
O O21 0.658444 0.250000 0.238158
O O22 0.460721 0.250000 0.157145
#
# Coordination Sequence:
#
# PCOD9453537 Si02
#       8
#     8   8   8   8   8   8   8   8
#     4  11  23  38  58  87 119 151 188 238 292 339
#     4  10  21  37  58  84 117 157 195 233 281 341
#     4  10  20  35  55  80 109 148 193 234 282 339
#     4  10  21  39  63  92 120 149 186 232 287 342
#     4  10  21  36  55  81 112 147 185 231 281 334
#     4  10  21  38  60  82 109 151 199 244 289 342
#     4  10  21  35  51  77 113 150 191 236 278 327
#     4  10  22  40  63  89 117 152 189 233 285 345
#
# _framework density 19.753086
#
# number of rings (size 3 to 8) (size 9 to 14) (size 15 to 20)
#    0.000    1.875    1.250    2.250    1.750    5.250 
#    0.000    0.625    0.000    3.750    0.000    0.000 
#    0.000    0.000    0.000    0.000    0.000    0.000 
#
# Total GULP energy -356339.789211 kJ/mol
# GULP energy per Si atom -5567.809206 kJ/mol
# Density = 1.970813 g / cm^3
# Si number density = 19.753086 Si / 1000 Ang^3
#
#
#
# Elastic Constant Matrix: (Units=GPa)
#
#
# Indices 1 2 3 4 5 6 
#
# 1 97.6688 34.2932 11.0674 0.0000 0.0000 0.0000
# 2 34.2932 21.3445 -6.7952 0.0000 0.0000 0.0000
# 3 11.0674 -6.7952 12.9987 0.0000 0.0000 0.0000
# 4 0.0000 0.0000 0.0000 22.6733 0.0000 0.0000
# 5 0.0000 0.0000 0.0000 0.0000 21.2021 0.0000
# 6 0.0000 0.0000 0.0000 0.0000 0.0000 31.6586
#
#
#
# Elastic Compliance Matrix: (Units=1/GPa)
#
#
# Indices 1 2 3 4 5 6 
#
# 1 -0.491277 1.106647 0.996795 0.000000 0.000000 0.000000
# 2 1.106647 -2.436623 -2.215992 0.000000 0.000000 0.000000
# 3 0.996795 -2.215992 -1.930194 0.000000 0.000000 0.000000
# 4 0.000000 0.000000 0.000000 0.044105 0.000000 0.000000
# 5 0.000000 0.000000 0.000000 0.000000 0.047165 0.000000
# 6 0.000000 0.000000 0.000000 0.000000 0.000000 0.031587
#
#
# Mechanical properties :
#
#
# Convention : Reuss Voigt Hill
#
# Bulk Modulus (GPa) = -0.19673 23.23810 11.52069
# Shear Modulus (GPa) = -0.80586 21.33658 10.26536
#
# Velocity S-wave (km/s) = -0.63942 3.29015 2.28213
# Velocity P-wave (km/s) = 0.80309 5.12087 3.57619
#
# Compressibility (1/GPa) = -5.08319326
#
# Stress axis : x y z
#
# Youngs Moduli (GPa) = -2.03551 -0.41040 -0.51808
#
# Poissons Ratio (x) = 0.45417 0.51642
# Poissons Ratio (y) = 2.25259 -1.14807
# Poissons Ratio (z) = 2.02899 -0.90945
#
# Static dielectric constant tensor:
#      x y z
#    x 1.823860 0.000000 0.000000 
#    y 0.000000 1.868140 0.000000 
#    z 0.000000 0.000000 1.662540 
# 
# From -- ./inp_files/24670.got.cif
#   From: 2010.05.17/outbox.ucp.g08.bks.cvg/sg59_13_cif.got.tgz:24670.got - 2010.06.11 16:43:56.
