data_PCOD9453392
_publ_section_title
;
Structure prediction by ZEFSAII (Michael W. Deem and Ramdas Pophale) SiO2 
 PCOD9453392
Probable space group: P M M N
;
_chemical_formula_sum "Si O2"
_cell_formula_units_Z 64
_cell_length_a 30.000000
_cell_length_b 9.000000
_cell_length_c 15.000000
_cell_angle_alpha 90.000000
_cell_angle_beta 90.000000
_cell_angle_gamma 90.000000
_cell_volume 4050.000000
_symmetry_space_group_name_H-M "P M M N"
_symmetry_group_IT_number 59
_space_group.IT_coordinate_system_code '2'
_symmetry_cell_setting 'orthorhombic'
loop_
_space_group_symop_operation_xyz
x,y,z
1/2-x,1/2-y,z
1/2+x,-y,-z
-x,1/2+y,-z
-x,-y,-z
1/2+x,1/2+y,-z
1/2-x,y,z
x,1/2-y,z
loop_
_atom_site_type_symbol
_atom_site_label
_atom_site_fract_x
_atom_site_fract_y
_atom_site_fract_z
Si Si1 0.300189 0.575328 0.806471
Si Si2 0.436832 0.428490 0.858518
Si Si3 0.114904 0.573287 0.696449
Si Si4 0.963430 0.072009 0.828846
Si Si5 0.607698 0.571398 0.954686
Si Si6 0.201284 0.071089 0.997797
Si Si7 0.567458 0.926099 0.457804
Si Si8 0.970155 0.427685 0.623625
O O1 0.250000 0.554108 0.773868
O O2 0.306006 0.750000 0.829061
O O3 0.336345 0.536125 0.733387
O O4 0.305542 0.482467 0.896571
O O5 0.433586 0.250000 0.845327
O O6 0.417970 0.507341 0.771311
O O7 0.488572 0.467122 0.870030
O O8 0.409626 0.469961 0.946557
O O9 0.109543 0.750000 0.691570
O O10 0.104718 0.501195 0.602082
O O11 0.959250 0.250000 0.832651
O O12 0.964083 0.027607 0.725473
O O13 0.924180 0.997826 0.882426
O O14 0.605516 0.750000 0.949408
O O15 0.658775 0.521559 0.946404
O O16 0.250000 0.017937 0.027309
O O17 0.201408 0.250000 0.997771
O O18 0.572435 0.750000 0.459497
O O19 0.520436 0.961683 0.408449
O O20 0.562737 0.991411 0.556085
O O21 0.964700 0.250000 0.616481
#
# Coordination Sequence:
#
# PCOD9453392 Si02
#       8
#     8   8   8   8   8   8   8   8
#     4   9  18  31  46  67  95 124 156 195 235 277
#     4  10  19  33  46  64  96 130 163 197 230 268
#     4  11  20  29  47  72  96 126 161 193 231 283
#     4  10  20  33  48  65  94 130 161 196 235 274
#     4  10  20  31  46  68  95 126 162 199 232 278
#     4   9  17  30  48  68  91 121 156 196 241 281
#     4  10  19  32  50  69  94 123 152 190 235 280
#     4   9  18  33  49  68  92 120 156 196 234 272
#
# _framework density 15.802469
#
# number of rings (size 3 to 8) (size 9 to 14) (size 15 to 20)
#    0.000    2.250    2.500    1.125    0.000    3.000 
#    0.000    0.000    0.000    0.000    0.000    0.875 
#    0.000    1.000    0.000    0.000    0.000    0.000 
#
# Total GULP energy -356731.979648 kJ/mol
# GULP energy per Si atom -5573.937182 kJ/mol
# Density = 1.576650 g / cm^3
# Si number density = 15.802469 Si / 1000 Ang^3
#
#
#
# Elastic Constant Matrix: (Units=GPa)
#
#
# Indices 1 2 3 4 5 6 
#
# 1 106.1960 23.1166 39.3135 0.0000 0.0000 0.0000
# 2 23.1166 -8.1670 11.5404 0.0000 0.0000 0.0000
# 3 39.3135 11.5404 36.5907 0.0000 0.0000 0.0000
# 4 0.0000 0.0000 0.0000 22.3475 0.0000 0.0000
# 5 0.0000 0.0000 0.0000 0.0000 14.4361 0.0000
# 6 0.0000 0.0000 0.0000 0.0000 0.0000 13.8889
#
#
#
# Elastic Compliance Matrix: (Units=1/GPa)
#
#
# Indices 1 2 3 4 5 6 
#
# 1 0.013571 0.012319 -0.018466 0.000000 0.000000 0.000000
# 2 0.012319 -0.073515 0.009950 0.000000 0.000000 0.000000
# 3 -0.018466 0.009950 0.044032 0.000000 0.000000 0.000000
# 4 0.000000 0.000000 0.000000 0.044748 0.000000 0.000000
# 5 0.000000 0.000000 0.000000 0.000000 0.069271 0.000000
# 6 0.000000 0.000000 0.000000 0.000000 0.000000 0.072000
#
#
# Mechanical properties :
#
#
# Convention : Reuss Voigt Hill
#
# Bulk Modulus (GPa) = -120.38900 31.39562 -44.49669
# Shear Modulus (GPa) = 31.30258 14.17778 22.74018
#
# Velocity S-wave (km/s) = 4.45552 2.99856 3.79757
# Velocity P-wave (km/s) = 7.06259 5.64793 2.99842
#
# Compressibility (1/GPa) = -0.00830641
#
# Stress axis : x y z
#
# Youngs Moduli (GPa) = 73.68577 -13.60264 22.71101
#
# Poissons Ratio (x) = 0.16757 0.41939
# Poissons Ratio (y) = -0.90774 -0.22598
# Poissons Ratio (z) = 1.36070 0.13535
#
# Static dielectric constant tensor:
#      x y z
#    x 1.552970 0.000000 0.000000 
#    y 0.000000 1.528060 0.000000 
#    z 0.000000 0.000000 1.494010 
# 
# From -- ./inp_files/21892.got.cif
#   From: 2010.05.17/outbox.ucp.g08.bks.cvg/sg59_11_cif.got.tgz:21892.got - 2010.06.11 16:43:56.
