data_PCOD9453589
_publ_section_title
;
Structure prediction by ZEFSAII (Michael W. Deem and Ramdas Pophale) SiO2 
 PCOD9453589
Probable space group: P M M N
;
_chemical_formula_sum "Si O2"
_cell_formula_units_Z 64
_cell_length_a 24.000000
_cell_length_b 15.000000
_cell_length_c 9.000000
_cell_angle_alpha 90.000000
_cell_angle_beta 90.000000
_cell_angle_gamma 90.000000
_cell_volume 3240.000000
_symmetry_space_group_name_H-M "P M M N"
_symmetry_group_IT_number 59
_space_group.IT_coordinate_system_code '2'
_symmetry_cell_setting 'orthorhombic'
loop_
_space_group_symop_operation_xyz
x,y,z
1/2-x,1/2-y,z
1/2+x,-y,-z
-x,1/2+y,-z
-x,-y,-z
1/2+x,1/2+y,-z
1/2-x,y,z
x,1/2-y,z
loop_
_atom_site_type_symbol
_atom_site_label
_atom_site_fract_x
_atom_site_fract_y
_atom_site_fract_z
Si Si1 0.186094 0.496503 0.310009
Si Si2 0.374128 0.450210 0.793155
Si Si3 0.623013 0.149837 0.273264
Si Si4 0.506321 0.045936 0.788938
Si Si5 0.817366 0.649254 0.462797
Si Si6 0.398961 0.855098 0.372896
Si Si7 0.004832 0.645969 0.895951
Si Si8 0.313464 0.356159 0.042841
O O1 0.250000 0.525558 0.339763
O O2 0.162883 0.435639 0.442872
O O3 0.147640 0.583270 0.291728
O O4 0.189162 0.420184 0.185159
O O5 0.351958 0.552889 0.776593
O O6 0.439943 0.453261 0.758324
O O7 0.341982 0.377481 0.694407
O O8 0.361576 0.406243 0.951627
O O9 0.649228 0.250000 0.247317
O O10 0.613300 0.142688 0.450578
O O11 0.564248 0.152822 0.186765
O O12 0.543160 0.095460 0.665735
O O13 0.523721 0.941498 0.816136
O O14 0.513847 0.105712 0.938656
O O15 0.750000 0.648118 0.465083
O O16 0.834137 0.750000 0.508000
O O17 0.399394 0.750000 0.328587
O O18 0.982457 0.750000 0.897388
O O19 0.250000 0.360722 0.975993
O O20 0.323873 0.250000 0.069210
#
# Coordination Sequence:
#
# PCOD9453589 Si02
#       8
#     8   8   8   8   8   8   8   8
#     4  10  22  41  62  86 116 153 201 248 296 357
#     4  11  21  37  60  90 125 154 199 246 287 356
#     4   9  20  39  60  82 114 159 203 245 296 344
#     4  10  23  37  58  89 123 160 198 242 295 354
#     4  10  20  37  61  87 118 156 196 244 301 353
#     4  11  23  41  62  86 119 158 199 248 304 350
#     4   9  19  37  57  81 116 162 203 239 287 348
#     4  10  22  40  62  88 121 159 195 240 299 357
#
# _framework density 19.753086
#
# number of rings (size 3 to 8) (size 9 to 14) (size 15 to 20)
#    0.000    2.000    1.250    1.500    5.250    6.750 
#    0.000    0.625    0.000    2.250    0.000    0.000 
#    0.000    0.000    0.000    0.000    0.000    0.000 
#
# Total GULP energy -356278.722055 kJ/mol
# GULP energy per Si atom -5566.855032 kJ/mol
# Density = 1.970813 g / cm^3
# Si number density = 19.753086 Si / 1000 Ang^3
#
#
#
# Elastic Constant Matrix: (Units=GPa)
#
#
# Indices 1 2 3 4 5 6 
#
# 1 12.6071 13.4170 -18.5078 0.0000 0.0000 0.0000
# 2 13.4170 180.3137 -3.0002 0.0000 0.0000 0.0000
# 3 -18.5078 -3.0002 11.7160 0.0000 0.0000 0.0000
# 4 0.0000 0.0000 0.0000 13.5208 0.0000 0.0000
# 5 0.0000 0.0000 0.0000 0.0000 15.3344 0.0000
# 6 0.0000 0.0000 0.0000 0.0000 0.0000 28.3813
#
#
#
# Elastic Compliance Matrix: (Units=1/GPa)
#
#
# Indices 1 2 3 4 5 6 
#
# 1 -0.058654 0.002835 -0.091930 0.000000 0.000000 0.000000
# 2 0.002835 0.005433 0.005869 0.000000 0.000000 0.000000
# 3 -0.091930 0.005869 -0.058365 0.000000 0.000000 0.000000
# 4 0.000000 0.000000 0.000000 0.073960 0.000000 0.000000
# 5 0.000000 0.000000 0.000000 0.000000 0.065213 0.000000
# 6 0.000000 0.000000 0.000000 0.000000 0.000000 0.035234
#
#
# Mechanical properties :
#
#
# Convention : Reuss Voigt Hill
#
# Bulk Modulus (GPa) = -3.59664 20.93943 8.67140
# Shear Modulus (GPa) = 36.60518 25.62916 31.11717
#
# Velocity S-wave (km/s) = 4.30948 3.60596 3.97332
# Velocity P-wave (km/s) = 4.78930 5.28780 5.04471
#
# Compressibility (1/GPa) = -0.27803733
#
# Stress axis : x y z
#
# Youngs Moduli (GPa) = -17.04921 184.07358 -17.13347
#
# Poissons Ratio (x) = -0.52181 -1.57507
# Poissons Ratio (y) = 0.04833 0.10056
# Poissons Ratio (z) = -1.56733 -1.08038
#
# Static dielectric constant tensor:
#      x y z
#    x 1.708220 0.000000 0.000000 
#    y 0.000000 1.700560 0.000000 
#    z 0.000000 0.000000 1.879910 
# 
# From -- ./inp_files/12211.got.cif
#   From: 2010.05.17/outbox.ucp.g08.bks.cvg/sg59_7_cif.got.tgz:12211.got - 2010.06.11 16:43:56.
