data_PCOD9453178
_publ_section_title
;
Structure prediction by ZEFSAII (Michael W. Deem and Ramdas Pophale) SiO2 
 PCOD9453178
Probable space group: P M M N
;
_chemical_formula_sum "Si O2"
_cell_formula_units_Z 48
_cell_length_a 8.466709
_cell_length_b 17.440414
_cell_length_c 15.764017
_cell_angle_alpha 90.000000
_cell_angle_beta 90.000000
_cell_angle_gamma 90.000000
_cell_volume 2327.760626
_symmetry_space_group_name_H-M "P M M N"
_symmetry_group_IT_number 59
_space_group.IT_coordinate_system_code '2'
_symmetry_cell_setting 'orthorhombic'
loop_
_space_group_symop_operation_xyz
x,y,z
1/2-x,1/2-y,z
1/2+x,-y,-z
-x,1/2+y,-z
-x,-y,-z
1/2+x,1/2+y,-z
1/2-x,y,z
x,1/2-y,z
loop_
_atom_site_type_symbol
_atom_site_label
_atom_site_fract_x
_atom_site_fract_y
_atom_site_fract_z
Si Si1 0.561984 0.157553 0.845963
Si Si2 0.441794 0.660017 0.969497
Si Si3 0.934834 0.164255 0.503941
Si Si4 0.569216 0.893947 0.330866
Si Si5 0.560869 0.157964 0.216688
Si Si6 0.931854 0.943614 0.633754
O O1 0.750000 0.143228 0.839052
O O2 0.540660 0.250000 0.843559
O O3 0.476766 0.121094 0.766069
O O4 0.506093 0.128834 0.939065
O O5 0.250000 0.657667 0.970167
O O6 0.485471 0.750000 0.969151
O O7 0.490160 0.629450 0.877397
O O8 0.750000 0.155361 0.483994
O O9 0.983623 0.250000 0.478016
O O10 0.962787 0.153755 0.603747
O O11 0.029837 0.100415 0.452964
O O12 0.750000 0.872332 0.345196
O O13 0.539690 0.982416 0.353163
O O14 0.750000 0.144889 0.226152
O O15 0.537961 0.250000 0.220906
O O16 0.469471 0.115097 0.290417
O O17 0.750000 0.968229 0.635296
#
# Coordination Sequence:
#
# PCOD9453178 Si02
#       6
#     8   8   8   8   8   8
#     4   9  17  33  58  86 115 148 188 232 279 332
#     4   7  12  26  52  83 112 145 185 229 276 327
#     4  11  24  43  66  89 113 143 180 223 274 333
#     4  12  25  40  58  82 115 151 188 230 278 331
#     4   9  17  33  58  86 115 148 188 232 279 332
#     4  12  25  40  58  82 115 151 188 230 278 331
#
# _framework density 20.620676
#
# number of rings (size 3 to 8) (size 9 to 14) (size 15 to 20)
#    0.000    2.000    0.000    7.000    0.000    6.000 
#    0.000    1.667    0.000    3.000    0.000    0.000 
#    0.000    0.000    0.000    0.000    0.000    0.000 
#
# Total GULP energy -268061.514538 kJ/mol
# GULP energy per Si atom -5584.614886 kJ/mol
# Density = 2.057374 g / cm^3
# Si number density = 20.620676 Si / 1000 Ang^3
#
#
#
# Elastic Constant Matrix: (Units=GPa)
#
#
# Indices 1 2 3 4 5 6 
#
# 1 20.8451 4.4217 1.6589 0.0000 0.0000 0.0000
# 2 4.4217 26.3079 0.0140 0.0000 0.0000 0.0000
# 3 1.6589 0.0140 100.9654 0.0000 0.0000 0.0000
# 4 0.0000 0.0000 0.0000 -7.6574 0.0000 0.0000
# 5 0.0000 0.0000 0.0000 0.0000 25.1601 0.0000
# 6 0.0000 0.0000 0.0000 0.0000 0.0000 10.1879
#
#
#
# Elastic Compliance Matrix: (Units=1/GPa)
#
#
# Indices 1 2 3 4 5 6 
#
# 1 0.049814 -0.008372 -0.000817 0.000000 0.000000 0.000000
# 2 -0.008372 0.039418 0.000132 0.000000 0.000000 0.000000
# 3 -0.000817 0.000132 0.009918 0.000000 0.000000 0.000000
# 4 0.000000 0.000000 0.000000 -0.130592 0.000000 0.000000
# 5 0.000000 0.000000 0.000000 0.000000 0.039745 0.000000
# 6 0.000000 0.000000 0.000000 0.000000 0.000000 0.098156
#
#
# Mechanical properties :
#
#
# Convention : Reuss Voigt Hill
#
# Bulk Modulus (GPa) = 12.34025 17.81195 15.07610
# Shear Modulus (GPa) = 32.98477 15.00638 23.99557
#
# Velocity S-wave (km/s) = 4.00384 2.70058 3.41496
# Velocity P-wave (km/s) = 5.23179 4.28729 4.78291
#
# Compressibility (1/GPa) = 0.08103564
#
# Stress axis : x y z
#
# Youngs Moduli (GPa) = 20.07474 25.36881 100.82885
#
# Poissons Ratio (x) = 0.21239 0.08240
# Poissons Ratio (y) = 0.16807 -0.01332
# Poissons Ratio (z) = 0.01641 -0.00335
#
# Static dielectric constant tensor:
#      x y z
#    x 1.702370 0.000000 0.000000 
#    y 0.000000 1.717100 0.000000 
#    z 0.000000 0.000000 1.761100 
# 
# From -- ./inp_files/20480.got.cif
#   From: 2010.05.17/outbox.cif.g08.bks.cpg/sg59_11_cif.got.tgz:20480.got - 2010.06.03 14:40:33.
