data_PCOD9453544
_publ_section_title
;
Structure prediction by ZEFSAII (Michael W. Deem and Ramdas Pophale) SiO2 
 PCOD9453544
Probable space group: P M M N
;
_chemical_formula_sum "Si O2"
_cell_formula_units_Z 64
_cell_length_a 30.000000
_cell_length_b 9.000000
_cell_length_c 12.000000
_cell_angle_alpha 90.000000
_cell_angle_beta 90.000000
_cell_angle_gamma 90.000000
_cell_volume 3240.000000
_symmetry_space_group_name_H-M "P M M N"
_symmetry_group_IT_number 59
_space_group.IT_coordinate_system_code '2'
_symmetry_cell_setting 'orthorhombic'
loop_
_space_group_symop_operation_xyz
x,y,z
1/2-x,1/2-y,z
1/2+x,-y,-z
-x,1/2+y,-z
-x,-y,-z
1/2+x,1/2+y,-z
1/2-x,y,z
x,1/2-y,z
loop_
_atom_site_type_symbol
_atom_site_label
_atom_site_fract_x
_atom_site_fract_y
_atom_site_fract_z
Si Si1 0.132313 0.427597 0.610665
Si Si2 0.197124 0.415967 0.219232
Si Si3 0.568218 0.927676 0.002482
Si Si4 0.333149 0.075714 0.970546
Si Si5 0.298802 0.574290 0.770860
Si Si6 0.697921 0.424285 0.561746
Si Si7 0.488377 0.927645 0.167651
Si Si8 0.471366 0.429497 0.597456
O O1 0.132417 0.250000 0.617343
O O2 0.159870 0.492849 0.714043
O O3 0.162488 0.484828 0.509191
O O4 0.080677 0.476177 0.602429
O O5 0.250000 0.416945 0.198322
O O6 0.185718 0.250000 0.262881
O O7 0.187605 0.539796 0.310085
O O8 0.174148 0.437055 0.101721
O O9 0.568392 0.750000 0.991002
O O10 0.615986 0.970512 0.048696
O O11 0.530097 0.970467 0.089570
O O12 0.554963 0.998159 0.884955
O O13 0.326610 0.250000 0.940460
O O14 0.301279 0.973489 0.898953
O O15 0.250000 0.529537 0.725168
O O16 0.302901 0.750000 0.756573
O O17 0.750000 0.468543 0.543580
O O18 0.694393 0.250000 0.536177
O O19 0.483622 0.750000 0.162648
O O20 0.502710 0.971308 0.290174
O O21 0.500000 0.500000 0.500000
O O22 0.471358 0.250000 0.588800
#
# Coordination Sequence:
#
# PCOD9453544 Si02
#       8
#     8   8   8   8   8   8   8   8
#     4  11  23  40  62  85 112 149 193 238 286 345
#     4   9  18  33  53  77 106 142 183 225 272 329
#     4   9  18  33  55  81 107 138 178 224 269 316
#     4  10  20  35  56  82 113 148 187 230 275 328
#     4  11  24  39  57  86 122 155 190 236 288 342
#     4  10  21  37  57  82 113 148 189 239 292 344
#     4   9  18  35  55  76 106 140 176 219 269 325
#     4  10  23  41  60  84 114 148 187 234 287 343
#
# _framework density 19.753086
#
# number of rings (size 3 to 8) (size 9 to 14) (size 15 to 20)
#    0.000    2.125    0.000    2.625    0.000    9.250 
#    0.000    7.500    0.000    0.000    0.000    0.000 
#    0.000    0.000    0.000    0.000    0.000    0.000 
#
# Total GULP energy -356985.773694 kJ/mol
# GULP energy per Si atom -5577.902714 kJ/mol
# Density = 1.970813 g / cm^3
# Si number density = 19.753086 Si / 1000 Ang^3
#
#
#
# Elastic Constant Matrix: (Units=GPa)
#
#
# Indices 1 2 3 4 5 6 
#
# 1 90.5612 38.2254 49.8259 0.0000 0.0000 0.0000
# 2 38.2254 24.2235 30.0932 0.0000 0.0000 0.0000
# 3 49.8259 30.0932 83.2294 0.0000 0.0000 0.0000
# 4 0.0000 0.0000 0.0000 18.5587 0.0000 0.0000
# 5 0.0000 0.0000 0.0000 0.0000 25.9783 0.0000
# 6 0.0000 0.0000 0.0000 0.0000 0.0000 23.0646
#
#
#
# Elastic Compliance Matrix: (Units=1/GPa)
#
#
# Indices 1 2 3 4 5 6 
#
# 1 0.033199 -0.050287 -0.001693 0.000000 0.000000 0.000000
# 2 -0.050287 0.151116 -0.024534 0.000000 0.000000 0.000000
# 3 -0.001693 -0.024534 0.021899 0.000000 0.000000 0.000000
# 4 0.000000 0.000000 0.000000 0.053883 0.000000 0.000000
# 5 0.000000 0.000000 0.000000 0.000000 0.038494 0.000000
# 6 0.000000 0.000000 0.000000 0.000000 0.000000 0.043356
#
#
# Mechanical properties :
#
#
# Convention : Reuss Voigt Hill
#
# Bulk Modulus (GPa) = 18.80171 48.25591 33.52881
# Shear Modulus (GPa) = 9.75220 18.84497 14.29859
#
# Velocity S-wave (km/s) = 2.22436 3.09208 2.69339
# Velocity P-wave (km/s) = 4.01697 6.10168 5.16559
#
# Compressibility (1/GPa) = 0.05318664
#
# Stress axis : x y z
#
# Youngs Moduli (GPa) = 30.12096 6.61744 45.66339
#
# Poissons Ratio (x) = 0.33277 0.07731
# Poissons Ratio (y) = 1.51468 1.12032
# Poissons Ratio (z) = 0.05100 0.16235
#
# Static dielectric constant tensor:
#      x y z
#    x 1.698990 0.000000 0.000000 
#    y 0.000000 1.661300 0.000000 
#    z 0.000000 0.000000 1.777890 
# 
# From -- ./inp_files/19299.got.cif
#   From: 2010.05.17/outbox.ucp.g08.bks.cvg/sg59_10_cif.got.tgz:19299.got - 2010.06.11 16:43:56.
