data_PCOD9453633
_publ_section_title
;
Structure prediction by ZEFSAII (Michael W. Deem and Ramdas Pophale) SiO2 
 PCOD9453633
Probable space group: P M M N
;
_chemical_formula_sum "Si O2"
_cell_formula_units_Z 64
_cell_length_a 9.000000
_cell_length_b 30.000000
_cell_length_c 12.000000
_cell_angle_alpha 90.000000
_cell_angle_beta 90.000000
_cell_angle_gamma 90.000000
_cell_volume 3240.000000
_symmetry_space_group_name_H-M "P M M N"
_symmetry_group_IT_number 59
_space_group.IT_coordinate_system_code '2'
_symmetry_cell_setting 'orthorhombic'
loop_
_space_group_symop_operation_xyz
x,y,z
1/2-x,1/2-y,z
1/2+x,-y,-z
-x,1/2+y,-z
-x,-y,-z
1/2+x,1/2+y,-z
1/2-x,y,z
x,1/2-y,z
loop_
_atom_site_type_symbol
_atom_site_label
_atom_site_fract_x
_atom_site_fract_y
_atom_site_fract_z
Si Si1 0.428238 0.299641 0.415603
Si Si2 0.927002 0.697864 0.049636
Si Si3 0.928663 0.453033 0.032564
Si Si4 0.079893 0.393201 0.456881
Si Si5 0.422171 0.447085 0.679422
Si Si6 0.572800 0.047857 0.281882
Si Si7 0.926230 0.118124 0.846997
Si Si8 0.082471 0.696194 0.818718
O O1 0.250000 0.296170 0.411316
O O2 0.484992 0.250000 0.446339
O O3 0.465667 0.342818 0.489769
O O4 0.490733 0.311932 0.293466
O O5 0.750000 0.694294 0.041722
O O6 0.963808 0.750000 0.069307
O O7 0.990377 0.664875 0.142465
O O8 0.000922 0.683435 0.932396
O O9 0.750000 0.458052 0.028660
O O10 0.975973 0.442283 0.157150
O O11 0.969155 0.413026 0.951571
O O12 0.000000 0.500000 0.000000
O O13 0.250000 0.390278 0.417060
O O14 0.077488 0.428465 0.555642
O O15 0.981127 0.413934 0.361926
O O16 0.250000 0.445863 0.721139
O O17 0.478077 0.497741 0.687259
O O18 0.522138 0.412558 0.746105
O O19 0.750000 0.046334 0.285850
O O20 0.750000 0.125304 0.847406
O O21 0.250000 0.677544 0.813612
O O22 0.093340 0.750000 0.823867
#
# Coordination Sequence:
#
# PCOD9453633 Si02
#       8
#     8   8   8   8   8   8   8   8
#     4   9  18  34  53  76 109 145 182 228 282 336
#     4  10  21  37  57  82 113 152 195 234 280 340
#     4  10  21  37  57  85 116 149 186 227 282 346
#     4  10  22  37  57  85 110 144 196 243 284 338
#     4  10  21  40  60  80 112 152 194 239 289 344
#     4  10  21  37  58  83 115 150 184 234 294 349
#     4  11  23  37  58  87 118 151 191 237 286 342
#     4   9  17  30  50  76 107 142 179 224 276 328
#
# _framework density 19.753086
#
# number of rings (size 3 to 8) (size 9 to 14) (size 15 to 20)
#    0.000    2.125    1.250    1.500    1.750    4.750 
#    0.000    0.625    0.000    2.250    0.000    0.000 
#    0.000    0.000    0.000    0.000    0.000    0.000 
#
# Total GULP energy -356855.660219 kJ/mol
# GULP energy per Si atom -5575.869691 kJ/mol
# Density = 1.970813 g / cm^3
# Si number density = 19.753086 Si / 1000 Ang^3
#
#
#
# Elastic Constant Matrix: (Units=GPa)
#
#
# Indices 1 2 3 4 5 6 
#
# 1 2.6804 -6.3942 6.0853 0.0000 0.0000 0.0000
# 2 -6.3942 -49.9267 -7.8120 0.0000 0.0000 0.0000
# 3 6.0853 -7.8120 24.4039 0.0000 0.0000 0.0000
# 4 0.0000 0.0000 0.0000 47.7849 0.0000 0.0000
# 5 0.0000 0.0000 0.0000 0.0000 6.8177 0.0000
# 6 0.0000 0.0000 0.0000 0.0000 0.0000 23.8590
#
#
#
# Elastic Compliance Matrix: (Units=1/GPa)
#
#
# Indices 1 2 3 4 5 6 
#
# 1 0.649344 -0.055068 -0.179547 0.000000 0.000000 0.000000
# 2 -0.055068 -0.014404 0.009121 0.000000 0.000000 0.000000
# 3 -0.179547 0.009121 0.088668 0.000000 0.000000 0.000000
# 4 0.000000 0.000000 0.000000 0.020927 0.000000 0.000000
# 5 0.000000 0.000000 0.000000 0.000000 0.146677 0.000000
# 6 0.000000 0.000000 0.000000 0.000000 0.000000 0.041913
#
#
# Mechanical properties :
#
#
# Convention : Reuss Voigt Hill
#
# Bulk Modulus (GPa) = 3.66812 -4.34267 -0.33728
# Shear Modulus (GPa) = 3.38986 14.71088 9.05037
#
# Velocity S-wave (km/s) = 1.31143 2.73195 2.14282
# Velocity P-wave (km/s) = 2.03817 2.78355 2.43950
#
# Compressibility (1/GPa) = 0.27261914
#
# Stress axis : x y z
#
# Youngs Moduli (GPa) = 1.54001 -69.42589 11.27799
#
# Poissons Ratio (x) = -3.82318 2.02493
# Poissons Ratio (y) = 0.08481 -0.10287
# Poissons Ratio (z) = 0.27651 0.63323
#
# Static dielectric constant tensor:
#      x y z
#    x 1.715690 0.000000 0.000000 
#    y 0.000000 1.709010 0.000000 
#    z 0.000000 0.000000 1.780630 
# 
# From -- ./inp_files/15024.got.cif
#   From: 2010.05.17/outbox.ucp.g08.bks.cvg/sg59_8_cif.got.tgz:15024.got - 2010.06.11 16:43:56.
