data_PCOD9453983
_publ_section_title
;
Structure prediction by ZEFSAII (Michael W. Deem and Ramdas Pophale) SiO2 
 PCOD9453983
Probable space group: P B C N
;
_chemical_formula_sum "Si O2"
_cell_formula_units_Z 48
_cell_length_a 20.754057
_cell_length_b 5.257962
_cell_length_c 22.602848
_cell_angle_alpha 90.000000
_cell_angle_beta 90.000000
_cell_angle_gamma 90.000000
_cell_volume 2466.514158
_symmetry_space_group_name_H-M "P B C N"
_symmetry_group_IT_number 60
_symmetry_cell_setting 'orthorhombic'
loop_
_space_group_symop_operation_xyz
x,y,z
1/2-x,1/2-y,1/2+z
1/2+x,1/2-y,-z
-x,y,1/2-z
-x,-y,-z
1/2+x,1/2+y,1/2-z
1/2-x,1/2+y,z
x,-y,1/2+z
loop_
_atom_site_type_symbol
_atom_site_label
_atom_site_fract_x
_atom_site_fract_y
_atom_site_fract_z
Si Si1 0.552218 0.733938 0.438168
Si Si2 0.208642 0.381860 0.411164
Si Si3 0.233040 0.707426 0.084747
Si Si4 0.915768 0.259207 0.012863
Si Si5 0.706789 0.148051 0.724773
Si Si6 0.647689 0.887782 0.344679
O O1 0.581999 0.487365 0.470528
O O2 0.475073 0.714612 0.441709
O O3 0.584569 0.774306 0.374447
O O4 0.569745 0.985450 0.475813
O O5 0.235932 0.667407 0.417157
O O6 0.255409 0.538437 0.549235
O O7 0.184254 0.363203 0.342956
O O8 0.151036 0.691425 0.954699
O O9 0.289461 0.725128 0.134462
O O10 0.167695 0.646843 0.119595
O O11 0.741230 0.420981 0.733041
O O12 0.652777 0.101694 0.774699
#
# Coordination Sequence:
#
# PCOD9453983 Si02
#       6
#     8   8   8   8   8   8
#     4  10  23  36  64  70 118 145 179 229 278 322
#     4  10  21  38  59  80 109 148 184 227 264 320
#     4   8  16  26  42  68 110 124 156 208 250 310
#     4  10  22  44  51  84 103 154 187 218 272 337
#     4  10  18  32  53  78 114 142 172 223 277 324
#     4  10  18  32  50  84 102 144 167 222 273 323
#
# _framework density 19.460664000000001
#
# number of rings (size 3 to 8) (size 9 to 14) (size 15 to 20)
#    1.000    1.333    1.667    1.000    2.333    0.000 
#    9.000    0.833    0.000    0.000    0.000   14.000 
#    0.000    0.000    0.000    0.000    0.000    0.000 
#
# Total GULP energy -267379.762367 kJ/mol
# GULP energy per Si atom -5570.411716 kJ/mol
# Density = 1.941637 g / cm^3
# Si number density = 19.460664 Si / 1000 Ang^3
#
#
#
# Elastic Constant Matrix: (Units=GPa)
#
#
# Indices 1 2 3 4 5 6 
#
# 1 54.1124 -1.9652 7.8510 0.0000 0.0000 0.0000
# 2 -1.9652 112.2757 -6.2985 0.0000 0.0000 0.0000
# 3 7.8510 -6.2985 43.3024 0.0000 0.0000 0.0000
# 4 0.0000 0.0000 0.0000 11.2070 0.0000 0.0000
# 5 0.0000 0.0000 0.0000 0.0000 23.8727 0.0000
# 6 0.0000 0.0000 0.0000 0.0000 0.0000 17.8933
#
#
#
# Elastic Compliance Matrix: (Units=1/GPa)
#
#
# Indices 1 2 3 4 5 6 
#
# 1 0.018982 0.000140 -0.003421 0.000000 0.000000 0.000000
# 2 0.000140 0.008981 0.001281 0.000000 0.000000 0.000000
# 3 -0.003421 0.001281 0.023900 0.000000 0.000000 0.000000
# 4 0.000000 0.000000 0.000000 0.089230 0.000000 0.000000
# 5 0.000000 0.000000 0.000000 0.000000 0.041889 0.000000
# 6 0.000000 0.000000 0.000000 0.000000 0.000000 0.055887
#
#
# Mechanical properties :
#
#
# Convention : Reuss Voigt Hill
#
# Bulk Modulus (GPa) = 20.89310 23.20725 22.05017
# Shear Modulus (GPa) = 19.31828 24.60147 21.95987
#
# Velocity S-wave (km/s) = 3.15411 3.55937 3.36285
# Velocity P-wave (km/s) = 4.90142 5.37059 5.14136
#
# Compressibility (1/GPa) = 0.04786269
#
# Stress axis : x y z
#
# Youngs Moduli (GPa) = 52.68286 111.34667 41.84099
#
# Poissons Ratio (x) = -0.01562 0.14314
# Poissons Ratio (y) = -0.00739 -0.05359
# Poissons Ratio (z) = 0.18023 -0.14262
#
# Static dielectric constant tensor:
#      x y z
#    x 1.681970 0.000000 0.000000 
#    y 0.000000 1.780390 0.000000 
#    z 0.000000 0.000000 1.704700 
# 
# From -- ./inp_files/23246.got.cif
#   From: 2010.05.17/outbox.cif.g08.bks.cpg/sg60_12_cif.got.tgz:23246.got - 2010.06.03 14:59:27.
