data_PCOD9453848
_publ_section_title
;
Structure prediction by ZEFSAII (Michael W. Deem and Ramdas Pophale) SiO2 
 PCOD9453848
Probable space group: P B C N
;
_chemical_formula_sum "Si O2"
_cell_formula_units_Z 48
_cell_length_a 12.499108
_cell_length_b 8.337200
_cell_length_c 24.497896
_cell_angle_alpha 90.000000
_cell_angle_beta 90.000000
_cell_angle_gamma 90.000000
_cell_volume 2552.866046
_symmetry_space_group_name_H-M "P B C N"
_symmetry_group_IT_number 60
_symmetry_cell_setting 'orthorhombic'
loop_
_space_group_symop_operation_xyz
x,y,z
1/2-x,1/2-y,1/2+z
1/2+x,1/2-y,-z
-x,y,1/2-z
-x,-y,-z
1/2+x,1/2+y,1/2-z
1/2-x,1/2+y,z
x,-y,1/2+z
loop_
_atom_site_type_symbol
_atom_site_label
_atom_site_fract_x
_atom_site_fract_y
_atom_site_fract_z
Si Si1 0.467614 0.061208 0.090381
Si Si2 0.297714 0.343072 0.687872
Si Si3 0.123962 0.952610 0.509033
Si Si4 0.658835 0.923995 0.511834
Si Si5 0.642159 0.371477 0.378442
Si Si6 0.092835 0.538062 0.709494
O O1 0.451008 0.245189 0.109319
O O2 0.383787 0.022712 0.041347
O O3 0.445042 0.965441 0.146058
O O4 0.581353 0.033359 0.062205
O O5 0.244336 0.238118 0.638230
O O6 0.366377 0.494978 0.668368
O O7 0.192393 0.417696 0.714995
O O8 0.364706 0.216085 0.721547
O O9 0.218116 0.037411 0.474258
O O10 0.153666 0.022466 0.568078
O O11 0.139544 0.762634 0.502536
O O12 0.000000 0.000000 0.500000
O O13 0.000000 0.490697 0.750000
#
# Coordination Sequence:
#
# PCOD9453848 Si02
#       6
#     8   8   8   8   8   8
#     4  10  21  38  60  86 120 157 195 251 299 342
#     4   9  19  35  63  85 112 146 204 246 281 351
#     4  12  22  34  57  84 120 164 200 242 292 354
#     4  11  23  37  55  86 127 158 202 243 292 357
#     4  10  17  34  55  85 109 152 201 241 279 342
#     4  10  20  39  64  88 114 151 197 244 302 346
#
# _framework density 18.802396000000002
#
# number of rings (size 3 to 8) (size 9 to 14) (size 15 to 20)
#    0.000    1.667    1.667    6.000    2.333    0.000 
#    0.000    9.167    0.000    0.000    0.000    0.000 
#    0.000    0.000    0.000    0.000    0.000    0.000 
#
# Total GULP energy -267456.628240 kJ/mol
# GULP energy per Si atom -5572.013088 kJ/mol
# Density = 1.875960 g / cm^3
# Si number density = 18.802396 Si / 1000 Ang^3
#
#
#
# Elastic Constant Matrix: (Units=GPa)
#
#
# Indices 1 2 3 4 5 6 
#
# 1 119.3034 30.5284 19.7452 0.0000 0.0000 0.0000
# 2 30.5284 104.8396 8.7055 0.0000 0.0000 0.0000
# 3 19.7452 8.7055 35.8198 0.0000 0.0000 0.0000
# 4 0.0000 0.0000 0.0000 9.5424 0.0000 0.0000
# 5 0.0000 0.0000 0.0000 0.0000 7.3572 0.0000
# 6 0.0000 0.0000 0.0000 0.0000 0.0000 4.0558
#
#
#
# Elastic Compliance Matrix: (Units=1/GPa)
#
#
# Indices 1 2 3 4 5 6 
#
# 1 0.009806 -0.002456 -0.004809 0.000000 0.000000 0.000000
# 2 -0.002456 0.010350 -0.001161 0.000000 0.000000 0.000000
# 3 -0.004809 -0.001161 0.030850 0.000000 0.000000 0.000000
# 4 0.000000 0.000000 0.000000 0.104796 0.000000 0.000000
# 5 0.000000 0.000000 0.000000 0.000000 0.135922 0.000000
# 6 0.000000 0.000000 0.000000 0.000000 0.000000 0.246559
#
#
# Mechanical properties :
#
#
# Convention : Reuss Voigt Hill
#
# Bulk Modulus (GPa) = 29.27900 41.99120 35.63510
# Shear Modulus (GPa) = 8.82580 17.58999 13.20790
#
# Velocity S-wave (km/s) = 2.16891 3.06194 2.65327
# Velocity P-wave (km/s) = 4.67739 5.90610 5.32729
#
# Compressibility (1/GPa) = 0.03415417
#
# Stress axis : x y z
#
# Youngs Moduli (GPa) = 101.97456 96.61778 32.41440
#
# Poissons Ratio (x) = 0.23732 0.15587
# Poissons Ratio (y) = 0.25047 0.03765
# Poissons Ratio (z) = 0.49036 0.11222
#
# Static dielectric constant tensor:
#      x y z
#    x 1.694730 0.000000 0.000000 
#    y 0.000000 1.685850 0.000000 
#    z 0.000000 0.000000 1.658440 
# 
# From -- ./inp_files/24210.got.cif
#   From: 2010.05.17/outbox.cif.g08.bks.cpg/sg60_13_cif.got.tgz:24210.got - 2010.06.03 14:59:27.
