data_PCOD9453509
_publ_section_title
;
Structure prediction by ZEFSAII (Michael W. Deem and Ramdas Pophale) SiO2 
 PCOD9453509
Probable space group: P M M N
;
_chemical_formula_sum "Si O2"
_cell_formula_units_Z 56
_cell_length_a 15.000000
_cell_length_b 9.000000
_cell_length_c 21.000000
_cell_angle_alpha 90.000000
_cell_angle_beta 90.000000
_cell_angle_gamma 90.000000
_cell_volume 2835.000000
_symmetry_space_group_name_H-M "P M M N"
_symmetry_group_IT_number 59
_space_group.IT_coordinate_system_code '2'
_symmetry_cell_setting 'orthorhombic'
loop_
_space_group_symop_operation_xyz
x,y,z
1/2-x,1/2-y,z
1/2+x,-y,-z
-x,1/2+y,-z
-x,-y,-z
1/2+x,1/2+y,-z
1/2-x,y,z
x,1/2-y,z
loop_
_atom_site_type_symbol
_atom_site_label
_atom_site_fract_x
_atom_site_fract_y
_atom_site_fract_z
Si Si1 0.494029 0.428160 0.068181
Si Si2 0.847343 0.074560 0.275906
Si Si3 0.649375 0.572532 0.831388
Si Si4 0.034318 0.923369 0.277552
Si Si5 0.353746 0.928912 0.536441
Si Si6 0.345528 0.424303 0.857976
Si Si7 0.968256 0.073895 0.585404
O O1 0.508778 0.250000 0.068369
O O2 0.399494 0.457183 0.101959
O O3 0.570234 0.514922 0.105916
O O4 0.500000 0.500000 0.000000
O O5 0.750000 0.038191 0.305816
O O6 0.862797 0.250000 0.285618
O O7 0.838318 0.032670 0.202029
O O8 0.933918 0.978503 0.289873
O O9 0.750000 0.513862 0.827821
O O10 0.652315 0.750000 0.823800
O O11 0.585142 0.509176 0.777189
O O12 0.033821 0.750000 0.262036
O O13 0.076689 0.949015 0.346369
O O14 0.250000 0.978880 0.544025
O O15 0.352396 0.750000 0.544057
O O16 0.395311 0.967342 0.467409
O O17 0.436254 0.991652 0.578239
O O18 0.250000 0.432466 0.893150
O O19 0.356519 0.250000 0.839368
O O20 0.987363 0.250000 0.578474
#
# Coordination Sequence:
#
# PCOD9453509 Si02
#       7
#     8   8   8   8   8   8   8
#     4  11  23  39  61  87 117 154 193 240 293 343
#     4  10  20  34  54  80 111 148 187 229 282 344
#     4  10  23  43  63  84 115 155 196 239 289 343
#     4  11  22  36  58  86 118 154 193 238 291 347
#     4   9  18  35  58  81 110 150 194 239 287 338
#     4  10  20  35  57  84 113 144 181 229 285 342
#     4   9  20  36  54  82 116 150 189 237 288 341
#
# _framework density 19.753086
#
# number of rings (size 3 to 8) (size 9 to 14) (size 15 to 20)
#    0.000    2.000    1.429    1.714    0.000    5.714 
#    0.000    5.714    0.000    0.000    0.000    0.000 
#    0.000    0.000    0.000    0.000    0.000    0.000 
#
# Total GULP energy -311790.643258 kJ/mol
# GULP energy per Si atom -5567.690058 kJ/mol
# Density = 1.970813 g / cm^3
# Si number density = 19.753086 Si / 1000 Ang^3
#
#
#
# Elastic Constant Matrix: (Units=GPa)
#
#
# Indices 1 2 3 4 5 6 
#
# 1 92.6724 15.7683 49.8872 0.0000 0.0000 0.0000
# 2 15.7683 15.7925 12.9838 0.0000 0.0000 0.0000
# 3 49.8872 12.9838 93.7458 0.0000 0.0000 0.0000
# 4 0.0000 0.0000 0.0000 12.4997 0.0000 0.0000
# 5 0.0000 0.0000 0.0000 0.0000 9.2509 0.0000
# 6 0.0000 0.0000 0.0000 0.0000 0.0000 20.5526
#
#
#
# Elastic Compliance Matrix: (Units=1/GPa)
#
#
# Indices 1 2 3 4 5 6 
#
# 1 0.016524 -0.010461 -0.007345 0.000000 0.000000 0.000000
# 2 -0.010461 0.078080 -0.005247 0.000000 0.000000 0.000000
# 3 -0.007345 -0.005247 0.015302 0.000000 0.000000 0.000000
# 4 0.000000 0.000000 0.000000 0.080002 0.000000 0.000000
# 5 0.000000 0.000000 0.000000 0.000000 0.108098 0.000000
# 6 0.000000 0.000000 0.000000 0.000000 0.000000 0.048656
#
#
# Mechanical properties :
#
#
# Convention : Reuss Voigt Hill
#
# Bulk Modulus (GPa) = 15.67365 39.94323 27.80844
# Shear Modulus (GPa) = 12.07627 16.69873 14.38750
#
# Velocity S-wave (km/s) = 2.47525 2.91068 2.70176
# Velocity P-wave (km/s) = 4.01512 5.61794 4.88275
#
# Compressibility (1/GPa) = 0.06380133
#
# Stress axis : x y z
#
# Youngs Moduli (GPa) = 60.51674 12.80738 65.34904
#
# Poissons Ratio (x) = 0.13397 0.47997
# Poissons Ratio (y) = 0.63304 0.34292
# Poissons Ratio (z) = 0.44448 0.06721
#
# Static dielectric constant tensor:
#      x y z
#    x 1.886820 0.000000 0.000000 
#    y 0.000000 1.654360 0.000000 
#    z 0.000000 0.000000 1.732130 
# 
# From -- ./inp_files/28981.got.cif
#   From: 2010.05.17/outbox.ucp.g08.bks.cvg/sg59_15_cif.got.tgz:28981.got - 2010.06.11 16:43:56.
