data_PCOD9453022
_publ_section_title
;
Structure prediction by ZEFSAII (Michael W. Deem and Ramdas Pophale) SiO2 
 PCOD9453022
Probable space group: P M M N
;
_chemical_formula_sum "Si O2"
_cell_formula_units_Z 48
_cell_length_a 31.524237
_cell_length_b 8.569104
_cell_length_c 9.949332
_cell_angle_alpha 90.000000
_cell_angle_beta 90.000000
_cell_angle_gamma 90.000000
_cell_volume 2687.657481
_symmetry_space_group_name_H-M "P M M N"
_symmetry_group_IT_number 59
_space_group.IT_coordinate_system_code '2'
_symmetry_cell_setting 'orthorhombic'
loop_
_space_group_symop_operation_xyz
x,y,z
1/2-x,1/2-y,z
1/2+x,-y,-z
-x,1/2+y,-z
-x,-y,-z
1/2+x,1/2+y,-z
1/2-x,y,z
x,1/2-y,z
loop_
_atom_site_type_symbol
_atom_site_label
_atom_site_fract_x
_atom_site_fract_y
_atom_site_fract_z
Si Si1 0.701615 0.560953 0.684794
Si Si2 0.484449 0.937970 0.855533
Si Si3 0.932481 0.937945 0.702926
Si Si4 0.870218 0.435183 0.488288
Si Si5 0.640231 0.939127 0.914330
Si Si6 0.609447 0.937523 0.199117
O O1 0.750000 0.508430 0.669698
O O2 0.701104 0.750000 0.681948
O O3 0.669946 0.502513 0.569586
O O4 0.680628 0.510630 0.826706
O O5 0.482384 0.750000 0.860561
O O6 0.520156 0.982074 0.745475
O O7 0.438859 0.006798 0.820182
O O8 0.500000 0.000000 0.000000
O O9 0.930458 0.750000 0.689537
O O10 0.901200 0.982213 0.826503
O O11 0.912082 0.011353 0.570571
O O12 0.868167 0.250000 0.488352
O O13 0.872485 0.498059 0.337680
O O14 0.640962 0.750000 0.918126
O O15 0.635037 0.992898 0.066716
O O16 0.610187 0.750000 0.202478
#
# Coordination Sequence:
#
# PCOD9453022 Si02
#       6
#     8   8   8   8   8   8
#     4   9  18  37  64  87 107 137 177 221 272 336
#     4  11  21  34  54  81 112 147 191 237 280 325
#     4   9  18  36  56  76 105 146 191 231 269 322
#     4  11  23  37  54  81 114 148 184 229 283 333
#     4   8  15  31  55  81 106 135 177 223 267 317
#     4  11  21  36  55  79 113 152 188 229 278 330
#
# _framework density 17.859418000000002
#
# number of rings (size 3 to 8) (size 9 to 14) (size 15 to 20)
#    0.000    2.167    1.667    3.500    0.000    2.333 
#    0.000    1.667    0.000    3.000    0.000    0.000 
#    0.000    0.000    0.000    0.000    0.000    0.000 
#
# Total GULP energy -267854.484635 kJ/mol
# GULP energy per Si atom -5580.301763 kJ/mol
# Density = 1.781877 g / cm^3
# Si number density = 17.859418 Si / 1000 Ang^3
#
#
#
# Elastic Constant Matrix: (Units=GPa)
#
#
# Indices 1 2 3 4 5 6 
#
# 1 114.4256 25.4569 64.8910 0.0000 0.0000 0.0000
# 2 25.4569 40.9923 27.8161 0.0000 0.0000 0.0000
# 3 64.8910 27.8161 157.2568 0.0000 0.0000 0.0000
# 4 0.0000 0.0000 0.0000 15.7829 0.0000 0.0000
# 5 0.0000 0.0000 0.0000 0.0000 17.0628 0.0000
# 6 0.0000 0.0000 0.0000 0.0000 0.0000 22.2028
#
#
#
# Elastic Compliance Matrix: (Units=1/GPa)
#
#
# Indices 1 2 3 4 5 6 
#
# 1 0.012161 -0.004713 -0.004184 0.000000 0.000000 0.000000
# 2 -0.004713 0.029549 -0.003282 0.000000 0.000000 0.000000
# 3 -0.004184 -0.003282 0.008666 0.000000 0.000000 0.000000
# 4 0.000000 0.000000 0.000000 0.063360 0.000000 0.000000
# 5 0.000000 0.000000 0.000000 0.000000 0.058607 0.000000
# 6 0.000000 0.000000 0.000000 0.000000 0.000000 0.045039
#
#
# Mechanical properties :
#
#
# Convention : Reuss Voigt Hill
#
# Bulk Modulus (GPa) = 38.43589 61.00030 49.71810
# Shear Modulus (GPa) = 19.96707 23.97708 21.97207
#
# Velocity S-wave (km/s) = 3.34730 3.66805 3.51134
# Velocity P-wave (km/s) = 6.04213 7.22284 6.65871
#
# Compressibility (1/GPa) = 0.02601735
#
# Stress axis : x y z
#
# Youngs Moduli (GPa) = 82.23166 33.84265 115.39000
#
# Poissons Ratio (x) = 0.15949 0.48285
# Poissons Ratio (y) = 0.38752 0.37871
# Poissons Ratio (z) = 0.34410 0.11107
#
# Static dielectric constant tensor:
#      x y z
#    x 1.597590 0.000000 0.000000 
#    y 0.000000 1.605660 0.000000 
#    z 0.000000 0.000000 1.605780 
# 
# From -- ./inp_files/6231.got.cif
#   From: 2010.05.17/outbox.cif.g08.bks.cpg/sg59_4_cif.got.tgz:6231.got - 2010.06.03 14:40:33.
