data_PCOD9453289
_publ_section_title
;
Structure prediction by ZEFSAII (Michael W. Deem and Ramdas Pophale) SiO2 
 PCOD9453289
Probable space group: P M M N
;
_chemical_formula_sum "Si O2"
_cell_formula_units_Z 56
_cell_length_a 14.979520
_cell_length_b 9.263716
_cell_length_c 19.210888
_cell_angle_alpha 90.000000
_cell_angle_beta 90.000000
_cell_angle_gamma 90.000000
_cell_volume 2665.818451
_symmetry_space_group_name_H-M "P M M N"
_symmetry_group_IT_number 59
_space_group.IT_coordinate_system_code '2'
_symmetry_cell_setting 'orthorhombic'
loop_
_space_group_symop_operation_xyz
x,y,z
1/2-x,1/2-y,z
1/2+x,-y,-z
-x,1/2+y,-z
-x,-y,-z
1/2+x,1/2+y,-z
1/2-x,y,z
x,1/2-y,z
loop_
_atom_site_type_symbol
_atom_site_label
_atom_site_fract_x
_atom_site_fract_y
_atom_site_fract_z
Si Si1 0.902313 0.925507 0.997386
Si Si2 0.356677 0.085025 0.701856
Si Si3 0.644092 0.086522 0.706519
Si Si4 0.892359 0.083525 0.861229
Si Si5 0.359311 0.084810 0.427731
Si Si6 0.392882 0.084907 0.853176
Si Si7 0.359220 0.915524 0.565974
O O1 0.140189 0.250000 0.847018
O O2 0.859005 0.968486 0.071749
O O3 0.861390 0.988095 0.926415
O O4 0.000000 0.000000 0.000000
O O5 0.250000 0.093842 0.694814
O O6 0.391827 0.250000 0.700008
O O7 0.373619 0.017321 0.778168
O O8 0.389657 0.994684 0.636209
O O9 0.750000 0.097737 0.695515
O O10 0.607024 0.250000 0.705293
O O11 0.632142 0.028233 0.784566
O O12 0.609498 0.991020 0.643274
O O13 0.861060 0.250000 0.868010
O O14 0.000121 0.087699 0.860661
O O15 0.250000 0.084586 0.427322
O O16 0.387938 0.250000 0.431138
O O17 0.387133 0.998351 0.496319
O O18 0.408494 0.250000 0.004499
O O19 0.250000 0.916706 0.566351
O O20 0.387555 0.750000 0.564361
#
# Coordination Sequence:
#
# PCOD9453289 Si02
#       7
#     8   8   8   8   8   8   8
#     4   9  16  28  46  66  87 113 148 185 218 256
#     4   9  16  27  44  64  86 112 142 176 214 256
#     4   9  17  29  45  65  89 116 145 179 221 264
#     4   9  17  30  47  65  87 116 148 181 218 262
#     4   9  16  26  42  64  88 114 145 179 214 254
#     4   8  15  28  45  64  85 111 143 177 214 255
#     4   9  16  26  41  62  88 115 143 176 213 253
#
# _framework density 21.006681
#
# number of rings (size 3 to 8) (size 9 to 14) (size 15 to 20)
#    0.000    3.143    0.000    2.143    0.000    4.000 
#    0.000    4.286    0.000    1.714    0.000    0.000 
#    0.000    0.000    0.000    0.000    0.000    0.000 
#
# Total GULP energy -312099.094889 kJ/mol
# GULP energy per Si atom -5573.198123 kJ/mol
# Density = 2.095887 g / cm^3
# Si number density = 21.006681 Si / 1000 Ang^3
#
#
#
# Elastic Constant Matrix: (Units=GPa)
#
#
# Indices 1 2 3 4 5 6 
#
# 1 53.8113 4.3714 2.5219 0.0000 0.0000 0.0000
# 2 4.3714 104.7583 113.8120 0.0000 0.0000 0.0000
# 3 2.5219 113.8120 272.4428 0.0000 0.0000 0.0000
# 4 0.0000 0.0000 0.0000 46.2326 0.0000 0.0000
# 5 0.0000 0.0000 0.0000 0.0000 23.0106 0.0000
# 6 0.0000 0.0000 0.0000 0.0000 0.0000 -14.0865
#
#
#
# Elastic Compliance Matrix: (Units=1/GPa)
#
#
# Indices 1 2 3 4 5 6 
#
# 1 0.018658 -0.001082 0.000279 0.000000 0.000000 0.000000
# 2 -0.001082 0.017541 -0.007318 0.000000 0.000000 0.000000
# 3 0.000279 -0.007318 0.006725 0.000000 0.000000 0.000000
# 4 0.000000 0.000000 0.000000 0.021630 0.000000 0.000000
# 5 0.000000 0.000000 0.000000 0.000000 0.043458 0.000000
# 6 0.000000 0.000000 0.000000 0.000000 0.000000 -0.070990
#
#
# Mechanical properties :
#
#
# Convention : Reuss Voigt Hill
#
# Bulk Modulus (GPa) = 37.47655 74.71367 56.09511
# Shear Modulus (GPa) = 80.44107 31.71849 56.07978
#
# Velocity S-wave (km/s) = 6.19485 3.88999 5.17244
# Velocity P-wave (km/s) = 8.30947 7.47127 7.90149
#
# Compressibility (1/GPa) = 0.02668335
#
# Stress axis : x y z
#
# Youngs Moduli (GPa) = 53.59551 57.00916 148.70228
#
# Poissons Ratio (x) = 0.06168 -0.04153
# Poissons Ratio (y) = 0.05799 1.08816
# Poissons Ratio (z) = -0.01497 0.41718
#
# Static dielectric constant tensor:
#      x y z
#    x 1.819840 0.000000 0.000000 
#    y 0.000000 1.747190 0.000000 
#    z 0.000000 0.000000 1.790340 
# 
# From -- ./inp_files/28019.got.cif
#   From: 2010.05.17/outbox.cif.g08.bks.cpg/sg59_15_cif.got.tgz:28019.got - 2010.06.03 14:40:33.
