data_PCOD9453986
_publ_section_title
;
Structure prediction by ZEFSAII (Michael W. Deem and Ramdas Pophale) SiO2 
 PCOD9453986
Probable space group: P B C N
;
_chemical_formula_sum "Si O2"
_cell_formula_units_Z 40
_cell_length_a 16.611589
_cell_length_b 7.324466
_cell_length_c 10.842778
_cell_angle_alpha 90.000000
_cell_angle_beta 90.000000
_cell_angle_gamma 90.000000
_cell_volume 1319.251846
_symmetry_space_group_name_H-M "P B C N"
_symmetry_group_IT_number 60
_symmetry_cell_setting 'orthorhombic'
loop_
_space_group_symop_operation_xyz
x,y,z
1/2-x,1/2-y,1/2+z
1/2+x,1/2-y,-z
-x,y,1/2-z
-x,-y,-z
1/2+x,1/2+y,1/2-z
1/2-x,1/2+y,z
x,-y,1/2+z
loop_
_atom_site_type_symbol
_atom_site_label
_atom_site_fract_x
_atom_site_fract_y
_atom_site_fract_z
Si Si1 0.914990 0.377591 0.220234
Si Si2 0.195883 0.968605 0.610060
Si Si3 0.555248 0.245790 0.367092
Si Si4 0.600820 0.194698 0.027069
Si Si5 0.751073 0.376505 0.143889
O O1 0.916971 0.539075 0.327915
O O2 0.919540 0.505548 0.095335
O O3 0.835070 0.274712 0.170668
O O4 0.000000 0.281141 0.250000
O O5 0.132025 0.131344 0.606089
O O6 0.253747 0.975562 0.489896
O O7 0.165079 0.779558 0.373117
O O8 0.245107 0.001271 0.733652
O O9 0.500000 0.304503 0.250000
O O10 0.489081 0.274991 0.473393
O O11 0.645254 0.280529 0.906884
#
# Coordination Sequence:
#
# PCOD9453986 Si02
#       5
#     8   8   8   8   8
#     4   9  18  35  54  76 101 143 181 211 262 326
#     4  10  18  32  51  81 108 136 171 220 266 310
#     4   9  14  31  53  75 106 134 169 209 260 313
#     4   8  18  30  51  75 108 126 176 208 262 306
#     4  10  20  32  52  81 104 141 172 224 263 311
#
# _framework density 30.320212999999999
#
# number of rings (size 3 to 8) (size 9 to 14) (size 15 to 20)
#    1.200    2.000    4.000    0.600    0.000    1.600 
#    0.000    1.000    0.000    0.000    5.200    0.000 
#    0.000    0.000    0.000    0.000    0.000    0.000 
#
# Total GULP energy -223201.311456 kJ/mol
# GULP energy per Si atom -5580.032786 kJ/mol
# Density = 3.025120 g / cm^3
# Si number density = 30.320213 Si / 1000 Ang^3
#
#
#
# Elastic Constant Matrix: (Units=GPa)
#
#
# Indices 1 2 3 4 5 6 
#
# 1 194.1705 31.6078 20.9454 0.0000 0.0000 0.0000
# 2 31.6078 85.7930 0.2340 0.0000 0.0000 0.0000
# 3 20.9454 0.2340 118.3777 0.0000 0.0000 0.0000
# 4 0.0000 0.0000 0.0000 25.7134 0.0000 0.0000
# 5 0.0000 0.0000 0.0000 0.0000 60.6312 0.0000
# 6 0.0000 0.0000 0.0000 0.0000 0.0000 42.1670
#
#
#
# Elastic Compliance Matrix: (Units=1/GPa)
#
#
# Indices 1 2 3 4 5 6 
#
# 1 0.005591 -0.002057 -0.000985 0.000000 0.000000 0.000000
# 2 -0.002057 0.012413 0.000339 0.000000 0.000000 0.000000
# 3 -0.000985 0.000339 0.008621 0.000000 0.000000 0.000000
# 4 0.000000 0.000000 0.000000 0.038890 0.000000 0.000000
# 5 0.000000 0.000000 0.000000 0.000000 0.016493 0.000000
# 6 0.000000 0.000000 0.000000 0.000000 0.000000 0.023715
#
#
# Mechanical properties :
#
#
# Convention : Reuss Voigt Hill
#
# Bulk Modulus (GPa) = 47.12668 55.99061 51.55865
# Shear Modulus (GPa) = 42.30004 48.73927 45.51965
#
# Velocity S-wave (km/s) = 3.73917 4.01369 3.87886
# Velocity P-wave (km/s) = 5.84967 6.32346 6.09117
#
# Compressibility (1/GPa) = 0.02121940
#
# Stress axis : x y z
#
# Youngs Moduli (GPa) = 178.84993 80.56088 115.99331
#
# Poissons Ratio (x) = 0.16573 0.11428
# Poissons Ratio (y) = 0.36794 -0.03938
# Poissons Ratio (z) = 0.17621 -0.02735
#
# Static dielectric constant tensor:
#      x y z
#    x 2.497890 0.000000 0.000000 
#    y 0.000000 2.465840 0.000000 
#    z 0.000000 0.000000 2.666270 
# 
# From -- ./inp_files/11771.got.cif
#   From: 2010.05.17/outbox.cif.g08.bks.cpg/sg60_6_cif.got.tgz:11771.got - 2010.06.03 14:59:27.
