data_PCOD9453754
_publ_section_title
;
Structure prediction by ZEFSAII (Michael W. Deem and Ramdas Pophale) SiO2 
 PCOD9453754
Probable space group: P B C N
;
_chemical_formula_sum "Si O2"
_cell_formula_units_Z 40
_cell_length_a 27.202150
_cell_length_b 8.945289
_cell_length_c 8.572713
_cell_angle_alpha 90.000000
_cell_angle_beta 90.000000
_cell_angle_gamma 90.000000
_cell_volume 2086.007626
_symmetry_space_group_name_H-M "P B C N"
_symmetry_group_IT_number 60
_symmetry_cell_setting 'orthorhombic'
loop_
_space_group_symop_operation_xyz
x,y,z
1/2-x,1/2-y,1/2+z
1/2+x,1/2-y,-z
-x,y,1/2-z
-x,-y,-z
1/2+x,1/2+y,1/2-z
1/2-x,1/2+y,z
x,-y,1/2+z
loop_
_atom_site_type_symbol
_atom_site_label
_atom_site_fract_x
_atom_site_fract_y
_atom_site_fract_z
Si Si1 0.865920 0.552525 0.708475
Si Si2 0.964645 0.413103 0.616387
Si Si3 0.291062 0.725530 0.423698
Si Si4 0.868586 0.712854 0.028454
Si Si5 0.290818 0.577034 0.081601
O O1 0.924194 0.532512 0.679897
O O2 0.840303 0.676342 0.600733
O O3 0.847298 0.384235 0.672373
O O4 0.857005 0.604741 0.882657
O O5 0.927441 0.289124 0.548111
O O6 0.000000 0.352671 0.750000
O O7 0.000000 0.500000 0.500000
O O8 0.249402 0.843302 0.471824
O O9 0.289772 0.599619 0.557330
O O10 0.284394 0.638085 0.257955
O O11 0.842768 0.865554 0.988303
#
# Coordination Sequence:
#
# PCOD9453754 Si02
#       5
#     8   8   8   8   8
#     4   9  19  33  54  82 111 141 183 225 281 328
#     4  10  16  32  56  86 108 141 185 236 274 329
#     4  11  23  39  57  81 115 151 189 234 283 341
#     4   9  19  33  54  82 111 140 184 226 278 331
#     4  11  23  39  57  81 115 150 190 233 284 339
#
# _framework density 19.175384000000001
#
# number of rings (size 3 to 8) (size 9 to 14) (size 15 to 20)
#    1.200    0.800    2.000    2.400    0.000    6.400 
#    0.000    0.000    0.000    2.400    0.000    0.000 
#    0.000    0.000    0.000    0.000    0.000    0.000 
#
# Total GULP energy -222675.641827 kJ/mol
# GULP energy per Si atom -5566.891046 kJ/mol
# Density = 1.913174 g / cm^3
# Si number density = 19.175384 Si / 1000 Ang^3
#
#
#
# Elastic Constant Matrix: (Units=GPa)
#
#
# Indices 1 2 3 4 5 6 
#
# 1 68.5063 18.4289 -4.2972 0.0000 0.0000 0.0000
# 2 18.4289 55.2227 -3.7031 0.0000 0.0000 0.0000
# 3 -4.2972 -3.7031 23.6142 0.0000 0.0000 0.0000
# 4 0.0000 0.0000 0.0000 27.7405 0.0000 0.0000
# 5 0.0000 0.0000 0.0000 0.0000 22.6163 0.0000
# 6 0.0000 0.0000 0.0000 0.0000 0.0000 25.6291
#
#
#
# Elastic Compliance Matrix: (Units=1/GPa)
#
#
# Indices 1 2 3 4 5 6 
#
# 1 0.016141 -0.005245 0.002115 0.000000 0.000000 0.000000
# 2 -0.005245 0.020005 0.002183 0.000000 0.000000 0.000000
# 3 0.002115 0.002183 0.043075 0.000000 0.000000 0.000000
# 4 0.000000 0.000000 0.000000 0.036048 0.000000 0.000000
# 5 0.000000 0.000000 0.000000 0.000000 0.044216 0.000000
# 6 0.000000 0.000000 0.000000 0.000000 0.000000 0.039018
#
#
# Mechanical properties :
#
#
# Convention : Reuss Voigt Hill
#
# Bulk Modulus (GPa) = 12.93227 18.68896 15.81062
# Shear Modulus (GPa) = 22.10701 24.32480 23.21590
#
# Velocity S-wave (km/s) = 3.39910 3.56553 3.48331
# Velocity P-wave (km/s) = 4.70787 5.16896 4.94379
#
# Compressibility (1/GPa) = 0.07732593
#
# Stress axis : x y z
#
# Youngs Moduli (GPa) = 61.95513 49.98716 23.21558
#
# Poissons Ratio (x) = 0.26217 -0.04909
# Poissons Ratio (y) = 0.32494 -0.05067
# Poissons Ratio (z) = -0.13102 -0.10911
#
# Static dielectric constant tensor:
#      x y z
#    x 1.693920 0.000000 0.000000 
#    y 0.000000 1.643020 0.000000 
#    z 0.000000 0.000000 1.743830 
# 
# From -- ./inp_files/8083.got.cif
#   From: 2010.05.17/outbox.cif.g08.bks.cpg/sg60_5_cif.got.tgz:8083.got - 2010.06.03 14:59:27.
