data_PCOD9453464
_publ_section_title
;
Structure prediction by ZEFSAII (Michael W. Deem and Ramdas Pophale) SiO2 
 PCOD9453464
Probable space group: P M M N
;
_chemical_formula_sum "Si O2"
_cell_formula_units_Z 48
_cell_length_a 27.000000
_cell_length_b 9.000000
_cell_length_c 12.000000
_cell_angle_alpha 90.000000
_cell_angle_beta 90.000000
_cell_angle_gamma 90.000000
_cell_volume 2916.000000
_symmetry_space_group_name_H-M "P M M N"
_symmetry_group_IT_number 59
_space_group.IT_coordinate_system_code '2'
_symmetry_cell_setting 'orthorhombic'
loop_
_space_group_symop_operation_xyz
x,y,z
1/2-x,1/2-y,z
1/2+x,-y,-z
-x,1/2+y,-z
-x,-y,-z
1/2+x,1/2+y,-z
1/2-x,y,z
x,1/2-y,z
loop_
_atom_site_type_symbol
_atom_site_label
_atom_site_fract_x
_atom_site_fract_y
_atom_site_fract_z
Si Si1 0.191486 0.927991 0.870026
Si Si2 0.999550 0.069603 0.624476
Si Si3 0.900995 0.421422 0.770689
Si Si4 0.948117 0.078647 0.015477
Si Si5 0.901938 0.572228 0.226667
Si Si6 0.191635 0.071581 0.118253
O O1 0.250000 0.952032 0.842615
O O2 0.182732 0.750000 0.877865
O O3 0.153053 0.996643 0.778872
O O4 0.184036 0.998156 0.994724
O O5 0.998962 0.250000 0.618403
O O6 0.947960 0.027819 0.691636
O O7 0.051652 0.030366 0.689902
O O8 0.000000 0.000000 0.500000
O O9 0.889720 0.250000 0.738411
O O10 0.849103 0.510108 0.792284
O O11 0.922996 0.420112 0.895255
O O12 0.952141 0.250000 0.053829
O O13 0.920708 0.980202 0.106173
O O14 0.000000 0.000000 0.000000
O O15 0.896373 0.750000 0.234818
O O16 0.250000 0.042191 0.147778
O O17 0.185515 0.250000 0.108402
#
# Coordination Sequence:
#
# PCOD9453464 Si02
#       6
#     8   8   8   8   8   8
#     4  10  20  33  50  77 113 148 181 216 259 316
#     4  10  23  41  57  78 105 137 178 226 272 318
#     4  10  20  35  53  76 110 143 177 218 264 320
#     4  11  20  31  49  77 111 143 175 212 264 324
#     4  11  21  35  54  78 111 142 176 221 267 319
#     4  10  20  32  49  78 113 146 181 217 258 314
#
# _framework density 16.460905
#
# number of rings (size 3 to 8) (size 9 to 14) (size 15 to 20)
#    0.000    1.667    3.333    2.000    0.000    4.667 
#    0.000    0.000    0.000    1.000    0.000    0.000 
#    0.000    0.000    0.000    0.000    0.000    0.000 
#
# Total GULP energy -267219.183135 kJ/mol
# GULP energy per Si atom -5567.066315 kJ/mol
# Density = 1.642344 g / cm^3
# Si number density = 16.460905 Si / 1000 Ang^3
#
#
#
# Elastic Constant Matrix: (Units=GPa)
#
#
# Indices 1 2 3 4 5 6 
#
# 1 160.1860 53.7418 48.5324 0.0000 0.0000 0.0000
# 2 53.7418 72.0139 25.3401 0.0000 0.0000 0.0000
# 3 48.5324 25.3401 81.7944 0.0000 0.0000 0.0000
# 4 0.0000 0.0000 0.0000 26.8827 0.0000 0.0000
# 5 0.0000 0.0000 0.0000 0.0000 23.6636 0.0000
# 6 0.0000 0.0000 0.0000 0.0000 0.0000 35.2167
#
#
#
# Elastic Compliance Matrix: (Units=1/GPa)
#
#
# Indices 1 2 3 4 5 6 
#
# 1 0.009256 -0.005584 -0.003762 0.000000 0.000000 0.000000
# 2 -0.005584 0.018953 -0.002559 0.000000 0.000000 0.000000
# 3 -0.003762 -0.002559 0.015251 0.000000 0.000000 0.000000
# 4 0.000000 0.000000 0.000000 0.037199 0.000000 0.000000
# 5 0.000000 0.000000 0.000000 0.000000 0.042259 0.000000
# 6 0.000000 0.000000 0.000000 0.000000 0.000000 0.028396
#
#
# Mechanical properties :
#
#
# Convention : Reuss Voigt Hill
#
# Bulk Modulus (GPa) = 50.88800 63.24699 57.06750
# Shear Modulus (GPa) = 27.52202 29.57792 28.54997
#
# Velocity S-wave (km/s) = 4.09340 4.24354 4.16914
# Velocity P-wave (km/s) = 7.30225 7.90671 7.61048
#
# Compressibility (1/GPa) = 0.01965100
#
# Stress axis : x y z
#
# Youngs Moduli (GPa) = 108.04008 52.76091 65.57055
#
# Poissons Ratio (x) = 0.29459 0.24668
# Poissons Ratio (y) = 0.60325 0.16779
# Poissons Ratio (z) = 0.40646 0.13501
#
# Static dielectric constant tensor:
#      x y z
#    x 1.633020 0.000000 0.000000 
#    y 0.000000 1.588260 0.000000 
#    z 0.000000 0.000000 1.534110 
# 
# From -- ./inp_files/14507.got.cif
#   From: 2010.05.17/outbox.ucp.g08.bks.cvg/sg59_8_cif.got.tgz:14507.got - 2010.06.11 16:43:56.
