data_PCOD9453206
_publ_section_title
;
Structure prediction by ZEFSAII (Michael W. Deem and Ramdas Pophale) SiO2 
 PCOD9453206
Probable space group: P M M N
;
_chemical_formula_sum "Si O2"
_cell_formula_units_Z 48
_cell_length_a 9.751407
_cell_length_b 7.398349
_cell_length_c 32.593613
_cell_angle_alpha 90.000000
_cell_angle_beta 90.000000
_cell_angle_gamma 90.000000
_cell_volume 2351.443793
_symmetry_space_group_name_H-M "P M M N"
_symmetry_group_IT_number 59
_space_group.IT_coordinate_system_code '2'
_symmetry_cell_setting 'orthorhombic'
loop_
_space_group_symop_operation_xyz
x,y,z
1/2-x,1/2-y,z
1/2+x,-y,-z
-x,1/2+y,-z
-x,-y,-z
1/2+x,1/2+y,-z
1/2-x,y,z
x,1/2-y,z
loop_
_atom_site_type_symbol
_atom_site_label
_atom_site_fract_x
_atom_site_fract_y
_atom_site_fract_z
Si Si1 0.595897 0.534273 0.461525
Si Si2 0.408705 0.028791 0.782757
Si Si3 0.905414 0.533471 0.038847
Si Si4 0.909088 0.529784 0.370342
Si Si5 0.083036 0.459183 0.872703
Si Si6 0.907933 0.470918 0.705967
O O1 0.500000 0.500000 0.500000
O O2 0.750000 0.465221 0.468899
O O3 0.604570 0.750000 0.457874
O O4 0.549975 0.470511 0.416340
O O5 0.250000 0.975849 0.775499
O O6 0.408458 0.250000 0.783807
O O7 0.453571 0.964630 0.828131
O O8 0.508171 0.972575 0.746300
O O9 0.750000 0.466923 0.031951
O O10 0.897024 0.750000 0.043618
O O11 0.958550 0.463196 0.083077
O O12 0.000000 0.500000 0.000000
O O13 0.750000 0.477342 0.363466
O O14 0.910965 0.750000 0.369480
O O15 0.009726 0.469465 0.334469
O O16 0.250000 0.460641 0.873536
O O17 0.037615 0.250000 0.871934
O O18 0.750000 0.528495 0.706198
O O19 0.908111 0.250000 0.705869
#
# Coordination Sequence:
#
# PCOD9453206 Si02
#       6
#     8   8   8   8   8   8
#     4   9  18  31  46  65  88 114 146 182 217 254
#     4   8  12  19  32  47  65  95 131 160 191 237
#     4   9  17  29  44  62  85 112 143 179 215 252
#     4   8  14  25  38  51  72 104 138 168 199 240
#     4   7  11  21  36  52  71  99 134 167 199 239
#     4   9  15  20  28  47  74 100 127 161 200 241
#
# _framework density 20.412989
#
# number of rings (size 3 to 8) (size 9 to 14) (size 15 to 20)
#    0.000    3.667    0.000    3.500    0.000    3.333 
#    0.000    2.500    0.000    3.000    0.000    0.000 
#    0.000    1.333    0.000   12.667    0.000   17.333 
#
# Total GULP energy -267436.940215 kJ/mol
# GULP energy per Si atom -5571.602921 kJ/mol
# Density = 2.036653 g / cm^3
# Si number density = 20.412989 Si / 1000 Ang^3
#
#
#
# Elastic Constant Matrix: (Units=GPa)
#
#
# Indices 1 2 3 4 5 6 
#
# 1 112.4219 3.8241 136.2062 0.0000 0.0000 0.0000
# 2 3.8241 66.9705 8.4811 0.0000 0.0000 0.0000
# 3 136.2062 8.4811 270.8535 0.0000 0.0000 0.0000
# 4 0.0000 0.0000 0.0000 7.9982 0.0000 0.0000
# 5 0.0000 0.0000 0.0000 0.0000 34.7646 0.0000
# 6 0.0000 0.0000 0.0000 0.0000 0.0000 1.4462
#
#
#
# Elastic Compliance Matrix: (Units=1/GPa)
#
#
# Indices 1 2 3 4 5 6 
#
# 1 0.022767 0.000150 -0.011454 0.000000 0.000000 0.000000
# 2 0.000150 0.014992 -0.000545 0.000000 0.000000 0.000000
# 3 -0.011454 -0.000545 0.009469 0.000000 0.000000 0.000000
# 4 0.000000 0.000000 0.000000 0.125028 0.000000 0.000000
# 5 0.000000 0.000000 0.000000 0.000000 0.028765 0.000000
# 6 0.000000 0.000000 0.000000 0.000000 0.000000 0.691459
#
#
# Mechanical properties :
#
#
# Convention : Reuss Voigt Hill
#
# Bulk Modulus (GPa) = 42.49626 83.02984 62.76305
# Shear Modulus (GPa) = 5.41114 28.95745 17.18429
#
# Velocity S-wave (km/s) = 1.62990 3.77049 2.90458
# Velocity P-wave (km/s) = 4.94020 7.72779 6.48553
#
# Compressibility (1/GPa) = 0.02353148
#
# Stress axis : x y z
#
# Youngs Moduli (GPa) = 43.92392 66.70050 105.60959
#
# Poissons Ratio (x) = -0.01004 1.20960
# Poissons Ratio (y) = -0.00661 0.05757
# Poissons Ratio (z) = 0.50308 0.03636
#
# Static dielectric constant tensor:
#      x y z
#    x 1.685510 0.000000 0.000000 
#    y 0.000000 1.907340 0.000000 
#    z 0.000000 0.000000 1.752190 
# 
# From -- ./inp_files/33134.got.cif
#   From: 2010.05.17/outbox.cif.g08.bks.cpg/sg59_17_cif.got.tgz:33134.got - 2010.06.03 14:40:33.
