data_PCOD9453066
_publ_section_title
;
Structure prediction by ZEFSAII (Michael W. Deem and Ramdas Pophale) SiO2 
 PCOD9453066
Probable space group: P M M N
;
_chemical_formula_sum "Si O2"
_cell_formula_units_Z 48
_cell_length_a 20.522841
_cell_length_b 13.744595
_cell_length_c 9.570941
_cell_angle_alpha 90.000000
_cell_angle_beta 90.000000
_cell_angle_gamma 90.000000
_cell_volume 2699.753214
_symmetry_space_group_name_H-M "P M M N"
_symmetry_group_IT_number 59
_space_group.IT_coordinate_system_code '2'
_symmetry_cell_setting 'orthorhombic'
loop_
_space_group_symop_operation_xyz
x,y,z
1/2-x,1/2-y,z
1/2+x,-y,-z
-x,1/2+y,-z
-x,-y,-z
1/2+x,1/2+y,-z
1/2-x,y,z
x,1/2-y,z
loop_
_atom_site_type_symbol
_atom_site_label
_atom_site_fract_x
_atom_site_fract_y
_atom_site_fract_z
Si Si1 0.523397 0.637409 0.876743
Si Si2 0.038818 0.631737 0.305124
Si Si3 0.055930 0.868503 0.623927
Si Si4 0.595573 0.633822 0.144176
Si Si5 0.614302 0.363073 0.955727
Si Si6 0.176128 0.540476 0.788265
O O1 0.542190 0.750000 0.856866
O O2 0.503683 0.598109 0.725141
O O3 0.575097 0.597489 0.988090
O O4 0.454847 0.635894 0.960700
O O5 0.043861 0.750000 0.303913
O O6 0.046740 0.600831 0.464469
O O7 0.094588 0.597605 0.196916
O O8 0.967532 0.612723 0.240403
O O9 0.057237 0.750000 0.631094
O O10 0.123128 0.907760 0.688828
O O11 0.605245 0.750000 0.141654
O O12 0.655347 0.572103 0.200372
O O13 0.633851 0.250000 0.943250
O O14 0.664557 0.416333 0.056313
O O15 0.250000 0.554724 0.743283
#
# Coordination Sequence:
#
# PCOD9453066 Si02
#       6
#     8   8   8   8   8   8
#     4   7  12  25  46  70  91 112 141 183 235 275
#     4   8  15  30  52  76  98 119 146 188 246 293
#     4   9  17  30  50  77 103 120 144 189 240 292
#     4   9  18  33  50  68  92 120 156 202 241 276
#     4   8  15  29  48  70  95 119 147 186 229 278
#     4  11  22  32  45  66  93 132 169 189 221 273
#
# _framework density 17.779402999999999
#
# number of rings (size 3 to 8) (size 9 to 14) (size 15 to 20)
#    0.000    3.333    0.000    3.500    0.000    8.333 
#    0.000    0.833    0.000    3.000    0.000    0.000 
#    0.000    9.333    0.000    0.000    0.000    0.000 
#
# Total GULP energy -267362.323382 kJ/mol
# GULP energy per Si atom -5570.048404 kJ/mol
# Density = 1.773894 g / cm^3
# Si number density = 17.779403 Si / 1000 Ang^3
#
#
#
# Elastic Constant Matrix: (Units=GPa)
#
#
# Indices 1 2 3 4 5 6 
#
# 1 34.7341 3.7175 17.0622 0.0000 0.0000 0.0000
# 2 3.7175 63.8027 15.8493 0.0000 0.0000 0.0000
# 3 17.0622 15.8493 139.4538 0.0000 0.0000 0.0000
# 4 0.0000 0.0000 0.0000 16.2818 0.0000 0.0000
# 5 0.0000 0.0000 0.0000 0.0000 9.2805 0.0000
# 6 0.0000 0.0000 0.0000 0.0000 0.0000 13.1047
#
#
#
# Elastic Compliance Matrix: (Units=1/GPa)
#
#
# Indices 1 2 3 4 5 6 
#
# 1 0.030679 -0.000880 -0.003654 0.000000 0.000000 0.000000
# 2 -0.000880 0.016154 -0.001728 0.000000 0.000000 0.000000
# 3 -0.003654 -0.001728 0.007814 0.000000 0.000000 0.000000
# 4 0.000000 0.000000 0.000000 0.061418 0.000000 0.000000
# 5 0.000000 0.000000 0.000000 0.000000 0.107752 0.000000
# 6 0.000000 0.000000 0.000000 0.000000 0.000000 0.076308
#
#
# Mechanical properties :
#
#
# Convention : Reuss Voigt Hill
#
# Bulk Modulus (GPa) = 23.73962 34.58319 29.16141
# Shear Modulus (GPa) = 15.30498 21.15752 18.23125
#
# Velocity S-wave (km/s) = 2.93717 3.45338 3.20568
# Velocity P-wave (km/s) = 4.98838 5.94934 5.48992
#
# Compressibility (1/GPa) = 0.04212366
#
# Stress axis : x y z
#
# Youngs Moduli (GPa) = 32.59549 61.90447 127.97097
#
# Poissons Ratio (x) = 0.05447 0.46755
# Poissons Ratio (y) = 0.02868 0.22117
# Poissons Ratio (z) = 0.11909 0.10699
#
# Static dielectric constant tensor:
#      x y z
#    x 1.566860 0.000000 0.000000 
#    y 0.000000 1.672540 0.000000 
#    z 0.000000 0.000000 1.646160 
# 
# From -- ./inp_files/9221.got.cif
#   From: 2010.05.17/outbox.cif.g08.bks.cpg/sg59_5_cif.got.tgz:9221.got - 2010.06.03 14:40:33.
