data_PCOD9453177
_publ_section_title
;
Structure prediction by ZEFSAII (Michael W. Deem and Ramdas Pophale) SiO2 
 PCOD9453177
Probable space group: P M M N
;
_chemical_formula_sum "Si O2"
_cell_formula_units_Z 36
_cell_length_a 14.575132
_cell_length_b 14.569666
_cell_length_c 9.001399
_cell_angle_alpha 90.000000
_cell_angle_beta 90.000000
_cell_angle_gamma 90.000000
_cell_volume 1911.490331
_symmetry_space_group_name_H-M "P M M N"
_symmetry_group_IT_number 59
_space_group.IT_coordinate_system_code '2'
_symmetry_cell_setting 'orthorhombic'
loop_
_space_group_symop_operation_xyz
x,y,z
1/2-x,1/2-y,z
1/2+x,-y,-z
-x,1/2+y,-z
-x,-y,-z
1/2+x,1/2+y,-z
1/2-x,y,z
x,1/2-y,z
loop_
_atom_site_type_symbol
_atom_site_label
_atom_site_fract_x
_atom_site_fract_y
_atom_site_fract_z
Si Si1 0.750000 0.750000 0.209210
Si Si2 0.073219 0.921797 0.349726
Si Si3 0.750000 0.969785 0.155543
Si Si4 0.250000 0.552452 0.170020
Si Si5 0.468964 0.250000 0.795745
Si Si6 0.918736 0.426210 0.316276
Si Si7 0.447438 0.750000 0.882439
Si Si8 0.250000 0.750000 0.035846
O O1 0.750000 0.858670 0.158980
O O2 0.861491 0.750000 0.254639
O O3 0.159568 0.962461 0.263635
O O4 0.104572 0.894510 0.516025
O O5 0.024120 0.837163 0.267784
O O6 0.999279 0.002094 0.343146
O O7 0.662905 0.018020 0.235603
O O8 0.750000 0.999369 0.984306
O O9 0.250000 0.660008 0.133356
O O10 0.484083 0.250000 0.975583
O O11 0.953227 0.341499 0.216696
O O12 0.342739 0.750000 0.941608
#
# Coordination Sequence:
#
# PCOD9453177 Si02
#       8
#     2   8   4   4   4   8   4   2
#     4  12  28  40  64  98 132 172 216 258 320 380
#     4  11  24  42  66  95 130 171 214 265 325 382
#     4  12  23  43  68  94 131 170 217 265 319 383
#     4  12  23  40  66  97 129 162 219 267 322 374
#     4  12  23  43  68  94 131 170 217 265 319 383
#     4  11  24  42  66  95 130 171 214 265 325 382
#     4  12  23  40  66  97 129 162 219 267 322 374
#     4  12  20  36  62 100 120 156 202 276 312 368
#
# _framework density 18.833473000000001
#
# number of rings (size 3 to 8) (size 9 to 14) (size 15 to 20)
#    0.000    0.444    6.667    1.333    3.111    1.778 
#    0.000    2.222    0.000    2.667    0.000    0.000 
#    0.000    0.000    0.000    0.000    0.000    0.000 
#
# Total GULP energy -200633.853184 kJ/mol
# GULP energy per Si atom -5573.162588 kJ/mol
# Density = 1.879061 g / cm^3
# Si number density = 18.833473 Si / 1000 Ang^3
#
#
#
# Elastic Constant Matrix: (Units=GPa)
#
#
# Indices 1 2 3 4 5 6 
#
# 1 110.2748 8.2452 37.5766 0.0000 0.0000 0.0000
# 2 8.2452 101.7281 29.2126 0.0000 0.0000 0.0000
# 3 37.5766 29.2126 129.9332 0.0000 0.0000 0.0000
# 4 0.0000 0.0000 0.0000 176.8680 0.0000 0.0000
# 5 0.0000 0.0000 0.0000 0.0000 22.5773 0.0000
# 6 0.0000 0.0000 0.0000 0.0000 0.0000 -27.9717
#
#
#
# Elastic Compliance Matrix: (Units=1/GPa)
#
#
# Indices 1 2 3 4 5 6 
#
# 1 0.010060 0.000021 -0.002914 0.000000 0.000000 0.000000
# 2 0.000021 0.010509 -0.002369 0.000000 0.000000 0.000000
# 3 -0.002914 -0.002369 0.009072 0.000000 0.000000 0.000000
# 4 0.000000 0.000000 0.000000 0.005654 0.000000 0.000000
# 5 0.000000 0.000000 0.000000 0.000000 0.044292 0.000000
# 6 0.000000 0.000000 0.000000 0.000000 0.000000 -0.035750
#
#
# Mechanical properties :
#
#
# Convention : Reuss Voigt Hill
#
# Bulk Modulus (GPa) = 52.30954 54.66721 53.48838
# Shear Modulus (GPa) = 82.33065 52.08819 67.20942
#
# Velocity S-wave (km/s) = 6.61891 5.26472 5.98027
# Velocity P-wave (km/s) = 9.28700 8.12687 8.72624
#
# Compressibility (1/GPa) = 0.01911697
#
# Stress axis : x y z
#
# Youngs Moduli (GPa) = 99.40726 95.15989 110.23432
#
# Poissons Ratio (x) = -0.00204 0.32123
# Poissons Ratio (y) = -0.00213 0.26113
# Poissons Ratio (z) = 0.28968 0.22542
#
# Static dielectric constant tensor:
#      x y z
#    x 1.082110 0.000000 0.000000 
#    y 0.000000 1.627620 0.000000 
#    z 0.000000 0.000000 1.695590 
# 
# From -- ./inp_files/8565.got.cif
#   From: 2010.05.17/outbox.cif.g08.bks.cpg/sg59_5_cif.got.tgz:8565.got - 2010.06.03 14:40:33.
