data_PCOD9453387
_publ_section_title
;
Structure prediction by ZEFSAII (Michael W. Deem and Ramdas Pophale) SiO2 
 PCOD9453387
Probable space group: P M M N
;
_chemical_formula_sum "Si O2"
_cell_formula_units_Z 64
_cell_length_a 30.000000
_cell_length_b 9.000000
_cell_length_c 12.000000
_cell_angle_alpha 90.000000
_cell_angle_beta 90.000000
_cell_angle_gamma 90.000000
_cell_volume 3240.000000
_symmetry_space_group_name_H-M "P M M N"
_symmetry_group_IT_number 59
_space_group.IT_coordinate_system_code '2'
_symmetry_cell_setting 'orthorhombic'
loop_
_space_group_symop_operation_xyz
x,y,z
1/2-x,1/2-y,z
1/2+x,-y,-z
-x,1/2+y,-z
-x,-y,-z
1/2+x,1/2+y,-z
1/2-x,y,z
x,1/2-y,z
loop_
_atom_site_type_symbol
_atom_site_label
_atom_site_fract_x
_atom_site_fract_y
_atom_site_fract_z
Si Si1 0.965926 0.923068 0.751315
Si Si2 0.822430 0.422831 0.882287
Si Si3 0.425530 0.578516 0.050445
Si Si4 0.613792 0.078759 0.174961
Si Si5 0.606329 0.577280 0.568882
Si Si6 0.299058 0.072985 0.884938
Si Si7 0.299723 0.070221 0.351562
Si Si8 0.048991 0.919624 0.616342
O O1 0.977370 0.750000 0.767128
O O2 0.918867 0.932559 0.687201
O O3 0.004100 0.986431 0.669937
O O4 0.960002 0.996202 0.870726
O O5 0.809437 0.250000 0.879352
O O6 0.876172 0.428769 0.894183
O O7 0.806121 0.504653 0.771807
O O8 0.803812 0.501155 0.992707
O O9 0.439014 0.750000 0.041750
O O10 0.416344 0.518244 0.926669
O O11 0.625294 0.250000 0.144061
O O12 0.584815 0.080810 0.284627
O O13 0.659476 0.989728 0.184032
O O14 0.609035 0.750000 0.537967
O O15 0.656881 0.518644 0.578776
O O16 0.573209 0.500327 0.483614
O O17 0.250000 0.036278 0.839464
O O18 0.302680 0.250000 0.894463
O O19 0.250000 0.030841 0.392957
O O20 0.302223 0.250000 0.345426
O O21 0.038802 0.750000 0.582125
#
# Coordination Sequence:
#
# PCOD9453387 Si02
#       8
#     8   8   8   8   8   8   8   8
#     4  10  20  35  57  84 110 140 179 225 276 330
#     4  10  19  31  50  79 114 147 178 217 265 322
#     4   9  18  32  52  79 111 143 175 217 268 322
#     4   9  20  38  55  77 111 146 181 225 275 324
#     4  10  21  37  56  80 111 144 183 227 272 324
#     4  10  20  33  52  79 108 141 183 226 268 320
#     4  10  20  34  53  78 110 146 181 221 271 324
#     4  10  22  39  58  79 106 142 185 232 277 323
#
# _framework density 19.753086
#
# number of rings (size 3 to 8) (size 9 to 14) (size 15 to 20)
#    0.000    2.250    1.250    2.250    0.000    7.250 
#    0.000    0.625    0.000    2.250    0.000    0.000 
#    0.000    0.000    0.000    0.000    0.000    0.000 
#
# Total GULP energy -356975.573936 kJ/mol
# GULP energy per Si atom -5577.743343 kJ/mol
# Density = 1.970813 g / cm^3
# Si number density = 19.753086 Si / 1000 Ang^3
#
#
#
# Elastic Constant Matrix: (Units=GPa)
#
#
# Indices 1 2 3 4 5 6 
#
# 1 60.3962 18.3539 -2.6486 0.0000 0.0000 0.0000
# 2 18.3539 24.4784 15.2483 0.0000 0.0000 0.0000
# 3 -2.6486 15.2483 27.5251 0.0000 0.0000 0.0000
# 4 0.0000 0.0000 0.0000 16.4617 0.0000 0.0000
# 5 0.0000 0.0000 0.0000 0.0000 16.6515 0.0000
# 6 0.0000 0.0000 0.0000 0.0000 0.0000 47.4996
#
#
#
# Elastic Compliance Matrix: (Units=1/GPa)
#
#
# Indices 1 2 3 4 5 6 
#
# 1 0.028063 -0.034698 0.021922 0.000000 0.000000 0.000000
# 2 -0.034698 0.105279 -0.061661 0.000000 0.000000 0.000000
# 3 0.021922 -0.061661 0.072599 0.000000 0.000000 0.000000
# 4 0.000000 0.000000 0.000000 0.060747 0.000000 0.000000
# 5 0.000000 0.000000 0.000000 0.000000 0.060055 0.000000
# 6 0.000000 0.000000 0.000000 0.000000 0.000000 0.021053
#
#
# Mechanical properties :
#
#
# Convention : Reuss Voigt Hill
#
# Bulk Modulus (GPa) = 17.52304 19.36745 18.44524
# Shear Modulus (GPa) = 9.69572 21.55231 15.62401
#
# Velocity S-wave (km/s) = 2.21791 3.30674 2.81546
# Velocity P-wave (km/s) = 3.93054 4.94019 4.46400
#
# Compressibility (1/GPa) = 0.05706773
#
# Stress axis : x y z
#
# Youngs Moduli (GPa) = 35.63406 9.49856 13.77432
#
# Poissons Ratio (x) = 0.32958 -0.30196
# Poissons Ratio (y) = 1.23642 0.84934
# Poissons Ratio (z) = -0.78117 0.58569
#
# Static dielectric constant tensor:
#      x y z
#    x 1.731030 0.000000 0.000000 
#    y 0.000000 1.690590 0.000000 
#    z 0.000000 0.000000 1.693790 
# 
# From -- ./inp_files/19383.got.cif
#   From: 2010.05.17/outbox.ucp.g08.bks.cvg/sg59_10_cif.got.tgz:19383.got - 2010.06.11 16:43:56.
