data_PCOD9453513
_publ_section_title
;
Structure prediction by ZEFSAII (Michael W. Deem and Ramdas Pophale) SiO2 
 PCOD9453513
Probable space group: P M M N
;
_chemical_formula_sum "Si O2"
_cell_formula_units_Z 64
_cell_length_a 9.000000
_cell_length_b 18.000000
_cell_length_c 21.000000
_cell_angle_alpha 90.000000
_cell_angle_beta 90.000000
_cell_angle_gamma 90.000000
_cell_volume 3402.000000
_symmetry_space_group_name_H-M "P M M N"
_symmetry_group_IT_number 59
_space_group.IT_coordinate_system_code '2'
_symmetry_cell_setting 'orthorhombic'
loop_
_space_group_symop_operation_xyz
x,y,z
1/2-x,1/2-y,z
1/2+x,-y,-z
-x,1/2+y,-z
-x,-y,-z
1/2+x,1/2+y,-z
1/2-x,y,z
x,1/2-y,z
loop_
_atom_site_type_symbol
_atom_site_label
_atom_site_fract_x
_atom_site_fract_y
_atom_site_fract_z
Si Si1 0.573495 0.553821 0.188504
Si Si2 0.922838 0.393029 0.248339
Si Si3 0.930161 0.669461 0.495629
Si Si4 0.426527 0.100927 0.374434
Si Si5 0.927398 0.162581 0.720038
Si Si6 0.428531 0.439799 0.612345
Si Si7 0.919996 0.668333 0.870296
Si Si8 0.576303 0.513695 0.933865
O O1 0.750000 0.566643 0.187552
O O2 0.546804 0.480059 0.231951
O O3 0.486417 0.623863 0.216007
O O4 0.510496 0.530602 0.120523
O O5 0.750000 0.386220 0.263371
O O6 0.021717 0.368759 0.307068
O O7 0.967199 0.346867 0.186591
O O8 0.750000 0.671339 0.492351
O O9 0.984912 0.750000 0.473025
O O10 0.972331 0.653901 0.567932
O O11 0.975293 0.600177 0.452989
O O12 0.250000 0.091629 0.376356
O O13 0.502219 0.020795 0.382501
O O14 0.750000 0.153134 0.714095
O O15 0.961554 0.250000 0.716867
O O16 0.011276 0.115884 0.665950
O O17 0.250000 0.444981 0.616752
O O18 0.750000 0.663394 0.845067
O O19 0.940532 0.750000 0.897943
O O20 0.936317 0.601034 0.918494
O O21 0.750000 0.493870 0.933055
O O22 0.500000 0.500000 0.000000
#
# Coordination Sequence:
#
# PCOD9453513 Si02
#       8
#     8   8   8   8   8   8   8   8
#     4  10  20  36  58  82 112 148 186 229 276 334
#     4  10  20  34  54  82 112 143 182 228 279 334
#     4   9  20  37  54  75 104 141 186 234 285 342
#     4  11  21  34  56  81 108 143 184 233 284 340
#     4  11  23  37  56  84 115 145 183 233 287 341
#     4  11  21  36  58  80 106 143 187 233 282 342
#     4   9  19  36  58  84 114 150 191 233 279 333
#     4  10  20  36  60  87 117 154 196 238 280 333
#
# _framework density 18.812463000000001
#
# number of rings (size 3 to 8) (size 9 to 14) (size 15 to 20)
#    0.000    1.875    1.250    3.000    0.000    3.750 
#    0.000    3.750    0.000    6.375    0.000    0.000 
#    0.000    0.000    0.000    0.000    0.000    0.000 
#
# Total GULP energy -357147.684270 kJ/mol
# GULP energy per Si atom -5580.432567 kJ/mol
# Density = 1.876965 g / cm^3
# Si number density = 18.812463 Si / 1000 Ang^3
#
#
#
# Elastic Constant Matrix: (Units=GPa)
#
#
# Indices 1 2 3 4 5 6 
#
# 1 34.5030 8.9412 14.8611 0.0000 0.0000 0.0000
# 2 8.9412 37.1991 -2.1920 0.0000 0.0000 0.0000
# 3 14.8611 -2.1920 65.9814 0.0000 0.0000 0.0000
# 4 0.0000 0.0000 0.0000 -16.6707 0.0000 0.0000
# 5 0.0000 0.0000 0.0000 0.0000 23.8309 0.0000
# 6 0.0000 0.0000 0.0000 0.0000 0.0000 18.0871
#
#
#
# Elastic Compliance Matrix: (Units=1/GPa)
#
#
# Indices 1 2 3 4 5 6 
#
# 1 0.034773 -0.008837 -0.008126 0.000000 0.000000 0.000000
# 2 -0.008837 0.029181 0.002960 0.000000 0.000000 0.000000
# 3 -0.008126 0.002960 0.017084 0.000000 0.000000 0.000000
# 4 0.000000 0.000000 0.000000 -0.059986 0.000000 0.000000
# 5 0.000000 0.000000 0.000000 0.000000 0.041962 0.000000
# 6 0.000000 0.000000 0.000000 0.000000 0.000000 0.055288
#
#
# Mechanical properties :
#
#
# Convention : Reuss Voigt Hill
#
# Bulk Modulus (GPa) = 18.85628 20.10045 19.47836
# Shear Modulus (GPa) = 30.49055 12.78769 21.63912
#
# Velocity S-wave (km/s) = 4.03024 2.61002 3.39522
# Velocity P-wave (km/s) = 5.63047 4.44868 5.07410
#
# Compressibility (1/GPa) = 0.05303274
#
# Stress axis : x y z
#
# Youngs Moduli (GPa) = 28.75810 34.26908 58.53351
#
# Poissons Ratio (x) = 0.30283 0.47561
# Poissons Ratio (y) = 0.25413 -0.17325
# Poissons Ratio (z) = 0.23367 -0.10143
#
# Static dielectric constant tensor:
#      x y z
#    x 1.633280 0.000000 0.000000 
#    y 0.000000 1.554760 0.000000 
#    z 0.000000 0.000000 1.673080 
# 
# From -- ./inp_files/29603.got.cif
#   From: 2010.05.17/outbox.ucp.g08.bks.cvg/sg59_15_cif.got.tgz:29603.got - 2010.06.11 16:43:56.
