data_PCOD9453050
_publ_section_title
;
Structure prediction by ZEFSAII (Michael W. Deem and Ramdas Pophale) SiO2 
 PCOD9453050
Probable space group: P M M N
;
_chemical_formula_sum "Si O2"
_cell_formula_units_Z 32
_cell_length_a 13.854062
_cell_length_b 8.248175
_cell_length_c 13.464997
_cell_angle_alpha 90.000000
_cell_angle_beta 90.000000
_cell_angle_gamma 90.000000
_cell_volume 1538.655008
_symmetry_space_group_name_H-M "P M M N"
_symmetry_group_IT_number 59
_space_group.IT_coordinate_system_code '2'
_symmetry_cell_setting 'orthorhombic'
loop_
_space_group_symop_operation_xyz
x,y,z
1/2-x,1/2-y,z
1/2+x,-y,-z
-x,1/2+y,-z
-x,-y,-z
1/2+x,1/2+y,-z
1/2-x,y,z
x,1/2-y,z
loop_
_atom_site_type_symbol
_atom_site_label
_atom_site_fract_x
_atom_site_fract_y
_atom_site_fract_z
Si Si1 0.142401 0.947252 0.747459
Si Si2 0.250000 0.067218 0.136269
Si Si3 0.965629 0.556531 0.607755
Si Si4 0.250000 0.932950 0.346528
Si Si5 0.393845 0.555685 0.976622
O O1 0.250000 0.999417 0.711279
O O2 0.141550 0.750000 0.742692
O O3 0.133740 0.990204 0.863944
O O4 0.047588 0.004223 0.686665
O O5 0.250000 0.250000 0.176601
O O6 0.250000 0.946115 0.227513
O O7 0.163342 0.034695 0.062369
O O8 0.967976 0.750000 0.613615
O O9 0.853981 0.506459 0.623469
O O10 0.000000 0.500000 0.500000
O O11 0.250000 0.750000 0.383821
O O12 0.379982 0.750000 0.985122
O O13 0.500000 0.500000 0.000000
#
# Coordination Sequence:
#
# PCOD9453050 Si02
#       5
#     8   4   8   4   8
#     4   9  19  38  64  93 127 170 214 262 322 392
#     4  12  24  40  61  92 131 172 213 262 328 394
#     4  11  24  43  70 101 133 171 218 275 339 404
#     4  12  26  46  69  94 131 176 227 280 330 394
#     4  11  21  37  62  92 128 170 217 265 319 386
#
# _framework density 20.797384999999998
#
# number of rings (size 3 to 8) (size 9 to 14) (size 15 to 20)
#    0.000    1.250    1.250    5.250    1.750    2.000 
#    0.000    3.750    0.000    0.000    0.000    0.000 
#    0.000    0.000    0.000    0.000    0.000    0.000 
#
# Total GULP energy -178612.451310 kJ/mol
# GULP energy per Si atom -5581.639103 kJ/mol
# Density = 2.075005 g / cm^3
# Si number density = 20.797385 Si / 1000 Ang^3
#
#
#
# Elastic Constant Matrix: (Units=GPa)
#
#
# Indices 1 2 3 4 5 6 
#
# 1 213.0286 15.5839 62.8464 0.0000 0.0000 0.0000
# 2 15.5839 47.0452 1.8990 0.0000 0.0000 0.0000
# 3 62.8464 1.8990 96.2171 0.0000 0.0000 0.0000
# 4 0.0000 0.0000 0.0000 25.5974 0.0000 0.0000
# 5 0.0000 0.0000 0.0000 0.0000 29.9088 0.0000
# 6 0.0000 0.0000 0.0000 0.0000 0.0000 28.8246
#
#
#
# Elastic Compliance Matrix: (Units=1/GPa)
#
#
# Indices 1 2 3 4 5 6 
#
# 1 0.005967 -0.001821 -0.003861 0.000000 0.000000 0.000000
# 2 -0.001821 0.021829 0.000758 0.000000 0.000000 0.000000
# 3 -0.003861 0.000758 0.012900 0.000000 0.000000 0.000000
# 4 0.000000 0.000000 0.000000 0.039066 0.000000 0.000000
# 5 0.000000 0.000000 0.000000 0.000000 0.033435 0.000000
# 6 0.000000 0.000000 0.000000 0.000000 0.000000 0.034693
#
#
# Mechanical properties :
#
#
# Convention : Reuss Voigt Hill
#
# Bulk Modulus (GPa) = 32.41656 57.43882 44.92769
# Shear Modulus (GPa) = 29.75851 35.26360 32.51106
#
# Velocity S-wave (km/s) = 3.78680 4.12221 3.95806
# Velocity P-wave (km/s) = 5.89410 7.09472 6.52210
#
# Compressibility (1/GPa) = 0.03084843
#
# Stress axis : x y z
#
# Youngs Moduli (GPa) = 167.60236 45.81145 77.51792
#
# Poissons Ratio (x) = 0.08340 0.29931
# Poissons Ratio (y) = 0.30513 -0.05878
# Poissons Ratio (z) = 0.64715 -0.03474
#
# Static dielectric constant tensor:
#      x y z
#    x 1.735150 0.000000 0.000000 
#    y 0.000000 1.773790 0.000000 
#    z 0.000000 0.000000 1.706600 
# 
# From -- ./inp_files/16478.got.cif
#   From: 2010.05.17/outbox.cif.g08.bks.cpg/sg59_9_cif.got.tgz:16478.got - 2010.06.03 14:40:33.
