data_PCOD9453176
_publ_section_title
;
Structure prediction by ZEFSAII (Michael W. Deem and Ramdas Pophale) SiO2 
 PCOD9453176
Probable space group: P M M N
;
_chemical_formula_sum "Si O2"
_cell_formula_units_Z 56
_cell_length_a 15.315605
_cell_length_b 14.110080
_cell_length_c 12.321896
_cell_angle_alpha 90.000000
_cell_angle_beta 90.000000
_cell_angle_gamma 90.000000
_cell_volume 2662.816087
_symmetry_space_group_name_H-M "P M M N"
_symmetry_group_IT_number 59
_space_group.IT_coordinate_system_code '2'
_symmetry_cell_setting 'orthorhombic'
loop_
_space_group_symop_operation_xyz
x,y,z
1/2-x,1/2-y,z
1/2+x,-y,-z
-x,1/2+y,-z
-x,-y,-z
1/2+x,1/2+y,-z
1/2-x,y,z
x,1/2-y,z
loop_
_atom_site_type_symbol
_atom_site_label
_atom_site_fract_x
_atom_site_fract_y
_atom_site_fract_z
Si Si1 0.402373 0.360112 0.817434
Si Si2 0.656632 0.135129 0.986942
Si Si3 0.650291 0.980801 0.574230
Si Si4 0.105271 0.858945 0.255493
Si Si5 0.964369 0.864970 0.948980
Si Si6 0.653844 0.467657 0.322311
Si Si7 0.024512 0.362604 0.286883
O O1 0.373504 0.250000 0.808040
O O2 0.501952 0.364200 0.771809
O O3 0.350913 0.437107 0.749110
O O4 0.408292 0.387133 0.944770
O O5 0.750000 0.099813 0.030336
O O6 0.655989 0.250000 0.999460
O O7 0.651210 0.116863 0.858251
O O8 0.564434 0.101464 0.034567
O O9 0.750000 0.949083 0.592658
O O10 0.580792 0.904948 0.616088
O O11 0.631781 0.072871 0.647763
O O12 0.640568 0.004125 0.447938
O O13 0.126098 0.750000 0.281980
O O14 0.967453 0.750000 0.948818
O O15 0.935412 0.895422 0.829441
O O16 0.750000 0.423766 0.311100
O O17 0.574042 0.400556 0.290363
O O18 0.024761 0.250000 0.290849
#
# Coordination Sequence:
#
# PCOD9453176 Si02
#       7
#     8   8   8   8   8   8   8
#     4   9  18  37  65  92 120 154 198 252 310 366
#     4   8  13  24  46  80 118 151 188 236 293 357
#     4  11  24  42  62  89 125 160 205 260 308 362
#     4   9  17  32  59  90 119 153 195 249 313 367
#     4   8  17  34  58  87 118 158 199 245 300 361
#     4  11  25  43  62  90 126 163 208 257 306 365
#     4  11  24  43  65  88 125 170 208 250 305 365
#
# _framework density 21.030367999999999
#
# number of rings (size 3 to 8) (size 9 to 14) (size 15 to 20)
#    0.000    2.429    1.429    2.571    0.000    4.000 
#    0.000    5.000    0.000    2.571    0.000    0.000 
#    0.000    0.000    0.000    0.000    0.000    0.000 
#
# Total GULP energy -312852.977820 kJ/mol
# GULP energy per Si atom -5586.660318 kJ/mol
# Density = 2.098250 g / cm^3
# Si number density = 21.030368 Si / 1000 Ang^3
#
#
#
# Elastic Constant Matrix: (Units=GPa)
#
#
# Indices 1 2 3 4 5 6 
#
# 1 46.3989 13.2253 20.2183 0.0000 0.0000 0.0000
# 2 13.2253 74.2420 13.6074 0.0000 0.0000 0.0000
# 3 20.2183 13.6074 91.2828 0.0000 0.0000 0.0000
# 4 0.0000 0.0000 0.0000 28.1095 0.0000 0.0000
# 5 0.0000 0.0000 0.0000 0.0000 -37.2812 0.0000
# 6 0.0000 0.0000 0.0000 0.0000 0.0000 -7.6507
#
#
#
# Elastic Compliance Matrix: (Units=1/GPa)
#
#
# Indices 1 2 3 4 5 6 
#
# 1 0.024706 -0.003494 -0.004951 0.000000 0.000000 0.000000
# 2 -0.003494 0.014342 -0.001364 0.000000 0.000000 0.000000
# 3 -0.004951 -0.001364 0.012255 0.000000 0.000000 0.000000
# 4 0.000000 0.000000 0.000000 0.035575 0.000000 0.000000
# 5 0.000000 0.000000 0.000000 0.000000 -0.026823 0.000000
# 6 0.000000 0.000000 0.000000 0.000000 0.000000 -0.130708
#
#
# Mechanical properties :
#
#
# Convention : Reuss Voigt Hill
#
# Bulk Modulus (GPa) = 31.56117 34.00286 32.78201
# Shear Modulus (GPa) = -123.53580 7.62703 -57.95438
#
# Velocity S-wave (km/s) = -7.67262 1.90645 -5.25522
# Velocity P-wave (km/s) = 7.96569 4.58799 4.60449
#
# Compressibility (1/GPa) = 0.03168450
#
# Stress axis : x y z
#
# Youngs Moduli (GPa) = 40.47675 69.72613 81.59950
#
# Poissons Ratio (x) = 0.24359 0.40402
# Poissons Ratio (y) = 0.14141 0.11131
# Poissons Ratio (z) = 0.20041 0.09512
#
# Static dielectric constant tensor:
#      x y z
#    x 1.763920 0.000000 0.000000 
#    y 0.000000 1.753350 0.000000 
#    z 0.000000 0.000000 1.744920 
# 
# From -- ./inp_files/16990.got.cif
#   From: 2010.05.17/outbox.cif.g08.bks.cpg/sg59_9_cif.got.tgz:16990.got - 2010.06.03 14:40:33.
