data_PCOD9453091
_publ_section_title
;
Structure prediction by ZEFSAII (Michael W. Deem and Ramdas Pophale) SiO2 
 PCOD9453091
Probable space group: P M M N
;
_chemical_formula_sum "Si O2"
_cell_formula_units_Z 56
_cell_length_a 16.347587
_cell_length_b 15.368447
_cell_length_c 10.254210
_cell_angle_alpha 90.000000
_cell_angle_beta 90.000000
_cell_angle_gamma 90.000000
_cell_volume 2576.237208
_symmetry_space_group_name_H-M "P M M N"
_symmetry_group_IT_number 59
_space_group.IT_coordinate_system_code '2'
_symmetry_cell_setting 'orthorhombic'
loop_
_space_group_symop_operation_xyz
x,y,z
1/2-x,1/2-y,z
1/2+x,-y,-z
-x,1/2+y,-z
-x,-y,-z
1/2+x,1/2+y,-z
1/2-x,y,z
x,1/2-y,z
loop_
_atom_site_type_symbol
_atom_site_label
_atom_site_fract_x
_atom_site_fract_y
_atom_site_fract_z
Si Si1 0.161396 0.350397 0.976413
Si Si2 0.512689 0.153986 0.003916
Si Si3 0.656337 0.019601 0.384024
Si Si4 0.163568 0.542483 0.067597
Si Si5 0.443325 0.343703 0.578611
Si Si6 0.502086 0.894693 0.707647
Si Si7 0.897982 0.071854 0.666646
O O1 0.250000 0.355829 0.904416
O O2 0.160664 0.250000 0.028530
O O3 0.163287 0.437047 0.066195
O O4 0.069878 0.359451 0.918255
O O5 0.546116 0.250000 0.974193
O O6 0.485033 0.151563 0.155255
O O7 0.580501 0.080050 0.991811
O O8 0.750000 0.019741 0.340844
O O9 0.593879 0.081549 0.306444
O O10 0.648455 0.053485 0.532749
O O11 0.616392 0.923274 0.386568
O O12 0.250000 0.567859 0.003133
O O13 0.160326 0.582307 0.211789
O O14 0.407672 0.250000 0.610843
O O15 0.465267 0.349118 0.423665
O O16 0.531894 0.357050 0.645089
O O17 0.549646 0.985904 0.702393
#
# Coordination Sequence:
#
# PCOD9453091 Si02
#       7
#     8   8   8   8   8   8   8
#     4   9  19  36  58  83 109 142 186 233 281 334
#     4  11  22  36  57  83 115 150 186 230 277 330
#     4   9  18  33  54  80 105 138 179 222 275 327
#     4  11  22  36  57  83 115 150 186 230 277 330
#     4   9  18  33  54  80 105 138 179 222 275 327
#     4   9  18  34  56  75 104 143 182 223 266 328
#     4   9  18  34  56  75 104 143 182 223 266 328
#
# _framework density 21.737128999999999
#
# number of rings (size 3 to 8) (size 9 to 14) (size 15 to 20)
#    0.000    2.429    1.429    3.000    0.000    1.714 
#    0.000    0.000    0.000   13.714    0.000    0.000 
#    0.000    0.000    0.000    0.000    0.000    0.000 
#
# Total GULP energy -311901.649151 kJ/mol
# GULP energy per Si atom -5569.672306 kJ/mol
# Density = 2.168765 g / cm^3
# Si number density = 21.737129 Si / 1000 Ang^3
#
#
#
# Elastic Constant Matrix: (Units=GPa)
#
#
# Indices 1 2 3 4 5 6 
#
# 1 149.7434 21.5354 3.4547 0.0000 0.0000 0.0000
# 2 21.5354 62.4905 5.5026 0.0000 0.0000 0.0000
# 3 3.4547 5.5026 47.6440 0.0000 0.0000 0.0000
# 4 0.0000 0.0000 0.0000 7.1044 0.0000 0.0000
# 5 0.0000 0.0000 0.0000 0.0000 14.6352 0.0000
# 6 0.0000 0.0000 0.0000 0.0000 0.0000 22.0987
#
#
#
# Elastic Compliance Matrix: (Units=1/GPa)
#
#
# Indices 1 2 3 4 5 6 
#
# 1 0.007029 -0.002402 -0.000232 0.000000 0.000000 0.000000
# 2 -0.002402 0.016988 -0.001788 0.000000 0.000000 0.000000
# 3 -0.000232 -0.001788 0.021212 0.000000 0.000000 0.000000
# 4 0.000000 0.000000 0.000000 0.140759 0.000000 0.000000
# 5 0.000000 0.000000 0.000000 0.000000 0.068328 0.000000
# 6 0.000000 0.000000 0.000000 0.000000 0.000000 0.045251
#
#
# Mechanical properties :
#
#
# Convention : Reuss Voigt Hill
#
# Bulk Modulus (GPa) = 27.48390 35.65149 31.56769
# Shear Modulus (GPa) = 15.59871 24.06001 19.82936
#
# Velocity S-wave (km/s) = 2.68172 3.33056 3.02360
# Velocity P-wave (km/s) = 4.71806 5.58811 5.17142
#
# Compressibility (1/GPa) = 0.03638494
#
# Stress axis : x y z
#
# Youngs Moduli (GPa) = 142.27039 58.86659 47.14245
#
# Poissons Ratio (x) = 0.14139 0.01095
# Poissons Ratio (y) = 0.34171 0.08428
# Poissons Ratio (z) = 0.03305 0.10524
#
# Static dielectric constant tensor:
#      x y z
#    x 1.746130 0.000000 0.000000 
#    y 0.000000 1.779870 0.000000 
#    z 0.000000 0.000000 1.857820 
# 
# From -- ./inp_files/16987.got.cif
#   From: 2010.05.17/outbox.cif.g08.bks.cpg/sg59_9_cif.got.tgz:16987.got - 2010.06.03 14:40:33.
