data_PCOD9453766
_publ_section_title
;
Structure prediction by ZEFSAII (Michael W. Deem and Ramdas Pophale) SiO2 
 PCOD9453766
Probable space group: P B C N
;
_chemical_formula_sum "Si O2"
_cell_formula_units_Z 64
_cell_length_a 16.892606
_cell_length_b 13.865582
_cell_length_c 14.444763
_cell_angle_alpha 90.000000
_cell_angle_beta 90.000000
_cell_angle_gamma 90.000000
_cell_volume 3383.336367
_symmetry_space_group_name_H-M "P B C N"
_symmetry_group_IT_number 60
_symmetry_cell_setting 'orthorhombic'
loop_
_space_group_symop_operation_xyz
x,y,z
1/2-x,1/2-y,1/2+z
1/2+x,1/2-y,-z
-x,y,1/2-z
-x,-y,-z
1/2+x,1/2+y,1/2-z
1/2-x,1/2+y,z
x,-y,1/2+z
loop_
_atom_site_type_symbol
_atom_site_label
_atom_site_fract_x
_atom_site_fract_y
_atom_site_fract_z
Si Si1 0.005784 0.612561 0.979186
Si Si2 0.944817 0.883202 0.896635
Si Si3 0.374906 0.592441 0.616775
Si Si4 0.966043 0.795007 0.095547
Si Si5 0.335774 0.175619 0.870139
Si Si6 0.419534 0.193169 0.692652
Si Si7 0.133492 0.894213 0.898831
Si Si8 0.324788 0.600805 0.814181
O O1 0.093596 0.643555 0.940412
O O2 0.943550 0.633856 0.897104
O O3 0.000000 0.500000 0.000000
O O4 0.979575 0.685161 0.061597
O O5 0.899239 0.800260 0.841378
O O6 0.039254 0.881617 0.881215
O O7 0.912068 0.986531 0.872954
O O8 0.940372 0.856241 0.004499
O O9 0.448402 0.665882 0.625132
O O10 0.348794 0.597216 0.509243
O O11 0.315326 0.605972 0.702352
O O12 0.897687 0.826061 0.165581
O O13 0.361945 0.146753 0.766277
O O14 0.330321 0.291631 0.870561
O O15 0.249077 0.131982 0.877831
O O16 0.500000 0.205439 0.750000
O O17 0.156735 0.990950 0.844949
#
# Coordination Sequence:
#
# PCOD9453766 Si02
#       8
#     8   8   8   8   8   8   8   8
#     4  10  21  41  67  86 114 173 222 255 299 372
#     4  10  16  33  67  93 107 148 215 251 298 359
#     4  11  20  36  63  98 123 157 203 256 320 375
#     4  10  19  38  60  92 120 156 208 255 312 369
#     4  11  23  42  57  89 130 162 207 259 308 374
#     4   9  17  35  62  85 110 159 211 246 283 371
#     4  11  20  41  64  88 125 163 204 254 309 378
#     4  12  25  36  59  99 134 159 196 266 324 365
#
# _framework density 18.916239000000001
#
# number of rings (size 3 to 8) (size 9 to 14) (size 15 to 20)
#    0.000    1.500    7.500    1.875    0.000    1.000 
#    6.750    5.000    0.000    0.000    0.000    0.000 
#    0.000    0.000    0.000    0.000    0.000    0.000 
#
# Total GULP energy -356597.147528 kJ/mol
# GULP energy per Si atom -5571.830430 kJ/mol
# Density = 1.887319 g / cm^3
# Si number density = 18.916239 Si / 1000 Ang^3
#
#
#
# Elastic Constant Matrix: (Units=GPa)
#
#
# Indices 1 2 3 4 5 6 
#
# 1 23.1235 13.1900 16.0820 0.0000 0.0000 0.0000
# 2 13.1900 130.2661 33.9377 0.0000 0.0000 0.0000
# 3 16.0820 33.9377 63.0955 0.0000 0.0000 0.0000
# 4 0.0000 0.0000 0.0000 8.6799 0.0000 0.0000
# 5 0.0000 0.0000 0.0000 0.0000 17.0136 0.0000
# 6 0.0000 0.0000 0.0000 0.0000 0.0000 9.7035
#
#
#
# Elastic Compliance Matrix: (Units=1/GPa)
#
#
# Indices 1 2 3 4 5 6 
#
# 1 0.053077 -0.002151 -0.012371 0.000000 0.000000 0.000000
# 2 -0.002151 0.009015 -0.004301 0.000000 0.000000 0.000000
# 3 -0.012371 -0.004301 0.021315 0.000000 0.000000 0.000000
# 4 0.000000 0.000000 0.000000 0.115208 0.000000 0.000000
# 5 0.000000 0.000000 0.000000 0.000000 0.058776 0.000000
# 6 0.000000 0.000000 0.000000 0.000000 0.000000 0.103055
#
#
# Mechanical properties :
#
#
# Convention : Reuss Voigt Hill
#
# Bulk Modulus (GPa) = 21.85259 38.10049 29.97654
# Shear Modulus (GPa) = 12.09636 17.29778 14.69707
#
# Velocity S-wave (km/s) = 2.53152 3.02725 2.79042
# Velocity P-wave (km/s) = 4.48577 5.69249 5.12477
#
# Compressibility (1/GPa) = 0.04576117
#
# Stress axis : x y z
#
# Youngs Moduli (GPa) = 18.84046 110.92832 46.91441
#
# Poissons Ratio (x) = 0.23863 0.58040
# Poissons Ratio (y) = 0.04053 0.20176
# Poissons Ratio (z) = 0.23308 0.47706
#
# Static dielectric constant tensor:
#      x y z
#    x 1.675710 0.000000 0.000000 
#    y 0.000000 1.749120 0.000000 
#    z 0.000000 0.000000 1.731460 
# 
# From -- ./inp_files/17551.got.cif
#   From: 2010.05.17/outbox.cif.g08.bks.cpg/sg60_9_cif.got.tgz:17551.got - 2010.06.03 14:59:27.
