data_PCOD9453048
_publ_section_title
;
Structure prediction by ZEFSAII (Michael W. Deem and Ramdas Pophale) SiO2 
 PCOD9453048
Probable space group: P M M N
;
_chemical_formula_sum "Si O2"
_cell_formula_units_Z 32
_cell_length_a 13.825294
_cell_length_b 8.422349
_cell_length_c 13.733768
_cell_angle_alpha 90.000000
_cell_angle_beta 90.000000
_cell_angle_gamma 90.000000
_cell_volume 1599.179875
_symmetry_space_group_name_H-M "P M M N"
_symmetry_group_IT_number 59
_space_group.IT_coordinate_system_code '2'
_symmetry_cell_setting 'orthorhombic'
loop_
_space_group_symop_operation_xyz
x,y,z
1/2-x,1/2-y,z
1/2+x,-y,-z
-x,1/2+y,-z
-x,-y,-z
1/2+x,1/2+y,-z
1/2-x,y,z
x,1/2-y,z
loop_
_atom_site_type_symbol
_atom_site_label
_atom_site_fract_x
_atom_site_fract_y
_atom_site_fract_z
Si Si1 0.464280 0.560493 0.604520
Si Si2 0.750000 0.558068 0.119044
Si Si3 0.750000 0.941634 0.339085
Si Si4 0.139967 0.940045 0.258336
Si Si5 0.400473 0.059538 0.041131
O O1 0.500000 0.500000 0.500000
O O2 0.460510 0.750000 0.606755
O O3 0.354198 0.497692 0.619922
O O4 0.547409 0.506252 0.681945
O O5 0.750000 0.750000 0.127368
O O6 0.750000 0.497710 0.227618
O O7 0.663853 0.510249 0.050202
O O8 0.750000 0.750000 0.343384
O O9 0.250000 0.992722 0.288953
O O10 0.137256 0.750000 0.268151
O O11 0.127531 0.985979 0.144840
O O12 0.395183 0.250000 0.052298
O O13 0.500000 0.000000 0.000000
#
# Coordination Sequence:
#
# PCOD9453048 Si02
#       5
#     8   4   4   8   8
#     4  12  27  47  72 101 134 177 227 282 344 409
#     4   9  20  37  60  89 128 171 211 258 318 385
#     4  11  23  45  72 101 138 177 223 280 340 405
#     4  11  24  43  67  99 138 179 228 284 340 402
#     4  11  21  37  61  93 132 176 223 269 326 395
#
# _framework density 20.010255999999998
#
# number of rings (size 3 to 8) (size 9 to 14) (size 15 to 20)
#    0.000    1.000    1.250    5.625    1.750    3.500 
#    0.000    3.750    0.000    0.000    0.000    0.000 
#    0.000    0.000    0.000    0.000    0.000    0.000 
#
# Total GULP energy -178504.943748 kJ/mol
# GULP energy per Si atom -5578.279492 kJ/mol
# Density = 1.996471 g / cm^3
# Si number density = 20.010256 Si / 1000 Ang^3
#
#
#
# Elastic Constant Matrix: (Units=GPa)
#
#
# Indices 1 2 3 4 5 6 
#
# 1 239.6577 62.1823 98.3915 0.0000 0.0000 0.0000
# 2 62.1823 100.5107 35.2940 0.0000 0.0000 0.0000
# 3 98.3915 35.2940 149.4162 0.0000 0.0000 0.0000
# 4 0.0000 0.0000 0.0000 34.2872 0.0000 0.0000
# 5 0.0000 0.0000 0.0000 0.0000 28.9496 0.0000
# 6 0.0000 0.0000 0.0000 0.0000 0.0000 30.1427
#
#
#
# Elastic Compliance Matrix: (Units=1/GPa)
#
#
# Indices 1 2 3 4 5 6 
#
# 1 0.006313 -0.002667 -0.003527 0.000000 0.000000 0.000000
# 2 -0.002667 0.011976 -0.001073 0.000000 0.000000 0.000000
# 3 -0.003527 -0.001073 0.009269 0.000000 0.000000 0.000000
# 4 0.000000 0.000000 0.000000 0.029165 0.000000 0.000000
# 5 0.000000 0.000000 0.000000 0.000000 0.034543 0.000000
# 6 0.000000 0.000000 0.000000 0.000000 0.000000 0.033175
#
#
# Mechanical properties :
#
#
# Convention : Reuss Voigt Hill
#
# Bulk Modulus (GPa) = 76.78142 97.92445 87.35294
# Shear Modulus (GPa) = 34.88823 38.25702 36.57263
#
# Velocity S-wave (km/s) = 4.18007 4.37724 4.27979
# Velocity P-wave (km/s) = 7.85822 8.63657 8.25657
#
# Compressibility (1/GPa) = 0.01302398
#
# Stress axis : x y z
#
# Youngs Moduli (GPa) = 158.41475 83.50205 107.89147
#
# Poissons Ratio (x) = 0.22269 0.38052
# Poissons Ratio (y) = 0.42247 0.11573
# Poissons Ratio (z) = 0.55871 0.08957
#
# Static dielectric constant tensor:
#      x y z
#    x 1.712060 0.000000 0.000000 
#    y 0.000000 1.691380 0.000000 
#    z 0.000000 0.000000 1.681690 
# 
# From -- ./inp_files/22069.got.cif
#   From: 2010.05.17/outbox.cif.g08.bks.cpg/sg59_12_cif.got.tgz:22069.got - 2010.06.03 14:40:33.
