data_PCOD9453168
_publ_section_title
;
Structure prediction by ZEFSAII (Michael W. Deem and Ramdas Pophale) SiO2 
 PCOD9453168
Probable space group: P M M N
;
_chemical_formula_sum "Si O2"
_cell_formula_units_Z 64
_cell_length_a 18.028099
_cell_length_b 14.579866
_cell_length_c 12.720686
_cell_angle_alpha 90.000000
_cell_angle_beta 90.000000
_cell_angle_gamma 90.000000
_cell_volume 3343.597558
_symmetry_space_group_name_H-M "P M M N"
_symmetry_group_IT_number 59
_space_group.IT_coordinate_system_code '2'
_symmetry_cell_setting 'orthorhombic'
loop_
_space_group_symop_operation_xyz
x,y,z
1/2-x,1/2-y,z
1/2+x,-y,-z
-x,1/2+y,-z
-x,-y,-z
1/2+x,1/2+y,-z
1/2-x,y,z
x,1/2-y,z
loop_
_atom_site_type_symbol
_atom_site_label
_atom_site_fract_x
_atom_site_fract_y
_atom_site_fract_z
Si Si1 0.616015 0.639943 0.879679
Si Si2 0.394848 0.139021 0.885475
Si Si3 0.335909 0.981815 0.262429
Si Si4 0.931228 0.360600 0.893168
Si Si5 0.336098 0.639967 0.684181
Si Si6 0.339845 0.993882 0.500685
Si Si7 0.558977 0.360900 0.126948
Si Si8 0.161095 0.354279 0.660926
O O1 0.625751 0.750000 0.868664
O O2 0.658453 0.580346 0.794427
O O3 0.528259 0.617757 0.865343
O O4 0.635587 0.612144 0.999871
O O5 0.389720 0.250000 0.886724
O O6 0.481874 0.116047 0.880368
O O7 0.357256 0.109155 0.777472
O O8 0.250000 0.952965 0.265889
O O9 0.382438 0.911843 0.191891
O O10 0.366074 0.987727 0.381322
O O11 0.924032 0.250000 0.885094
O O12 0.911972 0.390087 0.012499
O O13 0.250000 0.615753 0.707882
O O14 0.340415 0.750000 0.676659
O O15 0.356034 0.593496 0.573709
O O16 0.390869 0.608021 0.776511
O O17 0.250000 0.001464 0.494349
O O18 0.367163 0.080799 0.568099
O O19 0.562311 0.250000 0.126024
O O20 0.250000 0.351235 0.653068
O O21 0.132658 0.250000 0.651535
#
# Coordination Sequence:
#
# PCOD9453168 Si02
#       8
#     8   8   8   8   8   8   8   8
#     4   9  19  36  55  76 107 140 164 201 257 308
#     4   8  16  33  56  81 106 133 167 202 250 317
#     4  11  24  37  51  75 101 134 183 216 242 302
#     4   9  19  36  55  76 107 140 164 201 257 308
#     4   9  17  31  53  77 100 129 167 214 259 296
#     4   9  20  36  49  68 100 135 174 213 252 303
#     4   8  16  33  56  81 106 133 167 202 250 317
#     4   9  17  31  53  77 100 129 167 214 259 296
#
# _framework density 19.14106
#
# number of rings (size 3 to 8) (size 9 to 14) (size 15 to 20)
#    0.000    3.000    0.000    1.500    0.000    6.500 
#    0.000    8.750    0.000    4.500    0.000    0.000 
#    0.000    0.000    0.000    0.000    0.000    0.000 
#
# Total GULP energy -356885.002593 kJ/mol
# GULP energy per Si atom -5576.328166 kJ/mol
# Density = 1.909749 g / cm^3
# Si number density = 19.141060 Si / 1000 Ang^3
#
#
#
# Elastic Constant Matrix: (Units=GPa)
#
#
# Indices 1 2 3 4 5 6 
#
# 1 13.6189 2.5328 27.6441 0.0000 0.0000 0.0000
# 2 2.5328 42.3633 14.3662 0.0000 0.0000 0.0000
# 3 27.6441 14.3662 144.0912 0.0000 0.0000 0.0000
# 4 0.0000 0.0000 0.0000 31.1532 0.0000 0.0000
# 5 0.0000 0.0000 0.0000 0.0000 59.2288 0.0000
# 6 0.0000 0.0000 0.0000 0.0000 0.0000 29.6146
#
#
#
# Elastic Compliance Matrix: (Units=1/GPa)
#
#
# Indices 1 2 3 4 5 6 
#
# 1 0.120278 0.000656 -0.023141 0.000000 0.000000 0.000000
# 2 0.000656 0.024435 -0.002562 0.000000 0.000000 0.000000
# 3 -0.023141 -0.002562 0.011635 0.000000 0.000000 0.000000
# 4 0.000000 0.000000 0.000000 0.032099 0.000000 0.000000
# 5 0.000000 0.000000 0.000000 0.000000 0.016884 0.000000
# 6 0.000000 0.000000 0.000000 0.000000 0.000000 0.033767
#
#
# Mechanical properties :
#
#
# Convention : Reuss Voigt Hill
#
# Bulk Modulus (GPa) = 9.41134 32.12883 20.77009
# Shear Modulus (GPa) = 15.40310 34.36800 24.88555
#
# Velocity S-wave (km/s) = 2.83983 4.24194 3.60962
# Velocity P-wave (km/s) = 3.95984 6.38857 5.31480
#
# Compressibility (1/GPa) = 0.10625475
#
# Stress axis : x y z
#
# Youngs Moduli (GPa) = 8.31407 40.92493 85.94655
#
# Poissons Ratio (x) = -0.02687 1.98889
# Poissons Ratio (y) = -0.00546 0.22021
# Poissons Ratio (z) = 0.19240 0.10486
#
# Static dielectric constant tensor:
#      x y z
#    x 1.653920 0.000000 0.000000 
#    y 0.000000 1.709250 0.000000 
#    z 0.000000 0.000000 1.658080 
# 
# From -- ./inp_files/17852.got.cif
#   From: 2010.05.17/outbox.cif.g08.bks.cpg/sg59_9_cif.got.tgz:17852.got - 2010.06.03 14:40:33.
