data_PCOD9453398
_publ_section_title
;
Structure prediction by ZEFSAII (Michael W. Deem and Ramdas Pophale) SiO2 
 PCOD9453398
Probable space group: P M M N
;
_chemical_formula_sum "Si O2"
_cell_formula_units_Z 56
_cell_length_a 21.000000
_cell_length_b 9.000000
_cell_length_c 15.000000
_cell_angle_alpha 90.000000
_cell_angle_beta 90.000000
_cell_angle_gamma 90.000000
_cell_volume 2835.000000
_symmetry_space_group_name_H-M "P M M N"
_symmetry_group_IT_number 59
_space_group.IT_coordinate_system_code '2'
_symmetry_cell_setting 'orthorhombic'
loop_
_space_group_symop_operation_xyz
x,y,z
1/2-x,1/2-y,z
1/2+x,-y,-z
-x,1/2+y,-z
-x,-y,-z
1/2+x,1/2+y,-z
1/2-x,y,z
x,1/2-y,z
loop_
_atom_site_type_symbol
_atom_site_label
_atom_site_fract_x
_atom_site_fract_y
_atom_site_fract_z
Si Si1 0.679452 0.430163 0.993246
Si Si2 0.086684 0.427657 0.651274
Si Si3 0.823921 0.427590 0.201706
Si Si4 0.181131 0.923862 0.308750
Si Si5 0.679771 0.422198 0.476976
Si Si6 0.544399 0.071643 0.926562
Si Si7 0.958156 0.430422 0.727718
O O1 0.750000 0.483744 0.966224
O O2 0.681584 0.250000 0.988147
O O3 0.668598 0.467305 0.097407
O O4 0.617831 0.478321 0.938410
O O5 0.086989 0.250000 0.652953
O O6 0.128009 0.488442 0.734087
O O7 0.122779 0.486782 0.564776
O O8 0.013617 0.480236 0.661395
O O9 0.750000 0.457861 0.225263
O O10 0.833657 0.250000 0.209581
O O11 0.250000 0.987570 0.280535
O O12 0.181595 0.750000 0.279229
O O13 0.179526 0.924045 0.416212
O O14 0.113454 0.990193 0.281654
O O15 0.750000 0.476326 0.447921
O O16 0.674116 0.250000 0.448563
O O17 0.543620 0.250000 0.936886
O O18 0.520286 0.036437 0.827972
O O19 0.500000 0.000000 0.000000
O O20 0.953471 0.250000 0.718449
#
# Coordination Sequence:
#
# PCOD9453398 Si02
#       7
#     8   8   8   8   8   8   8
#     4   8  15  28  47  71  93 116 155 204 244 276
#     4  11  21  30  43  68 103 133 156 189 234 285
#     4   9  17  30  47  66  92 126 163 202 237 273
#     4   8  15  31  54  75  95 122 158 200 244 287
#     4   9  18  33  53  74  94 121 160 201 236 276
#     4  10  19  32  51  72  98 130 160 195 238 284
#     4   9  19  32  46  71 102 127 155 196 242 282
#
# _framework density 19.753086
#
# number of rings (size 3 to 8) (size 9 to 14) (size 15 to 20)
#    0.000    2.857    0.000    3.429    0.000    3.429 
#    0.000    3.571    0.000    3.000    0.000    0.000 
#    0.000    0.000    0.000    0.000    0.000    0.000 
#
# Total GULP energy -312121.508384 kJ/mol
# GULP energy per Si atom -5573.598364 kJ/mol
# Density = 1.970813 g / cm^3
# Si number density = 19.753086 Si / 1000 Ang^3
#
#
#
# Elastic Constant Matrix: (Units=GPa)
#
#
# Indices 1 2 3 4 5 6 
#
# 1 119.0540 19.2835 19.0163 0.0000 0.0000 0.0000
# 2 19.2835 10.7093 6.1851 0.0000 0.0000 0.0000
# 3 19.0163 6.1851 23.2001 0.0000 0.0000 0.0000
# 4 0.0000 0.0000 0.0000 13.8901 0.0000 0.0000
# 5 0.0000 0.0000 0.0000 0.0000 32.7441 0.0000
# 6 0.0000 0.0000 0.0000 0.0000 0.0000 16.4987
#
#
#
# Elastic Compliance Matrix: (Units=1/GPa)
#
#
# Indices 1 2 3 4 5 6 
#
# 1 0.012320 -0.019327 -0.004946 0.000000 0.000000 0.000000
# 2 -0.019327 0.140691 -0.021666 0.000000 0.000000 0.000000
# 3 -0.004946 -0.021666 0.052933 0.000000 0.000000 0.000000
# 4 0.000000 0.000000 0.000000 0.071994 0.000000 0.000000
# 5 0.000000 0.000000 0.000000 0.000000 0.030540 0.000000
# 6 0.000000 0.000000 0.000000 0.000000 0.000000 0.060611
#
#
# Mechanical properties :
#
#
# Convention : Reuss Voigt Hill
#
# Bulk Modulus (GPa) = 8.76685 26.88147 17.82416
# Shear Modulus (GPa) = 10.02027 19.85849 14.93938
#
# Velocity S-wave (km/s) = 2.25472 3.17414 2.75309
# Velocity P-wave (km/s) = 3.35056 5.20306 4.37596
#
# Compressibility (1/GPa) = 0.11406607
#
# Stress axis : x y z
#
# Youngs Moduli (GPa) = 81.16862 7.10778 18.89179
#
# Poissons Ratio (x) = 0.13738 0.09343
# Poissons Ratio (y) = 1.56878 0.40931
# Poissons Ratio (z) = 0.40143 0.15400
#
# Static dielectric constant tensor:
#      x y z
#    x 1.748010 0.000000 0.000000 
#    y 0.000000 1.659500 0.000000 
#    z 0.000000 0.000000 1.710290 
# 
# From -- ./inp_files/24194.got.cif
#   From: 2010.05.17/outbox.ucp.g08.bks.cvg/sg59_13_cif.got.tgz:24194.got - 2010.06.11 16:43:56.
