data_PCOD9453840
_publ_section_title
;
Structure prediction by ZEFSAII (Michael W. Deem and Ramdas Pophale) SiO2 
 PCOD9453840
Probable space group: P B C N
;
_chemical_formula_sum "Si O2"
_cell_formula_units_Z 40
_cell_length_a 7.991921
_cell_length_b 24.595614
_cell_length_c 8.805799
_cell_angle_alpha 90.000000
_cell_angle_beta 90.000000
_cell_angle_gamma 90.000000
_cell_volume 1730.922483
_symmetry_space_group_name_H-M "P B C N"
_symmetry_group_IT_number 60
_symmetry_cell_setting 'orthorhombic'
loop_
_space_group_symop_operation_xyz
x,y,z
1/2-x,1/2-y,1/2+z
1/2+x,1/2-y,-z
-x,y,1/2-z
-x,-y,-z
1/2+x,1/2+y,1/2-z
1/2-x,1/2+y,z
x,-y,1/2+z
loop_
_atom_site_type_symbol
_atom_site_label
_atom_site_fract_x
_atom_site_fract_y
_atom_site_fract_z
Si Si1 0.571285 0.679679 0.588697
Si Si2 0.321601 0.970373 0.055144
Si Si3 0.062452 0.729532 0.919450
Si Si4 0.260048 0.569293 0.896629
Si Si5 0.043830 0.372120 0.925722
O O1 0.500000 0.697743 0.750000
O O2 0.455768 0.707602 0.463414
O O3 0.751200 0.707332 0.563361
O O4 0.597304 0.615090 0.598480
O O5 0.293987 0.953875 0.230767
O O6 0.308133 0.913916 0.963845
O O7 0.500000 0.000000 0.000000
O O8 0.199457 0.017996 0.002134
O O9 0.000000 0.720685 0.750000
O O10 0.949333 0.690257 0.025455
O O11 0.102410 0.602424 0.967339
O O12 0.000000 0.376629 0.750000
#
# Coordination Sequence:
#
# PCOD9453840 Si02
#       5
#     8   8   8   8   8
#     4  11  24  45  68  98 136 178 228 290 356 421
#     4  10  17  33  59  92 136 183 232 275 326 400
#     4  11  23  41  67  99 135 180 231 288 348 412
#     4  10  21  36  59  94 132 176 225 281 333 390
#     4  10  18  31  57  93 131 173 228 280 327 387
#
# _framework density 23.109064
#
# number of rings (size 3 to 8) (size 9 to 14) (size 15 to 20)
#    0.000    1.600    0.000    9.000    0.000    1.600 
#    0.000    3.000    0.000    0.000    0.000    0.000 
#    0.000    0.000    0.000    0.000    0.000    0.000 
#
# Total GULP energy -223175.111841 kJ/mol
# GULP energy per Si atom -5579.377796 kJ/mol
# Density = 2.305647 g / cm^3
# Si number density = 23.109064 Si / 1000 Ang^3
#
#
#
# Elastic Constant Matrix: (Units=GPa)
#
#
# Indices 1 2 3 4 5 6 
#
# 1 62.9520 42.5607 8.0947 0.0000 0.0000 0.0000
# 2 42.5607 179.9216 74.5542 0.0000 0.0000 0.0000
# 3 8.0947 74.5542 162.5424 0.0000 0.0000 0.0000
# 4 0.0000 0.0000 0.0000 -37.6275 0.0000 0.0000
# 5 0.0000 0.0000 0.0000 0.0000 16.9968 0.0000
# 6 0.0000 0.0000 0.0000 0.0000 0.0000 36.0008
#
#
#
# Elastic Compliance Matrix: (Units=1/GPa)
#
#
# Indices 1 2 3 4 5 6 
#
# 1 0.019160 -0.005108 0.001389 0.000000 0.000000 0.000000
# 2 -0.005108 0.008224 -0.003518 0.000000 0.000000 0.000000
# 3 0.001389 -0.003518 0.007697 0.000000 0.000000 0.000000
# 4 0.000000 0.000000 0.000000 -0.026576 0.000000 0.000000
# 5 0.000000 0.000000 0.000000 0.000000 0.058835 0.000000
# 6 0.000000 0.000000 0.000000 0.000000 0.000000 0.027777
#
#
# Mechanical properties :
#
#
# Convention : Reuss Voigt Hill
#
# Bulk Modulus (GPa) = 48.52810 72.87058 60.69934
# Shear Modulus (GPa) = 42.93387 21.75444 32.34416
#
# Velocity S-wave (km/s) = 4.31499 3.07152 3.74522
# Velocity P-wave (km/s) = 6.77279 6.64686 6.71012
#
# Compressibility (1/GPa) = 0.02060662
#
# Stress axis : x y z
#
# Youngs Moduli (GPa) = 52.19276 121.59787 129.92797
#
# Poissons Ratio (x) = 0.62108 -0.18042
# Poissons Ratio (y) = 0.26658 0.45705
# Poissons Ratio (z) = -0.07247 0.42775
#
# Static dielectric constant tensor:
#      x y z
#    x 1.930110 0.000000 0.000000 
#    y 0.000000 1.949320 0.000000 
#    z 0.000000 0.000000 1.833840 
# 
# From -- ./inp_files/4032.got.cif
#   From: 2010.05.17/outbox.cif.g08.bks.cpg/sg60_3_cif.got.tgz:4032.got - 2010.06.03 14:59:27.
