data_PCOD9453636
_publ_section_title
;
Structure prediction by ZEFSAII (Michael W. Deem and Ramdas Pophale) SiO2 
 PCOD9453636
Probable space group: P M M N
;
_chemical_formula_sum "Si O2"
_cell_formula_units_Z 56
_cell_length_a 21.000000
_cell_length_b 9.000000
_cell_length_c 15.000000
_cell_angle_alpha 90.000000
_cell_angle_beta 90.000000
_cell_angle_gamma 90.000000
_cell_volume 2835.000000
_symmetry_space_group_name_H-M "P M M N"
_symmetry_group_IT_number 59
_space_group.IT_coordinate_system_code '2'
_symmetry_cell_setting 'orthorhombic'
loop_
_space_group_symop_operation_xyz
x,y,z
1/2-x,1/2-y,z
1/2+x,-y,-z
-x,1/2+y,-z
-x,-y,-z
1/2+x,1/2+y,-z
1/2-x,y,z
x,1/2-y,z
loop_
_atom_site_type_symbol
_atom_site_label
_atom_site_fract_x
_atom_site_fract_y
_atom_site_fract_z
Si Si1 0.071124 0.572681 0.503567
Si Si2 0.450168 0.080583 0.060856
Si Si3 0.928504 0.572729 0.317357
Si Si4 0.942312 0.578881 0.733805
Si Si5 0.178278 0.572234 0.802338
Si Si6 0.682514 0.570713 0.003268
Si Si7 0.326259 0.571983 0.344691
O O1 0.062267 0.750000 0.507693
O O2 0.097904 0.503385 0.593855
O O3 0.126273 0.544219 0.429794
O O4 0.000000 0.500000 0.500000
O O5 0.449919 0.250000 0.030156
O O6 0.464656 0.078581 0.164285
O O7 0.379085 0.021320 0.049470
O O8 0.500000 0.000000 0.000000
O O9 0.926932 0.750000 0.319905
O O10 0.881345 0.509841 0.242279
O O11 0.002382 0.520512 0.310125
O O12 0.943777 0.750000 0.700434
O O13 0.870355 0.515920 0.726489
O O14 0.250000 0.541328 0.764336
O O15 0.168851 0.750000 0.799545
O O16 0.180466 0.511894 0.902777
O O17 0.750000 0.536898 0.958218
O O18 0.680674 0.750000 0.016767
O O19 0.250000 0.531311 0.352060
O O20 0.327554 0.750000 0.328619
#
# Coordination Sequence:
#
# PCOD9453636 Si02
#       7
#     8   8   8   8   8   8   8
#     4  11  22  39  64  91 121 158 199 246 298 355
#     4  10  22  37  56  85 117 152 196 248 301 354
#     4  12  24  38  60  88 120 158 200 245 297 358
#     4  11  23  39  61  89 121 158 202 251 302 357
#     4  10  21  37  57  84 118 153 194 247 303 357
#     4   9  18  35  57  79 109 150 193 238 294 358
#     4  10  23  43  65  91 124 161 201 246 301 363
#
# _framework density 19.753086
#
# number of rings (size 3 to 8) (size 9 to 14) (size 15 to 20)
#    0.000    1.571    1.429    3.429    0.000    6.857 
#    0.000    2.857    0.000    1.714    0.000    0.000 
#    0.000    0.000    0.000    0.000    0.000    0.000 
#
# Total GULP energy -311932.817103 kJ/mol
# GULP energy per Si atom -5570.228877 kJ/mol
# Density = 1.970813 g / cm^3
# Si number density = 19.753086 Si / 1000 Ang^3
#
#
#
# Elastic Constant Matrix: (Units=GPa)
#
#
# Indices 1 2 3 4 5 6 
#
# 1 124.2482 41.4217 26.8582 0.0000 0.0000 0.0000
# 2 41.4217 55.7648 14.2483 0.0000 0.0000 0.0000
# 3 26.8582 14.2483 29.8421 0.0000 0.0000 0.0000
# 4 0.0000 0.0000 0.0000 19.4034 0.0000 0.0000
# 5 0.0000 0.0000 0.0000 0.0000 26.2258 0.0000
# 6 0.0000 0.0000 0.0000 0.0000 0.0000 35.8214
#
#
#
# Elastic Compliance Matrix: (Units=1/GPa)
#
#
# Indices 1 2 3 4 5 6 
#
# 1 0.011994 -0.007006 -0.007450 0.000000 0.000000 0.000000
# 2 -0.007006 0.024516 -0.005400 0.000000 0.000000 0.000000
# 3 -0.007450 -0.005400 0.042793 0.000000 0.000000 0.000000
# 4 0.000000 0.000000 0.000000 0.051537 0.000000 0.000000
# 5 0.000000 0.000000 0.000000 0.000000 0.038130 0.000000
# 6 0.000000 0.000000 0.000000 0.000000 0.000000 0.027916
#
#
# Mechanical properties :
#
#
# Convention : Reuss Voigt Hill
#
# Bulk Modulus (GPa) = 25.25782 41.65685 33.45734
# Shear Modulus (GPa) = 20.01625 24.77858 22.39742
#
# Velocity S-wave (km/s) = 3.18673 3.54562 3.37095
# Velocity P-wave (km/s) = 5.13370 6.15601 5.66795
#
# Compressibility (1/GPa) = 0.03959169
#
# Stress axis : x y z
#
# Youngs Moduli (GPa) = 83.37168 40.78956 23.36822
#
# Poissons Ratio (x) = 0.28577 0.17410
# Poissons Ratio (y) = 0.58409 0.12619
# Poissons Ratio (z) = 0.62113 0.22026
#
# Static dielectric constant tensor:
#      x y z
#    x 1.723330 0.000000 0.000000 
#    y 0.000000 1.637160 0.000000 
#    z 0.000000 0.000000 1.700390 
# 
# From -- ./inp_files/24236.got.cif
#   From: 2010.05.17/outbox.ucp.g08.bks.cvg/sg59_13_cif.got.tgz:24236.got - 2010.06.11 16:43:56.
