data_PCOD9453343
_publ_section_title
;
Structure prediction by ZEFSAII (Michael W. Deem and Ramdas Pophale) SiO2 
 PCOD9453343
Probable space group: P M M N
;
_chemical_formula_sum "Si O2"
_cell_formula_units_Z 48
_cell_length_a 18.000000
_cell_length_b 9.000000
_cell_length_c 15.000000
_cell_angle_alpha 90.000000
_cell_angle_beta 90.000000
_cell_angle_gamma 90.000000
_cell_volume 2430.000000
_symmetry_space_group_name_H-M "P M M N"
_symmetry_group_IT_number 59
_space_group.IT_coordinate_system_code '2'
_symmetry_cell_setting 'orthorhombic'
loop_
_space_group_symop_operation_xyz
x,y,z
1/2-x,1/2-y,z
1/2+x,-y,-z
-x,1/2+y,-z
-x,-y,-z
1/2+x,1/2+y,-z
1/2-x,y,z
x,1/2-y,z
loop_
_atom_site_type_symbol
_atom_site_label
_atom_site_fract_x
_atom_site_fract_y
_atom_site_fract_z
Si Si1 0.250000 0.069728 0.771137
Si Si2 0.971229 0.069559 0.668642
Si Si3 0.515418 0.581685 0.138702
Si Si4 0.135078 0.071049 0.621437
Si Si5 0.750000 0.923871 0.025117
Si Si6 0.887759 0.085798 0.008873
Si Si7 0.329568 0.928654 0.436838
O O1 0.250000 0.250000 0.775412
O O2 0.178741 0.027176 0.711212
O O3 0.250000 0.015668 0.872649
O O4 0.967140 0.250000 0.668015
O O5 0.978803 0.025875 0.771236
O O6 0.899174 0.012853 0.618701
O O7 0.048911 0.027546 0.624460
O O8 0.545093 0.750000 0.153579
O O9 0.578825 0.478868 0.099610
O O10 0.453032 0.589751 0.063023
O O11 0.140430 0.250000 0.614850
O O12 0.168661 0.997004 0.534694
O O13 0.750000 0.750000 0.030656
O O14 0.823055 0.979904 0.977448
O O15 0.858018 0.250000 0.021385
O O16 0.250000 0.962546 0.393881
O O17 0.335553 0.750000 0.444241
#
# Coordination Sequence:
#
# PCOD9453343 Si02
#       7
#     4   8   8   8   4   8   8
#     4   9  18  31  51  76  97 130 174 215 257 309
#     4   9  18  33  54  78  99 133 183 219 246 307
#     4   9  18  36  58  77 102 141 181 217 263 319
#     4  10  18  32  54  75  99 129 172 219 258 307
#     4  11  21  35  55  78 107 146 182 213 259 321
#     4  10  20  34  54  82 112 137 171 223 274 316
#     4  10  20  34  50  73 106 138 170 213 264 310
#
# _framework density 19.753086
#
# number of rings (size 3 to 8) (size 9 to 14) (size 15 to 20)
#    0.000    2.333    0.833    2.250    0.000    3.333 
#    1.500    5.000    0.000    0.000    0.000    0.000 
#    0.000    0.000    0.000    0.000    0.000    0.000 
#
# Total GULP energy -267521.697214 kJ/mol
# GULP energy per Si atom -5573.368692 kJ/mol
# Density = 1.970813 g / cm^3
# Si number density = 19.753086 Si / 1000 Ang^3
#
#
#
# Elastic Constant Matrix: (Units=GPa)
#
#
# Indices 1 2 3 4 5 6 
#
# 1 105.6405 33.9053 20.7458 0.0000 0.0000 0.0000
# 2 33.9053 25.6495 9.1025 0.0000 0.0000 0.0000
# 3 20.7458 9.1025 38.6168 0.0000 0.0000 0.0000
# 4 0.0000 0.0000 0.0000 14.2164 0.0000 0.0000
# 5 0.0000 0.0000 0.0000 0.0000 82.3347 0.0000
# 6 0.0000 0.0000 0.0000 0.0000 0.0000 41.2787
#
#
#
# Elastic Compliance Matrix: (Units=1/GPa)
#
#
# Indices 1 2 3 4 5 6 
#
# 1 0.017043 -0.021039 -0.004197 0.000000 0.000000 0.000000
# 2 -0.021039 0.068518 -0.004848 0.000000 0.000000 0.000000
# 3 -0.004197 -0.004848 0.029293 0.000000 0.000000 0.000000
# 4 0.000000 0.000000 0.000000 0.070341 0.000000 0.000000
# 5 0.000000 0.000000 0.000000 0.000000 0.012146 0.000000
# 6 0.000000 0.000000 0.000000 0.000000 0.000000 0.024226
#
#
# Mechanical properties :
#
#
# Convention : Reuss Voigt Hill
#
# Bulk Modulus (GPa) = 18.28600 33.04597 25.66598
# Shear Modulus (GPa) = 16.66879 34.64285 25.65582
#
# Velocity S-wave (km/s) = 2.90807 4.19238 3.60783
# Velocity P-wave (km/s) = 4.53357 6.34039 5.51152
#
# Compressibility (1/GPa) = 0.05468666
#
# Stress axis : x y z
#
# Youngs Moduli (GPa) = 58.67645 14.59462 34.13825
#
# Poissons Ratio (x) = 0.30705 0.14326
# Poissons Ratio (y) = 1.23449 0.16551
# Poissons Ratio (z) = 0.24624 0.07076
#
# Static dielectric constant tensor:
#      x y z
#    x 1.834650 0.000000 0.000000 
#    y 0.000000 1.673350 0.000000 
#    z 0.000000 0.000000 1.674640 
# 
# From -- ./inp_files/23690.got.cif
#   From: 2010.05.17/outbox.ucp.g08.bks.cvg/sg59_12_cif.got.tgz:23690.got - 2010.06.11 16:43:56.
