data_PCOD9453365
_publ_section_title
;
Structure prediction by ZEFSAII (Michael W. Deem and Ramdas Pophale) SiO2 
 PCOD9453365
Probable space group: P M M N
;
_chemical_formula_sum "Si O2"
_cell_formula_units_Z 64
_cell_length_a 21.000000
_cell_length_b 9.000000
_cell_length_c 18.000000
_cell_angle_alpha 90.000000
_cell_angle_beta 90.000000
_cell_angle_gamma 90.000000
_cell_volume 3402.000000
_symmetry_space_group_name_H-M "P M M N"
_symmetry_group_IT_number 59
_space_group.IT_coordinate_system_code '2'
_symmetry_cell_setting 'orthorhombic'
loop_
_space_group_symop_operation_xyz
x,y,z
1/2-x,1/2-y,z
1/2+x,-y,-z
-x,1/2+y,-z
-x,-y,-z
1/2+x,1/2+y,-z
1/2-x,y,z
x,1/2-y,z
loop_
_atom_site_type_symbol
_atom_site_label
_atom_site_fract_x
_atom_site_fract_y
_atom_site_fract_z
Si Si1 0.918854 0.574354 0.617578
Si Si2 0.821198 0.071986 0.508747
Si Si3 0.320817 0.929509 0.667361
Si Si4 0.987888 0.428477 0.121494
Si Si5 0.824505 0.923011 0.756149
Si Si6 0.908453 0.574981 0.002987
Si Si7 0.961940 0.431782 0.288403
Si Si8 0.674542 0.414118 0.904324
O O1 0.924142 0.750000 0.601119
O O2 0.881618 0.495725 0.550796
O O3 0.870297 0.556493 0.686712
O O4 0.988097 0.521432 0.647160
O O5 0.750000 0.020727 0.534834
O O6 0.822731 0.250000 0.518079
O O7 0.824504 0.040410 0.420905
O O8 0.250000 0.982515 0.693188
O O9 0.320109 0.750000 0.676237
O O10 0.388347 0.980862 0.701665
O O11 0.986944 0.250000 0.122119
O O12 0.927292 0.491909 0.077816
O O13 0.988227 0.477000 0.207112
O O14 0.045021 0.472844 0.065736
O O15 0.750000 0.953030 0.738328
O O16 0.828848 0.750000 0.779321
O O17 0.846185 0.021923 0.824951
O O18 0.914661 0.750000 0.012952
O O19 0.841730 0.524267 0.970757
O O20 0.962348 0.250000 0.290181
O O21 0.750000 0.404062 0.898222
O O22 0.647778 0.250000 0.918765
#
# Coordination Sequence:
#
# PCOD9453365 Si02
#       8
#     8   8   8   8   8   8   8   8
#     4  10  19  30  47  73 102 130 162 203 248 292
#     4   9  18  32  49  70  98 132 168 202 237 285
#     4   8  15  30  51  72  95 127 165 202 245 298
#     4   9  18  33  52  73  96 123 159 203 246 291
#     4   9  17  29  44  63  92 130 165 195 236 295
#     4  10  19  32  51  72  97 130 162 194 242 300
#     4   9  17  30  49  72  98 127 162 207 253 293
#     4  10  20  32  47  69  96 126 163 205 242 280
#
# _framework density 18.812463000000001
#
# number of rings (size 3 to 8) (size 9 to 14) (size 15 to 20)
#    0.000    2.750    0.000    2.625    0.000    5.000 
#    0.000    2.500    0.000    3.000    0.000    0.000 
#    0.000    0.000    0.000    0.000    0.000    0.000 
#
# Total GULP energy -356417.485667 kJ/mol
# GULP energy per Si atom -5569.023214 kJ/mol
# Density = 1.876965 g / cm^3
# Si number density = 18.812463 Si / 1000 Ang^3
#
#
#
# Elastic Constant Matrix: (Units=GPa)
#
#
# Indices 1 2 3 4 5 6 
#
# 1 79.5204 11.0132 19.7490 0.0000 0.0000 0.0000
# 2 11.0132 -15.0320 9.3994 0.0000 0.0000 0.0000
# 3 19.7490 9.3994 39.8900 0.0000 0.0000 0.0000
# 4 0.0000 0.0000 0.0000 19.3498 0.0000 0.0000
# 5 0.0000 0.0000 0.0000 0.0000 28.6035 0.0000
# 6 0.0000 0.0000 0.0000 0.0000 0.0000 18.1490
#
#
#
# Elastic Compliance Matrix: (Units=1/GPa)
#
#
# Indices 1 2 3 4 5 6 
#
# 1 0.013872 0.005115 -0.008073 0.000000 0.000000 0.000000
# 2 0.005115 -0.056096 0.010685 0.000000 0.000000 0.000000
# 3 -0.008073 0.010685 0.026548 0.000000 0.000000 0.000000
# 4 0.000000 0.000000 0.000000 0.051680 0.000000 0.000000
# 5 0.000000 0.000000 0.000000 0.000000 0.034961 0.000000
# 6 0.000000 0.000000 0.000000 0.000000 0.000000 0.055099
#
#
# Mechanical properties :
#
#
# Convention : Reuss Voigt Hill
#
# Bulk Modulus (GPa) = -4533.29375 20.52239 -2256.38568
# Shear Modulus (GPa) = 45.23411 17.50157 31.36784
#
# Velocity S-wave (km/s) = 4.90886 3.05342 4.08781
# Velocity P-wave (km/s) = 48.81425 4.83361 34.34725
#
# Compressibility (1/GPa) = -0.00022059
#
# Stress axis : x y z
#
# Youngs Moduli (GPa) = 72.08801 -17.82670 37.66771
#
# Poissons Ratio (x) = 0.09119 0.30410
# Poissons Ratio (y) = -0.36874 -0.40250
# Poissons Ratio (z) = 0.58197 0.19049
#
# Static dielectric constant tensor:
#      x y z
#    x 1.726580 0.000000 0.000000 
#    y 0.000000 1.655850 0.000000 
#    z 0.000000 0.000000 1.644000 
# 
# From -- ./inp_files/28176.got.cif
#   From: 2010.05.17/outbox.ucp.g08.bks.cvg/sg59_15_cif.got.tgz:28176.got - 2010.06.11 16:43:56.
