data_PCOD9453624
_publ_section_title
;
Structure prediction by ZEFSAII (Michael W. Deem and Ramdas Pophale) SiO2 
 PCOD9453624
Probable space group: P M M N
;
_chemical_formula_sum "Si O2"
_cell_formula_units_Z 56
_cell_length_a 15.000000
_cell_length_b 9.000000
_cell_length_c 21.000000
_cell_angle_alpha 90.000000
_cell_angle_beta 90.000000
_cell_angle_gamma 90.000000
_cell_volume 2835.000000
_symmetry_space_group_name_H-M "P M M N"
_symmetry_group_IT_number 59
_space_group.IT_coordinate_system_code '2'
_symmetry_cell_setting 'orthorhombic'
loop_
_space_group_symop_operation_xyz
x,y,z
1/2-x,1/2-y,z
1/2+x,-y,-z
-x,1/2+y,-z
-x,-y,-z
1/2+x,1/2+y,-z
1/2-x,y,z
x,1/2-y,z
loop_
_atom_site_type_symbol
_atom_site_label
_atom_site_fract_x
_atom_site_fract_y
_atom_site_fract_z
Si Si1 0.511256 0.075609 0.433077
Si Si2 0.541290 0.572397 0.214399
Si Si3 0.848687 0.082288 0.624323
Si Si4 0.645140 0.572190 0.971162
Si Si5 0.047611 0.574791 0.911269
Si Si6 0.852710 0.070591 0.329784
Si Si7 0.344335 0.579047 0.223013
O O1 0.518045 0.250000 0.441125
O O2 0.597438 0.023731 0.394144
O O3 0.500000 0.000000 0.500000
O O4 0.423845 0.032369 0.393647
O O5 0.537766 0.750000 0.222120
O O6 0.580469 0.522579 0.147686
O O7 0.594288 0.501583 0.271998
O O8 0.440050 0.510499 0.211110
O O9 0.750000 0.046719 0.599017
O O10 0.872629 0.250000 0.602773
O O11 0.841969 0.087523 0.700449
O O12 0.750000 0.537031 0.954535
O O13 0.643269 0.750000 0.984690
O O14 0.609994 0.476063 0.030504
O O15 0.558929 0.546863 0.924683
O O16 0.057209 0.750000 0.899649
O O17 0.750000 0.027349 0.329159
O O18 0.858356 0.250000 0.324976
O O19 0.250000 0.509654 0.201732
O O20 0.345587 0.750000 0.198719
#
# Coordination Sequence:
#
# PCOD9453624 Si02
#       7
#     8   8   8   8   8   8   8
#     4  11  23  38  59  85 114 147 190 239 290 345
#     4  11  21  35  59  87 117 151 191 236 282 338
#     4   9  17  33  57  81 108 142 178 220 276 337
#     4   9  19  38  61  83 112 151 196 243 286 331
#     4  10  21  36  56  85 119 153 191 235 288 343
#     4  10  23  43  62  81 111 152 195 239 288 339
#     4   8  15  29  51  79 109 141 176 217 271 334
#
# _framework density 19.753086
#
# number of rings (size 3 to 8) (size 9 to 14) (size 15 to 20)
#    0.000    2.286    1.429    2.143    0.000    3.714 
#    0.000    1.429    0.000    1.286    0.000    0.000 
#    0.000    0.000    0.000    0.000    0.000    0.000 
#
# Total GULP energy -311862.949863 kJ/mol
# GULP energy per Si atom -5568.981248 kJ/mol
# Density = 1.970813 g / cm^3
# Si number density = 19.753086 Si / 1000 Ang^3
#
#
#
# Elastic Constant Matrix: (Units=GPa)
#
#
# Indices 1 2 3 4 5 6 
#
# 1 112.2801 36.8530 48.9606 0.0000 0.0000 0.0000
# 2 36.8530 9.0621 25.6688 0.0000 0.0000 0.0000
# 3 48.9606 25.6688 66.5171 0.0000 0.0000 0.0000
# 4 0.0000 0.0000 0.0000 20.4444 0.0000 0.0000
# 5 0.0000 0.0000 0.0000 0.0000 -12.5374 0.0000
# 6 0.0000 0.0000 0.0000 0.0000 0.0000 28.1245
#
#
#
# Elastic Compliance Matrix: (Units=1/GPa)
#
#
# Indices 1 2 3 4 5 6 
#
# 1 0.002180 0.046425 -0.019520 0.000000 0.000000 0.000000
# 2 0.046425 -0.197089 0.041884 0.000000 0.000000 0.000000
# 3 -0.019520 0.041884 0.013239 0.000000 0.000000 0.000000
# 4 0.000000 0.000000 0.000000 0.048913 0.000000 0.000000
# 5 0.000000 0.000000 0.000000 0.000000 -0.079761 0.000000
# 6 0.000000 0.000000 0.000000 0.000000 0.000000 0.035556
#
#
# Mechanical properties :
#
#
# Convention : Reuss Voigt Hill
#
# Bulk Modulus (GPa) = -22.68029 45.64713 11.48342
# Shear Modulus (GPa) = -15.18660 12.29808 -1.44426
#
# Velocity S-wave (km/s) = -2.77577 2.49788 -0.85600
# Velocity P-wave (km/s) = 4.66691 5.61055 2.20207
#
# Compressibility (1/GPa) = -0.04409115
#
# Stress axis : x y z
#
# Youngs Moduli (GPa) = 458.62869 -5.07385 75.53583
#
# Poissons Ratio (x) = 0.23555 1.47449
# Poissons Ratio (y) = -21.29197 -3.16378
# Poissons Ratio (z) = 8.95259 0.21252
#
# Static dielectric constant tensor:
#      x y z
#    x 1.618840 0.000000 0.000000 
#    y 0.000000 1.649180 0.000000 
#    z 0.000000 0.000000 1.733370 
# 
# From -- ./inp_files/30334.got.cif
#   From: 2010.05.17/outbox.ucp.g08.bks.cvg/sg59_16_cif.got.tgz:30334.got - 2010.06.11 16:43:56.
