data_PCOD9453649
_publ_section_title
;
Structure prediction by ZEFSAII (Michael W. Deem and Ramdas Pophale) SiO2 
 PCOD9453649
Probable space group: P M M N
;
_chemical_formula_sum "Si O2"
_cell_formula_units_Z 40
_cell_length_a 15.000000
_cell_length_b 9.000000
_cell_length_c 15.000000
_cell_angle_alpha 90.000000
_cell_angle_beta 90.000000
_cell_angle_gamma 90.000000
_cell_volume 2025.000000
_symmetry_space_group_name_H-M "P M M N"
_symmetry_group_IT_number 59
_space_group.IT_coordinate_system_code '2'
_symmetry_cell_setting 'orthorhombic'
loop_
_space_group_symop_operation_xyz
x,y,z
1/2-x,1/2-y,z
1/2+x,-y,-z
-x,1/2+y,-z
-x,-y,-z
1/2+x,1/2+y,-z
1/2-x,y,z
x,1/2-y,z
loop_
_atom_site_type_symbol
_atom_site_label
_atom_site_fract_x
_atom_site_fract_y
_atom_site_fract_z
Si Si1 0.750000 0.571951 0.773439
Si Si2 0.852335 0.421241 0.288322
Si Si3 0.581796 0.925897 0.453036
Si Si4 0.106648 0.925881 0.101288
Si Si5 0.585072 0.426281 0.094405
Si Si6 0.250000 0.069226 0.431585
O O1 0.750000 0.750000 0.774198
O O2 0.835119 0.511818 0.827013
O O3 0.750000 0.519779 0.670813
O O4 0.750000 0.438664 0.315085
O O5 0.879388 0.250000 0.302517
O O6 0.909890 0.524376 0.351141
O O7 0.860164 0.451525 0.183752
O O8 0.577163 0.750000 0.457576
O O9 0.665684 0.978266 0.511165
O O10 0.500000 0.000000 0.500000
O O11 0.115116 0.750000 0.116106
O O12 0.133809 0.959238 0.998635
O O13 0.004427 0.978268 0.103476
O O14 0.561479 0.250000 0.090458
O O15 0.250000 0.250000 0.429352
#
# Coordination Sequence:
#
# PCOD9453649 Si02
#       6
#     4   8   8   8   8   4
#     4  11  23  39  60  83 114 158 199 235 290 357
#     4  10  21  38  62  90 117 154 197 239 291 357
#     4  11  23  42  64  89 119 156 198 249 303 356
#     4  10  21  38  59  87 119 152 197 247 286 337
#     4   9  20  38  61  84 119 159 192 233 293 355
#     4   9  22  43  62  81 116 158 197 239 296 361
#
# _framework density 19.753086
#
# number of rings (size 3 to 8) (size 9 to 14) (size 15 to 20)
#    0.000    2.000    1.000    1.500    4.200    1.600 
#    0.000    3.000    0.000    0.000    0.000    0.000 
#    0.000    0.000    0.000    0.000    0.000    0.000 
#
# Total GULP energy -223171.091678 kJ/mol
# GULP energy per Si atom -5579.277292 kJ/mol
# Density = 1.970813 g / cm^3
# Si number density = 19.753086 Si / 1000 Ang^3
#
#
#
# Elastic Constant Matrix: (Units=GPa)
#
#
# Indices 1 2 3 4 5 6 
#
# 1 67.8498 24.0765 23.5694 0.0000 0.0000 0.0000
# 2 24.0765 18.2452 22.7507 0.0000 0.0000 0.0000
# 3 23.5694 22.7507 91.0472 0.0000 0.0000 0.0000
# 4 0.0000 0.0000 0.0000 30.6910 0.0000 0.0000
# 5 0.0000 0.0000 0.0000 0.0000 22.8663 0.0000
# 6 0.0000 0.0000 0.0000 0.0000 0.0000 20.8075
#
#
#
# Elastic Compliance Matrix: (Units=1/GPa)
#
#
# Indices 1 2 3 4 5 6 
#
# 1 0.028237 -0.040887 0.002907 0.000000 0.000000 0.000000
# 2 -0.040887 0.138820 -0.024104 0.000000 0.000000 0.000000
# 3 0.002907 -0.024104 0.016254 0.000000 0.000000 0.000000
# 4 0.000000 0.000000 0.000000 0.032583 0.000000 0.000000
# 5 0.000000 0.000000 0.000000 0.000000 0.043733 0.000000
# 6 0.000000 0.000000 0.000000 0.000000 0.000000 0.048059
#
#
# Mechanical properties :
#
#
# Convention : Reuss Voigt Hill
#
# Bulk Modulus (GPa) = 16.90802 35.32616 26.11709
# Shear Modulus (GPa) = 11.07253 21.98933 16.53093
#
# Velocity S-wave (km/s) = 2.37016 3.34010 2.89602
# Velocity P-wave (km/s) = 4.00855 5.72693 4.94298
#
# Compressibility (1/GPa) = 0.05914353
#
# Stress axis : x y z
#
# Youngs Moduli (GPa) = 35.41404 7.20358 61.52424
#
# Poissons Ratio (x) = 0.29453 -0.17885
# Poissons Ratio (y) = 1.44798 1.48296
# Poissons Ratio (z) = -0.10295 0.17363
#
# Static dielectric constant tensor:
#      x y z
#    x 1.684780 0.000000 0.000000 
#    y 0.000000 1.571820 0.000000 
#    z 0.000000 0.000000 1.678960 
# 
# From -- ./inp_files/19949.got.cif
#   From: 2010.05.17/outbox.ucp.g08.bks.cvg/sg59_10_cif.got.tgz:19949.got - 2010.06.11 16:43:56.
