data_PCOD9453077
_publ_section_title
;
Structure prediction by ZEFSAII (Michael W. Deem and Ramdas Pophale) SiO2 
 PCOD9453077
Probable space group: P M M N
;
_chemical_formula_sum "Si O2"
_cell_formula_units_Z 40
_cell_length_a 18.126202
_cell_length_b 9.353049
_cell_length_c 13.532947
_cell_angle_alpha 90.000000
_cell_angle_beta 90.000000
_cell_angle_gamma 90.000000
_cell_volume 2294.311627
_symmetry_space_group_name_H-M "P M M N"
_symmetry_group_IT_number 59
_space_group.IT_coordinate_system_code '2'
_symmetry_cell_setting 'orthorhombic'
loop_
_space_group_symop_operation_xyz
x,y,z
1/2-x,1/2-y,z
1/2+x,-y,-z
-x,1/2+y,-z
-x,-y,-z
1/2+x,1/2+y,-z
1/2-x,y,z
x,1/2-y,z
loop_
_atom_site_type_symbol
_atom_site_label
_atom_site_fract_x
_atom_site_fract_y
_atom_site_fract_z
Si Si1 0.838856 0.418120 0.835035
Si Si2 0.165149 0.076162 0.794445
Si Si3 0.922033 0.922261 0.007773
Si Si4 0.159907 0.415067 0.577943
Si Si5 0.160279 0.915580 0.386124
O O1 0.750000 0.425060 0.839243
O O2 0.859242 0.250000 0.848707
O O3 0.862549 0.462642 0.723895
O O4 0.872940 0.517236 0.918432
O O5 0.250000 0.029082 0.809228
O O6 0.166667 0.250000 0.789251
O O7 0.115998 0.037976 0.887899
O O8 0.137988 0.027326 0.686196
O O9 0.928305 0.750000 0.003282
O O10 0.000000 0.000000 0.000000
O O11 0.250000 0.418267 0.579071
O O12 0.137608 0.250000 0.569959
O O13 0.133988 0.498119 0.481217
O O14 0.250000 0.922557 0.386613
O O15 0.139862 0.750000 0.396500
#
# Coordination Sequence:
#
# PCOD9453077 Si02
#       5
#     8   8   8   8   8
#     4   9  18  33  52  74 101 130 160 197 240 286
#     4   8  15  29  49  72  96 123 156 195 240 287
#     4  11  22  35  51  70  96 130 167 206 247 293
#     4   8  13  23  42  68  95 120 149 187 229 277
#     4   8  14  25  42  67  99 128 150 181 232 285
#
# _framework density 17.434422999999999
#
# number of rings (size 3 to 8) (size 9 to 14) (size 15 to 20)
#    0.000    3.200    0.000    3.600    0.000    2.000 
#    0.000    4.000    0.000    6.000    0.000    0.000 
#    0.000    0.000    0.000    0.000    0.000    0.000 
#
# Total GULP energy -222705.151086 kJ/mol
# GULP energy per Si atom -5567.628777 kJ/mol
# Density = 1.739474 g / cm^3
# Si number density = 17.434423 Si / 1000 Ang^3
#
#
#
# Elastic Constant Matrix: (Units=GPa)
#
#
# Indices 1 2 3 4 5 6 
#
# 1 20.1628 19.8590 32.9070 0.0000 0.0000 0.0000
# 2 19.8590 50.7675 68.9656 0.0000 0.0000 0.0000
# 3 32.9070 68.9656 185.8827 0.0000 0.0000 0.0000
# 4 0.0000 0.0000 0.0000 27.6672 0.0000 0.0000
# 5 0.0000 0.0000 0.0000 0.0000 -6.8438 0.0000
# 6 0.0000 0.0000 0.0000 0.0000 0.0000 18.1855
#
#
#
# Elastic Compliance Matrix: (Units=1/GPa)
#
#
# Indices 1 2 3 4 5 6 
#
# 1 0.083243 -0.025290 -0.005354 0.000000 0.000000 0.000000
# 2 -0.025290 0.047397 -0.013108 0.000000 0.000000 0.000000
# 3 -0.005354 -0.013108 0.011191 0.000000 0.000000 0.000000
# 4 0.000000 0.000000 0.000000 0.036144 0.000000 0.000000
# 5 0.000000 0.000000 0.000000 0.000000 -0.146117 0.000000
# 6 0.000000 0.000000 0.000000 0.000000 0.000000 0.054989
#
#
# Mechanical properties :
#
#
# Convention : Reuss Voigt Hill
#
# Bulk Modulus (GPa) = 18.40684 55.58625 36.99654
# Shear Modulus (GPa) = 25.97956 16.80720 21.39338
#
# Velocity S-wave (km/s) = 3.86441 3.10824 3.50677
# Velocity P-wave (km/s) = 5.52197 6.69581 6.13702
#
# Compressibility (1/GPa) = 0.05432764
#
# Stress axis : x y z
#
# Youngs Moduli (GPa) = 12.01305 21.09831 89.35924
#
# Poissons Ratio (x) = 0.53357 0.47839
# Poissons Ratio (y) = 0.30381 1.17132
# Poissons Ratio (z) = 0.06431 0.27656
#
# Static dielectric constant tensor:
#      x y z
#    x 1.578220 0.000000 0.000000 
#    y 0.000000 1.584910 0.000000 
#    z 0.000000 0.000000 1.620140 
# 
# From -- ./inp_files/18135.got.cif
#   From: 2010.05.17/outbox.cif.g08.bks.cpg/sg59_10_cif.got.tgz:18135.got - 2010.06.03 14:40:33.
