data_PCOD9453722
_publ_section_title
;
Structure prediction by ZEFSAII (Michael W. Deem and Ramdas Pophale) SiO2 
 PCOD9453722
Probable space group: P B C N
;
_chemical_formula_sum "Si O2"
_cell_formula_units_Z 36
_cell_length_a 18.068209
_cell_length_b 22.881059
_cell_length_c 5.430292
_cell_angle_alpha 90.000000
_cell_angle_beta 90.000000
_cell_angle_gamma 90.000000
_cell_volume 2244.989994
_symmetry_space_group_name_H-M "P B C N"
_symmetry_group_IT_number 60
_symmetry_cell_setting 'orthorhombic'
loop_
_space_group_symop_operation_xyz
x,y,z
1/2-x,1/2-y,1/2+z
1/2+x,1/2-y,-z
-x,y,1/2-z
-x,-y,-z
1/2+x,1/2+y,1/2-z
1/2-x,1/2+y,z
x,-y,1/2+z
loop_
_atom_site_type_symbol
_atom_site_label
_atom_site_fract_x
_atom_site_fract_y
_atom_site_fract_z
Si Si1 0.000000 0.675172 0.250000
Si Si2 0.074371 0.759506 0.854618
Si Si3 0.870333 0.647911 0.943018
Si Si4 0.411155 0.033893 0.774792
Si Si5 0.266435 0.286638 0.915144
O O1 0.953243 0.718907 0.422239
O O2 0.062065 0.634637 0.372915
O O3 0.103419 0.710584 0.662759
O O4 0.000000 0.788806 0.750000
O O5 0.145630 0.798614 0.908520
O O6 0.873212 0.597315 0.743022
O O7 0.790060 0.659651 0.055177
O O8 0.500000 0.041411 0.750000
O O9 0.390850 0.997584 0.529107
O O10 0.255128 0.246306 0.160091
#
# Coordination Sequence:
#
# PCOD9453722 Si02
#       5
#     4   8   8   8   8
#     4  10  16  28  46  64  90 122 158 180 226 274
#     4   9  18  29  46  68  92 124 151 189 226 284
#     4  10  20  30  47  65  94 123 161 190 233 270
#     4  10  22  33  46  65  89 123 163 202 228 263
#     4  10  19  32  46  69  93 121 155 190 230 279
#
# _framework density 16.035706000000001
#
# number of rings (size 3 to 8) (size 9 to 14) (size 15 to 20)
#    0.000    2.222    2.222    2.000    7.778    0.000 
#    0.000    0.000    0.000    0.000    0.000    0.000 
#    0.000    1.778    0.000    0.000    0.000    0.000 
#
# Total GULP energy -200436.279031 kJ/mol
# GULP energy per Si atom -5567.674418 kJ/mol
# Density = 1.599921 g / cm^3
# Si number density = 16.035706 Si / 1000 Ang^3
#
#
#
# Elastic Constant Matrix: (Units=GPa)
#
#
# Indices 1 2 3 4 5 6 
#
# 1 128.0543 25.1139 24.2271 0.0000 0.0000 0.0000
# 2 25.1139 31.9624 7.8537 0.0000 0.0000 0.0000
# 3 24.2271 7.8537 69.7589 0.0000 0.0000 0.0000
# 4 0.0000 0.0000 0.0000 9.1430 0.0000 0.0000
# 5 0.0000 0.0000 0.0000 0.0000 17.7252 0.0000
# 6 0.0000 0.0000 0.0000 0.0000 0.0000 5.4299
#
#
#
# Elastic Compliance Matrix: (Units=1/GPa)
#
#
# Indices 1 2 3 4 5 6 
#
# 1 0.009660 -0.006959 -0.002572 0.000000 0.000000 0.000000
# 2 -0.006959 0.037189 -0.001770 0.000000 0.000000 0.000000
# 3 -0.002572 -0.001770 0.015427 0.000000 0.000000 0.000000
# 4 0.000000 0.000000 0.000000 0.109374 0.000000 0.000000
# 5 0.000000 0.000000 0.000000 0.000000 0.056417 0.000000
# 6 0.000000 0.000000 0.000000 0.000000 0.000000 0.184166
#
#
# Mechanical properties :
#
#
# Convention : Reuss Voigt Hill
#
# Bulk Modulus (GPa) = 25.20391 38.24055 31.72223
# Shear Modulus (GPa) = 11.15922 17.96501 14.56211
#
# Velocity S-wave (km/s) = 2.64085 3.35074 3.01675
# Velocity P-wave (km/s) = 5.00502 6.23449 5.65328
#
# Compressibility (1/GPa) = 0.03967639
#
# Stress axis : x y z
#
# Youngs Moduli (GPa) = 103.51495 26.88943 64.81935
#
# Poissons Ratio (x) = 0.18711 0.16669
# Poissons Ratio (y) = 0.72032 0.11474
# Poissons Ratio (z) = 0.26620 0.04760
#
# Static dielectric constant tensor:
#      x y z
#    x 1.578940 0.000000 0.000000 
#    y 0.000000 1.504130 0.000000 
#    z 0.000000 0.000000 1.671610 
# 
# From -- ./inp_files/1180.got.cif
#   From: 2010.05.17/outbox.cif.g08.bks.cpg/sg60_1_cif.got.tgz:1180.got - 2010.06.03 14:59:27.
