data_PCOD9453370
_publ_section_title
;
Structure prediction by ZEFSAII (Michael W. Deem and Ramdas Pophale) SiO2 
 PCOD9453370
Probable space group: P M M N
;
_chemical_formula_sum "Si O2"
_cell_formula_units_Z 64
_cell_length_a 9.000000
_cell_length_b 30.000000
_cell_length_c 15.000000
_cell_angle_alpha 90.000000
_cell_angle_beta 90.000000
_cell_angle_gamma 90.000000
_cell_volume 4050.000000
_symmetry_space_group_name_H-M "P M M N"
_symmetry_group_IT_number 59
_space_group.IT_coordinate_system_code '2'
_symmetry_cell_setting 'orthorhombic'
loop_
_space_group_symop_operation_xyz
x,y,z
1/2-x,1/2-y,z
1/2+x,-y,-z
-x,1/2+y,-z
-x,-y,-z
1/2+x,1/2+y,-z
1/2-x,y,z
x,1/2-y,z
loop_
_atom_site_type_symbol
_atom_site_label
_atom_site_fract_x
_atom_site_fract_y
_atom_site_fract_z
Si Si1 0.430170 0.201129 0.582097
Si Si2 0.424310 0.109612 0.670586
Si Si3 0.926320 0.393128 0.343913
Si Si4 0.923437 0.951834 0.999999
Si Si5 0.574194 0.441369 0.826815
Si Si6 0.923722 0.548488 0.502544
Si Si7 0.574908 0.954619 0.799608
Si Si8 0.071006 0.199555 0.371937
O O1 0.250000 0.200886 0.585915
O O2 0.481056 0.250000 0.614080
O O3 0.479053 0.157364 0.634409
O O4 0.466660 0.197360 0.477449
O O5 0.250000 0.113691 0.695728
O O6 0.520126 0.091142 0.750656
O O7 0.431834 0.073029 0.592275
O O8 0.750000 0.390499 0.353564
O O9 0.998362 0.417558 0.429361
O O10 0.974285 0.425879 0.264640
O O11 0.993469 0.343650 0.330508
O O12 0.750000 0.957118 0.018896
O O13 0.000410 0.926822 0.080521
O O14 0.938737 0.935318 0.899467
O O15 0.000000 0.000000 0.000000
O O16 0.750000 0.442006 0.837160
O O17 0.531835 0.492880 0.802805
O O18 0.750000 0.543305 0.526868
O O19 0.000000 0.500000 0.500000
O O20 0.750000 0.952436 0.773767
O O21 0.250000 0.195277 0.363789
O O22 0.031152 0.250000 0.341185
#
# Coordination Sequence:
#
# PCOD9453370 Si02
#       8
#     8   8   8   8   8   8   8   8
#     4   8  14  28  50  71  89 116 158 204 246 284
#     4  10  19  31  48  69  93 125 163 201 238 285
#     4  12  23  32  47  72 101 132 163 200 246 293
#     4   9  17  31  51  72  94 123 159 202 244 283
#     4  10  20  32  48  71  99 130 161 199 242 288
#     4  11  22  35  48  65  94 132 171 205 239 284
#     4   9  19  34  50  68  94 129 167 202 236 282
#     4   9  17  33  55  72  91 125 166 207 249 291
#
# _framework density 15.802469
#
# number of rings (size 3 to 8) (size 9 to 14) (size 15 to 20)
#    0.000    2.250    1.250    4.500    0.000    6.250 
#    0.000    0.000    0.000    0.375    0.000    0.875 
#    0.000    3.000    0.000    0.000    0.000    0.000 
#
# Total GULP energy -356617.907606 kJ/mol
# GULP energy per Si atom -5572.154806 kJ/mol
# Density = 1.576650 g / cm^3
# Si number density = 15.802469 Si / 1000 Ang^3
#
#
#
# Elastic Constant Matrix: (Units=GPa)
#
#
# Indices 1 2 3 4 5 6 
#
# 1 22.6283 -19.3161 -2.0555 0.0000 0.0000 0.0000
# 2 -19.3161 28.0605 -24.9773 0.0000 0.0000 0.0000
# 3 -2.0555 -24.9773 21.0805 0.0000 0.0000 0.0000
# 4 0.0000 0.0000 0.0000 -11.8326 0.0000 0.0000
# 5 0.0000 0.0000 0.0000 0.0000 21.1793 0.0000
# 6 0.0000 0.0000 0.0000 0.0000 0.0000 22.1382
#
#
#
# Elastic Compliance Matrix: (Units=1/GPa)
#
#
# Indices 1 2 3 4 5 6 
#
# 1 0.003022 -0.042857 -0.050485 0.000000 0.000000 0.000000
# 2 -0.042857 -0.044190 -0.056538 0.000000 0.000000 0.000000
# 3 -0.050485 -0.056538 -0.024474 0.000000 0.000000 0.000000
# 4 0.000000 0.000000 0.000000 -0.084513 0.000000 0.000000
# 5 0.000000 0.000000 0.000000 0.000000 0.047216 0.000000
# 6 0.000000 0.000000 0.000000 0.000000 0.000000 0.045171
#
#
# Mechanical properties :
#
#
# Convention : Reuss Voigt Hill
#
# Bulk Modulus (GPa) = -2.73671 -2.32539 -2.53105
# Shear Modulus (GPa) = 41.60022 14.17153 27.88588
#
# Velocity S-wave (km/s) = 5.13637 2.99790 4.20533
# Velocity P-wave (km/s) = 5.78280 3.24168 4.68771
#
# Compressibility (1/GPa) = -0.36540174
#
# Stress axis : x y z
#
# Youngs Moduli (GPa) = 330.86927 -22.62956 -40.85934
#
# Poissons Ratio (x) = -0.96984 -2.06278
# Poissons Ratio (y) = 14.18020 -2.31009
# Poissons Ratio (z) = 16.70393 -1.27942
#
# Static dielectric constant tensor:
#      x y z
#    x 1.531020 0.000000 0.000000 
#    y 0.000000 1.518380 0.000000 
#    z 0.000000 0.000000 1.539620 
# 
# From -- ./inp_files/21869.got.cif
#   From: 2010.05.17/outbox.ucp.g08.bks.cvg/sg59_11_cif.got.tgz:21869.got - 2010.06.11 16:43:56.
