data_PCOD9453726
_publ_section_title
;
Structure prediction by ZEFSAII (Michael W. Deem and Ramdas Pophale) SiO2 
 PCOD9453726
Probable space group: P B C N
;
_chemical_formula_sum "Si O2"
_cell_formula_units_Z 64
_cell_length_a 8.505306
_cell_length_b 18.647508
_cell_length_c 20.977526
_cell_angle_alpha 90.000000
_cell_angle_beta 90.000000
_cell_angle_gamma 90.000000
_cell_volume 3327.093557
_symmetry_space_group_name_H-M "P B C N"
_symmetry_group_IT_number 60
_symmetry_cell_setting 'orthorhombic'
loop_
_space_group_symop_operation_xyz
x,y,z
1/2-x,1/2-y,1/2+z
1/2+x,1/2-y,-z
-x,y,1/2-z
-x,-y,-z
1/2+x,1/2+y,1/2-z
1/2-x,1/2+y,z
x,-y,1/2+z
loop_
_atom_site_type_symbol
_atom_site_label
_atom_site_fract_x
_atom_site_fract_y
_atom_site_fract_z
Si Si1 0.259483 0.376223 0.137492
Si Si2 0.396113 0.493432 0.564254
Si Si3 0.602725 0.673405 0.631757
Si Si4 0.544017 0.204562 0.950994
Si Si5 0.184374 0.944248 0.266985
Si Si6 0.723991 0.909235 0.026395
Si Si7 0.735639 0.303282 0.572748
Si Si8 0.779895 0.035511 0.120095
O O1 0.302903 0.435753 0.084043
O O2 0.417990 0.329210 0.144991
O O3 0.122441 0.325767 0.112970
O O4 0.232156 0.420416 0.202101
O O5 0.500000 0.500000 0.500000
O O6 0.275475 0.431906 0.544020
O O7 0.530270 0.476847 0.615368
O O8 0.682240 0.624086 0.685427
O O9 0.639072 0.632484 0.565106
O O10 0.681215 0.750054 0.623090
O O11 0.421316 0.143722 0.972971
O O12 0.442456 0.275816 0.938437
O O13 0.674574 0.209096 0.005784
O O14 0.000000 0.958114 0.250000
O O15 0.257370 0.008764 0.308544
O O16 0.699880 0.980921 0.069195
O O17 0.748353 0.384015 0.597564
#
# Coordination Sequence:
#
# PCOD9453726 Si02
#       8
#     8   8   8   8   8   8   8   8
#     4  11  19  35  64  85 109 153 211 241 289 360
#     4  10  16  29  59  87 109 144 186 251 303 344
#     4   9  18  37  57  80 113 159 194 236 295 364
#     4  11  24  37  57  89 123 161 197 241 301 379
#     4   9  17  37  63  84 103 154 212 246 281 362
#     4   9  19  34  57  83 116 150 197 238 293 359
#     4  11  24  36  57  87 127 158 191 246 318 360
#     4  10  19  35  59  86 117 152 193 254 306 344
#
# _framework density 19.236008999999999
#
# number of rings (size 3 to 8) (size 9 to 14) (size 15 to 20)
#    0.000    2.000    5.000    2.250    3.500    2.000 
#    0.000    6.875    0.000    4.500    0.000    0.000 
#    0.000    0.000    0.000    0.000    0.000    0.000 
#
# Total GULP energy -356902.123997 kJ/mol
# GULP energy per Si atom -5576.595687 kJ/mol
# Density = 1.919223 g / cm^3
# Si number density = 19.236009 Si / 1000 Ang^3
#
#
#
# Elastic Constant Matrix: (Units=GPa)
#
#
# Indices 1 2 3 4 5 6 
#
# 1 32.1430 3.3226 12.6256 0.0000 0.0000 0.0000
# 2 3.3226 93.7739 18.1140 0.0000 0.0000 0.0000
# 3 12.6256 18.1140 86.2693 0.0000 0.0000 0.0000
# 4 0.0000 0.0000 0.0000 26.4044 0.0000 0.0000
# 5 0.0000 0.0000 0.0000 0.0000 17.7778 0.0000
# 6 0.0000 0.0000 0.0000 0.0000 0.0000 32.5313
#
#
#
# Elastic Compliance Matrix: (Units=1/GPa)
#
#
# Indices 1 2 3 4 5 6 
#
# 1 0.033014 -0.000246 -0.004780 0.000000 0.000000 0.000000
# 2 -0.000246 0.011117 -0.002298 0.000000 0.000000 0.000000
# 3 -0.004780 -0.002298 0.012774 0.000000 0.000000 0.000000
# 4 0.000000 0.000000 0.000000 0.037872 0.000000 0.000000
# 5 0.000000 0.000000 0.000000 0.000000 0.056250 0.000000
# 6 0.000000 0.000000 0.000000 0.000000 0.000000 0.030740
#
#
# Mechanical properties :
#
#
# Convention : Reuss Voigt Hill
#
# Bulk Modulus (GPa) = 23.66558 31.14562 27.40560
# Shear Modulus (GPa) = 23.75293 27.21763 25.48528
#
# Velocity S-wave (km/s) = 3.51781 3.76564 3.64383
# Velocity P-wave (km/s) = 5.36930 5.92732 5.65520
#
# Compressibility (1/GPa) = 0.04225545
#
# Stress axis : x y z
#
# Youngs Moduli (GPa) = 30.29019 89.95561 78.28599
#
# Poissons Ratio (x) = 0.02217 0.37420
# Poissons Ratio (y) = 0.00746 0.17991
# Poissons Ratio (z) = 0.14478 0.20673
#
# Static dielectric constant tensor:
#      x y z
#    x 1.722530 0.000000 0.000000 
#    y 0.000000 1.700470 0.000000 
#    z 0.000000 0.000000 1.706840 
# 
# From -- ./inp_files/24141.got.cif
#   From: 2010.05.17/outbox.cif.g08.bks.cpg/sg60_13_cif.got.tgz:24141.got - 2010.06.03 14:59:27.
