data_PCOD9453309
_publ_section_title
;
Structure prediction by ZEFSAII (Michael W. Deem and Ramdas Pophale) SiO2 
 PCOD9453309
Probable space group: P M M N
;
_chemical_formula_sum "Si O2"
_cell_formula_units_Z 56
_cell_length_a 25.230180
_cell_length_b 7.406669
_cell_length_c 13.638365
_cell_angle_alpha 90.000000
_cell_angle_beta 90.000000
_cell_angle_gamma 90.000000
_cell_volume 2548.622981
_symmetry_space_group_name_H-M "P M M N"
_symmetry_group_IT_number 59
_space_group.IT_coordinate_system_code '2'
_symmetry_cell_setting 'orthorhombic'
loop_
_space_group_symop_operation_xyz
x,y,z
1/2-x,1/2-y,z
1/2+x,-y,-z
-x,1/2+y,-z
-x,-y,-z
1/2+x,1/2+y,-z
1/2-x,y,z
x,1/2-y,z
loop_
_atom_site_type_symbol
_atom_site_label
_atom_site_fract_x
_atom_site_fract_y
_atom_site_fract_z
Si Si1 0.580547 0.028154 0.342387
Si Si2 0.020921 0.456546 0.243622
Si Si3 0.375768 0.467568 0.143271
Si Si4 0.309680 0.031787 0.961319
Si Si5 0.690412 0.035471 0.660880
Si Si6 0.191585 0.960181 0.733391
Si Si7 0.584524 0.030799 0.561871
O O1 0.579974 0.250000 0.339427
O O2 0.536842 0.964043 0.264402
O O3 0.639557 0.964647 0.317625
O O4 0.567315 0.975725 0.453614
O O5 0.012938 0.250000 0.211323
O O6 0.066125 0.537904 0.173727
O O7 0.048477 0.457660 0.350826
O O8 0.379667 0.250000 0.138933
O O9 0.334721 0.506674 0.231357
O O10 0.351924 0.532207 0.040890
O O11 0.250000 0.978818 0.991989
O O12 0.311276 0.250000 0.959431
O O13 0.317374 0.968790 0.850381
O O14 0.750000 0.961557 0.652481
O O15 0.694065 0.250000 0.646098
O O16 0.644974 0.972105 0.585746
O O17 0.250000 0.039053 0.713569
O O18 0.194078 0.750000 0.704512
O O19 0.582660 0.250000 0.567716
#
# Coordination Sequence:
#
# PCOD9453309 Si02
#       7
#     8   8   8   8   8   8   8
#     4   9  17  30  48  67  88 117 149 182 221 260
#     4   9  17  30  47  67  91 117 147 182 218 259
#     4   9  17  29  46  66  88 117 149 179 216 265
#     4   9  17  30  47  65  86 113 144 179 220 263
#     4   9  17  27  40  63  93 119 144 179 221 260
#     4   9  18  32  49  68  88 113 149 187 219 258
#     4   9  17  29  45  65  90 119 150 182 216 258
#
# _framework density 21.972649000000001
#
# number of rings (size 3 to 8) (size 9 to 14) (size 15 to 20)
#    0.000    3.000    0.000    0.857    0.000    2.000 
#    0.000    6.429    0.000    0.000    0.000    2.000 
#    0.000    0.000    0.000    0.000    0.000    0.000 
#
# Total GULP energy -312414.325528 kJ/mol
# GULP energy per Si atom -5578.827242 kJ/mol
# Density = 2.192264 g / cm^3
# Si number density = 21.972649 Si / 1000 Ang^3
#
#
#
# Elastic Constant Matrix: (Units=GPa)
#
#
# Indices 1 2 3 4 5 6 
#
# 1 94.4739 -1.8383 1.5504 0.0000 0.0000 0.0000
# 2 -1.8383 75.6633 -10.1757 0.0000 0.0000 0.0000
# 3 1.5504 -10.1757 13.4213 0.0000 0.0000 0.0000
# 4 0.0000 0.0000 0.0000 21.0962 0.0000 0.0000
# 5 0.0000 0.0000 0.0000 0.0000 13.9720 0.0000
# 6 0.0000 0.0000 0.0000 0.0000 0.0000 -13.8762
#
#
#
# Elastic Compliance Matrix: (Units=1/GPa)
#
#
# Indices 1 2 3 4 5 6 
#
# 1 0.010606 0.000103 -0.001147 0.000000 0.000000 0.000000
# 2 0.000103 0.014718 0.011147 0.000000 0.000000 0.000000
# 3 -0.001147 0.011147 0.083092 0.000000 0.000000 0.000000
# 4 0.000000 0.000000 0.000000 0.047402 0.000000 0.000000
# 5 0.000000 0.000000 0.000000 0.000000 0.071572 0.000000
# 6 0.000000 0.000000 0.000000 0.000000 0.000000 -0.072066
#
#
# Mechanical properties :
#
#
# Convention : Reuss Voigt Hill
#
# Bulk Modulus (GPa) = 7.77463 18.07015 12.92239
# Shear Modulus (GPa) = 28.09129 17.17321 22.63225
#
# Velocity S-wave (km/s) = 3.57944 2.79869 3.21287
# Velocity P-wave (km/s) = 4.54194 4.32266 4.43365
#
# Compressibility (1/GPa) = 0.12862356
#
# Stress axis : x y z
#
# Youngs Moduli (GPa) = 94.28833 67.94370 12.03479
#
# Poissons Ratio (x) = -0.00703 0.01380
# Poissons Ratio (y) = -0.00975 -0.13415
# Poissons Ratio (z) = 0.10812 -0.75736
#
# Static dielectric constant tensor:
#      x y z
#    x 1.840420 0.000000 0.000000 
#    y 0.000000 1.834700 0.000000 
#    z 0.000000 0.000000 1.750340 
# 
# From -- ./inp_files/18701.got.cif
#   From: 2010.05.17/outbox.cif.g08.bks.cpg/sg59_10_cif.got.tgz:18701.got - 2010.06.03 14:40:33.
