data_PCOD9453874
_publ_section_title
;
Structure prediction by ZEFSAII (Michael W. Deem and Ramdas Pophale) SiO2 
 PCOD9453874
Probable space group: P B C N
;
_chemical_formula_sum "Si O2"
_cell_formula_units_Z 40
_cell_length_a 15.730652
_cell_length_b 9.084049
_cell_length_c 13.171269
_cell_angle_alpha 90.000000
_cell_angle_beta 90.000000
_cell_angle_gamma 90.000000
_cell_volume 1882.148176
_symmetry_space_group_name_H-M "P B C N"
_symmetry_group_IT_number 60
_symmetry_cell_setting 'orthorhombic'
loop_
_space_group_symop_operation_xyz
x,y,z
1/2-x,1/2-y,1/2+z
1/2+x,1/2-y,-z
-x,y,1/2-z
-x,-y,-z
1/2+x,1/2+y,1/2-z
1/2-x,1/2+y,z
x,-y,1/2+z
loop_
_atom_site_type_symbol
_atom_site_label
_atom_site_fract_x
_atom_site_fract_y
_atom_site_fract_z
Si Si1 0.632995 0.841806 0.301219
Si Si2 0.689913 0.638395 0.606553
Si Si3 0.953430 0.698147 0.004035
Si Si4 0.880840 0.380900 0.063194
Si Si5 0.747096 0.105575 0.253156
O O1 0.561571 0.829840 0.384487
O O2 0.611915 0.835307 0.181903
O O3 0.694300 0.704535 0.323067
O O4 0.684788 0.994083 0.309800
O O5 0.604097 0.668653 0.544897
O O6 0.779556 0.633694 0.544719
O O7 0.696093 0.493510 0.676443
O O8 0.698286 0.775752 0.684108
O O9 0.055475 0.708132 0.010663
O O10 0.914832 0.548637 0.053151
#
# Coordination Sequence:
#
# PCOD9453874 Si02
#       5
#     8   8   8   8   8
#     4  10  19  34  55  86 113 152 188 240 278 349
#     4  10  17  37  55  79 113 155 178 240 284 330
#     4  11  20  33  64  83 113 156 196 226 291 345
#     4   9  21  37  52  90 116 146 190 244 276 341
#     4   8  18  33  53  77 117 144 186 231 290 316
#
# _framework density 21.252312
#
# number of rings (size 3 to 8) (size 9 to 14) (size 15 to 20)
#    0.000    2.800    4.000    0.600    2.800    0.000 
#    0.000    4.000    0.000    0.000    0.000    0.000 
#    0.000    0.000    0.000    0.000    0.000    0.000 
#
# Total GULP energy -222780.772813 kJ/mol
# GULP energy per Si atom -5569.519320 kJ/mol
# Density = 2.120394 g / cm^3
# Si number density = 21.252312 Si / 1000 Ang^3
#
#
#
# Elastic Constant Matrix: (Units=GPa)
#
#
# Indices 1 2 3 4 5 6 
#
# 1 63.8261 4.8624 -12.2548 0.0000 0.0000 0.0000
# 2 4.8624 66.6596 -4.0152 0.0000 0.0000 0.0000
# 3 -12.2548 -4.0152 30.9218 0.0000 0.0000 0.0000
# 4 0.0000 0.0000 0.0000 7.6905 0.0000 0.0000
# 5 0.0000 0.0000 0.0000 0.0000 18.3420 0.0000
# 6 0.0000 0.0000 0.0000 0.0000 0.0000 22.9433
#
#
#
# Elastic Compliance Matrix: (Units=1/GPa)
#
#
# Indices 1 2 3 4 5 6 
#
# 1 0.017005 -0.000841 0.006630 0.000000 0.000000 0.000000
# 2 -0.000841 0.015161 0.001635 0.000000 0.000000 0.000000
# 3 0.006630 0.001635 0.035180 0.000000 0.000000 0.000000
# 4 0.000000 0.000000 0.000000 0.130031 0.000000 0.000000
# 5 0.000000 0.000000 0.000000 0.000000 0.054520 0.000000
# 6 0.000000 0.000000 0.000000 0.000000 0.000000 0.043586
#
#
# Mechanical properties :
#
#
# Convention : Reuss Voigt Hill
#
# Bulk Modulus (GPa) = 12.16625 15.39912 13.78269
# Shear Modulus (GPa) = 16.23210 21.31617 18.77414
#
# Velocity S-wave (km/s) = 2.76666 3.17046 2.97542
# Velocity P-wave (km/s) = 3.99286 4.54577 4.27826
#
# Compressibility (1/GPa) = 0.08219457
#
# Stress axis : x y z
#
# Youngs Moduli (GPa) = 58.80754 65.95675 28.42554
#
# Poissons Ratio (x) = 0.05547 -0.18846
# Poissons Ratio (y) = 0.04946 -0.04649
# Poissons Ratio (z) = -0.38990 -0.10787
#
# Static dielectric constant tensor:
#      x y z
#    x 1.874200 0.000000 0.000000 
#    y 0.000000 1.786830 0.000000 
#    z 0.000000 0.000000 1.781620 
# 
# From -- ./inp_files/17197.got.cif
#   From: 2010.05.17/outbox.cif.g08.bks.cpg/sg60_9_cif.got.tgz:17197.got - 2010.06.03 14:59:27.
