data_PCOD9453998
_publ_section_title
;
Structure prediction by ZEFSAII (Michael W. Deem and Ramdas Pophale) SiO2 
 PCOD9453998
Probable space group: P B C N
;
_chemical_formula_sum "Si O2"
_cell_formula_units_Z 60
_cell_length_a 8.441815
_cell_length_b 24.631712
_cell_length_c 15.559776
_cell_angle_alpha 90.000000
_cell_angle_beta 90.000000
_cell_angle_gamma 90.000000
_cell_volume 3235.443119
_symmetry_space_group_name_H-M "P B C N"
_symmetry_group_IT_number 60
_symmetry_cell_setting 'orthorhombic'
loop_
_space_group_symop_operation_xyz
x,y,z
1/2-x,1/2-y,1/2+z
1/2+x,1/2-y,-z
-x,y,1/2-z
-x,-y,-z
1/2+x,1/2+y,1/2-z
1/2-x,1/2+y,z
x,-y,1/2+z
loop_
_atom_site_type_symbol
_atom_site_label
_atom_site_fract_x
_atom_site_fract_y
_atom_site_fract_z
Si Si1 0.500000 0.495161 0.750000
Si Si2 0.873334 0.974960 0.567077
Si Si3 0.344785 0.891996 0.030975
Si Si4 0.822569 0.416808 0.084636
Si Si5 0.656099 0.306780 0.063711
Si Si6 0.755129 0.588598 0.774484
Si Si7 0.176571 0.211225 0.750399
Si Si8 0.282487 0.723782 0.566952
O O1 0.454363 0.465309 0.839278
O O2 0.644189 0.536360 0.767625
O O3 0.778423 0.923602 0.529428
O O4 0.745805 0.023377 0.575424
O O5 0.000000 0.000000 0.500000
O O6 0.530155 0.905597 0.021988
O O7 0.316156 0.911229 0.128910
O O8 0.312523 0.827729 0.029561
O O9 0.689350 0.371113 0.064975
O O10 0.859253 0.410576 0.187171
O O11 0.733922 0.284122 0.152432
O O12 0.469009 0.292726 0.064178
O O13 0.742039 0.276683 0.986606
O O14 0.666813 0.646574 0.767637
O O15 0.265136 0.232504 0.666780
O O16 0.000000 0.234934 0.750000
#
# Coordination Sequence:
#
# PCOD9453998 Si02
#       8
#     4   8   8   8   8   8   8   8
#     4  10  18  32  54  82 106 138 182 224 270 316
#     4  11  21  35  57  80 109 145 182 224 272 328
#     4  11  20  34  53  82 112 144 180 220 279 329
#     4  10  21  33  54  82 112 140 178 233 274 324
#     4  10  19  35  54  81 108 141 181 224 274 318
#     4   9  16  29  53  80 108 133 176 225 275 313
#     4   8  15  28  51  77 104 132 172 218 266 311
#     4  10  20  33  57  79 108 143 180 223 269 332
#
# _framework density 18.544601
#
# number of rings (size 3 to 8) (size 9 to 14) (size 15 to 20)
#    0.000    2.133    2.000    2.400    3.733    0.000 
#    0.000    2.000    5.867    0.000    0.000    0.000 
#    0.000    0.000    0.000    0.000    0.000    0.000 
#
# Total GULP energy -334016.443738 kJ/mol
# GULP energy per Si atom -5566.940729 kJ/mol
# Density = 1.850239 g / cm^3
# Si number density = 18.544601 Si / 1000 Ang^3
#
#
#
# Elastic Constant Matrix: (Units=GPa)
#
#
# Indices 1 2 3 4 5 6 
#
# 1 42.1880 -8.3967 9.7213 0.0000 0.0000 0.0000
# 2 -8.3967 34.1880 15.5358 0.0000 0.0000 0.0000
# 3 9.7213 15.5358 88.7551 0.0000 0.0000 0.0000
# 4 0.0000 0.0000 0.0000 41.4177 0.0000 0.0000
# 5 0.0000 0.0000 0.0000 0.0000 26.3774 0.0000
# 6 0.0000 0.0000 0.0000 0.0000 0.0000 6.9245
#
#
#
# Elastic Compliance Matrix: (Units=1/GPa)
#
#
# Indices 1 2 3 4 5 6 
#
# 1 0.026397 0.008471 -0.004374 0.000000 0.000000 0.000000
# 2 0.008471 0.034496 -0.006966 0.000000 0.000000 0.000000
# 3 -0.004374 -0.006966 0.012965 0.000000 0.000000 0.000000
# 4 0.000000 0.000000 0.000000 0.024144 0.000000 0.000000
# 5 0.000000 0.000000 0.000000 0.000000 0.037911 0.000000
# 6 0.000000 0.000000 0.000000 0.000000 0.000000 0.144414
#
#
# Mechanical properties :
#
#
# Convention : Reuss Voigt Hill
#
# Bulk Modulus (GPa) = 14.67988 22.09466 18.38727
# Shear Modulus (GPa) = 16.19310 24.82862 20.51086
#
# Velocity S-wave (km/s) = 2.95820 3.66301 3.32931
# Velocity P-wave (km/s) = 4.42731 5.46172 4.97149
#
# Compressibility (1/GPa) = 0.06812043
#
# Stress axis : x y z
#
# Youngs Moduli (GPa) = 37.88263 28.98881 77.12844
#
# Poissons Ratio (x) = -0.24556 0.33736
# Poissons Ratio (y) = -0.32090 0.53728
# Poissons Ratio (z) = 0.16570 0.20194
#
# Static dielectric constant tensor:
#      x y z
#    x 1.717870 0.000000 0.000000 
#    y 0.000000 1.589500 0.000000 
#    z 0.000000 0.000000 1.666640 
# 
# From -- ./inp_files/15369.got.cif
#   From: 2010.05.17/outbox.cif.g08.bks.cpg/sg60_8_cif.got.tgz:15369.got - 2010.06.03 14:59:27.
