data_PCOD9453597
_publ_section_title
;
Structure prediction by ZEFSAII (Michael W. Deem and Ramdas Pophale) SiO2 
 PCOD9453597
Probable space group: P M M N
;
_chemical_formula_sum "Si O2"
_cell_formula_units_Z 48
_cell_length_a 18.000000
_cell_length_b 9.000000
_cell_length_c 15.000000
_cell_angle_alpha 90.000000
_cell_angle_beta 90.000000
_cell_angle_gamma 90.000000
_cell_volume 2430.000000
_symmetry_space_group_name_H-M "P M M N"
_symmetry_group_IT_number 59
_space_group.IT_coordinate_system_code '2'
_symmetry_cell_setting 'orthorhombic'
loop_
_space_group_symop_operation_xyz
x,y,z
1/2-x,1/2-y,z
1/2+x,-y,-z
-x,1/2+y,-z
-x,-y,-z
1/2+x,1/2+y,-z
1/2-x,y,z
x,1/2-y,z
loop_
_atom_site_type_symbol
_atom_site_label
_atom_site_fract_x
_atom_site_fract_y
_atom_site_fract_z
Si Si1 0.250000 0.429142 0.501547
Si Si2 0.104226 0.924119 0.757089
Si Si3 0.750000 0.925607 0.291243
Si Si4 0.143875 0.574633 0.360611
Si Si5 0.999059 0.075073 0.404246
Si Si6 0.828748 0.574949 0.821822
Si Si7 0.483357 0.071155 0.094378
O O1 0.250000 0.250000 0.497080
O O2 0.250000 0.477661 0.604658
O O3 0.180910 0.493681 0.445277
O O4 0.119365 0.750000 0.772170
O O5 0.073486 0.937821 0.656067
O O6 0.042236 0.970762 0.828718
O O7 0.178197 0.017208 0.759737
O O8 0.750000 0.750000 0.295741
O O9 0.150662 0.750000 0.372175
O O10 0.176174 0.518233 0.268170
O O11 0.060609 0.517674 0.353028
O O12 0.017517 0.250000 0.410550
O O13 0.000000 0.000000 0.500000
O O14 0.750000 0.560848 0.870948
O O15 0.837852 0.750000 0.797368
O O16 0.900609 0.528380 0.875747
O O17 0.485475 0.250000 0.087618
O O18 0.500000 0.000000 0.000000
#
# Coordination Sequence:
#
# PCOD9453597 Si02
#       7
#     4   8   4   8   8   8   8
#     4  11  23  39  57  82 125 174 215 265 318 370
#     4  10  22  42  65  86 123 169 209 256 316 380
#     4  11  25  41  61  90 121 162 219 269 312 366
#     4  12  23  34  55  89 124 161 208 257 310 373
#     4  11  22  38  59  86 120 163 211 259 311 377
#     4  10  20  39  66  91 124 165 203 250 314 379
#     4  10  22  43  68  97 126 164 209 257 324 386
#
# _framework density 19.753086
#
# number of rings (size 3 to 8) (size 9 to 14) (size 15 to 20)
#    0.000    1.333    2.500    3.500    0.000    6.667 
#    1.500    0.000    0.000    0.000    0.000    0.000 
#    0.000    0.000    0.000    0.000    0.000    0.000 
#
# Total GULP energy -267804.590587 kJ/mol
# GULP energy per Si atom -5579.262304 kJ/mol
# Density = 1.970813 g / cm^3
# Si number density = 19.753086 Si / 1000 Ang^3
#
#
#
# Elastic Constant Matrix: (Units=GPa)
#
#
# Indices 1 2 3 4 5 6 
#
# 1 142.1668 59.4818 66.5360 0.0000 0.0000 0.0000
# 2 59.4818 55.0698 35.9151 0.0000 0.0000 0.0000
# 3 66.5360 35.9151 107.3346 0.0000 0.0000 0.0000
# 4 0.0000 0.0000 0.0000 32.5636 0.0000 0.0000
# 5 0.0000 0.0000 0.0000 0.0000 13.1324 0.0000
# 6 0.0000 0.0000 0.0000 0.0000 0.0000 43.3098
#
#
#
# Elastic Compliance Matrix: (Units=1/GPa)
#
#
# Indices 1 2 3 4 5 6 
#
# 1 0.014546 -0.012575 -0.004809 0.000000 0.000000 0.000000
# 2 -0.012575 0.034099 -0.003615 0.000000 0.000000 0.000000
# 3 -0.004809 -0.003615 0.013507 0.000000 0.000000 0.000000
# 4 0.000000 0.000000 0.000000 0.030709 0.000000 0.000000
# 5 0.000000 0.000000 0.000000 0.000000 0.076148 0.000000
# 6 0.000000 0.000000 0.000000 0.000000 0.000000 0.023089
#
#
# Mechanical properties :
#
#
# Convention : Reuss Voigt Hill
#
# Bulk Modulus (GPa) = 49.61706 69.82630 59.72168
# Shear Modulus (GPa) = 20.76290 27.31038 24.03664
#
# Velocity S-wave (km/s) = 3.24562 3.72235 3.49213
# Velocity P-wave (km/s) = 6.26247 7.34172 6.82347
#
# Compressibility (1/GPa) = 0.02015436
#
# Stress axis : x y z
#
# Youngs Moduli (GPa) = 68.74681 29.32678 74.03360
#
# Poissons Ratio (x) = 0.36878 0.35605
# Poissons Ratio (y) = 0.86449 0.26759
# Poissons Ratio (z) = 0.33063 0.10600
#
# Static dielectric constant tensor:
#      x y z
#    x 1.787320 0.000000 0.000000 
#    y 0.000000 1.655000 0.000000 
#    z 0.000000 0.000000 1.662820 
# 
# From -- ./inp_files/23736.got.cif
#   From: 2010.05.17/outbox.ucp.g08.bks.cvg/sg59_12_cif.got.tgz:23736.got - 2010.06.11 16:43:56.
