data_PCOD9453021
_publ_section_title
;
Structure prediction by ZEFSAII (Michael W. Deem and Ramdas Pophale) SiO2 
 PCOD9453021
Probable space group: P M M N
;
_chemical_formula_sum "Si O2"
_cell_formula_units_Z 56
_cell_length_a 8.328675
_cell_length_b 14.902781
_cell_length_c 24.329267
_cell_angle_alpha 90.000000
_cell_angle_beta 90.000000
_cell_angle_gamma 90.000000
_cell_volume 3019.758827
_symmetry_space_group_name_H-M "P M M N"
_symmetry_group_IT_number 59
_space_group.IT_coordinate_system_code '2'
_symmetry_cell_setting 'orthorhombic'
loop_
_space_group_symop_operation_xyz
x,y,z
1/2-x,1/2-y,z
1/2+x,-y,-z
-x,1/2+y,-z
-x,-y,-z
1/2+x,1/2+y,-z
1/2-x,y,z
x,1/2-y,z
loop_
_atom_site_type_symbol
_atom_site_label
_atom_site_fract_x
_atom_site_fract_y
_atom_site_fract_z
Si Si1 0.945790 0.750000 0.031900
Si Si2 0.445118 0.147989 0.474020
Si Si3 0.056072 0.351503 0.600103
Si Si4 0.942430 0.929993 0.846672
Si Si5 0.557690 0.948294 0.055498
Si Si6 0.554732 0.750000 0.905582
Si Si7 0.942209 0.538712 0.630101
Si Si8 0.941803 0.353725 0.264528
O O1 0.750000 0.750000 0.034128
O O2 0.000002 0.654950 0.055592
O O3 0.994773 0.750000 0.968329
O O4 0.250000 0.144402 0.475043
O O5 0.489194 0.250000 0.458092
O O6 0.498922 0.133560 0.536721
O O7 0.502390 0.078314 0.428416
O O8 0.250000 0.352577 0.600441
O O9 0.006115 0.250000 0.616158
O O10 0.995332 0.435427 0.634948
O O11 0.750000 0.932907 0.847365
O O12 0.000859 0.838106 0.875019
O O13 0.998174 0.918723 0.784222
O O14 0.004437 0.005812 0.887850
O O15 0.750000 0.948692 0.052472
O O16 0.500000 0.000000 0.000000
O O17 0.750000 0.750000 0.904735
O O18 0.750000 0.542322 0.630234
O O19 0.004569 0.602750 0.678217
O O20 0.750000 0.350526 0.262427
O O21 0.002067 0.250000 0.258311
#
# Coordination Sequence:
#
# PCOD9453021 Si02
#       8
#     4   8   8   8   8   4   8   8
#     4   9  18  34  54  80 116 152 182 215 268 325
#     4   8  15  29  50  78 111 145 181 219 268 331
#     4   9  18  34  55  77 106 146 187 229 275 325
#     4  11  21  37  59  83 112 147 183 226 278 332
#     4  11  21  35  56  84 115 151 189 229 273 326
#     4   9  16  30  54  82 112 146 180 213 264 329
#     4  11  21  33  54  82 112 146 182 226 277 329
#     4  11  24  40  58  83 112 143 183 228 272 327
#
# _framework density 18.544528
#
# number of rings (size 3 to 8) (size 9 to 14) (size 15 to 20)
#    0.000    2.000    2.143    3.429    0.000    1.714 
#    0.000    2.857    1.571    1.714    0.000    0.000 
#    0.000    0.000    0.000    0.000    0.000    0.000 
#
# Total GULP energy -312379.024480 kJ/mol
# GULP energy per Si atom -5578.196866 kJ/mol
# Density = 1.850232 g / cm^3
# Si number density = 18.544528 Si / 1000 Ang^3
#
#
#
# Elastic Constant Matrix: (Units=GPa)
#
#
# Indices 1 2 3 4 5 6 
#
# 1 33.0172 16.6244 10.9062 0.0000 0.0000 0.0000
# 2 16.6244 117.8405 39.9093 0.0000 0.0000 0.0000
# 3 10.9062 39.9093 58.9299 0.0000 0.0000 0.0000
# 4 0.0000 0.0000 0.0000 31.5319 0.0000 0.0000
# 5 0.0000 0.0000 0.0000 0.0000 23.8355 0.0000
# 6 0.0000 0.0000 0.0000 0.0000 0.0000 8.6112
#
#
#
# Elastic Compliance Matrix: (Units=1/GPa)
#
#
# Indices 1 2 3 4 5 6 
#
# 1 0.033268 -0.003384 -0.003865 0.000000 0.000000 0.000000
# 2 -0.003384 0.011356 -0.007064 0.000000 0.000000 0.000000
# 3 -0.003865 -0.007064 0.022469 0.000000 0.000000 0.000000
# 4 0.000000 0.000000 0.000000 0.031714 0.000000 0.000000
# 5 0.000000 0.000000 0.000000 0.000000 0.041954 0.000000
# 6 0.000000 0.000000 0.000000 0.000000 0.000000 0.116128
#
#
# Mechanical properties :
#
#
# Convention : Reuss Voigt Hill
#
# Bulk Modulus (GPa) = 25.99731 38.29639 32.14685
# Shear Modulus (GPa) = 16.75954 22.28556 19.52255
#
# Velocity S-wave (km/s) = 3.00950 3.47036 3.24811
# Velocity P-wave (km/s) = 5.11130 6.06249 5.60710
#
# Compressibility (1/GPa) = 0.03846552
#
# Stress axis : x y z
#
# Youngs Moduli (GPa) = 30.05898 88.05932 44.50618
#
# Poissons Ratio (x) = 0.29802 0.17201
# Poissons Ratio (y) = 0.10173 0.31441
# Poissons Ratio (z) = 0.11618 0.62208
#
# Static dielectric constant tensor:
#      x y z
#    x 1.642670 0.000000 0.000000 
#    y 0.000000 1.666400 0.000000 
#    z 0.000000 0.000000 1.634730 
# 
# From -- ./inp_files/29192.got.cif
#   From: 2010.05.17/outbox.cif.g08.bks.cpg/sg59_15_cif.got.tgz:29192.got - 2010.06.03 14:40:33.
