data_PCOD9453339
_publ_section_title
;
Structure prediction by ZEFSAII (Michael W. Deem and Ramdas Pophale) SiO2 
 PCOD9453339
Probable space group: P M M N
;
_chemical_formula_sum "Si O2"
_cell_formula_units_Z 64
_cell_length_a 24.000000
_cell_length_b 9.000000
_cell_length_c 18.000000
_cell_angle_alpha 90.000000
_cell_angle_beta 90.000000
_cell_angle_gamma 90.000000
_cell_volume 3888.000000
_symmetry_space_group_name_H-M "P M M N"
_symmetry_group_IT_number 59
_space_group.IT_coordinate_system_code '2'
_symmetry_cell_setting 'orthorhombic'
loop_
_space_group_symop_operation_xyz
x,y,z
1/2-x,1/2-y,z
1/2+x,-y,-z
-x,1/2+y,-z
-x,-y,-z
1/2+x,1/2+y,-z
1/2-x,y,z
x,1/2-y,z
loop_
_atom_site_type_symbol
_atom_site_label
_atom_site_fract_x
_atom_site_fract_y
_atom_site_fract_z
Si Si1 0.907138 0.075312 0.002486
Si Si2 0.686173 0.927108 0.088614
Si Si3 0.514258 0.081756 0.267313
Si Si4 0.359698 0.572980 0.762817
Si Si5 0.811175 0.427243 0.394226
Si Si6 0.484737 0.417551 0.097290
Si Si7 0.086792 0.426056 0.523772
Si Si8 0.529550 0.075553 0.602432
O O1 0.897447 0.250000 0.007068
O O2 0.956198 0.035980 0.061539
O O3 0.851881 0.988863 0.022967
O O4 0.935651 0.025304 0.926603
O O5 0.750000 0.976577 0.082474
O O6 0.684448 0.750000 0.089829
O O7 0.660405 0.989868 0.164607
O O8 0.514010 0.250000 0.299343
O O9 0.578257 0.029553 0.262879
O O10 0.493111 0.088774 0.184029
O O11 0.475596 0.974008 0.313608
O O12 0.361861 0.750000 0.778740
O O13 0.319663 0.545682 0.693374
O O14 0.750000 0.476411 0.417688
O O15 0.815955 0.250000 0.404405
O O16 0.859785 0.505615 0.438238
O O17 0.473139 0.250000 0.068698
O O18 0.090030 0.250000 0.523340
O O19 0.076426 0.489424 0.442247
O O20 0.030998 0.469531 0.569139
O O21 0.536389 0.250000 0.592173
#
# Coordination Sequence:
#
# PCOD9453339 Si02
#       8
#     8   8   8   8   8   8   8   8
#     4  10  19  33  51  72  95 128 168 206 247 291
#     4  11  23  35  48  69  99 135 172 210 249 288
#     4  10  18  31  51  74 101 132 164 199 244 298
#     4  10  19  33  50  70  99 135 174 206 237 287
#     4  10  20  33  50  71  98 134 171 207 246 287
#     4   9  18  32  49  72 100 129 160 201 250 294
#     4  10  20  33  49  70  96 130 167 207 250 291
#     4  10  20  32  49  72  98 128 164 206 251 295
#
# _framework density 16.460905
#
# number of rings (size 3 to 8) (size 9 to 14) (size 15 to 20)
#    0.000    2.000    2.500    1.875    0.000    4.750 
#    0.000    0.000    0.000    0.000    0.000    0.875 
#    0.000    1.000    0.000    0.000    0.000    0.000 
#
# Total GULP energy -356789.183048 kJ/mol
# GULP energy per Si atom -5574.830985 kJ/mol
# Density = 1.642344 g / cm^3
# Si number density = 16.460905 Si / 1000 Ang^3
#
#
#
# Elastic Constant Matrix: (Units=GPa)
#
#
# Indices 1 2 3 4 5 6 
#
# 1 50.1137 32.2133 23.9144 0.0000 0.0000 0.0000
# 2 32.2133 8.4935 16.0334 0.0000 0.0000 0.0000
# 3 23.9144 16.0334 32.3703 0.0000 0.0000 0.0000
# 4 0.0000 0.0000 0.0000 23.6792 0.0000 0.0000
# 5 0.0000 0.0000 0.0000 0.0000 -31.9305 0.0000
# 6 0.0000 0.0000 0.0000 0.0000 0.0000 22.2045
#
#
#
# Elastic Compliance Matrix: (Units=1/GPa)
#
#
# Indices 1 2 3 4 5 6 
#
# 1 -0.001391 0.051311 -0.024388 0.000000 0.000000 0.000000
# 2 0.051311 -0.081738 0.002579 0.000000 0.000000 0.000000
# 3 -0.024388 0.002579 0.047632 0.000000 0.000000 0.000000
# 4 0.000000 0.000000 0.000000 0.042231 0.000000 0.000000
# 5 0.000000 0.000000 0.000000 0.000000 -0.031318 0.000000
# 6 0.000000 0.000000 0.000000 0.000000 0.000000 0.045036
#
#
# Mechanical properties :
#
#
# Convention : Reuss Voigt Hill
#
# Bulk Modulus (GPa) = 42.53955 26.14440 34.34197
# Shear Modulus (GPa) = -162.78150 4.04509 -79.36820
#
# Velocity S-wave (km/s) = -9.95512 1.56931 -6.95132
# Velocity P-wave (km/s) = 10.30730 4.38188 6.59695
#
# Compressibility (1/GPa) = 0.02350754
#
# Stress axis : x y z
#
# Youngs Moduli (GPa) = -719.15003 -12.23414 20.99413
#
# Poissons Ratio (x) = 0.62775 0.51200
# Poissons Ratio (y) = 36.90050 -0.05414
# Poissons Ratio (z) = -17.53850 0.03155
#
# Static dielectric constant tensor:
#      x y z
#    x 1.542410 0.000000 0.000000 
#    y 0.000000 1.565850 0.000000 
#    z 0.000000 0.000000 1.576010 
# 
# From -- ./inp_files/26480.got.cif
#   From: 2010.05.17/outbox.ucp.g08.bks.cvg/sg59_14_cif.got.tgz:26480.got - 2010.06.11 16:43:56.
