data_PCOD9453586
_publ_section_title
;
Structure prediction by ZEFSAII (Michael W. Deem and Ramdas Pophale) SiO2 
 PCOD9453586
Probable space group: P M M N
;
_chemical_formula_sum "Si O2"
_cell_formula_units_Z 64
_cell_length_a 15.000000
_cell_length_b 24.000000
_cell_length_c 9.000000
_cell_angle_alpha 90.000000
_cell_angle_beta 90.000000
_cell_angle_gamma 90.000000
_cell_volume 3240.000000
_symmetry_space_group_name_H-M "P M M N"
_symmetry_group_IT_number 59
_space_group.IT_coordinate_system_code '2'
_symmetry_cell_setting 'orthorhombic'
loop_
_space_group_symop_operation_xyz
x,y,z
1/2-x,1/2-y,z
1/2+x,-y,-z
-x,1/2+y,-z
-x,-y,-z
1/2+x,1/2+y,-z
1/2-x,y,z
x,1/2-y,z
loop_
_atom_site_type_symbol
_atom_site_label
_atom_site_fract_x
_atom_site_fract_y
_atom_site_fract_z
Si Si1 0.989169 0.180723 0.807450
Si Si2 0.147458 0.007440 0.479942
Si Si3 0.352224 0.018408 0.021952
Si Si4 0.357165 0.921531 0.241306
Si Si5 0.853004 0.624798 0.380163
Si Si6 0.482208 0.118838 0.110936
Si Si7 0.848788 0.443085 0.227252
Si Si8 0.348319 0.184671 0.311341
O O1 0.980647 0.250000 0.789202
O O2 0.078083 0.154426 0.731180
O O3 0.998564 0.162394 0.979059
O O4 0.909328 0.137533 0.752390
O O5 0.250000 0.021392 0.435723
O O6 0.106282 0.972891 0.344095
O O7 0.148773 0.959289 0.602034
O O8 0.113625 0.065721 0.547835
O O9 0.250000 0.034654 0.061325
O O10 0.366470 0.955570 0.086757
O O11 0.357762 0.003973 0.849174
O O12 0.424265 0.064640 0.061423
O O13 0.250000 0.913520 0.268127
O O14 0.750000 0.616731 0.323608
O O15 0.847529 0.666968 0.518024
O O16 0.572742 0.097470 0.184004
O O17 0.422114 0.149604 0.230090
O O18 0.750000 0.421509 0.188643
O O19 0.250000 0.171667 0.248483
O O20 0.363940 0.250000 0.295940
#
# Coordination Sequence:
#
# PCOD9453586 Si02
#       8
#     8   8   8   8   8   8   8   8
#     4  12  27  41  59  89 124 169 217 245 289 359
#     4   9  19  36  61  92 120 149 192 248 313 371
#     4  10  20  37  60  89 122 156 198 249 314 375
#     4  10  22  41  63  90 125 159 202 258 309 362
#     4  10  22  42  65  91 125 159 194 247 313 374
#     4  12  23  37  61  90 123 159 204 256 305 353
#     4  10  21  36  56  87 124 158 190 237 305 369
#     4  10  22  41  62  84 115 159 206 249 297 356
#
# _framework density 19.753086
#
# number of rings (size 3 to 8) (size 9 to 14) (size 15 to 20)
#    0.000    1.625    1.250    3.000    3.500    5.500 
#    0.000    0.000    0.000    1.125    0.000    0.000 
#    0.000    0.000    0.000    0.000    0.000    0.000 
#
# Total GULP energy -356626.574532 kJ/mol
# GULP energy per Si atom -5572.290227 kJ/mol
# Density = 1.970813 g / cm^3
# Si number density = 19.753086 Si / 1000 Ang^3
#
#
#
# Elastic Constant Matrix: (Units=GPa)
#
#
# Indices 1 2 3 4 5 6 
#
# 1 99.7725 40.8479 8.6243 0.0000 0.0000 0.0000
# 2 40.8479 104.8293 -2.0754 0.0000 0.0000 0.0000
# 3 8.6243 -2.0754 33.8400 0.0000 0.0000 0.0000
# 4 0.0000 0.0000 0.0000 30.2363 0.0000 0.0000
# 5 0.0000 0.0000 0.0000 0.0000 20.7484 0.0000
# 6 0.0000 0.0000 0.0000 0.0000 0.0000 34.8524
#
#
#
# Elastic Compliance Matrix: (Units=1/GPa)
#
#
# Indices 1 2 3 4 5 6 
#
# 1 0.012312 -0.004865 -0.003436 0.000000 0.000000 0.000000
# 2 -0.004865 0.011474 0.001944 0.000000 0.000000 0.000000
# 3 -0.003436 0.001944 0.030546 0.000000 0.000000 0.000000
# 4 0.000000 0.000000 0.000000 0.033073 0.000000 0.000000
# 5 0.000000 0.000000 0.000000 0.000000 0.048196 0.000000
# 6 0.000000 0.000000 0.000000 0.000000 0.000000 0.028692
#
#
# Mechanical properties :
#
#
# Convention : Reuss Voigt Hill
#
# Bulk Modulus (GPa) = 24.02958 37.02616 30.52787
# Shear Modulus (GPa) = 26.19439 29.90374 28.04907
#
# Velocity S-wave (km/s) = 3.64550 3.89508 3.77236
# Velocity P-wave (km/s) = 5.46909 6.24612 5.87048
#
# Compressibility (1/GPa) = 0.04161538
#
# Stress axis : x y z
#
# Youngs Moduli (GPa) = 81.22301 87.15602 32.73780
#
# Poissons Ratio (x) = 0.42405 0.11249
# Poissons Ratio (y) = 0.39519 -0.06363
# Poissons Ratio (z) = 0.27909 -0.16940
#
# Static dielectric constant tensor:
#      x y z
#    x 1.730430 0.000000 0.000000 
#    y 0.000000 1.660890 0.000000 
#    z 0.000000 0.000000 1.771320 
# 
# From -- ./inp_files/9588.got.cif
#   From: 2010.05.17/outbox.ucp.g08.bks.cvg/sg59_5_cif.got.tgz:9588.got - 2010.06.11 16:43:56.
