data_PCOD9453704
_publ_section_title
;
Structure prediction by ZEFSAII (Michael W. Deem and Ramdas Pophale) SiO2 
 PCOD9453704
Probable space group: P B C N
;
_chemical_formula_sum "Si O2"
_cell_formula_units_Z 44
_cell_length_a 7.837966
_cell_length_b 24.453427
_cell_length_c 11.180045
_cell_angle_alpha 90.000000
_cell_angle_beta 90.000000
_cell_angle_gamma 90.000000
_cell_volume 2142.824772
_symmetry_space_group_name_H-M "P B C N"
_symmetry_group_IT_number 60
_symmetry_cell_setting 'orthorhombic'
loop_
_space_group_symop_operation_xyz
x,y,z
1/2-x,1/2-y,1/2+z
1/2+x,1/2-y,-z
-x,y,1/2-z
-x,-y,-z
1/2+x,1/2+y,1/2-z
1/2-x,1/2+y,z
x,-y,1/2+z
loop_
_atom_site_type_symbol
_atom_site_label
_atom_site_fract_x
_atom_site_fract_y
_atom_site_fract_z
Si Si1 0.000000 0.150336 0.750000
Si Si2 0.957303 0.782580 0.021914
Si Si3 0.679171 0.574082 0.940301
Si Si4 0.191445 0.843952 0.692176
Si Si5 0.114636 0.957032 0.631910
Si Si6 0.824321 0.328395 0.559437
O O1 0.084278 0.190057 0.849664
O O2 0.122723 0.109955 0.674519
O O3 0.955868 0.717225 0.018894
O O4 0.830658 0.805337 0.920672
O O5 0.142801 0.805112 0.987495
O O6 0.713614 0.511821 0.903317
O O7 0.516479 0.565110 0.029655
O O8 0.821140 0.609935 0.009283
O O9 0.234628 0.905636 0.656220
O O10 0.312780 0.826224 0.798080
O O11 0.000000 0.847297 0.750000
O O12 0.000000 0.969051 0.750000
#
# Coordination Sequence:
#
# PCOD9453704 Si02
#       6
#     4   8   8   8   8   8
#     4  10  18  30  42  76 102 124 164 204 246 284
#     4  10  21  33  50  71 106 135 165 208 239 296
#     4  10  18  26  46  71 100 126 160 205 249 300
#     4   9  16  32  46  68 102 137 159 194 256 305
#     4  10  15  28  45  68 102 129 154 201 264 294
#     4  10  20  34  50  74 105 133 169 199 249 296
#
# _framework density 20.533643000000001
#
# number of rings (size 3 to 8) (size 9 to 14) (size 15 to 20)
#    0.000    2.182    8.182    0.000    5.091    0.000 
#    0.000    0.000    0.000    0.000    0.000    1.273 
#    5.455    0.000    0.000    0.000    0.000    0.000 
#
# Total GULP energy -245210.366888 kJ/mol
# GULP energy per Si atom -5572.962884 kJ/mol
# Density = 2.048691 g / cm^3
# Si number density = 20.533643 Si / 1000 Ang^3
#
#
#
# Elastic Constant Matrix: (Units=GPa)
#
#
# Indices 1 2 3 4 5 6 
#
# 1 27.9099 21.4434 13.1044 0.0000 0.0000 0.0000
# 2 21.4434 134.0810 29.6594 0.0000 0.0000 0.0000
# 3 13.1044 29.6594 112.1493 0.0000 0.0000 0.0000
# 4 0.0000 0.0000 0.0000 16.8052 0.0000 0.0000
# 5 0.0000 0.0000 0.0000 0.0000 1.9733 0.0000
# 6 0.0000 0.0000 0.0000 0.0000 0.0000 20.6621
#
#
#
# Elastic Compliance Matrix: (Units=1/GPa)
#
#
# Indices 1 2 3 4 5 6 
#
# 1 0.041984 -0.005979 -0.003325 0.000000 0.000000 0.000000
# 2 -0.005979 0.008773 -0.001622 0.000000 0.000000 0.000000
# 3 -0.003325 -0.001622 0.009734 0.000000 0.000000 0.000000
# 4 0.000000 0.000000 0.000000 0.059505 0.000000 0.000000
# 5 0.000000 0.000000 0.000000 0.000000 0.506766 0.000000
# 6 0.000000 0.000000 0.000000 0.000000 0.000000 0.048398
#
#
# Mechanical properties :
#
#
# Convention : Reuss Voigt Hill
#
# Bulk Modulus (GPa) = 25.87918 44.72831 35.30374
# Shear Modulus (GPa) = 7.04334 21.88367 14.46350
#
# Velocity S-wave (km/s) = 1.85407 3.26812 2.65690
# Velocity P-wave (km/s) = 4.14899 6.00592 5.16164
#
# Compressibility (1/GPa) = 0.03864110
#
# Stress axis : x y z
#
# Youngs Moduli (GPa) = 23.81842 113.98490 102.73289
#
# Poissons Ratio (x) = 0.68153 0.34154
# Poissons Ratio (y) = 0.14241 0.16658
# Poissons Ratio (z) = 0.07919 0.18483
#
# Static dielectric constant tensor:
#      x y z
#    x 1.751470 0.000000 0.000000 
#    y 0.000000 1.768240 0.000000 
#    z 0.000000 0.000000 1.775540 
# 
# From -- ./inp_files/11280.got.cif
#   From: 2010.05.17/outbox.cif.g08.bks.cpg/sg60_6_cif.got.tgz:11280.got - 2010.06.03 14:59:27.
