data_PCOD9453604
_publ_section_title
;
Structure prediction by ZEFSAII (Michael W. Deem and Ramdas Pophale) SiO2 
 PCOD9453604
Probable space group: P M M N
;
_chemical_formula_sum "Si O2"
_cell_formula_units_Z 64
_cell_length_a 9.000000
_cell_length_b 24.000000
_cell_length_c 15.000000
_cell_angle_alpha 90.000000
_cell_angle_beta 90.000000
_cell_angle_gamma 90.000000
_cell_volume 3240.000000
_symmetry_space_group_name_H-M "P M M N"
_symmetry_group_IT_number 59
_space_group.IT_coordinate_system_code '2'
_symmetry_cell_setting 'orthorhombic'
loop_
_space_group_symop_operation_xyz
x,y,z
1/2-x,1/2-y,z
1/2+x,-y,-z
-x,1/2+y,-z
-x,-y,-z
1/2+x,1/2+y,-z
1/2-x,y,z
x,1/2-y,z
loop_
_atom_site_type_symbol
_atom_site_label
_atom_site_fract_x
_atom_site_fract_y
_atom_site_fract_z
Si Si1 0.581705 0.526836 0.891792
Si Si2 0.922765 0.186382 0.308813
Si Si3 0.076068 0.187506 0.498554
Si Si4 0.585204 0.916136 0.707893
Si Si5 0.928079 0.091406 0.961778
Si Si6 0.430050 0.814746 0.170068
Si Si7 0.072452 0.114823 0.670927
Si Si8 0.575122 0.000981 0.404662
O O1 0.750000 0.528637 0.928587
O O2 0.587395 0.542339 0.789876
O O3 0.525641 0.463893 0.905600
O O4 0.488053 0.573613 0.942455
O O5 0.750000 0.172272 0.299045
O O6 0.944232 0.250000 0.280578
O O7 0.974012 0.182611 0.412057
O O8 0.029512 0.143526 0.259962
O O9 0.250000 0.182956 0.472157
O O10 0.055752 0.250000 0.535926
O O11 0.046012 0.143481 0.575147
O O12 0.750000 0.913291 0.668477
O O13 0.468891 0.941018 0.639339
O O14 0.750000 0.093670 0.963478
O O15 0.978682 0.148432 0.915654
O O16 0.250000 0.814796 0.172873
O O17 0.478492 0.750000 0.169392
O O18 0.489872 0.849451 0.254379
O O19 0.250000 0.116701 0.688733
O O20 0.024785 0.050831 0.657253
O O21 0.750000 0.995094 0.415100
O O22 0.500000 0.000000 0.500000
#
# Coordination Sequence:
#
# PCOD9453604 Si02
#       8
#     8   8   8   8   8   8   8   8
#     4   9  19  35  57  83 106 135 177 222 270 325
#     4  10  21  36  54  77 104 135 175 222 269 317
#     4   9  17  31  51  73 100 137 180 223 267 315
#     4  11  22  37  57  80 109 143 179 220 268 323
#     4   9  18  35  57  80 108 138 171 217 271 325
#     4  10  21  36  55  81 113 149 186 224 274 338
#     4  10  21  35  52  77 108 143 183 226 272 322
#     4  11  23  37  55  82 115 150 189 233 282 332
#
# _framework density 19.753086
#
# number of rings (size 3 to 8) (size 9 to 14) (size 15 to 20)
#    0.000    2.125    0.000    3.000    0.000    6.500 
#    0.000    4.375    0.000    2.250    0.000    0.000 
#    0.000    0.000    0.000    0.000    0.000    0.000 
#
# Total GULP energy -356817.117267 kJ/mol
# GULP energy per Si atom -5575.267457 kJ/mol
# Density = 1.970813 g / cm^3
# Si number density = 19.753086 Si / 1000 Ang^3
#
#
#
# Elastic Constant Matrix: (Units=GPa)
#
#
# Indices 1 2 3 4 5 6 
#
# 1 25.8380 34.8431 16.9860 0.0000 0.0000 0.0000
# 2 34.8431 119.0648 33.0200 0.0000 0.0000 0.0000
# 3 16.9860 33.0200 36.8412 0.0000 0.0000 0.0000
# 4 0.0000 0.0000 0.0000 26.9365 0.0000 0.0000
# 5 0.0000 0.0000 0.0000 0.0000 25.6079 0.0000
# 6 0.0000 0.0000 0.0000 0.0000 0.0000 22.2263
#
#
#
# Elastic Compliance Matrix: (Units=1/GPa)
#
#
# Indices 1 2 3 4 5 6 
#
# 1 0.072969 -0.016001 -0.019302 0.000000 0.000000 0.000000
# 2 -0.016001 0.014686 -0.005785 0.000000 0.000000 0.000000
# 3 -0.019302 -0.005785 0.041228 0.000000 0.000000 0.000000
# 4 0.000000 0.000000 0.000000 0.037124 0.000000 0.000000
# 5 0.000000 0.000000 0.000000 0.000000 0.039050 0.000000
# 6 0.000000 0.000000 0.000000 0.000000 0.000000 0.044992
#
#
# Mechanical properties :
#
#
# Convention : Reuss Voigt Hill
#
# Bulk Modulus (GPa) = 21.41007 39.04913 30.22960
# Shear Modulus (GPa) = 14.37631 21.41380 17.89506
#
# Velocity S-wave (km/s) = 2.70071 3.29610 3.01314
# Velocity P-wave (km/s) = 4.53734 5.85638 5.23854
#
# Compressibility (1/GPa) = 0.04670698
#
# Stress axis : x y z
#
# Youngs Moduli (GPa) = 13.70440 68.09401 24.25535
#
# Poissons Ratio (x) = 1.08955 0.46818
# Poissons Ratio (y) = 0.21928 0.14032
# Poissons Ratio (z) = 0.26452 0.39393
#
# Static dielectric constant tensor:
#      x y z
#    x 1.687820 0.000000 0.000000 
#    y 0.000000 1.745440 0.000000 
#    z 0.000000 0.000000 1.684090 
# 
# From -- ./inp_files/21620.got.cif
#   From: 2010.05.17/outbox.ucp.g08.bks.cvg/sg59_11_cif.got.tgz:21620.got - 2010.06.11 16:43:56.
