data_PCOD9453233
_publ_section_title
;
Structure prediction by ZEFSAII (Michael W. Deem and Ramdas Pophale) SiO2 
 PCOD9453233
Probable space group: P M M N
;
_chemical_formula_sum "Si O2"
_cell_formula_units_Z 64
_cell_length_a 9.265206
_cell_length_b 13.716801
_cell_length_c 24.852692
_cell_angle_alpha 90.000000
_cell_angle_beta 90.000000
_cell_angle_gamma 90.000000
_cell_volume 3158.503449
_symmetry_space_group_name_H-M "P M M N"
_symmetry_group_IT_number 59
_space_group.IT_coordinate_system_code '2'
_symmetry_cell_setting 'orthorhombic'
loop_
_space_group_symop_operation_xyz
x,y,z
1/2-x,1/2-y,z
1/2+x,-y,-z
-x,1/2+y,-z
-x,-y,-z
1/2+x,1/2+y,-z
1/2-x,y,z
x,1/2-y,z
loop_
_atom_site_type_symbol
_atom_site_label
_atom_site_fract_x
_atom_site_fract_y
_atom_site_fract_z
Si Si1 0.425095 0.640532 0.249656
Si Si2 0.576662 0.860271 0.465626
Si Si3 0.414890 0.369079 0.977183
Si Si4 0.084583 0.630799 0.915810
Si Si5 0.415563 0.366829 0.190188
Si Si6 0.425161 0.052698 0.303028
Si Si7 0.576341 0.548624 0.579189
Si Si8 0.584002 0.131080 0.871080
O O1 0.250000 0.644692 0.248486
O O2 0.478748 0.750000 0.259423
O O3 0.464741 0.560416 0.293418
O O4 0.465596 0.605865 0.189416
O O5 0.750000 0.869492 0.459064
O O6 0.534479 0.750000 0.451463
O O7 0.496390 0.944639 0.433033
O O8 0.543908 0.881898 0.528682
O O9 0.250000 0.400709 0.982807
O O10 0.414993 0.250000 0.976945
O O11 0.507485 0.398602 0.028945
O O12 0.484516 0.399053 0.920537
O O13 0.250000 0.599990 0.914654
O O14 0.082892 0.750000 0.915507
O O15 0.001754 0.599046 0.862044
O O16 0.250000 0.402596 0.186812
O O17 0.411378 0.250000 0.187648
O O18 0.475943 0.394278 0.248854
O O19 0.250000 0.061534 0.302239
O O20 0.471533 0.085829 0.362095
O O21 0.750000 0.536255 0.580487
O O22 0.750000 0.100160 0.879842
O O23 0.586084 0.250000 0.870640
#
# Coordination Sequence:
#
# PCOD9453233 Si02
#       8
#     8   8   8   8   8   8   8   8
#     4   8  14  25  42  65  92 120 151 190 236 283
#     4   9  18  33  52  74 105 142 171 201 248 297
#     4   9  15  22  36  60  87 113 144 187 238 287
#     4   9  16  26  41  61  86 117 154 194 235 284
#     4   9  17  29  45  66  93 123 154 191 237 287
#     4   9  17  29  47  72  99 126 158 198 240 278
#     4   9  18  32  51  77 104 131 171 214 245 285
#     4   8  13  22  37  57  81 110 144 181 225 281
#
# _framework density 20.26276
#
# number of rings (size 3 to 8) (size 9 to 14) (size 15 to 20)
#    0.000    3.250    0.000    1.500    0.000    4.250 
#    0.000    4.375    0.000    2.250    0.000    3.500 
#    0.000    0.000    0.000    0.000    0.000    0.000 
#
# Total GULP energy -357080.365922 kJ/mol
# GULP energy per Si atom -5579.380718 kJ/mol
# Density = 2.021664 g / cm^3
# Si number density = 20.262760 Si / 1000 Ang^3
#
#
#
# Elastic Constant Matrix: (Units=GPa)
#
#
# Indices 1 2 3 4 5 6 
#
# 1 42.3877 -4.0477 25.3482 0.0000 0.0000 0.0000
# 2 -4.0477 44.5810 -9.8702 0.0000 0.0000 0.0000
# 3 25.3482 -9.8702 104.3354 0.0000 0.0000 0.0000
# 4 0.0000 0.0000 0.0000 16.0400 0.0000 0.0000
# 5 0.0000 0.0000 0.0000 0.0000 19.0985 0.0000
# 6 0.0000 0.0000 0.0000 0.0000 0.0000 11.4120
#
#
#
# Elastic Compliance Matrix: (Units=1/GPa)
#
#
# Indices 1 2 3 4 5 6 
#
# 1 0.027650 0.001045 -0.006619 0.000000 0.000000 0.000000
# 2 0.001045 0.022950 0.001917 0.000000 0.000000 0.000000
# 3 -0.006619 0.001917 0.011374 0.000000 0.000000 0.000000
# 4 0.000000 0.000000 0.000000 0.062344 0.000000 0.000000
# 5 0.000000 0.000000 0.000000 0.000000 0.052360 0.000000
# 6 0.000000 0.000000 0.000000 0.000000 0.000000 0.087627
#
#
# Mechanical properties :
#
#
# Convention : Reuss Voigt Hill
#
# Bulk Modulus (GPa) = 18.29449 23.79608 21.04528
# Shear Modulus (GPa) = 17.25102 21.30168 19.27635
#
# Velocity S-wave (km/s) = 2.92098 3.24585 3.08769
# Velocity P-wave (km/s) = 4.51934 5.08101 4.80838
#
# Compressibility (1/GPa) = 0.05466128
#
# Stress axis : x y z
#
# Youngs Moduli (GPa) = 36.16697 43.57211 87.92116
#
# Poissons Ratio (x) = -0.04554 0.58191
# Poissons Ratio (y) = -0.03780 -0.16856
# Poissons Ratio (z) = 0.23937 -0.08354
#
# Static dielectric constant tensor:
#      x y z
#    x 1.681760 0.000000 0.000000 
#    y 0.000000 1.774050 0.000000 
#    z 0.000000 0.000000 1.711380 
# 
# From -- ./inp_files/31568.got.cif
#   From: 2010.05.17/outbox.cif.g08.bks.cpg/sg59_16_cif.got.tgz:31568.got - 2010.06.03 14:40:33.
