data_PCOD9453647
_publ_section_title
;
Structure prediction by ZEFSAII (Michael W. Deem and Ramdas Pophale) SiO2 
 PCOD9453647
Probable space group: P M M N
;
_chemical_formula_sum "Si O2"
_cell_formula_units_Z 56
_cell_length_a 9.000000
_cell_length_b 15.000000
_cell_length_c 21.000000
_cell_angle_alpha 90.000000
_cell_angle_beta 90.000000
_cell_angle_gamma 90.000000
_cell_volume 2835.000000
_symmetry_space_group_name_H-M "P M M N"
_symmetry_group_IT_number 59
_space_group.IT_coordinate_system_code '2'
_symmetry_cell_setting 'orthorhombic'
loop_
_space_group_symop_operation_xyz
x,y,z
1/2-x,1/2-y,z
1/2+x,-y,-z
-x,1/2+y,-z
-x,-y,-z
1/2+x,1/2+y,-z
1/2-x,y,z
x,1/2-y,z
loop_
_atom_site_type_symbol
_atom_site_label
_atom_site_fract_x
_atom_site_fract_y
_atom_site_fract_z
Si Si1 0.082639 0.353327 0.703579
Si Si2 0.921064 0.521674 0.418625
Si Si3 0.570656 0.854700 0.537593
Si Si4 0.576103 0.467034 0.801819
Si Si5 0.429496 0.355224 0.912437
Si Si6 0.573507 0.353228 0.186266
Si Si7 0.917733 0.643033 0.945763
O O1 0.250000 0.359654 0.732591
O O2 0.061128 0.250000 0.685918
O O3 0.078947 0.418936 0.644056
O O4 0.961319 0.390590 0.751029
O O5 0.750000 0.498466 0.434534
O O6 0.974833 0.591874 0.472969
O O7 0.008924 0.428333 0.412755
O O8 0.750000 0.852567 0.539810
O O9 0.521918 0.750000 0.541159
O O10 0.750000 0.480260 0.809332
O O11 0.503187 0.424673 0.864818
O O12 0.502920 0.561510 0.780886
O O13 0.250000 0.358467 0.907523
O O14 0.471375 0.250000 0.901487
O O15 0.469333 0.384226 0.984370
O O16 0.750000 0.357418 0.194638
O O17 0.526364 0.250000 0.201804
O O18 0.527097 0.370533 0.112814
O O19 0.750000 0.608852 0.932554
O O20 0.904140 0.750000 0.951336
#
# Coordination Sequence:
#
# PCOD9453647 Si02
#       7
#     8   8   8   8   8   8   8
#     4  10  21  39  61  81 106 143 184 225 267 313
#     4   9  18  33  55  83 112 146 189 228 265 314
#     4   9  17  31  53  83 119 153 183 220 267 316
#     4  12  25  37  53  78 107 139 176 221 271 321
#     4   9  18  34  55  78 107 142 176 213 261 318
#     4  10  21  38  59  79 100 131 173 220 269 324
#     4   8  15  30  53  79 105 133 167 211 265 321
#
# _framework density 19.753086
#
# number of rings (size 3 to 8) (size 9 to 14) (size 15 to 20)
#    0.000    2.429    0.000    3.429    0.000    6.857 
#    0.000    2.143    0.000    3.429    0.000    0.000 
#    0.000    0.000    0.000    0.000    0.000    0.000 
#
# Total GULP energy -312015.343350 kJ/mol
# GULP energy per Si atom -5571.702560 kJ/mol
# Density = 1.970813 g / cm^3
# Si number density = 19.753086 Si / 1000 Ang^3
#
#
#
# Elastic Constant Matrix: (Units=GPa)
#
#
# Indices 1 2 3 4 5 6 
#
# 1 38.4363 37.4178 4.1777 0.0000 0.0000 0.0000
# 2 37.4178 158.0194 12.4776 0.0000 0.0000 0.0000
# 3 4.1777 12.4776 21.4864 0.0000 0.0000 0.0000
# 4 0.0000 0.0000 0.0000 25.4160 0.0000 0.0000
# 5 0.0000 0.0000 0.0000 0.0000 14.9838 0.0000
# 6 0.0000 0.0000 0.0000 0.0000 0.0000 31.9878
#
#
#
# Elastic Compliance Matrix: (Units=1/GPa)
#
#
# Indices 1 2 3 4 5 6 
#
# 1 0.033895 -0.007866 -0.002022 0.000000 0.000000 0.000000
# 2 -0.007866 0.008458 -0.003382 0.000000 0.000000 0.000000
# 3 -0.002022 -0.003382 0.048898 0.000000 0.000000 0.000000
# 4 0.000000 0.000000 0.000000 0.039345 0.000000 0.000000
# 5 0.000000 0.000000 0.000000 0.000000 0.066739 0.000000
# 6 0.000000 0.000000 0.000000 0.000000 0.000000 0.031262
#
#
# Mechanical properties :
#
#
# Convention : Reuss Voigt Hill
#
# Bulk Modulus (GPa) = 15.45367 36.23204 25.84285
# Shear Modulus (GPa) = 18.06953 25.40211 21.73582
#
# Velocity S-wave (km/s) = 3.02780 3.58995 3.32079
# Velocity P-wave (km/s) = 4.47927 5.96372 5.27398
#
# Compressibility (1/GPa) = 0.06470955
#
# Stress axis : x y z
#
# Youngs Moduli (GPa) = 29.50305 118.22989 20.45059
#
# Poissons Ratio (x) = 0.93004 0.04136
# Poissons Ratio (y) = 0.23208 0.06917
# Poissons Ratio (z) = 0.05966 0.39989
#
# Static dielectric constant tensor:
#      x y z
#    x 1.685390 0.000000 0.000000 
#    y 0.000000 1.708710 0.000000 
#    z 0.000000 0.000000 1.786690 
# 
# From -- ./inp_files/29129.got.cif
#   From: 2010.05.17/outbox.ucp.g08.bks.cvg/sg59_15_cif.got.tgz:29129.got - 2010.06.11 16:43:56.
