data_PCOD9453196
_publ_section_title
;
Structure prediction by ZEFSAII (Michael W. Deem and Ramdas Pophale) SiO2 
 PCOD9453196
Probable space group: P M M N
;
_chemical_formula_sum "Si O2"
_cell_formula_units_Z 48
_cell_length_a 10.408680
_cell_length_b 8.230427
_cell_length_c 29.797465
_cell_angle_alpha 90.000000
_cell_angle_beta 90.000000
_cell_angle_gamma 90.000000
_cell_volume 2552.685683
_symmetry_space_group_name_H-M "P M M N"
_symmetry_group_IT_number 59
_space_group.IT_coordinate_system_code '2'
_symmetry_cell_setting 'orthorhombic'
loop_
_space_group_symop_operation_xyz
x,y,z
1/2-x,1/2-y,z
1/2+x,-y,-z
-x,1/2+y,-z
-x,-y,-z
1/2+x,1/2+y,-z
1/2-x,y,z
x,1/2-y,z
loop_
_atom_site_type_symbol
_atom_site_label
_atom_site_fract_x
_atom_site_fract_y
_atom_site_fract_z
Si Si1 0.899956 0.445893 0.813026
Si Si2 0.250000 0.067424 0.955885
Si Si3 0.489252 0.561607 0.903494
Si Si4 0.397018 0.551603 0.289168
Si Si5 0.250000 0.562537 0.052506
Si Si6 0.896765 0.948373 0.361925
Si Si7 0.895619 0.554199 0.464191
O O1 0.750000 0.488560 0.821454
O O2 0.909063 0.250000 0.815646
O O3 0.930214 0.495715 0.761941
O O4 0.987402 0.521074 0.851394
O O5 0.250000 0.250000 0.974146
O O6 0.124726 0.039137 0.925854
O O7 0.250000 0.951070 0.998850
O O8 0.458553 0.750000 0.909127
O O9 0.622312 0.519847 0.928323
O O10 0.250000 0.500944 0.298612
O O11 0.397125 0.750000 0.289716
O O12 0.499128 0.494829 0.325874
O O13 0.250000 0.750000 0.067145
O O14 0.750000 0.996829 0.351338
O O15 0.898894 0.750000 0.361429
O O16 0.925748 0.999085 0.413122
O O17 0.750000 0.498860 0.475015
O O18 0.893841 0.750000 0.463728
O O19 0.000000 0.500000 0.500000
#
# Coordination Sequence:
#
# PCOD9453196 Si02
#       7
#     8   4   8   8   4   8   8
#     4   9  17  32  54  79 108 141 179 221 267 320
#     4  12  26  44  62  86 118 150 186 232 281 330
#     4  12  24  40  61  87 117 152 189 228 275 330
#     4   8  14  25  44  70  97 128 170 219 262 309
#     4  12  24  42  66  90 116 150 190 230 273 328
#     4   8  14  26  43  66  99 133 168 215 270 320
#     4   9  18  31  47  70 101 137 177 223 270 322
#
# _framework density 18.803726000000001
#
# number of rings (size 3 to 8) (size 9 to 14) (size 15 to 20)
#    0.000    2.333    0.833    5.500    0.000    1.000 
#    1.500    1.667    0.000    1.000    0.000    0.000 
#    0.000    0.000    0.000    0.000    0.000    0.000 
#
# Total GULP energy -267905.078428 kJ/mol
# GULP energy per Si atom -5581.355801 kJ/mol
# Density = 1.876093 g / cm^3
# Si number density = 18.803726 Si / 1000 Ang^3
#
#
#
# Elastic Constant Matrix: (Units=GPa)
#
#
# Indices 1 2 3 4 5 6 
#
# 1 110.3616 -2.8305 85.4199 0.0000 0.0000 0.0000
# 2 -2.8305 22.3070 -1.7669 0.0000 0.0000 0.0000
# 3 85.4199 -1.7669 137.0423 0.0000 0.0000 0.0000
# 4 0.0000 0.0000 0.0000 22.8623 0.0000 0.0000
# 5 0.0000 0.0000 0.0000 0.0000 35.0303 0.0000
# 6 0.0000 0.0000 0.0000 0.0000 0.0000 13.7043
#
#
#
# Elastic Compliance Matrix: (Units=1/GPa)
#
#
# Indices 1 2 3 4 5 6 
#
# 1 0.017549 0.001362 -0.010921 0.000000 0.000000 0.000000
# 2 0.001362 0.044980 -0.000269 0.000000 0.000000 0.000000
# 3 -0.010921 -0.000269 0.014101 0.000000 0.000000 0.000000
# 4 0.000000 0.000000 0.000000 0.043740 0.000000 0.000000
# 5 0.000000 0.000000 0.000000 0.000000 0.028547 0.000000
# 6 0.000000 0.000000 0.000000 0.000000 0.000000 0.072970
#
#
# Mechanical properties :
#
#
# Convention : Reuss Voigt Hill
#
# Bulk Modulus (GPa) = 17.55185 47.92845 32.74015
# Shear Modulus (GPa) = 19.19141 26.91195 23.05168
#
# Velocity S-wave (km/s) = 3.19818 3.78723 3.50510
# Velocity P-wave (km/s) = 4.79503 6.68343 5.81638
#
# Compressibility (1/GPa) = 0.05697404
#
# Stress axis : x y z
#
# Youngs Moduli (GPa) = 56.98421 22.23186 70.91909
#
# Poissons Ratio (x) = -0.03027 0.77449
# Poissons Ratio (y) = -0.07760 0.01907
# Poissons Ratio (z) = 0.62231 0.00598
#
# Static dielectric constant tensor:
#      x y z
#    x 1.628210 0.000000 0.000000 
#    y 0.000000 1.661880 0.000000 
#    z 0.000000 0.000000 1.641780 
# 
# From -- ./inp_files/33053.got.cif
#   From: 2010.05.17/outbox.cif.g08.bks.cpg/sg59_17_cif.got.tgz:33053.got - 2010.06.03 14:40:33.
