data_PCOD9453849
_publ_section_title
;
Structure prediction by ZEFSAII (Michael W. Deem and Ramdas Pophale) SiO2 
 PCOD9453849
Probable space group: P B C N
;
_chemical_formula_sum "Si O2"
_cell_formula_units_Z 64
_cell_length_a 5.631710
_cell_length_b 29.225605
_cell_length_c 19.652147
_cell_angle_alpha 90.000000
_cell_angle_beta 90.000000
_cell_angle_gamma 90.000000
_cell_volume 3234.549468
_symmetry_space_group_name_H-M "P B C N"
_symmetry_group_IT_number 60
_symmetry_cell_setting 'orthorhombic'
loop_
_space_group_symop_operation_xyz
x,y,z
1/2-x,1/2-y,1/2+z
1/2+x,1/2-y,-z
-x,y,1/2-z
-x,-y,-z
1/2+x,1/2+y,1/2-z
1/2-x,1/2+y,z
x,-y,1/2+z
loop_
_atom_site_type_symbol
_atom_site_label
_atom_site_fract_x
_atom_site_fract_y
_atom_site_fract_z
Si Si1 0.142376 0.293043 0.928359
Si Si2 0.776456 0.076842 0.323419
Si Si3 0.266877 0.957890 0.833102
Si Si4 0.621259 0.700298 0.940572
Si Si5 0.995259 0.258787 0.337228
Si Si6 0.253583 0.056350 0.791460
Si Si7 0.816966 0.678115 0.311010
Si Si8 0.837740 0.158859 0.682403
O O1 0.329516 0.277390 0.871903
O O2 0.036384 0.245241 0.957390
O O3 0.938701 0.317249 0.885122
O O4 0.273507 0.318812 0.989365
O O5 0.754183 0.053790 0.248280
O O6 0.515759 0.065607 0.355029
O O7 0.821516 0.130747 0.313623
O O8 0.012201 0.058850 0.360633
O O9 0.268059 0.012577 0.840334
O O10 0.473774 0.669587 0.888025
O O11 0.839712 0.717907 0.895847
O O12 0.147994 0.300591 0.308685
O O13 0.813506 0.226199 0.297000
O O14 0.500000 0.052491 0.750000
O O15 0.258344 0.107446 0.821337
O O16 0.000000 0.052598 0.750000
O O17 0.000000 0.671766 0.250000
O O18 0.000000 0.161110 0.750000
#
# Coordination Sequence:
#
# PCOD9453849 Si02
#       8
#     8   8   8   8   8   8   8   8
#     4  10  21  37  61  79 106 163 215 248 298 358
#     4  10  19  33  55  83 119 156 194 252 300 369
#     4  10  17  34  57  79 116 160 199 243 307 366
#     4  10  20  40  58  80 107 160 216 255 293 357
#     4  10  23  39  57  76 120 160 197 249 291 367
#     4  11  20  36  57  86 120 159 203 250 310 376
#     4  11  24  36  54  90 126 158 198 248 319 371
#     4  10  25  37  56  88 125 156 200 259 316 364
#
# _framework density 19.786372
#
# number of rings (size 3 to 8) (size 9 to 14) (size 15 to 20)
#    0.000    1.750    5.000    0.000    5.250    6.000 
#    0.000    0.000    0.000    0.000    0.000    1.750 
#    0.000    0.000    0.000    0.000    0.000    0.000 
#
# Total GULP energy -356787.422170 kJ/mol
# GULP energy per Si atom -5574.803471 kJ/mol
# Density = 1.974134 g / cm^3
# Si number density = 19.786372 Si / 1000 Ang^3
#
#
#
# Elastic Constant Matrix: (Units=GPa)
#
#
# Indices 1 2 3 4 5 6 
#
# 1 101.9111 21.4113 10.9197 0.0000 0.0000 0.0000
# 2 21.4113 123.9371 15.4156 0.0000 0.0000 0.0000
# 3 10.9197 15.4156 55.5506 0.0000 0.0000 0.0000
# 4 0.0000 0.0000 0.0000 -3.8577 0.0000 0.0000
# 5 0.0000 0.0000 0.0000 0.0000 27.7376 0.0000
# 6 0.0000 0.0000 0.0000 0.0000 0.0000 1.6326
#
#
#
# Elastic Compliance Matrix: (Units=1/GPa)
#
#
# Indices 1 2 3 4 5 6 
#
# 1 0.010316 -0.001585 -0.001588 0.000000 0.000000 0.000000
# 2 -0.001585 0.008600 -0.002075 0.000000 0.000000 0.000000
# 3 -0.001588 -0.002075 0.018890 0.000000 0.000000 0.000000
# 4 0.000000 0.000000 0.000000 -0.259224 0.000000 0.000000
# 5 0.000000 0.000000 0.000000 0.000000 0.036052 0.000000
# 6 0.000000 0.000000 0.000000 0.000000 0.000000 0.612509
#
#
# Mechanical properties :
#
#
# Convention : Reuss Voigt Hill
#
# Bulk Modulus (GPa) = 36.61654 41.87689 39.24671
# Shear Modulus (GPa) = 11.19214 20.67933 15.93573
#
# Velocity S-wave (km/s) = 2.38092 3.23635 2.84102
# Velocity P-wave (km/s) = 5.10925 5.93092 5.53535
#
# Compressibility (1/GPa) = 0.02731006
#
# Stress axis : x y z
#
# Youngs Moduli (GPa) = 96.94107 116.27255 52.93904
#
# Poissons Ratio (x) = 0.18424 0.08407
# Poissons Ratio (y) = 0.15361 0.10986
# Poissons Ratio (z) = 0.15394 0.24129
#
# Static dielectric constant tensor:
#      x y z
#    x 1.772720 0.000000 0.000000 
#    y 0.000000 1.679990 0.000000 
#    z 0.000000 0.000000 2.154550 
# 
# From -- ./inp_files/21817.got.cif
#   From: 2010.05.17/outbox.cif.g08.bks.cpg/sg60_11_cif.got.tgz:21817.got - 2010.06.03 14:59:27.
