data_PCOD9453905
_publ_section_title
;
Structure prediction by ZEFSAII (Michael W. Deem and Ramdas Pophale) SiO2 
 PCOD9453905
Probable space group: P B C N
;
_chemical_formula_sum "Si O2"
_cell_formula_units_Z 40
_cell_length_a 5.573744
_cell_length_b 13.817940
_cell_length_c 23.363286
_cell_angle_alpha 90.000000
_cell_angle_beta 90.000000
_cell_angle_gamma 90.000000
_cell_volume 1799.385622
_symmetry_space_group_name_H-M "P B C N"
_symmetry_group_IT_number 60
_symmetry_cell_setting 'orthorhombic'
loop_
_space_group_symop_operation_xyz
x,y,z
1/2-x,1/2-y,1/2+z
1/2+x,1/2-y,-z
-x,y,1/2-z
-x,-y,-z
1/2+x,1/2+y,1/2-z
1/2-x,1/2+y,z
x,-y,1/2+z
loop_
_atom_site_type_symbol
_atom_site_label
_atom_site_fract_x
_atom_site_fract_y
_atom_site_fract_z
Si Si1 0.011970 0.533894 0.903718
Si Si2 0.491130 0.525205 0.567538
Si Si3 0.004037 0.294505 0.318033
Si Si4 0.494677 0.257037 0.123942
Si Si5 0.968815 0.693183 0.493255
O O1 0.268934 0.484682 0.905151
O O2 0.002008 0.599680 0.847299
O O3 0.756756 0.484517 0.909722
O O4 0.976811 0.394250 0.039053
O O5 0.500000 0.500000 0.500000
O O6 0.488191 0.637727 0.590102
O O7 0.259965 0.253030 0.339864
O O8 0.000000 0.296571 0.250000
O O9 0.755020 0.248714 0.341743
O O10 0.511455 0.179971 0.073544
O O11 0.702374 0.740352 0.492934
#
# Coordination Sequence:
#
# PCOD9453905 Si02
#       5
#     8   8   8   8   8
#     4  10  19  30  45  69  92 123 148 180 232 276
#     4  10  18  29  43  63  95 116 141 182 225 270
#     4  10  18  29  43  63  95 122 150 186 222 274
#     4  10  19  30  45  69  92 120 151 183 233 276
#     4  12  16  30  48  64  98 121 147 187 222 284
#
# _framework density 22.229807999999998
#
# number of rings (size 3 to 8) (size 9 to 14) (size 15 to 20)
#    0.000    1.600    8.000    1.200    0.000    0.000 
#    0.000    0.000    0.000    0.000    0.000    0.000 
#    0.000  217.600    0.000    0.000    0.000    0.000 
#
# Total GULP energy -222947.758222 kJ/mol
# GULP energy per Si atom -5573.693956 kJ/mol
# Density = 2.217921 g / cm^3
# Si number density = 22.229808 Si / 1000 Ang^3
#
#
#
# Elastic Constant Matrix: (Units=GPa)
#
#
# Indices 1 2 3 4 5 6 
#
# 1 154.9585 3.9733 35.6911 0.0000 0.0000 0.0000
# 2 3.9733 55.8449 5.0464 0.0000 0.0000 0.0000
# 3 35.6911 5.0464 161.5086 0.0000 0.0000 0.0000
# 4 0.0000 0.0000 0.0000 12.8375 0.0000 0.0000
# 5 0.0000 0.0000 0.0000 0.0000 40.4178 0.0000
# 6 0.0000 0.0000 0.0000 0.0000 0.0000 20.5032
#
#
#
# Elastic Compliance Matrix: (Units=1/GPa)
#
#
# Indices 1 2 3 4 5 6 
#
# 1 0.006806 -0.000349 -0.001493 0.000000 0.000000 0.000000
# 2 -0.000349 0.017975 -0.000484 0.000000 0.000000 0.000000
# 3 -0.001493 -0.000484 0.006537 0.000000 0.000000 0.000000
# 4 0.000000 0.000000 0.000000 0.077897 0.000000 0.000000
# 5 0.000000 0.000000 0.000000 0.000000 0.024742 0.000000
# 6 0.000000 0.000000 0.000000 0.000000 0.000000 0.048773
#
#
# Mechanical properties :
#
#
# Convention : Reuss Voigt Hill
#
# Bulk Modulus (GPa) = 37.50315 51.30374 44.40345
# Shear Modulus (GPa) = 25.47494 36.59178 31.03336
#
# Velocity S-wave (km/s) = 3.38891 4.06158 3.74039
# Velocity P-wave (km/s) = 5.67628 6.71745 6.21870
#
# Compressibility (1/GPa) = 0.02666442
#
# Stress axis : x y z
#
# Youngs Moduli (GPa) = 146.92462 55.63170 152.98177
#
# Poissons Ratio (x) = 0.01943 0.22843
# Poissons Ratio (y) = 0.05132 0.07411
# Poissons Ratio (z) = 0.21938 0.02695
#
# Static dielectric constant tensor:
#      x y z
#    x 1.886080 0.000000 0.000000 
#    y 0.000000 1.898440 0.000000 
#    z 0.000000 0.000000 1.671400 
# 
# From -- ./inp_files/23522.got.cif
#   From: 2010.05.17/outbox.cif.g08.bks.cpg/sg60_12_cif.got.tgz:23522.got - 2010.06.03 14:59:27.
