data_PCOD9453119
_publ_section_title
;
Structure prediction by ZEFSAII (Michael W. Deem and Ramdas Pophale) SiO2 
 PCOD9453119
Probable space group: P M M N
;
_chemical_formula_sum "Si O2"
_cell_formula_units_Z 32
_cell_length_a 16.103092
_cell_length_b 14.109449
_cell_length_c 6.440514
_cell_angle_alpha 90.000000
_cell_angle_beta 90.000000
_cell_angle_gamma 90.000000
_cell_volume 1463.321848
_symmetry_space_group_name_H-M "P M M N"
_symmetry_group_IT_number 59
_space_group.IT_coordinate_system_code '2'
_symmetry_cell_setting 'orthorhombic'
loop_
_space_group_symop_operation_xyz
x,y,z
1/2-x,1/2-y,z
1/2+x,-y,-z
-x,1/2+y,-z
-x,-y,-z
1/2+x,1/2+y,-z
1/2-x,y,z
x,1/2-y,z
loop_
_atom_site_type_symbol
_atom_site_label
_atom_site_fract_x
_atom_site_fract_y
_atom_site_fract_z
Si Si1 0.750000 0.250000 0.687411
Si Si2 0.927530 0.579646 0.962801
Si Si3 0.250000 0.438647 0.900852
Si Si4 0.250000 0.250000 0.634157
Si Si5 0.633439 0.250000 0.065798
Si Si6 0.077472 0.250000 0.368387
Si Si7 0.976865 0.750000 0.206830
Si Si8 0.750000 0.381614 0.314850
O O1 0.674548 0.250000 0.841130
O O2 0.750000 0.340330 0.541704
O O3 0.833605 0.540463 0.969407
O O4 0.931949 0.651075 0.159581
O O5 0.930490 0.652415 0.765617
O O6 0.000000 0.500000 0.000000
O O7 0.250000 0.336501 0.797061
O O8 0.250000 0.508501 0.705800
O O9 0.167403 0.250000 0.486931
O O10 0.541324 0.250000 0.985850
O O11 0.670056 0.337675 0.195113
O O12 0.006660 0.250000 0.548098
#
# Coordination Sequence:
#
# PCOD9453119 Si02
#       8
#     2   8   4   2   4   4   4   4
#     4   8  18  38  60  90 124 168 214 262 342 408
#     4  11  25  44  68 100 135 181 227 281 343 402
#     4  12  22  44  69  93 141 175 228 282 325 408
#     4  12  22  48  68 102 128 188 234 270 342 388
#     4   9  19  38  60  89 132 160 214 268 342 397
#     4  11  24  45  70  91 135 177 223 285 334 404
#     4  11  22  41  61  97 131 170 223 284 328 408
#     4   9  20  38  62  91 124 174 211 275 337 403
#
# _framework density 21.868051999999999
#
# number of rings (size 3 to 8) (size 9 to 14) (size 15 to 20)
#    0.000    1.750    2.500    3.000    0.000    7.000 
#   13.500    0.000    0.000    0.000    0.000    0.000 
#    0.000    0.000    0.000    0.000    0.000    0.000 
#
# Total GULP energy -178142.834000 kJ/mol
# GULP energy per Si atom -5566.963563 kJ/mol
# Density = 2.181828 g / cm^3
# Si number density = 21.868052 Si / 1000 Ang^3
#
#
#
# Elastic Constant Matrix: (Units=GPa)
#
#
# Indices 1 2 3 4 5 6 
#
# 1 151.7958 19.1859 9.9311 0.0000 0.0000 0.0000
# 2 19.1859 110.1359 2.6524 0.0000 0.0000 0.0000
# 3 9.9311 2.6524 77.5307 0.0000 0.0000 0.0000
# 4 0.0000 0.0000 0.0000 -53.4725 0.0000 0.0000
# 5 0.0000 0.0000 0.0000 0.0000 69.8870 0.0000
# 6 0.0000 0.0000 0.0000 0.0000 0.0000 -89.5461
#
#
#
# Elastic Compliance Matrix: (Units=1/GPa)
#
#
# Indices 1 2 3 4 5 6 
#
# 1 0.006789 -0.001163 -0.000830 0.000000 0.000000 0.000000
# 2 -0.001163 0.009286 -0.000169 0.000000 0.000000 0.000000
# 3 -0.000830 -0.000169 0.013010 0.000000 0.000000 0.000000
# 4 0.000000 0.000000 0.000000 -0.018701 0.000000 0.000000
# 5 0.000000 0.000000 0.000000 0.000000 0.014309 0.000000
# 6 0.000000 0.000000 0.000000 0.000000 0.000000 -0.011167
#
#
# Mechanical properties :
#
#
# Convention : Reuss Voigt Hill
#
# Bulk Modulus (GPa) = 40.38293 44.77792 42.58042
# Shear Modulus (GPa) = 191.55157 5.88653 98.71905
#
# Velocity S-wave (km/s) = 9.36933 1.64246 6.72615
# Velocity P-wave (km/s) = 11.64271 4.91098 8.93505
#
# Compressibility (1/GPa) = 0.02476294
#
# Stress axis : x y z
#
# Youngs Moduli (GPa) = 147.29612 107.68554 76.86284
#
# Poissons Ratio (x) = 0.12520 0.06378
# Poissons Ratio (y) = 0.17126 0.01297
# Poissons Ratio (z) = 0.12223 0.01817
#
# Static dielectric constant tensor:
#      x y z
#    x 1.742220 0.000000 0.000000 
#    y 0.000000 1.919950 0.000000 
#    z 0.000000 0.000000 1.765810 
# 
# From -- ./inp_files/1873.got.cif
#   From: 2010.05.17/outbox.cif.g08.bks.cpg/sg59_1_cif.got.tgz:1873.got - 2010.06.03 14:40:33.
