data_PCOD9453635
_publ_section_title
;
Structure prediction by ZEFSAII (Michael W. Deem and Ramdas Pophale) SiO2 
 PCOD9453635
Probable space group: P M M N
;
_chemical_formula_sum "Si O2"
_cell_formula_units_Z 64
_cell_length_a 18.000000
_cell_length_b 9.000000
_cell_length_c 21.000000
_cell_angle_alpha 90.000000
_cell_angle_beta 90.000000
_cell_angle_gamma 90.000000
_cell_volume 3402.000000
_symmetry_space_group_name_H-M "P M M N"
_symmetry_group_IT_number 59
_space_group.IT_coordinate_system_code '2'
_symmetry_cell_setting 'orthorhombic'
loop_
_space_group_symop_operation_xyz
x,y,z
1/2-x,1/2-y,z
1/2+x,-y,-z
-x,1/2+y,-z
-x,-y,-z
1/2+x,1/2+y,-z
1/2-x,y,z
x,1/2-y,z
loop_
_atom_site_type_symbol
_atom_site_label
_atom_site_fract_x
_atom_site_fract_y
_atom_site_fract_z
Si Si1 0.920714 0.071362 0.012960
Si Si2 0.163921 0.571177 0.115445
Si Si3 0.163525 0.072030 0.353426
Si Si4 0.335738 0.925232 0.860938
Si Si5 0.088493 0.427781 0.746104
Si Si6 0.070011 0.428165 0.228180
Si Si7 0.340423 0.921535 0.483708
Si Si8 0.163021 0.071563 0.614436
O O1 0.927781 0.250000 0.014313
O O2 0.865448 0.034235 0.955056
O O3 0.887331 0.024957 0.080753
O O4 0.000000 0.000000 0.000000
O O5 0.250000 0.528790 0.123297
O O6 0.158443 0.750000 0.123050
O O7 0.112728 0.492591 0.167417
O O8 0.250000 0.028897 0.343885
O O9 0.161452 0.250000 0.360938
O O10 0.116411 0.031946 0.291604
O O11 0.135078 0.998500 0.418403
O O12 0.250000 0.938450 0.880221
O O13 0.350290 0.750000 0.848379
O O14 0.352504 0.018019 0.798153
O O15 0.081713 0.250000 0.747347
O O16 0.115834 0.473402 0.675863
O O17 0.011174 0.502836 0.764893
O O18 0.065580 0.250000 0.223557
O O19 0.250000 0.930549 0.483382
O O20 0.361949 0.750000 0.484307
O O21 0.364324 0.001140 0.548533
O O22 0.250000 0.029978 0.623878
O O23 0.160537 0.250000 0.608926
#
# Coordination Sequence:
#
# PCOD9453635 Si02
#       8
#     8   8   8   8   8   8   8   8
#     4  10  21  37  57  83 115 150 185 222 270 326
#     4  10  21  38  60  84 111 145 185 229 275 324
#     4   9  18  34  55  77 104 140 179 220 269 325
#     4  10  21  38  60  84 111 145 185 229 275 324
#     4  11  23  38  56  80 111 146 185 228 276 330
#     4  11  23  38  56  80 111 146 185 228 276 330
#     4   9  17  29  50  81 110 135 171 221 270 319
#     4   9  18  34  55  77 104 140 179 220 269 325
#
# _framework density 18.812463000000001
#
# number of rings (size 3 to 8) (size 9 to 14) (size 15 to 20)
#    0.000    2.125    0.000    3.000    0.000    9.500 
#    0.000    3.125    0.000    2.250    0.000    0.000 
#    0.000    0.000    0.000    0.000    0.000    0.000 
#
# Total GULP energy -357401.554395 kJ/mol
# GULP energy per Si atom -5584.399287 kJ/mol
# Density = 1.876965 g / cm^3
# Si number density = 18.812463 Si / 1000 Ang^3
#
#
#
# Elastic Constant Matrix: (Units=GPa)
#
#
# Indices 1 2 3 4 5 6 
#
# 1 31.4384 6.1437 -11.6209 0.0000 0.0000 0.0000
# 2 6.1437 14.9823 18.6077 0.0000 0.0000 0.0000
# 3 -11.6209 18.6077 74.1406 0.0000 0.0000 0.0000
# 4 0.0000 0.0000 0.0000 31.0368 0.0000 0.0000
# 5 0.0000 0.0000 0.0000 0.0000 -21.6608 0.0000
# 6 0.0000 0.0000 0.0000 0.0000 0.0000 14.0688
#
#
#
# Elastic Compliance Matrix: (Units=1/GPa)
#
#
# Indices 1 2 3 4 5 6 
#
# 1 0.046175 -0.040570 0.017420 0.000000 0.000000 0.000000
# 2 -0.040570 0.132617 -0.039643 0.000000 0.000000 0.000000
# 3 0.017420 -0.039643 0.026168 0.000000 0.000000 0.000000
# 4 0.000000 0.000000 0.000000 0.032220 0.000000 0.000000
# 5 0.000000 0.000000 0.000000 0.000000 -0.046166 0.000000
# 6 0.000000 0.000000 0.000000 0.000000 0.000000 0.071079
#
#
# Mechanical properties :
#
#
# Convention : Reuss Voigt Hill
#
# Bulk Modulus (GPa) = 12.59854 16.31360 14.45607
# Shear Modulus (GPa) = 12.07332 11.85102 11.96217
#
# Velocity S-wave (km/s) = 2.53607 2.51262 2.52437
# Velocity P-wave (km/s) = 3.90986 4.13620 4.02462
#
# Compressibility (1/GPa) = 0.07937425
#
# Stress axis : x y z
#
# Youngs Moduli (GPa) = 21.65651 7.54052 38.21500
#
# Poissons Ratio (x) = 0.30592 -0.66569
# Poissons Ratio (y) = 0.87860 1.51495
# Poissons Ratio (z) = -0.37725 0.29893
#
# Static dielectric constant tensor:
#      x y z
#    x 1.257050 0.000000 0.000000 
#    y 0.000000 1.628670 0.000000 
#    z 0.000000 0.000000 1.630610 
# 
# From -- ./inp_files/30701.got.cif
#   From: 2010.05.17/outbox.ucp.g08.bks.cvg/sg59_16_cif.got.tgz:30701.got - 2010.06.11 16:43:56.
