data_PCOD9453323
_publ_section_title
;
Structure prediction by ZEFSAII (Michael W. Deem and Ramdas Pophale) SiO2 
 PCOD9453323
Probable space group: P M M N
;
_chemical_formula_sum "Si O2"
_cell_formula_units_Z 64
_cell_length_a 9.000000
_cell_length_b 18.000000
_cell_length_c 24.000000
_cell_angle_alpha 90.000000
_cell_angle_beta 90.000000
_cell_angle_gamma 90.000000
_cell_volume 3888.000000
_symmetry_space_group_name_H-M "P M M N"
_symmetry_group_IT_number 59
_space_group.IT_coordinate_system_code '2'
_symmetry_cell_setting 'orthorhombic'
loop_
_space_group_symop_operation_xyz
x,y,z
1/2-x,1/2-y,z
1/2+x,-y,-z
-x,1/2+y,-z
-x,-y,-z
1/2+x,1/2+y,-z
1/2-x,y,z
x,1/2-y,z
loop_
_atom_site_type_symbol
_atom_site_label
_atom_site_fract_x
_atom_site_fract_y
_atom_site_fract_z
Si Si1 0.429717 0.334142 0.437242
Si Si2 0.927969 0.594562 0.927316
Si Si3 0.928931 0.934666 0.462888
Si Si4 0.071043 0.019024 0.366768
Si Si5 0.070792 0.047071 0.869049
Si Si6 0.428063 0.522332 0.753959
Si Si7 0.574496 0.332684 0.174749
Si Si8 0.569185 0.834496 0.043925
O O1 0.250000 0.332090 0.433461
O O2 0.484315 0.250000 0.425951
O O3 0.464429 0.361351 0.500505
O O4 0.475624 0.401342 0.395344
O O5 0.750000 0.587670 0.926853
O O6 0.002050 0.518705 0.906200
O O7 0.980619 0.653551 0.880936
O O8 0.976662 0.620243 0.988739
O O9 0.750000 0.941261 0.460223
O O10 0.000000 0.000000 0.500000
O O11 0.999756 0.952069 0.403012
O O12 0.250000 0.015187 0.369805
O O13 0.013830 0.014230 0.303696
O O14 0.250000 0.040042 0.871254
O O15 0.029623 0.033807 0.804447
O O16 0.026905 0.122929 0.899581
O O17 0.250000 0.516344 0.744482
O O18 0.459141 0.603367 0.780750
O O19 0.750000 0.340398 0.160789
O O20 0.549099 0.250000 0.196621
O O21 0.750000 0.832738 0.042527
O O22 0.515768 0.750000 0.041573
#
# Coordination Sequence:
#
# PCOD9453323 Si02
#       8
#     8   8   8   8   8   8   8   8
#     4   8  15  28  46  70  97 120 144 178 219 260
#     4  10  18  28  46  71  96 120 149 188 234 286
#     4   9  16  28  48  70  94 123 152 184 220 260
#     4  10  19  30  47  69  93 124 158 191 226 266
#     4   9  18  33  50  66  89 123 158 193 236 284
#     4   9  18  31  46  64  87 119 160 198 228 264
#     4   9  18  32  47  64  92 128 159 189 230 281
#     4   9  17  29  47  71  94 115 146 194 247 292
#
# _framework density 16.460905
#
# number of rings (size 3 to 8) (size 9 to 14) (size 15 to 20)
#    0.000    2.875    0.000    3.375    0.000    3.250 
#    0.000    0.625    0.000   15.750    0.000    3.500 
#    0.000    0.000    0.000    0.000    0.000    0.000 
#
# Total GULP energy -356322.724032 kJ/mol
# GULP energy per Si atom -5567.542563 kJ/mol
# Density = 1.642344 g / cm^3
# Si number density = 16.460905 Si / 1000 Ang^3
#
#
#
# Elastic Constant Matrix: (Units=GPa)
#
#
# Indices 1 2 3 4 5 6 
#
# 1 31.0807 11.5702 32.5748 0.0000 0.0000 0.0000
# 2 11.5702 51.2835 44.5024 0.0000 0.0000 0.0000
# 3 32.5748 44.5024 136.0833 0.0000 0.0000 0.0000
# 4 0.0000 0.0000 0.0000 11.8018 0.0000 0.0000
# 5 0.0000 0.0000 0.0000 0.0000 26.0657 0.0000
# 6 0.0000 0.0000 0.0000 0.0000 0.0000 16.4584
#
#
#
# Elastic Compliance Matrix: (Units=1/GPa)
#
#
# Indices 1 2 3 4 5 6 
#
# 1 0.042992 -0.001074 -0.009940 0.000000 0.000000 0.000000
# 2 -0.001074 0.027252 -0.008655 0.000000 0.000000 0.000000
# 3 -0.009940 -0.008655 0.012558 0.000000 0.000000 0.000000
# 4 0.000000 0.000000 0.000000 0.084733 0.000000 0.000000
# 5 0.000000 0.000000 0.000000 0.000000 0.038365 0.000000
# 6 0.000000 0.000000 0.000000 0.000000 0.000000 0.060759
#
#
# Mechanical properties :
#
#
# Convention : Reuss Voigt Hill
#
# Bulk Modulus (GPa) = 23.00726 43.97139 33.48932
# Shear Modulus (GPa) = 15.60135 19.51852 17.55993
#
# Velocity S-wave (km/s) = 3.08195 3.44721 3.26968
# Velocity P-wave (km/s) = 5.16447 6.52801 5.88586
#
# Compressibility (1/GPa) = 0.04346454
#
# Stress axis : x y z
#
# Youngs Moduli (GPa) = 23.26024 36.69403 79.62907
#
# Poissons Ratio (x) = 0.03941 0.79151
# Poissons Ratio (y) = 0.02498 0.68920
# Poissons Ratio (z) = 0.23121 0.31759
#
# Static dielectric constant tensor:
#      x y z
#    x 1.549930 0.000000 0.000000 
#    y 0.000000 1.575560 0.000000 
#    z 0.000000 0.000000 1.565120 
# 
# From -- ./inp_files/31724.got.cif
#   From: 2010.05.17/outbox.ucp.g08.bks.cvg/sg59_16_cif.got.tgz:31724.got - 2010.06.11 16:43:56.
