data_PCOD9453759
_publ_section_title
;
Structure prediction by ZEFSAII (Michael W. Deem and Ramdas Pophale) SiO2 
 PCOD9453759
Probable space group: P B C N
;
_chemical_formula_sum "Si O2"
_cell_formula_units_Z 36
_cell_length_a 13.144388
_cell_length_b 9.533864
_cell_length_c 10.800165
_cell_angle_alpha 90.000000
_cell_angle_beta 90.000000
_cell_angle_gamma 90.000000
_cell_volume 1353.442199
_symmetry_space_group_name_H-M "P B C N"
_symmetry_group_IT_number 60
_symmetry_cell_setting 'orthorhombic'
loop_
_space_group_symop_operation_xyz
x,y,z
1/2-x,1/2-y,1/2+z
1/2+x,1/2-y,-z
-x,y,1/2-z
-x,-y,-z
1/2+x,1/2+y,1/2-z
1/2-x,1/2+y,z
x,-y,1/2+z
loop_
_atom_site_type_symbol
_atom_site_label
_atom_site_fract_x
_atom_site_fract_y
_atom_site_fract_z
Si Si1 0.500000 0.109409 0.250000
Si Si2 0.549618 0.844261 0.499399
Si Si3 0.766370 0.041167 0.974885
Si Si4 0.577655 0.357766 0.662817
Si Si5 0.694809 0.903505 0.218199
O O1 0.486593 0.206807 0.367975
O O2 0.599188 0.007633 0.248148
O O3 0.670458 0.852012 0.489116
O O4 0.498933 0.757901 0.392728
O O5 0.500000 0.000000 0.500000
O O6 0.870480 0.073794 0.043958
O O7 0.724868 0.924318 0.073641
O O8 0.773509 0.044317 0.824862
O O9 0.500000 0.441556 0.750000
O O10 0.665377 0.260255 0.725514
#
# Coordination Sequence:
#
# PCOD9453759 Si02
#       5
#     4   8   8   8   8
#     4  10  16  32  68  88 116 160 214 270 318 360
#     4  11  18  38  64  93 122 167 214 275 321 390
#     4  11  24  36  70  95 126 176 220 275 329 398
#     4  12  22  40  66  98 136 165 220 281 344 389
#     4  11  19  41  61  97 125 168 216 271 325 391
#
# _framework density 26.598844
#
# number of rings (size 3 to 8) (size 9 to 14) (size 15 to 20)
#    0.000    0.889   10.000    0.000    0.000    5.333 
#    0.000    1.111    0.000    0.000    0.000    0.000 
#    0.000    0.000    0.000    0.000    0.000    0.000 
#
# Total GULP energy -200807.075668 kJ/mol
# GULP energy per Si atom -5577.974324 kJ/mol
# Density = 2.653830 g / cm^3
# Si number density = 26.598844 Si / 1000 Ang^3
#
#
#
# Elastic Constant Matrix: (Units=GPa)
#
#
# Indices 1 2 3 4 5 6 
#
# 1 95.2878 21.3830 0.4293 0.0000 0.0000 0.0000
# 2 21.3830 27.1044 3.6088 0.0000 0.0000 0.0000
# 3 0.4293 3.6088 123.0330 0.0000 0.0000 0.0000
# 4 0.0000 0.0000 0.0000 10.1108 0.0000 0.0000
# 5 0.0000 0.0000 0.0000 0.0000 66.2050 0.0000
# 6 0.0000 0.0000 0.0000 0.0000 0.0000 22.0053
#
#
#
# Elastic Compliance Matrix: (Units=1/GPa)
#
#
# Indices 1 2 3 4 5 6 
#
# 1 0.012760 -0.010100 0.000252 0.000000 0.000000 0.000000
# 2 -0.010100 0.045034 -0.001286 0.000000 0.000000 0.000000
# 3 0.000252 -0.001286 0.008165 0.000000 0.000000 0.000000
# 4 0.000000 0.000000 0.000000 0.098904 0.000000 0.000000
# 5 0.000000 0.000000 0.000000 0.000000 0.015105 0.000000
# 6 0.000000 0.000000 0.000000 0.000000 0.000000 0.045444
#
#
# Mechanical properties :
#
#
# Convention : Reuss Voigt Hill
#
# Bulk Modulus (GPa) = 22.88835 32.91861 27.90348
# Shear Modulus (GPa) = 19.06638 34.33117 26.69877
#
# Velocity S-wave (km/s) = 2.68024 3.59653 3.17165
# Velocity P-wave (km/s) = 4.26637 5.44514 4.89139
#
# Compressibility (1/GPa) = 0.04369035
#
# Stress axis : x y z
#
# Youngs Moduli (GPa) = 78.37076 22.20564 122.47794
#
# Poissons Ratio (x) = 0.22428 -0.03083
# Poissons Ratio (y) = 0.79154 0.15747
# Poissons Ratio (z) = -0.01973 0.02855
#
# Static dielectric constant tensor:
#      x y z
#    x 2.124370 0.000000 0.000000 
#    y 0.000000 2.105400 0.000000 
#    z 0.000000 0.000000 2.355200 
# 
# From -- ./inp_files/11626.got.cif
#   From: 2010.05.17/outbox.cif.g08.bks.cpg/sg60_6_cif.got.tgz:11626.got - 2010.06.03 14:59:27.
