data_PCOD9453133
_publ_section_title
;
Structure prediction by ZEFSAII (Michael W. Deem and Ramdas Pophale) SiO2 
 PCOD9453133
Probable space group: P M M N
;
_chemical_formula_sum "Si O2"
_cell_formula_units_Z 40
_cell_length_a 14.500882
_cell_length_b 7.441257
_cell_length_c 16.020847
_cell_angle_alpha 90.000000
_cell_angle_beta 90.000000
_cell_angle_gamma 90.000000
_cell_volume 1728.726126
_symmetry_space_group_name_H-M "P M M N"
_symmetry_group_IT_number 59
_space_group.IT_coordinate_system_code '2'
_symmetry_cell_setting 'orthorhombic'
loop_
_space_group_symop_operation_xyz
x,y,z
1/2-x,1/2-y,z
1/2+x,-y,-z
-x,1/2+y,-z
-x,-y,-z
1/2+x,1/2+y,-z
1/2-x,y,z
x,1/2-y,z
loop_
_atom_site_type_symbol
_atom_site_label
_atom_site_fract_x
_atom_site_fract_y
_atom_site_fract_z
Si Si1 0.014594 0.048911 0.904325
Si Si2 0.857700 0.970143 0.240059
Si Si3 0.856885 0.967945 0.781001
Si Si4 0.138369 0.035812 0.400019
Si Si5 0.361500 0.035378 0.578672
O O1 0.050131 0.250000 0.909150
O O2 0.085033 0.959010 0.838770
O O3 0.918161 0.037635 0.855895
O O4 0.000000 0.000000 0.000000
O O5 0.750000 0.016008 0.231888
O O6 0.862527 0.750000 0.243486
O O7 0.893107 0.034071 0.331255
O O8 0.750000 0.018471 0.789812
O O9 0.860861 0.750000 0.781205
O O10 0.892253 0.033687 0.690195
O O11 0.250000 0.015730 0.399110
O O12 0.120777 0.250000 0.400532
O O13 0.105352 0.961391 0.489175
O O14 0.250000 0.013086 0.579531
O O15 0.378217 0.250000 0.577080
#
# Coordination Sequence:
#
# PCOD9453133 Si02
#       5
#     8   8   8   8   8
#     4  11  23  37  53  74 100 130 169 218 267 310
#     4   8  15  29  49  72  98 129 164 203 250 303
#     4   9  18  34  55  77 103 136 170 203 244 297
#     4   7  10  19  40  70  99 127 160 195 232 282
#     4   7   9  17  38  68  98 125 156 195 236 284
#
# _framework density 23.138425999999999
#
# number of rings (size 3 to 8) (size 9 to 14) (size 15 to 20)
#    0.000    3.600    0.000    4.200    0.000    1.200 
#    0.000    3.000    0.000    1.800    0.000    1.400 
#    0.000    9.600    0.000    0.000    0.000    0.000 
#
# Total GULP energy -222971.077420 kJ/mol
# GULP energy per Si atom -5574.276935 kJ/mol
# Density = 2.308576 g / cm^3
# Si number density = 23.138426 Si / 1000 Ang^3
#
#
#
# Elastic Constant Matrix: (Units=GPa)
#
#
# Indices 1 2 3 4 5 6 
#
# 1 66.1006 -14.3198 57.4153 0.0000 0.0000 0.0000
# 2 -14.3198 63.4936 12.2235 0.0000 0.0000 0.0000
# 3 57.4153 12.2235 306.8492 0.0000 0.0000 0.0000
# 4 0.0000 0.0000 0.0000 -10.0226 0.0000 0.0000
# 5 0.0000 0.0000 0.0000 0.0000 33.5269 0.0000
# 6 0.0000 0.0000 0.0000 0.0000 0.0000 2.1940
#
#
#
# Elastic Compliance Matrix: (Units=1/GPa)
#
#
# Indices 1 2 3 4 5 6 
#
# 1 0.019615 0.005170 -0.003876 0.000000 0.000000 0.000000
# 2 0.005170 0.017234 -0.001654 0.000000 0.000000 0.000000
# 3 -0.003876 -0.001654 0.004050 0.000000 0.000000 0.000000
# 4 0.000000 0.000000 0.000000 -0.099774 0.000000 0.000000
# 5 0.000000 0.000000 0.000000 0.000000 0.029827 0.000000
# 6 0.000000 0.000000 0.000000 0.000000 0.000000 0.455793
#
#
# Mechanical properties :
#
#
# Convention : Reuss Voigt Hill
#
# Bulk Modulus (GPa) = 24.88831 60.78683 42.83757
# Shear Modulus (GPa) = 11.34152 30.54794 20.94473
#
# Velocity S-wave (km/s) = 2.21636 3.63743 3.01191
# Velocity P-wave (km/s) = 4.16284 6.63093 5.53617
#
# Compressibility (1/GPa) = 0.04017951
#
# Stress axis : x y z
#
# Youngs Moduli (GPa) = 50.98029 58.02463 246.90703
#
# Poissons Ratio (x) = -0.29999 0.95707
# Poissons Ratio (y) = -0.26357 0.40837
# Poissons Ratio (z) = 0.19761 0.09597
#
# Static dielectric constant tensor:
#      x y z
#    x 1.887340 0.000000 0.000000 
#    y 0.000000 2.325510 0.000000 
#    z 0.000000 0.000000 1.930870 
# 
# From -- ./inp_files/19881.got.cif
#   From: 2010.05.17/outbox.cif.g08.bks.cpg/sg59_10_cif.got.tgz:19881.got - 2010.06.03 14:40:33.
