data_PCOD9453426
_publ_section_title
;
Structure prediction by ZEFSAII (Michael W. Deem and Ramdas Pophale) SiO2 
 PCOD9453426
Probable space group: P M M N
;
_chemical_formula_sum "Si O2"
_cell_formula_units_Z 64
_cell_length_a 18.000000
_cell_length_b 15.000000
_cell_length_c 12.000000
_cell_angle_alpha 90.000000
_cell_angle_beta 90.000000
_cell_angle_gamma 90.000000
_cell_volume 3240.000000
_symmetry_space_group_name_H-M "P M M N"
_symmetry_group_IT_number 59
_space_group.IT_coordinate_system_code '2'
_symmetry_cell_setting 'orthorhombic'
loop_
_space_group_symop_operation_xyz
x,y,z
1/2-x,1/2-y,z
1/2+x,-y,-z
-x,1/2+y,-z
-x,-y,-z
1/2+x,1/2+y,-z
1/2-x,y,z
x,1/2-y,z
loop_
_atom_site_type_symbol
_atom_site_label
_atom_site_fract_x
_atom_site_fract_y
_atom_site_fract_z
Si Si1 0.667360 0.655826 0.700577
Si Si2 0.431758 0.397519 0.104020
Si Si3 0.561206 0.072119 0.739074
Si Si4 0.900375 0.145401 0.131988
Si Si5 0.837290 0.012908 0.545498
Si Si6 0.164800 0.355659 0.892639
Si Si7 0.606967 0.520393 0.295554
Si Si8 0.169460 0.853686 0.093921
O O1 0.750000 0.642721 0.747314
O O2 0.663744 0.750000 0.640745
O O3 0.613086 0.657412 0.804236
O O4 0.654779 0.579972 0.611611
O O5 0.432404 0.490736 0.170622
O O6 0.514623 0.361921 0.090956
O O7 0.390162 0.394368 0.986717
O O8 0.475176 0.065317 0.705768
O O9 0.603813 0.142033 0.816250
O O10 0.608937 0.070874 0.624678
O O11 0.884576 0.250000 0.159101
O O12 0.894092 0.075568 0.232925
O O13 0.851531 0.110472 0.028207
O O14 0.750000 0.039491 0.547863
O O15 0.864208 0.998170 0.419754
O O16 0.250000 0.363122 0.931013
O O17 0.148550 0.250000 0.877039
O O18 0.154811 0.411834 0.779558
O O19 0.250000 0.891107 0.133055
O O20 0.178174 0.750000 0.072080
#
# Coordination Sequence:
#
# PCOD9453426 Si02
#       8
#     8   8   8   8   8   8   8   8
#     4   9  17  30  51  78 106 140 182 224 267 317
#     4  10  19  33  55  83 114 143 177 226 276 324
#     4  10  21  37  58  82 106 140 187 234 282 329
#     4  10  21  37  58  83 111 145 183 224 276 336
#     4  10  21  37  56  77 106 145 186 231 277 324
#     4  11  23  36  54  84 120 154 183 216 269 335
#     4  11  23  38  56  81 114 150 187 228 275 333
#     4  10  21  37  57  81 109 141 182 233 283 332
#
# _framework density 19.753086
#
# number of rings (size 3 to 8) (size 9 to 14) (size 15 to 20)
#    0.000    1.875    0.000    4.125    0.000    8.500 
#    0.000    1.875    0.000    2.250    0.000    0.000 
#    0.000    0.000    0.000    0.000    0.000    0.000 
#
# Total GULP energy -356412.175113 kJ/mol
# GULP energy per Si atom -5568.940236 kJ/mol
# Density = 1.970813 g / cm^3
# Si number density = 19.753086 Si / 1000 Ang^3
#
#
#
# Elastic Constant Matrix: (Units=GPa)
#
#
# Indices 1 2 3 4 5 6 
#
# 1 69.4593 10.4450 26.1506 0.0000 0.0000 0.0000
# 2 10.4450 35.7260 -7.5747 0.0000 0.0000 0.0000
# 3 26.1506 -7.5747 69.6885 0.0000 0.0000 0.0000
# 4 0.0000 0.0000 0.0000 -18.5736 0.0000 0.0000
# 5 0.0000 0.0000 0.0000 0.0000 33.1360 0.0000
# 6 0.0000 0.0000 0.0000 0.0000 0.0000 16.4028
#
#
#
# Elastic Compliance Matrix: (Units=1/GPa)
#
#
# Indices 1 2 3 4 5 6 
#
# 1 0.018319 -0.006974 -0.007632 0.000000 0.000000 0.000000
# 2 -0.006974 0.031306 0.006020 0.000000 0.000000 0.000000
# 3 -0.007632 0.006020 0.017868 0.000000 0.000000 0.000000
# 4 0.000000 0.000000 0.000000 -0.053840 0.000000 0.000000
# 5 0.000000 0.000000 0.000000 0.000000 0.030179 0.000000
# 6 0.000000 0.000000 0.000000 0.000000 0.000000 0.060965
#
#
# Mechanical properties :
#
#
# Convention : Reuss Voigt Hill
#
# Bulk Modulus (GPa) = 19.87281 25.87953 22.87617
# Shear Modulus (GPa) = 36.03764 15.91655 25.97709
#
# Velocity S-wave (km/s) = 4.27594 2.84170 3.63035
# Velocity P-wave (km/s) = 5.87032 4.88845 5.40174
#
# Compressibility (1/GPa) = 0.05032000
#
# Stress axis : x y z
#
# Youngs Moduli (GPa) = 54.58774 31.94261 55.96629
#
# Poissons Ratio (x) = 0.22277 0.42715
# Poissons Ratio (y) = 0.38070 -0.33691
# Poissons Ratio (z) = 0.41663 -0.19229
#
# Static dielectric constant tensor:
#      x y z
#    x 1.769230 0.000000 0.000000 
#    y 0.000000 1.768590 0.000000 
#    z 0.000000 0.000000 1.636150 
# 
# From -- ./inp_files/17814.got.cif
#   From: 2010.05.17/outbox.ucp.g08.bks.cvg/sg59_9_cif.got.tgz:17814.got - 2010.06.11 16:43:56.
