data_PCOD9453644
_publ_section_title
;
Structure prediction by ZEFSAII (Michael W. Deem and Ramdas Pophale) SiO2 
 PCOD9453644
Probable space group: P M M N
;
_chemical_formula_sum "Si O2"
_cell_formula_units_Z 40
_cell_length_a 9.000000
_cell_length_b 18.000000
_cell_length_c 12.000000
_cell_angle_alpha 90.000000
_cell_angle_beta 90.000000
_cell_angle_gamma 90.000000
_cell_volume 1944.000000
_symmetry_space_group_name_H-M "P M M N"
_symmetry_group_IT_number 59
_space_group.IT_coordinate_system_code '2'
_symmetry_cell_setting 'orthorhombic'
loop_
_space_group_symop_operation_xyz
x,y,z
1/2-x,1/2-y,z
1/2+x,-y,-z
-x,1/2+y,-z
-x,-y,-z
1/2+x,1/2+y,-z
1/2-x,y,z
x,1/2-y,z
loop_
_atom_site_type_symbol
_atom_site_label
_atom_site_fract_x
_atom_site_fract_y
_atom_site_fract_z
Si Si1 0.926475 0.334060 0.668599
Si Si2 0.418935 0.331929 0.261439
Si Si3 0.422198 0.431062 0.851801
Si Si4 0.924222 0.921443 0.521368
Si Si5 0.421004 0.900242 0.927606
O O1 0.750000 0.336750 0.656137
O O2 0.969106 0.250000 0.701150
O O3 0.978380 0.394571 0.757727
O O4 0.003304 0.358709 0.555039
O O5 0.250000 0.340492 0.217606
O O6 0.428443 0.250000 0.313043
O O7 0.442861 0.394760 0.352634
O O8 0.535757 0.340654 0.163734
O O9 0.250000 0.418247 0.826099
O O10 0.444464 0.518891 0.871043
O O11 0.470842 0.394913 0.968046
O O12 0.750000 0.927202 0.496449
O O13 0.000000 0.000000 0.500000
O O14 0.250000 0.896018 0.963780
#
# Coordination Sequence:
#
# PCOD9453644 Si02
#       5
#     8   8   8   8   8
#     4  11  24  40  59  86 120 155 193 240 292 345
#     4  10  22  39  58  82 114 152 191 231 280 340
#     4  10  21  38  61  86 114 152 195 237 285 344
#     4  11  23  40  63  88 116 152 195 241 289 345
#     4  10  21  37  59  87 116 148 190 239 288 338
#
# _framework density 20.576132000000001
#
# number of rings (size 3 to 8) (size 9 to 14) (size 15 to 20)
#    0.000    1.600    0.000    4.200    0.000   10.800 
#    0.000    0.000    0.000    0.000    0.000    0.000 
#    0.000    0.000    0.000    0.000    0.000    0.000 
#
# Total GULP energy -223399.949131 kJ/mol
# GULP energy per Si atom -5584.998728 kJ/mol
# Density = 2.052930 g / cm^3
# Si number density = 20.576132 Si / 1000 Ang^3
#
#
#
# Elastic Constant Matrix: (Units=GPa)
#
#
# Indices 1 2 3 4 5 6 
#
# 1 20.0037 10.4764 41.4706 0.0000 0.0000 0.0000
# 2 10.4764 23.9385 9.2869 0.0000 0.0000 0.0000
# 3 41.4706 9.2869 37.7942 0.0000 0.0000 0.0000
# 4 0.0000 0.0000 0.0000 48.1486 0.0000 0.0000
# 5 0.0000 0.0000 0.0000 0.0000 30.6249 0.0000
# 6 0.0000 0.0000 0.0000 0.0000 0.0000 25.1669
#
#
#
# Elastic Compliance Matrix: (Units=1/GPa)
#
#
# Indices 1 2 3 4 5 6 
#
# 1 -0.039209 0.000518 0.042895 0.000000 0.000000 0.000000
# 2 0.000518 0.046169 -0.011913 0.000000 0.000000 0.000000
# 3 0.042895 -0.011913 -0.017681 0.000000 0.000000 0.000000
# 4 0.000000 0.000000 0.000000 0.020769 0.000000 0.000000
# 5 0.000000 0.000000 0.000000 0.000000 0.032653 0.000000
# 6 0.000000 0.000000 0.000000 0.000000 0.000000 0.039735
#
#
# Mechanical properties :
#
#
# Convention : Reuss Voigt Hill
#
# Bulk Modulus (GPa) = 19.12815 22.68935 20.90875
# Shear Modulus (GPa) = 135.64214 22.15492 78.89853
#
# Velocity S-wave (km/s) = 8.12805 3.28491 6.19903
# Velocity P-wave (km/s) = 9.86932 5.04366 7.83715
#
# Compressibility (1/GPa) = 0.05227897
#
# Stress axis : x y z
#
# Youngs Moduli (GPa) = -25.50462 21.65971 -56.55674
#
# Poissons Ratio (x) = -0.01122 2.42601
# Poissons Ratio (y) = 0.01321 -0.67377
# Poissons Ratio (z) = 1.09403 0.25803
#
# Static dielectric constant tensor:
#      x y z
#    x 1.682040 0.000000 0.000000 
#    y 0.000000 1.733960 0.000000 
#    z 0.000000 0.000000 1.872820 
# 
# From -- ./inp_files/13816.got.cif
#   From: 2010.05.17/outbox.ucp.g08.bks.cvg/sg59_7_cif.got.tgz:13816.got - 2010.06.11 16:43:56.
