data_PCOD9453648
_publ_section_title
;
Structure prediction by ZEFSAII (Michael W. Deem and Ramdas Pophale) SiO2 
 PCOD9453648
Probable space group: P M M N
;
_chemical_formula_sum "Si O2"
_cell_formula_units_Z 56
_cell_length_a 9.000000
_cell_length_b 15.000000
_cell_length_c 21.000000
_cell_angle_alpha 90.000000
_cell_angle_beta 90.000000
_cell_angle_gamma 90.000000
_cell_volume 2835.000000
_symmetry_space_group_name_H-M "P M M N"
_symmetry_group_IT_number 59
_space_group.IT_coordinate_system_code '2'
_symmetry_cell_setting 'orthorhombic'
loop_
_space_group_symop_operation_xyz
x,y,z
1/2-x,1/2-y,z
1/2+x,-y,-z
-x,1/2+y,-z
-x,-y,-z
1/2+x,1/2+y,-z
1/2-x,y,z
x,1/2-y,z
loop_
_atom_site_type_symbol
_atom_site_label
_atom_site_fract_x
_atom_site_fract_y
_atom_site_fract_z
Si Si1 0.929078 0.026302 0.222432
Si Si2 0.572692 0.853112 0.400935
Si Si3 0.924526 0.145245 0.460937
Si Si4 0.072884 0.405778 0.984040
Si Si5 0.420889 0.652311 0.894076
Si Si6 0.430808 0.151883 0.842511
Si Si7 0.573060 0.973449 0.648168
O O1 0.750000 0.030815 0.232506
O O2 0.974091 0.925443 0.205602
O O3 0.963938 0.081246 0.158745
O O4 0.014428 0.060241 0.283868
O O5 0.750000 0.868097 0.398813
O O6 0.544805 0.750000 0.382624
O O7 0.511037 0.865354 0.472585
O O8 0.488974 0.926213 0.359427
O O9 0.750000 0.122601 0.469160
O O10 0.933640 0.250000 0.443440
O O11 0.998812 0.084394 0.407662
O O12 0.250000 0.412805 0.982294
O O13 0.020603 0.348092 0.043571
O O14 0.023578 0.370674 0.914997
O O15 0.000000 0.500000 0.000000
O O16 0.250000 0.632829 0.913440
O O17 0.423763 0.750000 0.864136
O O18 0.250000 0.151997 0.843035
O O19 0.482646 0.250000 0.824656
O O20 0.750000 0.970978 0.643457
#
# Coordination Sequence:
#
# PCOD9453648 Si02
#       7
#     8   8   8   8   8   8   8
#     4  10  21  39  57  78 111 153 199 241 283 342
#     4  10  21  39  64  92 121 155 196 241 289 343
#     4  10  21  39  64  92 121 154 194 241 292 345
#     4  11  20  34  58  86 116 147 187 236 290 347
#     4  10  21  38  59  84 114 149 190 238 292 347
#     4   9  18  34  57  82 108 142 186 235 286 341
#     4  12  25  39  58  86 122 159 197 243 293 348
#
# _framework density 19.753086
#
# number of rings (size 3 to 8) (size 9 to 14) (size 15 to 20)
#    0.000    1.714    1.429    3.429    0.000    4.286 
#    0.000    2.857    0.000    1.714    0.000    0.000 
#    0.000    0.000    0.000    0.000    0.000    0.000 
#
# Total GULP energy -312743.850393 kJ/mol
# GULP energy per Si atom -5584.711614 kJ/mol
# Density = 1.970813 g / cm^3
# Si number density = 19.753086 Si / 1000 Ang^3
#
#
#
# Elastic Constant Matrix: (Units=GPa)
#
#
# Indices 1 2 3 4 5 6 
#
# 1 60.1348 12.2095 14.1468 0.0000 0.0000 0.0000
# 2 12.2095 68.3883 13.3317 0.0000 0.0000 0.0000
# 3 14.1468 13.3317 42.3737 0.0000 0.0000 0.0000
# 4 0.0000 0.0000 0.0000 -16.6937 0.0000 0.0000
# 5 0.0000 0.0000 0.0000 0.0000 29.0527 0.0000
# 6 0.0000 0.0000 0.0000 0.0000 0.0000 20.9841
#
#
#
# Elastic Compliance Matrix: (Units=1/GPa)
#
#
# Indices 1 2 3 4 5 6 
#
# 1 0.018357 -0.002219 -0.005431 0.000000 0.000000 0.000000
# 2 -0.002219 0.015846 -0.004245 0.000000 0.000000 0.000000
# 3 -0.005431 -0.004245 0.026748 0.000000 0.000000 0.000000
# 4 0.000000 0.000000 0.000000 -0.059903 0.000000 0.000000
# 5 0.000000 0.000000 0.000000 0.000000 0.034420 0.000000
# 6 0.000000 0.000000 0.000000 0.000000 0.000000 0.047655
#
#
# Mechanical properties :
#
#
# Convention : Reuss Voigt Hill
#
# Bulk Modulus (GPa) = 26.90841 27.80810 27.35825
# Shear Modulus (GPa) = 41.91112 15.41587 28.66349
#
# Velocity S-wave (km/s) = 4.61124 2.79665 3.81345
# Velocity P-wave (km/s) = 6.48100 4.95345 5.76802
#
# Compressibility (1/GPa) = 0.03716311
#
# Stress axis : x y z
#
# Youngs Moduli (GPa) = 54.47404 63.10745 37.38575
#
# Poissons Ratio (x) = 0.14002 0.20303
# Poissons Ratio (y) = 0.12086 0.15869
# Poissons Ratio (z) = 0.29583 0.26788
#
# Static dielectric constant tensor:
#      x y z
#    x 1.658510 0.000000 0.000000 
#    y 0.000000 1.812690 0.000000 
#    z 0.000000 0.000000 1.688910 
# 
# From -- ./inp_files/28969.got.cif
#   From: 2010.05.17/outbox.ucp.g08.bks.cvg/sg59_15_cif.got.tgz:28969.got - 2010.06.11 16:43:56.
