data_PCOD9453990
_publ_section_title
;
Structure prediction by ZEFSAII (Michael W. Deem and Ramdas Pophale) SiO2 
 PCOD9453990
Probable space group: P B C N
;
_chemical_formula_sum "Si O2"
_cell_formula_units_Z 52
_cell_length_a 21.173318
_cell_length_b 13.923498
_cell_length_c 8.570653
_cell_angle_alpha 90.000000
_cell_angle_beta 90.000000
_cell_angle_gamma 90.000000
_cell_volume 2526.685506
_symmetry_space_group_name_H-M "P B C N"
_symmetry_group_IT_number 60
_symmetry_cell_setting 'orthorhombic'
loop_
_space_group_symop_operation_xyz
x,y,z
1/2-x,1/2-y,1/2+z
1/2+x,1/2-y,-z
-x,y,1/2-z
-x,-y,-z
1/2+x,1/2+y,1/2-z
1/2-x,1/2+y,z
x,-y,1/2+z
loop_
_atom_site_type_symbol
_atom_site_label
_atom_site_fract_x
_atom_site_fract_y
_atom_site_fract_z
Si Si1 0.329458 0.360710 0.202225
Si Si2 0.293560 0.727065 0.195800
Si Si3 0.148506 0.532633 0.876590
Si Si4 0.000000 0.283005 0.250000
Si Si5 0.289714 0.458784 0.501531
Si Si6 0.887421 0.370757 0.434077
Si Si7 0.110076 0.740717 0.966937
O O1 0.268619 0.290967 0.210282
O O2 0.334545 0.413103 0.368482
O O3 0.316118 0.445630 0.078985
O O4 0.384209 0.293486 0.131248
O O5 0.341664 0.778957 0.074038
O O6 0.329580 0.729105 0.360781
O O7 0.280223 0.621583 0.134526
O O8 0.221476 0.524529 0.923621
O O9 0.143538 0.559588 0.696092
O O10 0.116481 0.624441 0.964489
O O11 0.114026 0.433012 0.911843
O O12 0.044783 0.343491 0.134243
O O13 0.049220 0.230598 0.364190
#
# Coordination Sequence:
#
# PCOD9453990 Si02
#       7
#     8   8   8   4   8   8   8
#     4  12  21  34  54  84 114 149 184 231 290 344
#     4  10  19  35  53  80 113 150 181 232 280 337
#     4  10  18  32  52  84 112 151 177 228 278 346
#     4   8  20  40  58  76 112 160 196 238 264 336
#     4  12  21  33  54  84 123 142 180 229 295 350
#     4  10  20  34  55  80 115 150 192 224 281 325
#     4  10  21  37  57  80 112 150 196 227 285 328
#
# _framework density 20.580321000000001
#
# number of rings (size 3 to 8) (size 9 to 14) (size 15 to 20)
#    0.000    1.846    6.154    0.923    0.000    3.692 
#    0.000    0.000    0.000   19.385    0.000    0.000 
#    0.000    0.000    0.000    0.000    0.000    0.000 
#
# Total GULP energy -290367.808143 kJ/mol
# GULP energy per Si atom -5583.996310 kJ/mol
# Density = 2.053348 g / cm^3
# Si number density = 20.580321 Si / 1000 Ang^3
#
#
#
# Elastic Constant Matrix: (Units=GPa)
#
#
# Indices 1 2 3 4 5 6 
#
# 1 43.9711 -3.5611 2.4939 0.0000 0.0000 0.0000
# 2 -3.5611 70.1758 13.6607 0.0000 0.0000 0.0000
# 3 2.4939 13.6607 25.1270 0.0000 0.0000 0.0000
# 4 0.0000 0.0000 0.0000 40.1689 0.0000 0.0000
# 5 0.0000 0.0000 0.0000 0.0000 16.8609 0.0000
# 6 0.0000 0.0000 0.0000 0.0000 0.0000 5.5149
#
#
#
# Elastic Compliance Matrix: (Units=1/GPa)
#
#
# Indices 1 2 3 4 5 6 
#
# 1 0.023074 0.001808 -0.003273 0.000000 0.000000 0.000000
# 2 0.001808 0.016078 -0.008921 0.000000 0.000000 0.000000
# 3 -0.003273 -0.008921 0.044973 0.000000 0.000000 0.000000
# 4 0.000000 0.000000 0.000000 0.024895 0.000000 0.000000
# 5 0.000000 0.000000 0.000000 0.000000 0.059309 0.000000
# 6 0.000000 0.000000 0.000000 0.000000 0.000000 0.181327
#
#
# Mechanical properties :
#
#
# Convention : Reuss Voigt Hill
#
# Bulk Modulus (GPa) = 15.78442 18.27345 17.02893
# Shear Modulus (GPa) = 12.76992 20.95429 16.86211
#
# Velocity S-wave (km/s) = 2.49367 3.19434 2.86550
# Velocity P-wave (km/s) = 3.99719 4.74378 4.38640
#
# Compressibility (1/GPa) = 0.06335361
#
# Stress axis : x y z
#
# Youngs Moduli (GPa) = 43.33835 62.19602 22.23580
#
# Poissons Ratio (x) = -0.11245 0.07278
# Poissons Ratio (y) = -0.07836 0.19836
# Poissons Ratio (z) = 0.14185 0.55483
#
# Static dielectric constant tensor:
#      x y z
#    x 1.730120 0.000000 0.000000 
#    y 0.000000 1.743280 0.000000 
#    z 0.000000 0.000000 1.791820 
# 
# From -- ./inp_files/7351.got.cif
#   From: 2010.05.17/outbox.cif.g08.bks.cpg/sg60_4_cif.got.tgz:7351.got - 2010.06.03 14:59:27.
