data_PCOD9453298
_publ_section_title
;
Structure prediction by ZEFSAII (Michael W. Deem and Ramdas Pophale) SiO2 
 PCOD9453298
Probable space group: P M M N
;
_chemical_formula_sum "Si O2"
_cell_formula_units_Z 56
_cell_length_a 7.421027
_cell_length_b 20.541027
_cell_length_c 17.993227
_cell_angle_alpha 90.000000
_cell_angle_beta 90.000000
_cell_angle_gamma 90.000000
_cell_volume 2742.806842
_symmetry_space_group_name_H-M "P M M N"
_symmetry_group_IT_number 59
_space_group.IT_coordinate_system_code '2'
_symmetry_cell_setting 'orthorhombic'
loop_
_space_group_symop_operation_xyz
x,y,z
1/2-x,1/2-y,z
1/2+x,-y,-z
-x,1/2+y,-z
-x,-y,-z
1/2+x,1/2+y,-z
1/2-x,y,z
x,1/2-y,z
loop_
_atom_site_type_symbol
_atom_site_label
_atom_site_fract_x
_atom_site_fract_y
_atom_site_fract_z
Si Si1 0.965095 0.823314 0.618776
Si Si2 0.469838 0.676648 0.180178
Si Si3 0.029201 0.438933 0.276235
Si Si4 0.466949 0.593428 0.044782
Si Si5 0.530099 0.084002 0.684615
Si Si6 0.462289 0.044166 0.109658
Si Si7 0.465864 0.676271 0.446807
O O1 0.750000 0.820292 0.629159
O O2 0.036337 0.750000 0.631205
O O3 0.033913 0.878845 0.673784
O O4 0.996293 0.840055 0.532394
O O5 0.250000 0.677189 0.181330
O O6 0.529682 0.750000 0.195437
O O7 0.526329 0.650655 0.099368
O O8 0.525224 0.625527 0.243195
O O9 0.250000 0.437685 0.277434
O O10 0.973610 0.509219 0.308233
O O11 0.969088 0.435552 0.190278
O O12 0.250000 0.592072 0.047063
O O13 0.535387 0.525067 0.079822
O O14 0.516030 0.594078 0.958275
O O15 0.750000 0.083299 0.684363
O O16 0.468566 0.122969 0.611752
O O17 0.250000 0.033290 0.120223
O O18 0.250000 0.678884 0.438198
O O19 0.533648 0.750000 0.432342
#
# Coordination Sequence:
#
# PCOD9453298 Si02
#       7
#     8   8   8   8   8   8   8
#     4   9  18  32  48  64  85 117 153 185 220 262
#     4   9  15  24  41  66  94 119 145 180 220 263
#     4   9  16  28  46  66  88 115 150 188 220 256
#     4   9  16  27  44  66  89 114 145 178 216 261
#     4   9  15  25  43  68  92 114 145 183 221 260
#     4   9  16  28  46  65  86 114 147 182 218 256
#     4   9  17  29  46  68  92 116 143 178 221 267
#
# _framework density 20.417041000000001
#
# number of rings (size 3 to 8) (size 9 to 14) (size 15 to 20)
#    0.000    3.000    1.429    0.429    0.000    2.286 
#    0.000    1.429    0.000    3.000    0.000    0.000 
#    0.000    0.000    0.000    0.000    0.000    0.000 
#
# Total GULP energy -312403.551531 kJ/mol
# GULP energy per Si atom -5578.634849 kJ/mol
# Density = 2.037057 g / cm^3
# Si number density = 20.417041 Si / 1000 Ang^3
#
#
#
# Elastic Constant Matrix: (Units=GPa)
#
#
# Indices 1 2 3 4 5 6 
#
# 1 63.3463 2.4580 -0.1654 0.0000 0.0000 0.0000
# 2 2.4580 141.2815 117.8768 0.0000 0.0000 0.0000
# 3 -0.1654 117.8768 184.2728 0.0000 0.0000 0.0000
# 4 0.0000 0.0000 0.0000 24.5412 0.0000 0.0000
# 5 0.0000 0.0000 0.0000 0.0000 18.4084 0.0000
# 6 0.0000 0.0000 0.0000 0.0000 0.0000 -6.0145
#
#
#
# Elastic Compliance Matrix: (Units=1/GPa)
#
#
# Indices 1 2 3 4 5 6 
#
# 1 0.015811 -0.000615 0.000408 0.000000 0.000000 0.000000
# 2 -0.000615 0.015204 -0.009726 0.000000 0.000000 0.000000
# 3 0.000408 -0.009726 0.011649 0.000000 0.000000 0.000000
# 4 0.000000 0.000000 0.000000 0.040748 0.000000 0.000000
# 5 0.000000 0.000000 0.000000 0.000000 0.054323 0.000000
# 6 0.000000 0.000000 0.000000 0.000000 0.000000 -0.166264
#
#
# Mechanical properties :
#
#
# Convention : Reuss Voigt Hill
#
# Bulk Modulus (GPa) = 43.86671 69.91547 56.89109
# Shear Modulus (GPa) = -4704.10514 25.30242 -2339.40136
#
# Velocity S-wave (km/s) = -48.05217 3.52416 -33.88651
# Velocity P-wave (km/s) = 55.29149 7.13286 38.77030
#
# Compressibility (1/GPa) = 0.02279633
#
# Stress axis : x y z
#
# Youngs Moduli (GPa) = 63.24636 65.77350 85.84584
#
# Poissons Ratio (x) = 0.04047 -0.03501
# Poissons Ratio (y) = 0.03892 0.83495
# Poissons Ratio (z) = -0.02579 0.63972
#
# Static dielectric constant tensor:
#      x y z
#    x 1.792220 0.000000 0.000000 
#    y 0.000000 1.703470 0.000000 
#    z 0.000000 0.000000 1.707370 
# 
# From -- ./inp_files/16007.got.cif
#   From: 2010.05.17/outbox.cif.g08.bks.cpg/sg59_9_cif.got.tgz:16007.got - 2010.06.03 14:40:33.
