data_PCOD9453146
_publ_section_title
;
Structure prediction by ZEFSAII (Michael W. Deem and Ramdas Pophale) SiO2 
 PCOD9453146
Probable space group: P M M N
;
_chemical_formula_sum "Si O2"
_cell_formula_units_Z 40
_cell_length_a 8.946169
_cell_length_b 7.832824
_cell_length_c 30.226859
_cell_angle_alpha 90.000000
_cell_angle_beta 90.000000
_cell_angle_gamma 90.000000
_cell_volume 2118.109882
_symmetry_space_group_name_H-M "P M M N"
_symmetry_group_IT_number 59
_space_group.IT_coordinate_system_code '2'
_symmetry_cell_setting 'orthorhombic'
loop_
_space_group_symop_operation_xyz
x,y,z
1/2-x,1/2-y,z
1/2+x,-y,-z
-x,1/2+y,-z
-x,-y,-z
1/2+x,1/2+y,-z
1/2-x,y,z
x,1/2-y,z
loop_
_atom_site_type_symbol
_atom_site_label
_atom_site_fract_x
_atom_site_fract_y
_atom_site_fract_z
Si Si1 0.918212 0.544869 0.955011
Si Si2 0.567057 0.947105 0.858239
Si Si3 0.929849 0.250000 0.691978
Si Si4 0.431949 0.750000 0.205674
Si Si5 0.927881 0.056399 0.362919
Si Si6 0.576310 0.454418 0.546327
O O1 0.750000 0.475871 0.957860
O O2 0.911050 0.750000 0.952294
O O3 0.983696 0.493336 0.907281
O O4 0.000000 0.500000 0.000000
O O5 0.750000 0.946908 0.859914
O O6 0.521789 0.750000 0.850298
O O7 0.520118 0.080992 0.821019
O O8 0.750000 0.250000 0.689362
O O9 0.977176 0.250000 0.743289
O O10 0.992431 0.416247 0.667247
O O11 0.250000 0.750000 0.205189
O O12 0.750000 0.027026 0.363151
O O13 0.956679 0.250000 0.347637
O O14 0.990131 0.036300 0.412592
O O15 0.500000 0.500000 0.500000
O O16 0.750000 0.507392 0.546200
O O17 0.571009 0.250000 0.552160
#
# Coordination Sequence:
#
# PCOD9453146 Si02
#       6
#     8   8   4   4   8   8
#     4   9  18  30  46  72 104 138 179 223 271 330
#     4   8  15  29  47  71 105 140 178 227 276 332
#     4  11  23  39  61  93 123 149 191 253 314 361
#     4   9  18  31  53  81 107 141 185 229 290 351
#     4  11  24  42  64  88 119 162 206 245 292 354
#     4  11  23  38  59  90 126 163 204 247 295 349
#
# _framework density 18.884763
#
# number of rings (size 3 to 8) (size 9 to 14) (size 15 to 20)
#    0.000    2.200    1.000    3.300    1.400    6.400 
#    0.000    2.000    0.000    2.400    0.000    0.000 
#    0.000    0.000    0.000    0.000    0.000    0.000 
#
# Total GULP energy -223246.267794 kJ/mol
# GULP energy per Si atom -5581.156695 kJ/mol
# Density = 1.884178 g / cm^3
# Si number density = 18.884763 Si / 1000 Ang^3
#
#
#
# Elastic Constant Matrix: (Units=GPa)
#
#
# Indices 1 2 3 4 5 6 
#
# 1 61.0962 47.0977 48.4158 0.0000 0.0000 0.0000
# 2 47.0977 110.5590 82.8917 0.0000 0.0000 0.0000
# 3 48.4158 82.8917 184.6649 0.0000 0.0000 0.0000
# 4 0.0000 0.0000 0.0000 30.6081 0.0000 0.0000
# 5 0.0000 0.0000 0.0000 0.0000 23.6818 0.0000
# 6 0.0000 0.0000 0.0000 0.0000 0.0000 21.6878
#
#
#
# Elastic Compliance Matrix: (Units=1/GPa)
#
#
# Indices 1 2 3 4 5 6 
#
# 1 0.025233 -0.008726 -0.002699 0.000000 0.000000 0.000000
# 2 -0.008726 0.016650 -0.005186 0.000000 0.000000 0.000000
# 3 -0.002699 -0.005186 0.008451 0.000000 0.000000 0.000000
# 4 0.000000 0.000000 0.000000 0.032671 0.000000 0.000000
# 5 0.000000 0.000000 0.000000 0.000000 0.042227 0.000000
# 6 0.000000 0.000000 0.000000 0.000000 0.000000 0.046109
#
#
# Mechanical properties :
#
#
# Convention : Reuss Voigt Hill
#
# Bulk Modulus (GPa) = 58.43681 79.23672 68.83677
# Shear Modulus (GPa) = 23.77939 27.05653 25.41796
#
# Velocity S-wave (km/s) = 3.55235 3.78923 3.67270
# Velocity P-wave (km/s) = 6.91640 7.82263 7.38343
#
# Compressibility (1/GPa) = 0.01711250
#
# Stress axis : x y z
#
# Youngs Moduli (GPa) = 39.63113 60.05848 118.33179
#
# Poissons Ratio (x) = 0.52404 0.31936
# Poissons Ratio (y) = 0.34580 0.61370
# Poissons Ratio (z) = 0.10696 0.31148
#
# Static dielectric constant tensor:
#      x y z
#    x 1.649120 0.000000 0.000000 
#    y 0.000000 1.613790 0.000000 
#    z 0.000000 0.000000 1.646120 
# 
# From -- ./inp_files/32447.got.cif
#   From: 2010.05.17/outbox.cif.g08.bks.cpg/sg59_17_cif.got.tgz:32447.got - 2010.06.03 14:40:33.
