data_PCOD9453761
_publ_section_title
;
Structure prediction by ZEFSAII (Michael W. Deem and Ramdas Pophale) SiO2 
 PCOD9453761
Probable space group: P B C N
;
_chemical_formula_sum "Si O2"
_cell_formula_units_Z 56
_cell_length_a 30.899655
_cell_length_b 5.581588
_cell_length_c 15.248209
_cell_angle_alpha 90.000000
_cell_angle_beta 90.000000
_cell_angle_gamma 90.000000
_cell_volume 2629.845547
_symmetry_space_group_name_H-M "P B C N"
_symmetry_group_IT_number 60
_symmetry_cell_setting 'orthorhombic'
loop_
_space_group_symop_operation_xyz
x,y,z
1/2-x,1/2-y,1/2+z
1/2+x,1/2-y,-z
-x,y,1/2-z
-x,-y,-z
1/2+x,1/2+y,1/2-z
1/2-x,1/2+y,z
x,-y,1/2+z
loop_
_atom_site_type_symbol
_atom_site_label
_atom_site_fract_x
_atom_site_fract_y
_atom_site_fract_z
Si Si1 0.140840 0.795384 0.599025
Si Si2 0.437663 0.419216 0.490468
Si Si3 0.368781 0.796851 0.704196
Si Si4 0.984456 0.691573 0.570532
Si Si5 0.727381 0.810270 0.761157
Si Si6 0.739687 0.690851 0.460272
Si Si7 0.959418 0.686631 0.195592
O O1 0.107257 0.815780 0.519857
O O2 0.133432 0.541880 0.647206
O O3 0.189944 0.804773 0.567387
O O4 0.132638 0.038943 0.655022
O O5 0.441118 0.700195 0.472268
O O6 0.474105 0.366862 0.564624
O O7 0.451659 0.321005 0.395906
O O8 0.323698 0.803508 0.758830
O O9 0.414397 0.809495 0.753800
O O10 0.973922 0.577190 0.662903
O O11 0.000000 0.500000 0.500000
O O12 0.750746 0.562271 0.733041
O O13 0.732747 0.809893 0.868631
O O14 0.749531 0.440242 0.507034
O O15 0.000000 0.785792 0.250000
#
# Coordination Sequence:
#
# PCOD9453761 Si02
#       7
#     8   8   8   8   8   8   8
#     4  12  23  37  65  98 125 163 214 261 313 378
#     4  10  24  41  66  87 122 167 212 256 320 381
#     4  12  24  37  65 100 127 164 213 268 318 372
#     4   9  21  44  62  83 117 164 209 257 311 373
#     4  10  16  34  56  90 124 159 207 261 304 367
#     4  10  16  33  55  91 124 155 204 261 300 363
#     4  11  26  42  61  90 131 167 212 266 319 376
#
# _framework density 21.294027
#
# number of rings (size 3 to 8) (size 9 to 14) (size 15 to 20)
#    0.000    1.429    5.714    0.857   12.000    0.571 
#    0.000    0.000    0.000    1.714    0.000    0.000 
#    0.000    0.000    0.000    0.000    0.000    0.000 
#
# Total GULP energy -312204.714593 kJ/mol
# GULP energy per Si atom -5575.084189 kJ/mol
# Density = 2.124556 g / cm^3
# Si number density = 21.294027 Si / 1000 Ang^3
#
#
#
# Elastic Constant Matrix: (Units=GPa)
#
#
# Indices 1 2 3 4 5 6 
#
# 1 173.9317 40.8650 58.8498 0.0000 0.0000 0.0000
# 2 40.8650 156.7315 37.3473 0.0000 0.0000 0.0000
# 3 58.8498 37.3473 39.8873 0.0000 0.0000 0.0000
# 4 0.0000 0.0000 0.0000 17.3463 0.0000 0.0000
# 5 0.0000 0.0000 0.0000 0.0000 10.4142 0.0000
# 6 0.0000 0.0000 0.0000 0.0000 0.0000 23.0034
#
#
#
# Elastic Compliance Matrix: (Units=1/GPa)
#
#
# Indices 1 2 3 4 5 6 
#
# 1 0.011704 0.001369 -0.018550 0.000000 0.000000 0.000000
# 2 0.001369 0.008373 -0.009859 0.000000 0.000000 0.000000
# 3 -0.018550 -0.009859 0.061670 0.000000 0.000000 0.000000
# 4 0.000000 0.000000 0.000000 0.057649 0.000000 0.000000
# 5 0.000000 0.000000 0.000000 0.000000 0.096023 0.000000
# 6 0.000000 0.000000 0.000000 0.000000 0.000000 0.043472
#
#
# Mechanical properties :
#
#
# Convention : Reuss Voigt Hill
#
# Bulk Modulus (GPa) = 36.14418 71.63051 53.88735
# Shear Modulus (GPa) = 14.61164 25.71866 20.16515
#
# Velocity S-wave (km/s) = 2.62235 3.47909 3.08065
# Velocity P-wave (km/s) = 5.11661 7.06050 6.16564
#
# Compressibility (1/GPa) = 0.02766697
#
# Stress axis : x y z
#
# Youngs Moduli (GPa) = 85.43970 119.43520 16.21535
#
# Poissons Ratio (x) = -0.16345 0.30079
# Poissons Ratio (y) = -0.11693 0.15986
# Poissons Ratio (z) = 1.58489 1.17748
#
# Static dielectric constant tensor:
#      x y z
#    x 1.780340 0.000000 0.000000 
#    y 0.000000 1.978730 0.000000 
#    z 0.000000 0.000000 1.754940 
# 
# From -- ./inp_files/18153.got.cif
#   From: 2010.05.17/outbox.cif.g08.bks.cpg/sg60_10_cif.got.tgz:18153.got - 2010.06.03 14:59:27.
