data_PCOD9453246
_publ_section_title
;
Structure prediction by ZEFSAII (Michael W. Deem and Ramdas Pophale) SiO2 
 PCOD9453246
Probable space group: P M M N
;
_chemical_formula_sum "Si O2"
_cell_formula_units_Z 56
_cell_length_a 25.599124
_cell_length_b 7.512898
_cell_length_c 16.911092
_cell_angle_alpha 90.000000
_cell_angle_beta 90.000000
_cell_angle_gamma 90.000000
_cell_volume 3252.402220
_symmetry_space_group_name_H-M "P M M N"
_symmetry_group_IT_number 59
_space_group.IT_coordinate_system_code '2'
_symmetry_cell_setting 'orthorhombic'
loop_
_space_group_symop_operation_xyz
x,y,z
1/2-x,1/2-y,z
1/2+x,-y,-z
-x,1/2+y,-z
-x,-y,-z
1/2+x,1/2+y,-z
1/2-x,y,z
x,1/2-y,z
loop_
_atom_site_type_symbol
_atom_site_label
_atom_site_fract_x
_atom_site_fract_y
_atom_site_fract_z
Si Si1 0.808307 0.539501 0.918685
Si Si2 0.442881 0.536933 0.536781
Si Si3 0.916647 0.535785 0.981472
Si Si4 0.484614 0.538434 0.696368
Si Si5 0.401692 0.965462 0.376526
Si Si6 0.988625 0.462862 0.126842
Si Si7 0.308795 0.965209 0.265213
O O1 0.750000 0.464859 0.933698
O O2 0.805503 0.750000 0.935581
O O3 0.858430 0.467015 0.965199
O O4 0.819340 0.519057 0.825190
O O5 0.500000 0.500000 0.500000
O O6 0.436006 0.750000 0.541839
O O7 0.447084 0.466740 0.626365
O O8 0.404368 0.471124 0.467788
O O9 0.915028 0.750000 0.973658
O O10 0.958865 0.468932 0.916697
O O11 0.941172 0.495804 0.066735
O O12 0.474748 0.750000 0.700402
O O13 0.544105 0.514175 0.666514
O O14 0.480031 0.465734 0.784983
O O15 0.399827 0.750000 0.378408
O O16 0.352908 0.029667 0.325277
O O17 0.995060 0.250000 0.133600
O O18 0.250000 0.024596 0.285234
O O19 0.309233 0.750000 0.266968
#
# Coordination Sequence:
#
# PCOD9453246 Si02
#       7
#     8   8   8   8   8   8   8
#     4   9  17  29  44  60  78 101 130 163 195 228
#     4   8  14  24  37  54  75  98 124 152 182 217
#     4   9  17  28  40  56  78 101 127 158 192 231
#     4   9  16  26  40  57  77 101 128 157 190 227
#     4   9  16  25  38  56  78 103 128 155 187 223
#     4   9  17  27  39  56  78 104 130 156 189 230
#     4   9  17  27  38  55  79 104 129 155 184 221
#
# _framework density 17.218042000000001
#
# number of rings (size 3 to 8) (size 9 to 14) (size 15 to 20)
#    0.000    3.143    0.000    0.857    0.000    2.857 
#    0.000    2.857    0.000    0.000    0.000    1.000 
#    0.000    3.429    0.000    0.000    0.000    0.000 
#
# Total GULP energy -311841.478930 kJ/mol
# GULP energy per Si atom -5568.597838 kJ/mol
# Density = 1.717885 g / cm^3
# Si number density = 17.218042 Si / 1000 Ang^3
#
#
#
# Elastic Constant Matrix: (Units=GPa)
#
#
# Indices 1 2 3 4 5 6 
#
# 1 98.3539 -2.9102 76.4060 0.0000 0.0000 0.0000
# 2 -2.9102 45.7947 0.4645 0.0000 0.0000 0.0000
# 3 76.4060 0.4645 154.1456 0.0000 0.0000 0.0000
# 4 0.0000 0.0000 0.0000 -0.4998 0.0000 0.0000
# 5 0.0000 0.0000 0.0000 0.0000 26.7185 0.0000
# 6 0.0000 0.0000 0.0000 0.0000 0.0000 9.1555
#
#
#
# Elastic Compliance Matrix: (Units=1/GPa)
#
#
# Indices 1 2 3 4 5 6 
#
# 1 0.016593 0.001138 -0.008228 0.000000 0.000000 0.000000
# 2 0.001138 0.021915 -0.000630 0.000000 0.000000 0.000000
# 3 -0.008228 -0.000630 0.010568 0.000000 0.000000 0.000000
# 4 0.000000 0.000000 0.000000 -2.000897 0.000000 0.000000
# 5 0.000000 0.000000 0.000000 0.000000 0.037427 0.000000
# 6 0.000000 0.000000 0.000000 0.000000 0.000000 0.109224
#
#
# Mechanical properties :
#
#
# Convention : Reuss Voigt Hill
#
# Bulk Modulus (GPa) = 29.73053 49.57941 39.65497
# Shear Modulus (GPa) = -2.81133 22.03045 9.60956
#
# Velocity S-wave (km/s) = -1.27919 3.58089 2.36500
# Velocity P-wave (km/s) = 3.88880 6.77898 5.52618
#
# Compressibility (1/GPa) = 0.03363546
#
# Stress axis : x y z
#
# Youngs Moduli (GPa) = 60.26607 45.63028 94.62735
#
# Poissons Ratio (x) = -0.05192 0.77861
# Poissons Ratio (y) = -0.06858 0.05962
# Poissons Ratio (z) = 0.49588 0.02875
#
# Static dielectric constant tensor:
#      x y z
#    x 1.581840 0.000000 0.000000 
#    y 0.000000 1.637370 0.000000 
#    z 0.000000 0.000000 1.607890 
# 
# From -- ./inp_files/26422.got.cif
#   From: 2010.05.17/outbox.cif.g08.bks.cpg/sg59_14_cif.got.tgz:26422.got - 2010.06.03 14:40:33.
