data_PCOD9453728
_publ_section_title
;
Structure prediction by ZEFSAII (Michael W. Deem and Ramdas Pophale) SiO2 
 PCOD9453728
Probable space group: P B C N
;
_chemical_formula_sum "Si O2"
_cell_formula_units_Z 64
_cell_length_a 29.213750
_cell_length_b 5.416060
_cell_length_c 23.347046
_cell_angle_alpha 90.000000
_cell_angle_beta 90.000000
_cell_angle_gamma 90.000000
_cell_volume 3694.049531
_symmetry_space_group_name_H-M "P B C N"
_symmetry_group_IT_number 60
_symmetry_cell_setting 'orthorhombic'
loop_
_space_group_symop_operation_xyz
x,y,z
1/2-x,1/2-y,1/2+z
1/2+x,1/2-y,-z
-x,y,1/2-z
-x,-y,-z
1/2+x,1/2+y,1/2-z
1/2-x,1/2+y,z
x,-y,1/2+z
loop_
_atom_site_type_symbol
_atom_site_label
_atom_site_fract_x
_atom_site_fract_y
_atom_site_fract_z
Si Si1 0.940533 0.750633 0.982639
Si Si2 0.224785 0.750308 0.828667
Si Si3 0.555388 0.240026 0.755935
Si Si4 0.631779 0.750504 0.576993
Si Si5 0.379248 0.250605 0.850936
Si Si6 0.262385 0.749815 0.955964
Si Si7 0.038699 0.760051 0.200710
Si Si8 0.975011 0.749066 0.429467
O O1 0.948777 0.502282 0.946463
O O2 0.948591 0.001050 0.947202
O O3 0.893119 0.749620 0.016080
O O4 0.978732 0.749118 0.033272
O O5 0.249942 0.500138 0.808506
O O6 0.170421 0.750839 0.819641
O O7 0.231271 0.750091 0.898131
O O8 0.500000 0.236615 0.750000
O O9 0.580048 0.248388 0.694932
O O10 0.566412 0.487918 0.790622
O O11 0.567342 0.987183 0.788113
O O12 0.618740 0.501254 0.611504
O O13 0.685939 0.749631 0.566163
O O14 0.618965 0.000668 0.611228
O O15 0.249960 0.499880 0.987925
O O16 0.016556 0.751870 0.138196
O O17 0.000000 0.763501 0.250000
#
# Coordination Sequence:
#
# PCOD9453728 Si02
#       8
#     8   8   8   8   8   8   8   8
#     4  10  23  35  55  82 101 152 178 221 271 320
#     4  10  16  30  46  70 106 152 167 204 289 331
#     4  10  23  34  48  79 106 141 192 225 281 313
#     4  12  21  31  53  79 112 150 181 214 264 352
#     4  12  21  31  51  77 117 150 177 227 263 347
#     4  10  16  30  45  73 109 146 168 208 276 331
#     4  10  21  38  57  76  98 143 184 238 282 306
#     4  10  21  41  55  72 112 138 190 227 268 322
#
# _framework density 17.32516
#
# number of rings (size 3 to 8) (size 9 to 14) (size 15 to 20)
#    0.000    1.500    5.000    2.250    7.000    0.000 
#    0.000    0.000    0.000    0.000    0.000    0.000 
#    0.000   20.000    0.000    0.000    0.000    0.000 
#
# Total GULP energy -356852.282005 kJ/mol
# GULP energy per Si atom -5575.816906 kJ/mol
# Density = 1.728573 g / cm^3
# Si number density = 17.325160 Si / 1000 Ang^3
#
#
#
# Elastic Constant Matrix: (Units=GPa)
#
#
# Indices 1 2 3 4 5 6 
#
# 1 67.8683 6.1989 16.2029 0.0000 0.0000 0.0000
# 2 6.1989 144.1167 6.2476 0.0000 0.0000 0.0000
# 3 16.2029 6.2476 61.2424 0.0000 0.0000 0.0000
# 4 0.0000 0.0000 0.0000 16.9420 0.0000 0.0000
# 5 0.0000 0.0000 0.0000 0.0000 6.1133 0.0000
# 6 0.0000 0.0000 0.0000 0.0000 0.0000 10.1841
#
#
#
# Elastic Compliance Matrix: (Units=1/GPa)
#
#
# Indices 1 2 3 4 5 6 
#
# 1 0.015764 -0.000499 -0.004120 0.000000 0.000000 0.000000
# 2 -0.000499 0.006985 -0.000580 0.000000 0.000000 0.000000
# 3 -0.004120 -0.000580 0.017478 0.000000 0.000000 0.000000
# 4 0.000000 0.000000 0.000000 0.059025 0.000000 0.000000
# 5 0.000000 0.000000 0.000000 0.000000 0.163579 0.000000
# 6 0.000000 0.000000 0.000000 0.000000 0.000000 0.098193
#
#
# Mechanical properties :
#
#
# Convention : Reuss Voigt Hill
#
# Bulk Modulus (GPa) = 33.52592 36.72511 35.12552
# Shear Modulus (GPa) = 13.11082 22.95308 18.03195
#
# Velocity S-wave (km/s) = 2.75389 3.64379 3.22964
# Velocity P-wave (km/s) = 5.43184 6.24071 5.85027
#
# Compressibility (1/GPa) = 0.02982767
#
# Stress axis : x y z
#
# Youngs Moduli (GPa) = 63.43751 143.15433 57.21579
#
# Poissons Ratio (x) = 0.07150 0.23571
# Poissons Ratio (y) = 0.03168 0.03321
# Poissons Ratio (z) = 0.26134 0.08310
#
# Static dielectric constant tensor:
#      x y z
#    x 1.588270 0.000000 0.000000 
#    y 0.000000 1.587420 0.000000 
#    z 0.000000 0.000000 1.551690 
# 
# From -- ./inp_files/23355.got.cif
#   From: 2010.05.17/outbox.cif.g08.bks.cpg/sg60_12_cif.got.tgz:23355.got - 2010.06.03 14:59:27.
