data_PCOD9453792
_publ_section_title
;
Structure prediction by ZEFSAII (Michael W. Deem and Ramdas Pophale) SiO2 
 PCOD9453792
Probable space group: P B C N
;
_chemical_formula_sum "Si O2"
_cell_formula_units_Z 56
_cell_length_a 28.732376
_cell_length_b 21.639148
_cell_length_c 5.329894
_cell_angle_alpha 90.000000
_cell_angle_beta 90.000000
_cell_angle_gamma 90.000000
_cell_volume 3313.830343
_symmetry_space_group_name_H-M "P B C N"
_symmetry_group_IT_number 60
_symmetry_cell_setting 'orthorhombic'
loop_
_space_group_symop_operation_xyz
x,y,z
1/2-x,1/2-y,1/2+z
1/2+x,1/2-y,-z
-x,y,1/2-z
-x,-y,-z
1/2+x,1/2+y,1/2-z
1/2-x,1/2+y,z
x,-y,1/2+z
loop_
_atom_site_type_symbol
_atom_site_label
_atom_site_fract_x
_atom_site_fract_y
_atom_site_fract_z
Si Si1 0.100076 0.430214 0.785010
Si Si2 0.710635 0.686200 0.734857
Si Si3 0.398577 0.846996 0.283064
Si Si4 0.301121 0.944222 0.664455
Si Si5 0.500000 0.851150 0.250000
Si Si6 0.500000 0.935017 0.750000
Si Si7 0.313751 0.752467 0.265272
Si Si8 0.765272 0.421965 0.337686
O O1 0.101898 0.380693 0.555261
O O2 0.147758 0.466898 0.742008
O O3 0.050968 0.466107 0.759497
O O4 0.103565 0.396072 0.052623
O O5 0.764028 0.711831 0.739840
O O6 0.688146 0.707563 0.475542
O O7 0.718214 0.612889 0.770469
O O8 0.685463 0.715547 0.973598
O O9 0.450407 0.817370 0.256532
O O10 0.357371 0.798284 0.253406
O O11 0.299097 0.910903 0.398783
O O12 0.267893 0.003764 0.635436
O O13 0.283528 0.900971 0.889842
O O14 0.500123 0.893687 0.499278
#
# Coordination Sequence:
#
# PCOD9453792 Si02
#       8
#     8   8   8   8   4   4   8   8
#     4  10  17  28  45  63  85 108 142 183 218 254
#     4  10  19  30  41  60  86 110 136 175 211 251
#     4  10  18  29  45  66  89 114 144 182 215 256
#     4  10  19  30  47  63  77 108 147 177 210 253
#     4   8  16  28  42  62  87 112 142 174 217 258
#     4   8  16  26  40  62  83 108 134 176 227 254
#     4  10  19  28  43  62  83 110 140 167 211 256
#     4  10  20  32  44  60  82 105 141 179 212 250
#
# _framework density 16.898872999999998
#
# number of rings (size 3 to 8) (size 9 to 14) (size 15 to 20)
#    0.000    2.286    0.000    4.286    0.000    2.286 
#    0.000    0.000    0.000    3.429    0.000    1.000 
#    0.000    0.000    0.000    0.000    0.000   57.143 
#
# Total GULP energy -312110.561574 kJ/mol
# GULP energy per Si atom -5573.402885 kJ/mol
# Density = 1.686041 g / cm^3
# Si number density = 16.898873 Si / 1000 Ang^3
#
#
#
# Elastic Constant Matrix: (Units=GPa)
#
#
# Indices 1 2 3 4 5 6 
#
# 1 67.8041 33.0861 22.1617 0.0000 0.0000 0.0000
# 2 33.0861 47.3239 10.0383 0.0000 0.0000 0.0000
# 3 22.1617 10.0383 112.0363 0.0000 0.0000 0.0000
# 4 0.0000 0.0000 0.0000 36.9341 0.0000 0.0000
# 5 0.0000 0.0000 0.0000 0.0000 19.6452 0.0000
# 6 0.0000 0.0000 0.0000 0.0000 0.0000 -2.4440
#
#
#
# Elastic Compliance Matrix: (Units=1/GPa)
#
#
# Indices 1 2 3 4 5 6 
#
# 1 0.023482 -0.015731 -0.003235 0.000000 0.000000 0.000000
# 2 -0.015731 0.032079 0.000238 0.000000 0.000000 0.000000
# 3 -0.003235 0.000238 0.009544 0.000000 0.000000 0.000000
# 4 0.000000 0.000000 0.000000 0.027075 0.000000 0.000000
# 5 0.000000 0.000000 0.000000 0.000000 0.050903 0.000000
# 6 0.000000 0.000000 0.000000 0.000000 0.000000 -0.409158
#
#
# Mechanical properties :
#
#
# Convention : Reuss Voigt Hill
#
# Bulk Modulus (GPa) = 36.16982 39.74848 37.95915
# Shear Modulus (GPa) = -22.78933 21.61893 -0.58520
#
# Velocity S-wave (km/s) = -3.67627 3.58063 -0.58911
# Velocity P-wave (km/s) = 1.85207 6.37707 4.69559
#
# Compressibility (1/GPa) = 0.02764736
#
# Stress axis : x y z
#
# Youngs Moduli (GPa) = 42.58561 31.17319 104.77351
#
# Poissons Ratio (x) = 0.49039 0.33899
# Poissons Ratio (y) = 0.66992 -0.02488
# Poissons Ratio (z) = 0.13778 -0.00740
#
# Static dielectric constant tensor:
#      x y z
#    x 1.601350 0.000000 0.000000 
#    y 0.000000 1.597500 0.000000 
#    z 0.000000 0.000000 1.665080 
# 
# From -- ./inp_files/2643.got.cif
#   From: 2010.05.17/outbox.cif.g08.bks.cpg/sg60_2_cif.got.tgz:2643.got - 2010.06.03 14:59:27.
