data_PCOD9453914
_publ_section_title
;
Structure prediction by ZEFSAII (Michael W. Deem and Ramdas Pophale) SiO2 
 PCOD9453914
Probable space group: P B C N
;
_chemical_formula_sum "Si O2"
_cell_formula_units_Z 44
_cell_length_a 11.741390
_cell_length_b 24.709707
_cell_length_c 8.981300
_cell_angle_alpha 90.000000
_cell_angle_beta 90.000000
_cell_angle_gamma 90.000000
_cell_volume 2605.711398
_symmetry_space_group_name_H-M "P B C N"
_symmetry_group_IT_number 60
_symmetry_cell_setting 'orthorhombic'
loop_
_space_group_symop_operation_xyz
x,y,z
1/2-x,1/2-y,1/2+z
1/2+x,1/2-y,-z
-x,y,1/2-z
-x,-y,-z
1/2+x,1/2+y,1/2-z
1/2-x,1/2+y,z
x,-y,1/2+z
loop_
_atom_site_type_symbol
_atom_site_label
_atom_site_fract_x
_atom_site_fract_y
_atom_site_fract_z
Si Si1 0.577622 0.882655 0.528514
Si Si2 0.180793 0.577972 0.008023
Si Si3 0.292367 0.803881 0.455692
Si Si4 0.127181 0.275056 0.782188
Si Si5 0.365349 0.016871 0.293069
Si Si6 0.500000 0.170512 0.750000
O O1 0.444458 0.897662 0.548797
O O2 0.613342 0.831996 0.629578
O O3 0.640178 0.936506 0.580662
O O4 0.580664 0.865157 0.357123
O O5 0.245562 0.633148 0.969240
O O6 0.173964 0.538541 0.867224
O O7 0.203205 0.540518 0.152065
O O8 0.314992 0.784766 0.623249
O O9 0.199918 0.766494 0.377945
O O10 0.411263 0.799911 0.360301
O O11 0.000000 0.254899 0.750000
O O12 0.500000 0.009813 0.250000
#
# Coordination Sequence:
#
# PCOD9453914 Si02
#       6
#     8   8   8   8   8   4
#     4  10  18  32  50  75 117 149 183 225 283 343
#     4  10  20  31  49  80 112 148 185 225 282 353
#     4  11  24  36  56  82 114 156 195 233 291 339
#     4  12  21  41  58  79 117 156 190 245 279 333
#     4  10  18  29  47  74 113 150 177 222 281 349
#     4  10  20  32  52  82 114 148 192 228 276 348
#
# _framework density 16.885984000000001
#
# number of rings (size 3 to 8) (size 9 to 14) (size 15 to 20)
#    0.000    1.455    5.455    3.818   10.182    0.000 
#    0.000    0.000    0.000    0.000    0.000    1.273 
#    2.727    0.000    0.000    0.000    0.000    0.000 
#
# Total GULP energy -245202.035784 kJ/mol
# GULP energy per Si atom -5572.773541 kJ/mol
# Density = 1.684755 g / cm^3
# Si number density = 16.885984 Si / 1000 Ang^3
#
#
#
# Elastic Constant Matrix: (Units=GPa)
#
#
# Indices 1 2 3 4 5 6 
#
# 1 34.5754 44.9474 28.1988 0.0000 0.0000 0.0000
# 2 44.9474 137.9931 73.0254 0.0000 0.0000 0.0000
# 3 28.1988 73.0254 129.1236 0.0000 0.0000 0.0000
# 4 0.0000 0.0000 0.0000 16.7279 0.0000 0.0000
# 5 0.0000 0.0000 0.0000 0.0000 21.2802 0.0000
# 6 0.0000 0.0000 0.0000 0.0000 0.0000 17.7440
#
#
#
# Elastic Compliance Matrix: (Units=1/GPa)
#
#
# Indices 1 2 3 4 5 6 
#
# 1 0.050711 -0.015209 -0.002473 0.000000 0.000000 0.000000
# 2 -0.015209 0.014903 -0.005107 0.000000 0.000000 0.000000
# 3 -0.002473 -0.005107 0.011173 0.000000 0.000000 0.000000
# 4 0.000000 0.000000 0.000000 0.059780 0.000000 0.000000
# 5 0.000000 0.000000 0.000000 0.000000 0.046992 0.000000
# 6 0.000000 0.000000 0.000000 0.000000 0.000000 0.056357
#
#
# Mechanical properties :
#
#
# Convention : Reuss Voigt Hill
#
# Bulk Modulus (GPa) = 32.04246 66.00392 49.02319
# Shear Modulus (GPa) = 16.89777 21.51846 19.20812
#
# Velocity S-wave (km/s) = 3.16681 3.57366 3.37637
# Velocity P-wave (km/s) = 5.69110 7.49673 6.65543
#
# Compressibility (1/GPa) = 0.03120859
#
# Stress axis : x y z
#
# Youngs Moduli (GPa) = 19.71978 67.09960 89.50204
#
# Poissons Ratio (x) = 1.02050 0.22136
# Poissons Ratio (y) = 0.29991 0.45710
# Poissons Ratio (z) = 0.04877 0.34268
#
# Static dielectric constant tensor:
#      x y z
#    x 1.546900 0.000000 0.000000 
#    y 0.000000 1.615690 0.000000 
#    z 0.000000 0.000000 1.642420 
# 
# From -- ./inp_files/4986.got.cif
#   From: 2010.05.17/outbox.cif.g08.bks.cpg/sg60_3_cif.got.tgz:4986.got - 2010.06.03 14:59:27.
