data_PCOD9453212
_publ_section_title
;
Structure prediction by ZEFSAII (Michael W. Deem and Ramdas Pophale) SiO2 
 PCOD9453212
Probable space group: P M M N
;
_chemical_formula_sum "Si O2"
_cell_formula_units_Z 56
_cell_length_a 18.980284
_cell_length_b 7.386801
_cell_length_c 19.859529
_cell_angle_alpha 90.000000
_cell_angle_beta 90.000000
_cell_angle_gamma 90.000000
_cell_volume 2784.377079
_symmetry_space_group_name_H-M "P M M N"
_symmetry_group_IT_number 59
_space_group.IT_coordinate_system_code '2'
_symmetry_cell_setting 'orthorhombic'
loop_
_space_group_symop_operation_xyz
x,y,z
1/2-x,1/2-y,z
1/2+x,-y,-z
-x,1/2+y,-z
-x,-y,-z
1/2+x,1/2+y,-z
1/2-x,y,z
x,1/2-y,z
loop_
_atom_site_type_symbol
_atom_site_label
_atom_site_fract_x
_atom_site_fract_y
_atom_site_fract_z
Si Si1 0.828273 0.971096 0.639675
Si Si2 0.077441 0.468145 0.077201
Si Si3 0.956174 0.029988 0.291673
Si Si4 0.102341 0.469719 0.222640
Si Si5 0.416085 0.963118 0.927916
Si Si6 0.972032 0.965937 0.574329
Si Si7 0.829960 0.471649 0.200257
O O1 0.750000 0.030811 0.620590
O O2 0.828008 0.750000 0.638943
O O3 0.847454 0.027203 0.716265
O O4 0.893102 0.031146 0.592459
O O5 0.075619 0.250000 0.079397
O O6 0.114154 0.530415 0.146118
O O7 0.996095 0.535925 0.076965
O O8 0.108899 0.515588 0.004685
O O9 0.954365 0.250000 0.292113
O O10 0.883482 0.969951 0.258843
O O11 0.022813 0.980736 0.244840
O O12 0.975685 0.967877 0.366727
O O13 0.105321 0.250000 0.222532
O O14 0.422963 0.750000 0.914511
O O15 0.364133 0.032074 0.870537
O O16 0.968976 0.750000 0.582231
O O17 0.000000 0.000000 0.500000
O O18 0.750000 0.532060 0.208358
O O19 0.828831 0.250000 0.200409
#
# Coordination Sequence:
#
# PCOD9453212 Si02
#       7
#     8   8   8   8   8   8   8
#     4   8  14  25  43  67  89 111 144 182 216 252
#     4   9  15  24  40  60  81 107 138 175 217 255
#     4   8  13  24  41  61  81 104 138 176 208 240
#     4   8  12  21  39  59  79 104 137 178 214 243
#     4   9  16  25  38  58  83 108 139 177 214 252
#     4   9  17  29  48  70  92 116 142 175 213 255
#     4   9  15  24  40  60  82 110 145 182 214 244
#
# _framework density 20.112219
#
# number of rings (size 3 to 8) (size 9 to 14) (size 15 to 20)
#    0.000    3.429    1.429    1.714    0.000    0.000 
#    0.000    1.429    0.000    6.857    0.000    0.000 
#    0.000    0.000    0.000    0.000    0.000    0.000 
#
# Total GULP energy -312096.810027 kJ/mol
# GULP energy per Si atom -5573.157322 kJ/mol
# Density = 2.006644 g / cm^3
# Si number density = 20.112219 Si / 1000 Ang^3
#
#
#
# Elastic Constant Matrix: (Units=GPa)
#
#
# Indices 1 2 3 4 5 6 
#
# 1 145.4610 6.1433 93.7766 0.0000 0.0000 0.0000
# 2 6.1433 65.8555 -4.1222 0.0000 0.0000 0.0000
# 3 93.7766 -4.1222 172.4365 0.0000 0.0000 0.0000
# 4 0.0000 0.0000 0.0000 16.8118 0.0000 0.0000
# 5 0.0000 0.0000 0.0000 0.0000 21.2272 0.0000
# 6 0.0000 0.0000 0.0000 0.0000 0.0000 -5.4781
#
#
#
# Elastic Compliance Matrix: (Units=1/GPa)
#
#
# Indices 1 2 3 4 5 6 
#
# 1 0.010707 -0.001365 -0.005856 0.000000 0.000000 0.000000
# 2 -0.001365 0.015382 0.001110 0.000000 0.000000 0.000000
# 3 -0.005856 0.001110 0.009010 0.000000 0.000000 0.000000
# 4 0.000000 0.000000 0.000000 0.059482 0.000000 0.000000
# 5 0.000000 0.000000 0.000000 0.000000 0.047109 0.000000
# 6 0.000000 0.000000 0.000000 0.000000 0.000000 -0.182546
#
#
# Mechanical properties :
#
#
# Convention : Reuss Voigt Hill
#
# Bulk Modulus (GPa) = 43.71071 63.92762 53.81916
# Shear Modulus (GPa) = -238.00355 25.70921 -106.14717
#
# Velocity S-wave (km/s) = -10.89012 3.57919 -7.27269
# Velocity P-wave (km/s) = 11.67671 6.99538 6.61099
#
# Compressibility (1/GPa) = 0.02287769
#
# Stress axis : x y z
#
# Youngs Moduli (GPa) = 93.39295 65.01268 110.98412
#
# Poissons Ratio (x) = 0.08877 0.64989
# Poissons Ratio (y) = 0.12752 -0.12322
# Poissons Ratio (z) = 0.54688 -0.07218
#
# Static dielectric constant tensor:
#      x y z
#    x 1.688960 0.000000 0.000000 
#    y 0.000000 1.794330 0.000000 
#    z 0.000000 0.000000 1.718670 
# 
# From -- ./inp_files/27937.got.cif
#   From: 2010.05.17/outbox.cif.g08.bks.cpg/sg59_14_cif.got.tgz:27937.got - 2010.06.03 14:40:33.
