data_PCOD9453114
_publ_section_title
;
Structure prediction by ZEFSAII (Michael W. Deem and Ramdas Pophale) SiO2 
 PCOD9453114
Probable space group: P M M N
;
_chemical_formula_sum "Si O2"
_cell_formula_units_Z 64
_cell_length_a 18.806234
_cell_length_b 15.530225
_cell_length_c 11.767594
_cell_angle_alpha 90.000000
_cell_angle_beta 90.000000
_cell_angle_gamma 90.000000
_cell_volume 3436.902876
_symmetry_space_group_name_H-M "P M M N"
_symmetry_group_IT_number 59
_space_group.IT_coordinate_system_code '2'
_symmetry_cell_setting 'orthorhombic'
loop_
_space_group_symop_operation_xyz
x,y,z
1/2-x,1/2-y,z
1/2+x,-y,-z
-x,1/2+y,-z
-x,-y,-z
1/2+x,1/2+y,-z
1/2-x,y,z
x,1/2-y,z
loop_
_atom_site_type_symbol
_atom_site_label
_atom_site_fract_x
_atom_site_fract_y
_atom_site_fract_z
Si Si1 0.077182 0.993992 0.560813
Si Si2 0.664962 0.605513 0.035295
Si Si3 0.087557 0.153709 0.730403
Si Si4 0.077833 0.846232 0.200548
Si Si5 0.872889 0.844893 0.782859
Si Si6 0.929032 0.056899 0.027606
Si Si7 0.669321 0.016622 0.661306
Si Si8 0.459075 0.649923 0.737353
O O1 0.135528 0.990776 0.462807
O O2 0.071442 0.907664 0.635814
O O3 0.094906 0.075441 0.641911
O O4 0.000000 0.000000 0.500000
O O5 0.750000 0.613795 0.034948
O O6 0.631941 0.640779 0.153032
O O7 0.637338 0.507630 0.027852
O O8 0.634057 0.647804 0.919817
O O9 0.103391 0.250000 0.684690
O O10 0.004471 0.151027 0.763276
O O11 0.105007 0.750000 0.219835
O O12 0.121099 0.917087 0.268974
O O13 0.079316 0.872743 0.069580
O O14 0.846593 0.750000 0.749644
O O15 0.954854 0.852623 0.743149
O O16 0.834100 0.924824 0.725219
O O17 0.936081 0.103215 0.147267
O O18 0.000000 0.000000 0.000000
O O19 0.750000 0.046600 0.657082
O O20 0.438047 0.750000 0.731521
#
# Coordination Sequence:
#
# PCOD9453114 Si02
#       8
#     8   8   8   8   8   8   8   8
#     4  12  23  43  65  92 123 165 217 273 311 366
#     4  12  24  38  63  97 137 173 202 250 321 392
#     4  11  23  41  67  95 125 167 215 261 314 375
#     4  11  22  39  67  98 125 159 211 269 316 376
#     4  11  22  39  65  98 131 163 203 256 323 393
#     4  12  19  38  66  94 127 165 206 256 314 383
#     4  12  26  43  63  91 129 171 211 263 329 385
#     4  11  22  39  68  97 122 161 214 267 316 366
#
# _framework density 18.621417000000001
#
# number of rings (size 3 to 8) (size 9 to 14) (size 15 to 20)
#    0.000    0.500    7.500    1.125    0.000    6.000 
#    0.000    0.000    0.000    1.875    0.000    0.000 
#    0.000    0.000    0.000    0.000    0.000    0.000 
#
# Total GULP energy -357645.685113 kJ/mol
# GULP energy per Si atom -5588.213830 kJ/mol
# Density = 1.857903 g / cm^3
# Si number density = 18.621417 Si / 1000 Ang^3
#
#
#
# Elastic Constant Matrix: (Units=GPa)
#
#
# Indices 1 2 3 4 5 6 
#
# 1 63.9853 20.3778 16.8160 0.0000 0.0000 0.0000
# 2 20.3778 131.7991 49.0398 0.0000 0.0000 0.0000
# 3 16.8160 49.0398 110.3887 0.0000 0.0000 0.0000
# 4 0.0000 0.0000 0.0000 -10.2339 0.0000 0.0000
# 5 0.0000 0.0000 0.0000 0.0000 15.2260 0.0000
# 6 0.0000 0.0000 0.0000 0.0000 0.0000 46.3161
#
#
#
# Elastic Compliance Matrix: (Units=1/GPa)
#
#
# Indices 1 2 3 4 5 6 
#
# 1 0.016692 -0.001958 -0.001673 0.000000 0.000000 0.000000
# 2 -0.001958 0.009320 -0.003842 0.000000 0.000000 0.000000
# 3 -0.001673 -0.003842 0.011020 0.000000 0.000000 0.000000
# 4 0.000000 0.000000 0.000000 -0.097714 0.000000 0.000000
# 5 0.000000 0.000000 0.000000 0.000000 0.065677 0.000000
# 6 0.000000 0.000000 0.000000 0.000000 0.000000 0.021591
#
#
# Mechanical properties :
#
#
# Convention : Reuss Voigt Hill
#
# Bulk Modulus (GPa) = 45.27767 53.18227 49.22997
# Shear Modulus (GPa) = 102.26333 24.92428 63.59380
#
# Velocity S-wave (km/s) = 7.41864 3.66248 5.85022
# Velocity P-wave (km/s) = 9.88683 6.81959 8.49282
#
# Compressibility (1/GPa) = 0.02208594
#
# Stress axis : x y z
#
# Youngs Moduli (GPa) = 59.90930 107.30108 90.74045
#
# Poissons Ratio (x) = 0.21014 0.15179
# Poissons Ratio (y) = 0.11733 0.34861
# Poissons Ratio (z) = 0.10021 0.41224
#
# Static dielectric constant tensor:
#      x y z
#    x 1.628130 0.000000 0.000000 
#    y 0.000000 2.667160 0.000000 
#    z 0.000000 0.000000 1.649080 
# 
# From -- ./inp_files/17823.got.cif
#   From: 2010.05.17/outbox.cif.g08.bks.cpg/sg59_9_cif.got.tgz:17823.got - 2010.06.03 14:40:33.
