data_PCOD9453928
_publ_section_title
;
Structure prediction by ZEFSAII (Michael W. Deem and Ramdas Pophale) SiO2 
 PCOD9453928
Probable space group: P B C N
;
_chemical_formula_sum "Si O2"
_cell_formula_units_Z 56
_cell_length_a 24.267796
_cell_length_b 17.397530
_cell_length_c 5.546000
_cell_angle_alpha 90.000000
_cell_angle_beta 90.000000
_cell_angle_gamma 90.000000
_cell_volume 2341.519586
_symmetry_space_group_name_H-M "P B C N"
_symmetry_group_IT_number 60
_symmetry_cell_setting 'orthorhombic'
loop_
_space_group_symop_operation_xyz
x,y,z
1/2-x,1/2-y,1/2+z
1/2+x,1/2-y,-z
-x,y,1/2-z
-x,-y,-z
1/2+x,1/2+y,1/2-z
1/2-x,1/2+y,z
x,-y,1/2+z
loop_
_atom_site_type_symbol
_atom_site_label
_atom_site_fract_x
_atom_site_fract_y
_atom_site_fract_z
Si Si1 0.906505 0.299589 0.301602
Si Si2 0.237439 0.793808 0.082393
Si Si3 0.564036 0.392485 0.263300
Si Si4 0.378683 0.242964 0.194325
Si Si5 0.570475 0.958804 0.382995
Si Si6 0.065610 0.120019 0.238852
Si Si7 0.795348 0.457824 0.382262
O O1 0.869080 0.292709 0.542537
O O2 0.946216 0.369187 0.372066
O O3 0.926861 0.212172 0.268131
O O4 0.883893 0.315532 0.030004
O O5 0.243765 0.759175 0.811339
O O6 0.171984 0.797462 0.127486
O O7 0.267159 0.874815 0.107286
O O8 0.500000 0.415190 0.250000
O O9 0.568648 0.298844 0.277052
O O10 0.587968 0.416588 0.517884
O O11 0.589845 0.411518 0.007959
O O12 0.637680 0.954406 0.380790
O O13 0.554626 0.998740 0.634418
O O14 0.000000 0.107050 0.250000
O O15 0.779803 0.502057 0.628944
#
# Coordination Sequence:
#
# PCOD9453928 Si02
#       7
#     8   8   8   8   8   8   8
#     4  10  18  30  46  65  90 115 147 193 239 278
#     4  12  23  35  53  77 105 134 169 212 254 292
#     4   8  14  25  41  63  89 114 142 179 227 283
#     4  10  19  30  47  70  94 119 149 189 239 289
#     4  10  19  30  44  59  78 110 154 194 227 270
#     4   8  14  24  40  60  82 112 143 174 225 288
#     4  10  21  36  51  68  95 132 168 201 243 298
#
# _framework density 23.916091999999999
#
# number of rings (size 3 to 8) (size 9 to 14) (size 15 to 20)
#    0.000    2.286    0.000    4.286    0.000    2.286 
#    0.000    0.000    0.000    0.857    0.000    0.000 
#    0.000    1.143    0.000    0.000    0.000    1.429 
#
# Total GULP energy -312158.882497 kJ/mol
# GULP energy per Si atom -5574.265759 kJ/mol
# Density = 2.386166 g / cm^3
# Si number density = 23.916092 Si / 1000 Ang^3
#
#
#
# Elastic Constant Matrix: (Units=GPa)
#
#
# Indices 1 2 3 4 5 6 
#
# 1 43.7211 12.4250 1.8355 0.0000 0.0000 0.0000
# 2 12.4250 142.0472 57.2984 0.0000 0.0000 0.0000
# 3 1.8355 57.2984 270.2916 0.0000 0.0000 0.0000
# 4 0.0000 0.0000 0.0000 -259.5605 0.0000 0.0000
# 5 0.0000 0.0000 0.0000 0.0000 19.4562 0.0000
# 6 0.0000 0.0000 0.0000 0.0000 0.0000 319.6381
#
#
#
# Elastic Compliance Matrix: (Units=1/GPa)
#
#
# Indices 1 2 3 4 5 6 
#
# 1 0.023478 -0.002175 0.000302 0.000000 0.000000 0.000000
# 2 -0.002175 0.007900 -0.001660 0.000000 0.000000 0.000000
# 3 0.000302 -0.001660 0.004050 0.000000 0.000000 0.000000
# 4 0.000000 0.000000 0.000000 -0.003853 0.000000 0.000000
# 5 0.000000 0.000000 0.000000 0.000000 0.051397 0.000000
# 6 0.000000 0.000000 0.000000 0.000000 0.000000 0.003129
#
#
# Mechanical properties :
#
#
# Convention : Reuss Voigt Hill
#
# Bulk Modulus (GPa) = 35.26085 66.57531 50.91808
# Shear Modulus (GPa) = 48.72314 41.54017 45.13166
#
# Velocity S-wave (km/s) = 4.51849 4.17215 4.34877
# Velocity P-wave (km/s) = 6.48058 7.14889 6.82292
#
# Compressibility (1/GPa) = 0.02836006
#
# Stress axis : x y z
#
# Youngs Moduli (GPa) = 42.59346 126.58639 246.94219
#
# Poissons Ratio (x) = 0.27537 -0.07450
# Poissons Ratio (y) = 0.09265 0.40989
# Poissons Ratio (z) = -0.01285 0.21012
#
# Static dielectric constant tensor:
#      x y z
#    x 1.935680 0.000000 0.000000 
#    y 0.000000 1.923150 0.000000 
#    z 0.000000 0.000000 2.028920 
# 
# From -- ./inp_files/2694.got.cif
#   From: 2010.05.17/outbox.cif.g08.bks.cpg/sg60_2_cif.got.tgz:2694.got - 2010.06.03 14:59:27.
