data_PCOD9453561
_publ_section_title
;
Structure prediction by ZEFSAII (Michael W. Deem and Ramdas Pophale) SiO2 
 PCOD9453561
Probable space group: P M M N
;
_chemical_formula_sum "Si O2"
_cell_formula_units_Z 64
_cell_length_a 18.000000
_cell_length_b 15.000000
_cell_length_c 12.000000
_cell_angle_alpha 90.000000
_cell_angle_beta 90.000000
_cell_angle_gamma 90.000000
_cell_volume 3240.000000
_symmetry_space_group_name_H-M "P M M N"
_symmetry_group_IT_number 59
_space_group.IT_coordinate_system_code '2'
_symmetry_cell_setting 'orthorhombic'
loop_
_space_group_symop_operation_xyz
x,y,z
1/2-x,1/2-y,z
1/2+x,-y,-z
-x,1/2+y,-z
-x,-y,-z
1/2+x,1/2+y,-z
1/2-x,y,z
x,1/2-y,z
loop_
_atom_site_type_symbol
_atom_site_label
_atom_site_fract_x
_atom_site_fract_y
_atom_site_fract_z
Si Si1 0.574169 0.843027 0.883813
Si Si2 0.446723 0.115063 0.867648
Si Si3 0.334306 0.015266 0.246336
Si Si4 0.879532 0.350806 0.881616
Si Si5 0.339221 0.649609 0.653005
Si Si6 0.339978 0.998693 0.491988
Si Si7 0.587682 0.408706 0.124837
Si Si8 0.164697 0.350300 0.668672
O O1 0.603486 0.750000 0.837873
O O2 0.616462 0.925171 0.833019
O O3 0.486544 0.850839 0.861745
O O4 0.581273 0.845524 0.016426
O O5 0.532457 0.141590 0.853189
O O6 0.393122 0.142397 0.768462
O O7 0.440989 0.009158 0.881934
O O8 0.250000 0.048974 0.248866
O O9 0.368421 0.014807 0.369083
O O10 0.336259 0.916253 0.198505
O O11 0.855193 0.250000 0.871073
O O12 0.873402 0.381626 0.009967
O O13 0.250000 0.651562 0.646722
O O14 0.367427 0.750000 0.650551
O O15 0.367676 0.590619 0.550938
O O16 0.361273 0.604240 0.768651
O O17 0.250000 0.991597 0.482239
O O18 0.355465 0.079580 0.574265
O O19 0.250000 0.369665 0.705833
O O20 0.163801 0.250000 0.624236
#
# Coordination Sequence:
#
# PCOD9453561 Si02
#       8
#     8   8   8   8   8   8   8   8
#     4  11  22  39  60  85 117 153 187 226 282 342
#     4  11  19  37  63  86 117 152 184 227 285 341
#     4  11  24  41  59  83 113 150 197 236 276 334
#     4  11  22  39  60  85 117 153 187 226 282 342
#     4  10  20  35  58  87 114 144 187 237 285 333
#     4   9  20  38  57  78 110 151 190 233 284 333
#     4  11  19  37  63  86 117 152 184 227 285 341
#     4  10  20  35  58  87 114 144 187 237 285 333
#
# _framework density 19.753086
#
# number of rings (size 3 to 8) (size 9 to 14) (size 15 to 20)
#    0.000    1.500    3.750    3.750    0.000    2.500 
#    0.000    5.000    0.000    3.000    0.000    0.000 
#    0.000    0.000    0.000    0.000    0.000    0.000 
#
# Total GULP energy -357114.707907 kJ/mol
# GULP energy per Si atom -5579.917311 kJ/mol
# Density = 1.970813 g / cm^3
# Si number density = 19.753086 Si / 1000 Ang^3
#
#
#
# Elastic Constant Matrix: (Units=GPa)
#
#
# Indices 1 2 3 4 5 6 
#
# 1 9.8103 2.8216 36.6080 0.0000 0.0000 0.0000
# 2 2.8216 104.4665 10.9100 0.0000 0.0000 0.0000
# 3 36.6080 10.9100 67.1921 0.0000 0.0000 0.0000
# 4 0.0000 0.0000 0.0000 34.8202 0.0000 0.0000
# 5 0.0000 0.0000 0.0000 0.0000 22.8625 0.0000
# 6 0.0000 0.0000 0.0000 0.0000 0.0000 -10.0215
#
#
#
# Elastic Compliance Matrix: (Units=1/GPa)
#
#
# Indices 1 2 3 4 5 6 
#
# 1 -0.097755 -0.002972 0.053742 0.000000 0.000000 0.000000
# 2 -0.002972 0.009647 0.000053 0.000000 0.000000 0.000000
# 3 0.053742 0.000053 -0.014406 0.000000 0.000000 0.000000
# 4 0.000000 0.000000 0.000000 0.028719 0.000000 0.000000
# 5 0.000000 0.000000 0.000000 0.000000 0.043740 0.000000
# 6 0.000000 0.000000 0.000000 0.000000 0.000000 -0.099785
#
#
# Mechanical properties :
#
#
# Convention : Reuss Voigt Hill
#
# Bulk Modulus (GPa) = -1151.64805 31.34978 -560.14913
# Shear Modulus (GPa) = -21.57262 18.27418 -1.64922
#
# Velocity S-wave (km/s) = -3.30830 3.04490 -0.91473
# Velocity P-wave (km/s) = 24.47204 5.31668 16.89103
#
# Compressibility (1/GPa) = -0.00086832
#
# Stress axis : x y z
#
# Youngs Moduli (GPa) = -10.22965 103.65707 -69.41548
#
# Poissons Ratio (x) = 0.30810 3.73054
# Poissons Ratio (y) = -0.03041 0.00368
# Poissons Ratio (z) = 0.54976 -0.00549
#
# Static dielectric constant tensor:
#      x y z
#    x 1.722050 0.000000 0.000000 
#    y 0.000000 1.691500 0.000000 
#    z 0.000000 0.000000 1.665750 
# 
# From -- ./inp_files/17853.got.cif
#   From: 2010.05.17/outbox.ucp.g08.bks.cvg/sg59_9_cif.got.tgz:17853.got - 2010.06.11 16:43:56.
