data_PCOD9453383
_publ_section_title
;
Structure prediction by ZEFSAII (Michael W. Deem and Ramdas Pophale) SiO2 
 PCOD9453383
Probable space group: P M M N
;
_chemical_formula_sum "Si O2"
_cell_formula_units_Z 64
_cell_length_a 18.000000
_cell_length_b 9.000000
_cell_length_c 24.000000
_cell_angle_alpha 90.000000
_cell_angle_beta 90.000000
_cell_angle_gamma 90.000000
_cell_volume 3888.000000
_symmetry_space_group_name_H-M "P M M N"
_symmetry_group_IT_number 59
_space_group.IT_coordinate_system_code '2'
_symmetry_cell_setting 'orthorhombic'
loop_
_space_group_symop_operation_xyz
x,y,z
1/2-x,1/2-y,z
1/2+x,-y,-z
-x,1/2+y,-z
-x,-y,-z
1/2+x,1/2+y,-z
1/2-x,y,z
x,1/2-y,z
loop_
_atom_site_type_symbol
_atom_site_label
_atom_site_fract_x
_atom_site_fract_y
_atom_site_fract_z
Si Si1 0.474590 0.428308 0.739867
Si Si2 0.661817 0.428957 0.551928
Si Si3 0.066508 0.427828 0.034628
Si Si4 0.336559 0.070068 0.933275
Si Si5 0.472746 0.929844 0.862031
Si Si6 0.334778 0.572774 0.683193
Si Si7 0.049067 0.429361 0.366986
Si Si8 0.901198 0.428801 0.433288
O O1 0.481331 0.250000 0.741090
O O2 0.483263 0.497819 0.801376
O O3 0.393160 0.478738 0.718252
O O4 0.529257 0.498451 0.692795
O O5 0.750000 0.455717 0.549491
O O6 0.650833 0.250000 0.556494
O O7 0.622733 0.509005 0.603824
O O8 0.624368 0.483140 0.493720
O O9 0.061242 0.250000 0.032179
O O10 0.044074 0.466849 0.098129
O O11 0.139079 0.466531 0.997578
O O12 0.000000 0.500000 0.000000
O O13 0.250000 0.029171 0.923186
O O14 0.342500 0.250000 0.926506
O O15 0.397926 0.993461 0.892717
O O16 0.466455 0.750000 0.857782
O O17 0.250000 0.548834 0.699885
O O18 0.351949 0.750000 0.689062
O O19 0.345937 0.535350 0.617775
O O20 0.049510 0.250000 0.361993
O O21 0.981872 0.472978 0.409668
O O22 0.901712 0.250000 0.437742
#
# Coordination Sequence:
#
# PCOD9453383 Si02
#       8
#     8   8   8   8   8   8   8   8
#     4  11  22  35  51  70  94 127 169 211 251 293
#     4  10  19  31  50  76 103 129 158 196 248 307
#     4   8  15  28  47  70  95 125 158 191 228 271
#     4   9  17  30  49  75 106 133 156 189 235 283
#     4  10  19  32  50  71  96 128 167 204 237 280
#     4   9  17  31  50  71  98 131 164 199 242 293
#     4  10  20  35  53  72  97 129 168 210 250 295
#     4   8  15  29  50  74  98 127 161 197 242 298
#
# _framework density 16.460905
#
# number of rings (size 3 to 8) (size 9 to 14) (size 15 to 20)
#    0.000    2.625    0.000    3.375    0.000    3.250 
#    0.000    2.500    0.000    3.750    0.000    1.750 
#    0.000    0.000    0.000    0.000    0.000    0.000 
#
# Total GULP energy -356436.528942 kJ/mol
# GULP energy per Si atom -5569.320765 kJ/mol
# Density = 1.642344 g / cm^3
# Si number density = 16.460905 Si / 1000 Ang^3
#
#
#
# Elastic Constant Matrix: (Units=GPa)
#
#
# Indices 1 2 3 4 5 6 
#
# 1 54.7146 26.0301 48.1946 0.0000 0.0000 0.0000
# 2 26.0301 60.0824 48.3952 0.0000 0.0000 0.0000
# 3 48.1946 48.3952 148.2917 0.0000 0.0000 0.0000
# 4 0.0000 0.0000 0.0000 22.7964 0.0000 0.0000
# 5 0.0000 0.0000 0.0000 0.0000 15.9218 0.0000
# 6 0.0000 0.0000 0.0000 0.0000 0.0000 22.6249
#
#
#
# Elastic Compliance Matrix: (Units=1/GPa)
#
#
# Indices 1 2 3 4 5 6 
#
# 1 0.027281 -0.006346 -0.006795 0.000000 0.000000 0.000000
# 2 -0.006346 0.024055 -0.005788 0.000000 0.000000 0.000000
# 3 -0.006795 -0.005788 0.010841 0.000000 0.000000 0.000000
# 4 0.000000 0.000000 0.000000 0.043867 0.000000 0.000000
# 5 0.000000 0.000000 0.000000 0.000000 0.062807 0.000000
# 6 0.000000 0.000000 0.000000 0.000000 0.000000 0.044199
#
#
# Mechanical properties :
#
#
# Convention : Reuss Voigt Hill
#
# Bulk Modulus (GPa) = 41.12033 56.48096 48.80064
# Shear Modulus (GPa) = 19.30390 21.63319 20.46855
#
# Velocity S-wave (km/s) = 3.42820 3.62915 3.53010
# Velocity P-wave (km/s) = 6.38004 7.20747 6.80634
#
# Compressibility (1/GPa) = 0.02431887
#
# Stress axis : x y z
#
# Youngs Moduli (GPa) = 36.65515 41.57091 92.24300
#
# Poissons Ratio (x) = 0.26380 0.62683
# Poissons Ratio (y) = 0.23261 0.53391
# Poissons Ratio (z) = 0.24909 0.24062
#
# Static dielectric constant tensor:
#      x y z
#    x 1.558440 0.000000 0.000000 
#    y 0.000000 1.550480 0.000000 
#    z 0.000000 0.000000 1.567990 
# 
# From -- ./inp_files/29562.got.cif
#   From: 2010.05.17/outbox.ucp.g08.bks.cvg/sg59_15_cif.got.tgz:29562.got - 2010.06.11 16:43:56.
