data_PCOD9453194
_publ_section_title
;
Structure prediction by ZEFSAII (Michael W. Deem and Ramdas Pophale) SiO2 
 PCOD9453194
Probable space group: P M M N
;
_chemical_formula_sum "Si O2"
_cell_formula_units_Z 54
_cell_length_a 30.249238
_cell_length_b 15.487488
_cell_length_c 4.976085
_cell_angle_alpha 90.000000
_cell_angle_beta 90.000000
_cell_angle_gamma 90.000000
_cell_volume 2331.219741
_symmetry_space_group_name_H-M "P M M N"
_symmetry_group_IT_number 59
_space_group.IT_coordinate_system_code '2'
_symmetry_cell_setting 'orthorhombic'
loop_
_space_group_symop_operation_xyz
x,y,z
1/2-x,1/2-y,z
1/2+x,-y,-z
-x,1/2+y,-z
-x,-y,-z
1/2+x,1/2+y,-z
1/2-x,y,z
x,1/2-y,z
loop_
_atom_site_type_symbol
_atom_site_label
_atom_site_fract_x
_atom_site_fract_y
_atom_site_fract_z
Si Si1 0.671175 0.608363 0.851699
Si Si2 0.077304 0.086855 0.955628
Si Si3 0.655548 0.346901 0.536638
Si Si4 0.465196 0.750000 0.265301
Si Si5 0.250000 0.250000 0.114471
Si Si6 0.699320 0.985687 0.352999
Si Si7 0.596903 0.382860 0.038827
Si Si8 0.480892 0.402492 0.458065
O O1 0.622438 0.633092 0.951842
O O2 0.710521 0.676345 0.882969
O O3 0.670440 0.575504 0.546294
O O4 0.685685 0.530408 0.048240
O O5 0.037583 0.107782 0.158424
O O6 0.085745 0.983905 0.973339
O O7 0.061046 0.106710 0.657997
O O8 0.672139 0.250000 0.513303
O O9 0.690229 0.417888 0.445603
O O10 0.636975 0.362975 0.833099
O O11 0.613794 0.358493 0.335180
O O12 0.442338 0.824760 0.070869
O O13 0.486304 0.827083 0.455914
O O14 0.750000 0.961011 0.392243
O O15 0.500000 0.500000 0.500000
#
# Coordination Sequence:
#
# PCOD9453194 Si02
#       8
#     8   8   8   4   2   8   8   8
#     4  12  26  46  77 104 144 188 247 302 369 441
#     4  12  25  49  73 103 143 196 239 302 377 447
#     4  12  23  40  68 109 140 178 239 292 348 426
#     4  12  28  44  72 106 141 185 248 302 355 448
#     4  12  28  50  76 118 138 198 252 314 366 450
#     4  12  23  44  70 105 144 187 228 293 366 421
#     4  12  24  42  74 102 134 189 243 292 356 433
#     4  12  28  46  72 107 149 190 244 311 382 440
#
# _framework density 23.163838999999999
#
# number of rings (size 3 to 8) (size 9 to 14) (size 15 to 20)
#    0.000    0.000    7.407    2.222    0.000    4.444 
#    0.000    0.000    0.000    3.556    0.000    0.000 
#    0.000    0.000    0.000    0.000    0.000    0.000 
#
# Total GULP energy -300933.641769 kJ/mol
# GULP energy per Si atom -5572.845218 kJ/mol
# Density = 2.311112 g / cm^3
# Si number density = 23.163839 Si / 1000 Ang^3
#
#
#
# Elastic Constant Matrix: (Units=GPa)
#
#
# Indices 1 2 3 4 5 6 
#
# 1 69.8282 16.9125 13.2287 0.0000 0.0000 0.0000
# 2 16.9125 99.1966 19.1011 0.0000 0.0000 0.0000
# 3 13.2287 19.1011 51.6347 0.0000 0.0000 0.0000
# 4 0.0000 0.0000 0.0000 -27.3742 0.0000 0.0000
# 5 0.0000 0.0000 0.0000 0.0000 31.3145 0.0000
# 6 0.0000 0.0000 0.0000 0.0000 0.0000 41.2235
#
#
#
# Elastic Compliance Matrix: (Units=1/GPa)
#
#
# Indices 1 2 3 4 5 6 
#
# 1 0.015415 -0.002011 -0.003205 0.000000 0.000000 0.000000
# 2 -0.002011 0.011117 -0.003597 0.000000 0.000000 0.000000
# 3 -0.003205 -0.003597 0.021519 0.000000 0.000000 0.000000
# 4 0.000000 0.000000 0.000000 -0.036531 0.000000 0.000000
# 5 0.000000 0.000000 0.000000 0.000000 0.031934 0.000000
# 6 0.000000 0.000000 0.000000 0.000000 0.000000 0.024258
#
#
# Mechanical properties :
#
#
# Convention : Reuss Voigt Hill
#
# Bulk Modulus (GPa) = 32.86944 35.46046 34.16495
# Shear Modulus (GPa) = 52.36708 20.46058 36.41383
#
# Velocity S-wave (km/s) = 4.75987 2.97526 3.96916
# Velocity P-wave (km/s) = 6.66553 5.21005 5.98222
#
# Compressibility (1/GPa) = 0.03042339
#
# Stress axis : x y z
#
# Youngs Moduli (GPa) = 64.87109 89.95636 46.47122
#
# Poissons Ratio (x) = 0.18090 0.14896
# Poissons Ratio (y) = 0.13045 0.16716
# Poissons Ratio (z) = 0.20794 0.32358
#
# Static dielectric constant tensor:
#      x y z
#    x 1.890300 0.000000 0.000000 
#    y 0.000000 1.760970 0.000000 
#    z 0.000000 0.000000 1.825450 
# 
# From -- ./inp_files/4597.got.cif
#   From: 2010.05.17/outbox.cif.g08.bks.cpg/sg59_3_cif.got.tgz:4597.got - 2010.06.03 14:40:33.
