data_PCOD9453458
_publ_section_title
;
Structure prediction by ZEFSAII (Michael W. Deem and Ramdas Pophale) SiO2 
 PCOD9453458
Probable space group: P M M N
;
_chemical_formula_sum "Si O2"
_cell_formula_units_Z 64
_cell_length_a 9.000000
_cell_length_b 30.000000
_cell_length_c 12.000000
_cell_angle_alpha 90.000000
_cell_angle_beta 90.000000
_cell_angle_gamma 90.000000
_cell_volume 3240.000000
_symmetry_space_group_name_H-M "P M M N"
_symmetry_group_IT_number 59
_space_group.IT_coordinate_system_code '2'
_symmetry_cell_setting 'orthorhombic'
loop_
_space_group_symop_operation_xyz
x,y,z
1/2-x,1/2-y,z
1/2+x,-y,-z
-x,1/2+y,-z
-x,-y,-z
1/2+x,1/2+y,-z
1/2-x,y,z
x,1/2-y,z
loop_
_atom_site_type_symbol
_atom_site_label
_atom_site_fract_x
_atom_site_fract_y
_atom_site_fract_z
Si Si1 0.570963 0.099598 0.757704
Si Si2 0.418904 0.300034 0.483712
Si Si3 0.925218 0.443907 0.222403
Si Si4 0.430073 0.605969 0.999624
Si Si5 0.920837 0.343276 0.294252
Si Si6 0.570545 0.484226 0.617530
Si Si7 0.071087 0.798269 0.279080
Si Si8 0.927911 0.802195 0.916113
O O1 0.750000 0.098683 0.750313
O O2 0.520846 0.065212 0.661706
O O3 0.530225 0.152094 0.760707
O O4 0.528339 0.084818 0.882046
O O5 0.250000 0.316880 0.479594
O O6 0.419650 0.250000 0.435481
O O7 0.533150 0.329502 0.416516
O O8 0.479085 0.296234 0.607597
O O9 0.750000 0.456466 0.221056
O O10 0.972741 0.428246 0.098568
O O11 0.938023 0.396202 0.284133
O O12 0.018386 0.481053 0.286789
O O13 0.250000 0.611327 0.993751
O O14 0.497148 0.655980 0.982448
O O15 0.750000 0.332348 0.267707
O O16 0.024699 0.316020 0.209331
O O17 0.500000 0.500000 0.500000
O O18 0.750000 0.484444 0.607109
O O19 0.250000 0.798878 0.296481
O O20 0.040519 0.750000 0.219593
O O21 0.750000 0.804454 0.929632
O O22 0.972463 0.750000 0.938003
#
# Coordination Sequence:
#
# PCOD9453458 Si02
#       8
#     8   8   8   8   8   8   8   8
#     4   9  20  39  62  88 117 149 192 248 294 338
#     4  10  20  32  47  73 110 148 189 240 294 349
#     4   9  20  38  58  84 117 149 188 240 293 346
#     4   9  19  38  62  86 113 152 200 247 295 346
#     4  10  20  33  53  78 108 150 197 244 289 340
#     4  11  24  41  62  89 121 155 192 238 295 356
#     4   9  18  34  56  81 110 149 194 236 286 348
#     4  10  20  33  50  79 120 157 191 238 293 347
#
# _framework density 19.753086
#
# number of rings (size 3 to 8) (size 9 to 14) (size 15 to 20)
#    0.000    2.375    0.000    2.625    1.750    6.750 
#    0.000    3.750    0.000    1.500    0.000    0.000 
#    0.000    0.000    0.000    0.000    0.000    0.000 
#
# Total GULP energy -356382.944413 kJ/mol
# GULP energy per Si atom -5568.483506 kJ/mol
# Density = 1.970813 g / cm^3
# Si number density = 19.753086 Si / 1000 Ang^3
#
#
#
# Elastic Constant Matrix: (Units=GPa)
#
#
# Indices 1 2 3 4 5 6 
#
# 1 33.9611 23.2402 16.3462 0.0000 0.0000 0.0000
# 2 23.2402 98.9310 63.2330 0.0000 0.0000 0.0000
# 3 16.3462 63.2330 59.6012 0.0000 0.0000 0.0000
# 4 0.0000 0.0000 0.0000 51.0475 0.0000 0.0000
# 5 0.0000 0.0000 0.0000 0.0000 14.0057 0.0000
# 6 0.0000 0.0000 0.0000 0.0000 0.0000 27.1194
#
#
#
# Elastic Compliance Matrix: (Units=1/GPa)
#
#
# Indices 1 2 3 4 5 6 
#
# 1 0.035229 -0.006525 -0.002740 0.000000 0.000000 0.000000
# 2 -0.006525 0.032611 -0.032808 0.000000 0.000000 0.000000
# 3 -0.002740 -0.032808 0.052337 0.000000 0.000000 0.000000
# 4 0.000000 0.000000 0.000000 0.019590 0.000000 0.000000
# 5 0.000000 0.000000 0.000000 0.000000 0.071399 0.000000
# 6 0.000000 0.000000 0.000000 0.000000 0.000000 0.036874
#
#
# Mechanical properties :
#
#
# Convention : Reuss Voigt Hill
#
# Bulk Modulus (GPa) = 27.75353 44.23693 35.99523
# Shear Modulus (GPa) = 14.52663 24.41279 19.46971
#
# Velocity S-wave (km/s) = 2.71479 3.51935 3.14292
# Velocity P-wave (km/s) = 4.88953 6.24163 5.60649
#
# Compressibility (1/GPa) = 0.03603145
#
# Stress axis : x y z
#
# Youngs Moduli (GPa) = 28.38567 30.66481 19.10693
#
# Poissons Ratio (x) = 0.20008 0.05234
# Poissons Ratio (y) = 0.18521 0.62687
# Poissons Ratio (z) = 0.07776 1.00606
#
# Static dielectric constant tensor:
#      x y z
#    x 1.661850 0.000000 0.000000 
#    y 0.000000 1.735650 0.000000 
#    z 0.000000 0.000000 1.753780 
# 
# From -- ./inp_files/14988.got.cif
#   From: 2010.05.17/outbox.ucp.g08.bks.cvg/sg59_8_cif.got.tgz:14988.got - 2010.06.11 16:43:56.
