data_PCOD9453817
_publ_section_title
;
Structure prediction by ZEFSAII (Michael W. Deem and Ramdas Pophale) SiO2 
 PCOD9453817
Probable space group: P B C N
;
_chemical_formula_sum "Si O2"
_cell_formula_units_Z 64
_cell_length_a 20.072340
_cell_length_b 8.321369
_cell_length_c 19.740409
_cell_angle_alpha 90.000000
_cell_angle_beta 90.000000
_cell_angle_gamma 90.000000
_cell_volume 3297.227641
_symmetry_space_group_name_H-M "P B C N"
_symmetry_group_IT_number 60
_symmetry_cell_setting 'orthorhombic'
loop_
_space_group_symop_operation_xyz
x,y,z
1/2-x,1/2-y,1/2+z
1/2+x,1/2-y,-z
-x,y,1/2-z
-x,-y,-z
1/2+x,1/2+y,1/2-z
1/2-x,1/2+y,z
x,-y,1/2+z
loop_
_atom_site_type_symbol
_atom_site_label
_atom_site_fract_x
_atom_site_fract_y
_atom_site_fract_z
Si Si1 0.338269 0.927607 0.745521
Si Si2 0.737456 0.657388 0.683696
Si Si3 0.089008 0.340952 0.473988
Si Si4 0.337248 0.601704 0.387769
Si Si5 0.959121 0.921551 0.103990
Si Si6 0.595956 0.031977 0.887194
Si Si7 0.950038 0.558678 0.147268
Si Si8 0.446574 0.663030 0.045874
O O1 0.317603 0.751348 0.772399
O O2 0.353310 0.964380 0.667847
O O3 0.403979 0.972833 0.788555
O O4 0.276594 0.035077 0.769066
O O5 0.793433 0.777652 0.656304
O O6 0.704518 0.563350 0.619972
O O7 0.143081 0.206340 0.453752
O O8 0.096741 0.419038 0.546860
O O9 0.088210 0.482154 0.417540
O O10 0.015548 0.261098 0.469067
O O11 0.409823 0.547454 0.359879
O O12 0.961774 0.749289 0.138440
O O13 0.926121 0.891898 0.029255
O O14 0.029062 0.009117 0.088879
O O15 0.522563 0.020313 0.853622
O O16 0.601350 0.214805 0.914934
#
# Coordination Sequence:
#
# PCOD9453817 Si02
#       8
#     8   8   8   8   8   8   8   8
#     4  11  23  40  64  79 118 159 210 250 306 367
#     4  10  22  41  60  80 105 164 209 260 288 351
#     4  10  18  34  60  90 118 150 192 243 300 367
#     4  10  20  35  62  82 107 144 216 250 293 346
#     4  10  17  31  59  90 117 151 188 238 295 365
#     4  11  21  36  59  93 128 157 186 246 324 373
#     4  11  18  36  61  93 119 154 198 245 299 382
#     4   9  18  32  57  87 127 153 176 230 308 370
#
# _framework density 19.410246999999998
#
# number of rings (size 3 to 8) (size 9 to 14) (size 15 to 20)
#    0.000    1.750    5.000    1.125    0.000    0.000 
#    0.000    3.750    0.000    0.000    0.000    0.000 
#    0.000    0.000    0.000    0.000    0.000    0.000 
#
# Total GULP energy -356506.723420 kJ/mol
# GULP energy per Si atom -5570.417553 kJ/mol
# Density = 1.936607 g / cm^3
# Si number density = 19.410247 Si / 1000 Ang^3
#
#
#
# Elastic Constant Matrix: (Units=GPa)
#
#
# Indices 1 2 3 4 5 6 
#
# 1 37.6162 17.5389 25.5922 0.0000 0.0000 0.0000
# 2 17.5389 88.6274 27.5707 0.0000 0.0000 0.0000
# 3 25.5922 27.5707 84.4487 0.0000 0.0000 0.0000
# 4 0.0000 0.0000 0.0000 10.1403 0.0000 0.0000
# 5 0.0000 0.0000 0.0000 0.0000 26.2780 0.0000
# 6 0.0000 0.0000 0.0000 0.0000 0.0000 24.9483
#
#
#
# Elastic Compliance Matrix: (Units=1/GPa)
#
#
# Indices 1 2 3 4 5 6 
#
# 1 0.034721 -0.004004 -0.009215 0.000000 0.000000 0.000000
# 2 -0.004004 0.013021 -0.003037 0.000000 0.000000 0.000000
# 3 -0.009215 -0.003037 0.015626 0.000000 0.000000 0.000000
# 4 0.000000 0.000000 0.000000 0.098616 0.000000 0.000000
# 5 0.000000 0.000000 0.000000 0.000000 0.038055 0.000000
# 6 0.000000 0.000000 0.000000 0.000000 0.000000 0.040083
#
#
# Mechanical properties :
#
#
# Convention : Reuss Voigt Hill
#
# Bulk Modulus (GPa) = 32.41098 39.12177 35.76638
# Shear Modulus (GPa) = 17.67294 21.60602 19.63948
#
# Velocity S-wave (km/s) = 3.02071 3.33997 3.18435
# Velocity P-wave (km/s) = 5.37591 5.92223 5.65567
#
# Compressibility (1/GPa) = 0.03085374
#
# Stress axis : x y z
#
# Youngs Moduli (GPa) = 28.80129 76.80179 63.99725
#
# Poissons Ratio (x) = 0.30755 0.58972
# Poissons Ratio (y) = 0.11533 0.19438
# Poissons Ratio (z) = 0.26540 0.23328
#
# Static dielectric constant tensor:
#      x y z
#    x 1.690510 0.000000 0.000000 
#    y 0.000000 1.749380 0.000000 
#    z 0.000000 0.000000 1.697390 
# 
# From -- ./inp_files/21077.got.cif
#   From: 2010.05.17/outbox.cif.g08.bks.cpg/sg60_11_cif.got.tgz:21077.got - 2010.06.03 14:59:27.
