data_PCOD9453410
_publ_section_title
;
Structure prediction by ZEFSAII (Michael W. Deem and Ramdas Pophale) SiO2 
 PCOD9453410
Probable space group: P M M N
;
_chemical_formula_sum "Si O2"
_cell_formula_units_Z 64
_cell_length_a 18.000000
_cell_length_b 9.000000
_cell_length_c 21.000000
_cell_angle_alpha 90.000000
_cell_angle_beta 90.000000
_cell_angle_gamma 90.000000
_cell_volume 3402.000000
_symmetry_space_group_name_H-M "P M M N"
_symmetry_group_IT_number 59
_space_group.IT_coordinate_system_code '2'
_symmetry_cell_setting 'orthorhombic'
loop_
_space_group_symop_operation_xyz
x,y,z
1/2-x,1/2-y,z
1/2+x,-y,-z
-x,1/2+y,-z
-x,-y,-z
1/2+x,1/2+y,-z
1/2-x,y,z
x,1/2-y,z
loop_
_atom_site_type_symbol
_atom_site_label
_atom_site_fract_x
_atom_site_fract_y
_atom_site_fract_z
Si Si1 0.926578 0.928044 0.782107
Si Si2 0.073316 0.430310 0.593157
Si Si3 0.663244 0.577061 0.283754
Si Si4 0.339438 0.922647 0.105495
Si Si5 0.835223 0.572932 0.528883
Si Si6 0.336457 0.931033 0.963727
Si Si7 0.589657 0.071311 0.166464
Si Si8 0.411207 0.571871 0.356979
O O1 0.924109 0.750000 0.775140
O O2 0.007836 0.971892 0.809282
O O3 0.870154 0.982825 0.836267
O O4 0.911860 0.002385 0.713555
O O5 0.078776 0.250000 0.591771
O O6 0.118940 0.481577 0.655099
O O7 0.109716 0.481991 0.527124
O O8 0.988407 0.469046 0.607266
O O9 0.750000 0.571989 0.298062
O O10 0.641598 0.750000 0.274142
O O11 0.645087 0.489825 0.219739
O O12 0.250000 0.924642 0.105424
O O13 0.362884 0.750000 0.113008
O O14 0.362088 0.977261 0.034568
O O15 0.750000 0.552622 0.507762
O O16 0.847186 0.750000 0.537923
O O17 0.849376 0.491694 0.595572
O O18 0.250000 0.975662 0.954144
O O19 0.336682 0.750000 0.965043
O O20 0.386266 0.980272 0.904076
O O21 0.592667 0.250000 0.165717
O O22 0.406881 0.750000 0.351771
#
# Coordination Sequence:
#
# PCOD9453410 Si02
#       8
#     8   8   8   8   8   8   8   8
#     4  11  23  37  55  82 114 147 184 228 278 329
#     4   9  18  35  58  83 110 146 184 219 268 328
#     4  10  19  32  53  81 113 148 186 224 264 317
#     4   9  19  37  60  82 104 139 187 233 278 331
#     4  10  21  38  60  85 113 144 180 226 279 332
#     4   8  15  31  55  80 108 144 184 224 271 328
#     4  10  20  34  53  79 113 149 185 224 268 326
#     4  11  22  38  60  82 110 148 187 229 273 324
#
# _framework density 18.812463000000001
#
# number of rings (size 3 to 8) (size 9 to 14) (size 15 to 20)
#    0.000    2.250    1.250    2.625    0.000    4.250 
#    0.000    1.875    0.000    2.250    0.000    0.000 
#    0.000    0.000    0.000    0.000    0.000    0.000 
#
# Total GULP energy -357051.395555 kJ/mol
# GULP energy per Si atom -5578.928056 kJ/mol
# Density = 1.876965 g / cm^3
# Si number density = 18.812463 Si / 1000 Ang^3
#
#
#
# Elastic Constant Matrix: (Units=GPa)
#
#
# Indices 1 2 3 4 5 6 
#
# 1 28.3676 11.8773 28.5201 0.0000 0.0000 0.0000
# 2 11.8773 18.2005 21.3679 0.0000 0.0000 0.0000
# 3 28.5201 21.3679 142.8845 0.0000 0.0000 0.0000
# 4 0.0000 0.0000 0.0000 22.1743 0.0000 0.0000
# 5 0.0000 0.0000 0.0000 0.0000 37.6705 0.0000
# 6 0.0000 0.0000 0.0000 0.0000 0.0000 16.4508
#
#
#
# Elastic Compliance Matrix: (Units=1/GPa)
#
#
# Indices 1 2 3 4 5 6 
#
# 1 0.053154 -0.026966 -0.006577 0.000000 0.000000 0.000000
# 2 -0.026966 0.080325 -0.006630 0.000000 0.000000 0.000000
# 3 -0.006577 -0.006630 0.009303 0.000000 0.000000 0.000000
# 4 0.000000 0.000000 0.000000 0.045097 0.000000 0.000000
# 5 0.000000 0.000000 0.000000 0.000000 0.026546 0.000000
# 6 0.000000 0.000000 0.000000 0.000000 0.000000 0.060787
#
#
# Mechanical properties :
#
#
# Convention : Reuss Voigt Hill
#
# Bulk Modulus (GPa) = 16.01629 34.77591 25.39610
# Shear Modulus (GPa) = 13.28481 23.77161 18.52821
#
# Velocity S-wave (km/s) = 2.66027 3.55859 3.14170
# Velocity P-wave (km/s) = 4.23889 5.95066 5.16617
#
# Compressibility (1/GPa) = 0.06243642
#
# Stress axis : x y z
#
# Youngs Moduli (GPa) = 18.81316 12.44950 107.49298
#
# Poissons Ratio (x) = 0.33571 0.70699
# Poissons Ratio (y) = 0.50731 0.71266
# Poissons Ratio (z) = 0.12374 0.08254
#
# Static dielectric constant tensor:
#      x y z
#    x 1.675310 0.000000 0.000000 
#    y 0.000000 1.634610 0.000000 
#    z 0.000000 0.000000 1.637720 
# 
# From -- ./inp_files/30842.got.cif
#   From: 2010.05.17/outbox.ucp.g08.bks.cvg/sg59_16_cif.got.tgz:30842.got - 2010.06.11 16:43:56.
