data_PCOD9453908
_publ_section_title
;
Structure prediction by ZEFSAII (Michael W. Deem and Ramdas Pophale) SiO2 
 PCOD9453908
Probable space group: P B C N
;
_chemical_formula_sum "Si O2"
_cell_formula_units_Z 24
_cell_length_a 7.139150
_cell_length_b 28.422283
_cell_length_c 4.999666
_cell_angle_alpha 90.000000
_cell_angle_beta 90.000000
_cell_angle_gamma 90.000000
_cell_volume 1014.486936
_symmetry_space_group_name_H-M "P B C N"
_symmetry_group_IT_number 60
_symmetry_cell_setting 'orthorhombic'
loop_
_space_group_symop_operation_xyz
x,y,z
1/2-x,1/2-y,1/2+z
1/2+x,1/2-y,-z
-x,y,1/2-z
-x,-y,-z
1/2+x,1/2+y,1/2-z
1/2-x,1/2+y,z
x,-y,1/2+z
loop_
_atom_site_type_symbol
_atom_site_label
_atom_site_fract_x
_atom_site_fract_y
_atom_site_fract_z
Si Si1 0.862130 0.378045 0.501453
Si Si2 0.772825 0.474014 0.723778
Si Si3 0.793783 0.720256 0.865493
O O1 0.743789 0.422947 0.597162
O O2 0.735155 0.332725 0.436550
O O3 0.000000 0.365398 0.750000
O O4 0.000000 0.390252 0.250000
O O5 0.706414 0.514059 0.519247
O O6 0.000000 0.476261 0.750000
O O7 0.806473 0.752365 0.127281
O O8 0.000000 0.713145 0.750000
#
# Coordination Sequence:
#
# PCOD9453908 Si02
#       3
#     8   8   8
#     4  10  18  29  45  68  99 134 167 205 258 308
#     4   9  15  23  38  62  94 129 160 194 246 311
#     4  11  22  37  55  77 106 140 178 219 263 310
#
# _framework density 23.657276
#
# number of rings (size 3 to 8) (size 9 to 14) (size 15 to 20)
#    0.000    2.000    0.000   10.000    0.000    0.000 
#    0.000    0.000    0.000    0.000    0.000    0.000 
#    0.000   26.667    0.000    0.000    0.000    0.000 
#
# Total GULP energy -134057.775786 kJ/mol
# GULP energy per Si atom -5585.740658 kJ/mol
# Density = 2.360343 g / cm^3
# Si number density = 23.657276 Si / 1000 Ang^3
#
#
#
# Elastic Constant Matrix: (Units=GPa)
#
#
# Indices 1 2 3 4 5 6 
#
# 1 26.5777 -3.2551 -8.0897 0.0000 0.0000 0.0000
# 2 -3.2551 198.1165 63.1555 0.0000 0.0000 0.0000
# 3 -8.0897 63.1555 150.0929 0.0000 0.0000 0.0000
# 4 0.0000 0.0000 0.0000 40.7373 0.0000 0.0000
# 5 0.0000 0.0000 0.0000 0.0000 11.1975 0.0000
# 6 0.0000 0.0000 0.0000 0.0000 0.0000 8.3018
#
#
#
# Elastic Compliance Matrix: (Units=1/GPa)
#
#
# Indices 1 2 3 4 5 6 
#
# 1 0.038253 -0.000033 0.002076 0.000000 0.000000 0.000000
# 2 -0.000033 0.005829 -0.002455 0.000000 0.000000 0.000000
# 3 0.002076 -0.002455 0.007807 0.000000 0.000000 0.000000
# 4 0.000000 0.000000 0.000000 0.024547 0.000000 0.000000
# 5 0.000000 0.000000 0.000000 0.000000 0.089306 0.000000
# 6 0.000000 0.000000 0.000000 0.000000 0.000000 0.120456
#
#
# Mechanical properties :
#
#
# Convention : Reuss Voigt Hill
#
# Bulk Modulus (GPa) = 19.58260 53.15649 36.36955
# Shear Modulus (GPa) = 16.44491 33.57909 25.01200
#
# Velocity S-wave (km/s) = 2.63939 3.77158 3.25509
# Velocity P-wave (km/s) = 4.19334 6.44085 5.43455
#
# Compressibility (1/GPa) = 0.05106573
#
# Stress axis : x y z
#
# Youngs Moduli (GPa) = 26.14158 171.54137 128.08529
#
# Poissons Ratio (x) = 0.00569 -0.26587
# Poissons Ratio (y) = 0.00087 0.31441
# Poissons Ratio (z) = -0.05426 0.42108
#
# Static dielectric constant tensor:
#      x y z
#    x 1.969530 0.000000 0.000000 
#    y 0.000000 1.974800 0.000000 
#    z 0.000000 0.000000 1.899700 
# 
# From -- ./inp_files/275.got.cif
#   From: 2010.05.17/outbox.cif.g08.bks.cpg/sg60_1_cif.got.tgz:275.got - 2010.06.03 14:59:27.
