data_PCOD9453299
_publ_section_title
;
Structure prediction by ZEFSAII (Michael W. Deem and Ramdas Pophale) SiO2 
 PCOD9453299
Probable space group: P M M N
;
_chemical_formula_sum "Si O2"
_cell_formula_units_Z 64
_cell_length_a 9.399259
_cell_length_b 25.586644
_cell_length_c 18.905015
_cell_angle_alpha 90.000000
_cell_angle_beta 90.000000
_cell_angle_gamma 90.000000
_cell_volume 4546.570920
_symmetry_space_group_name_H-M "P M M N"
_symmetry_group_IT_number 59
_space_group.IT_coordinate_system_code '2'
_symmetry_cell_setting 'orthorhombic'
loop_
_space_group_symop_operation_xyz
x,y,z
1/2-x,1/2-y,z
1/2+x,-y,-z
-x,1/2+y,-z
-x,-y,-z
1/2+x,1/2+y,-z
1/2-x,y,z
x,1/2-y,z
loop_
_atom_site_type_symbol
_atom_site_label
_atom_site_fract_x
_atom_site_fract_y
_atom_site_fract_z
Si Si1 0.583382 0.311035 0.289684
Si Si2 0.420618 0.000675 0.610327
Si Si3 0.586077 0.042681 0.904569
Si Si4 0.417001 0.610342 0.832682
Si Si5 0.417000 0.007404 0.773150
Si Si6 0.920240 0.919801 0.513771
Si Si7 0.079037 0.308821 0.436353
Si Si8 0.086216 0.423219 0.035585
O O1 0.750000 0.323082 0.304449
O O2 0.573839 0.250000 0.270332
O O3 0.537055 0.347369 0.225158
O O4 0.492458 0.318634 0.360306
O O5 0.250000 0.991563 0.609201
O O6 0.452579 0.049655 0.558912
O O7 0.461378 0.011005 0.691390
O O8 0.499391 0.951158 0.575794
O O9 0.750000 0.059002 0.899564
O O10 0.509409 0.039994 0.828846
O O11 0.584797 0.983055 0.934864
O O12 0.499084 0.075691 0.962205
O O13 0.250000 0.618575 0.849179
O O14 0.428854 0.553182 0.796867
O O15 0.508004 0.609825 0.903951
O O16 0.250000 0.021720 0.779005
O O17 0.750000 0.924079 0.525036
O O18 0.958482 0.858568 0.515300
O O19 0.250000 0.308633 0.428863
O O20 0.036429 0.250000 0.459791
O O21 0.250000 0.408178 0.025813
#
# Coordination Sequence:
#
# PCOD9453299 Si02
#       8
#     8   8   8   8   8   8   8   8
#     4   9  17  28  41  57  77 102 133 167 199 230
#     4   9  17  28  41  57  78 105 134 164 200 240
#     4   9  16  25  37  53  74  98 123 153 185 217
#     4   9  16  25  37  53  74 100 128 157 189 226
#     4   9  16  25  37  53  74 100 128 157 191 231
#     4   9  17  28  41  57  78 104 134 166 199 238
#     4   9  17  28  41  57  78 104 133 166 202 237
#     4   9  16  25  37  53  73  98 126 152 181 218
#
# _framework density 14.076542999999999
#
# number of rings (size 3 to 8) (size 9 to 14) (size 15 to 20)
#    0.000    3.000    0.000    1.500    0.000    5.500 
#    0.000    2.500    0.000    0.000    0.000    0.000 
#    0.000    1.000    0.000    4.000    0.000    2.250 
#
# Total GULP energy -356314.533168 kJ/mol
# GULP energy per Si atom -5567.414581 kJ/mol
# Density = 1.404450 g / cm^3
# Si number density = 14.076543 Si / 1000 Ang^3
#
#
#
# Elastic Constant Matrix: (Units=GPa)
#
#
# Indices 1 2 3 4 5 6 
#
# 1 46.3464 22.7261 43.2258 0.0000 0.0000 0.0000
# 2 22.7261 58.0521 30.2444 0.0000 0.0000 0.0000
# 3 43.2258 30.2444 97.9026 0.0000 0.0000 0.0000
# 4 0.0000 0.0000 0.0000 21.6336 0.0000 0.0000
# 5 0.0000 0.0000 0.0000 0.0000 23.0644 0.0000
# 6 0.0000 0.0000 0.0000 0.0000 0.0000 13.9070
#
#
#
# Elastic Compliance Matrix: (Units=1/GPa)
#
#
# Indices 1 2 3 4 5 6 
#
# 1 0.039281 -0.007558 -0.015008 0.000000 0.000000 0.000000
# 2 -0.007558 0.021985 -0.003454 0.000000 0.000000 0.000000
# 3 -0.015008 -0.003454 0.017908 0.000000 0.000000 0.000000
# 4 0.000000 0.000000 0.000000 0.046224 0.000000 0.000000
# 5 0.000000 0.000000 0.000000 0.000000 0.043357 0.000000
# 6 0.000000 0.000000 0.000000 0.000000 0.000000 0.071906
#
#
# Mechanical properties :
#
#
# Convention : Reuss Voigt Hill
#
# Bulk Modulus (GPa) = 36.85817 43.85486 40.35651
# Shear Modulus (GPa) = 16.57025 18.79465 17.68245
#
# Velocity S-wave (km/s) = 3.43469 3.65797 3.54809
# Velocity P-wave (km/s) = 6.47846 7.00451 6.74661
#
# Compressibility (1/GPa) = 0.02713103
#
# Stress axis : x y z
#
# Youngs Moduli (GPa) = 25.45788 45.48657 55.84173
#
# Poissons Ratio (x) = 0.34381 0.83808
# Poissons Ratio (y) = 0.19242 0.19290
# Poissons Ratio (z) = 0.38208 0.15713
#
# Static dielectric constant tensor:
#      x y z
#    x 1.472810 0.000000 0.000000 
#    y 0.000000 1.458110 0.000000 
#    z 0.000000 0.000000 1.447430 
# 
# From -- ./inp_files/26606.got.cif
#   From: 2010.05.17/outbox.cif.g08.bks.cpg/sg59_14_cif.got.tgz:26606.got - 2010.06.03 14:40:33.
