data_PCOD9453159
_publ_section_title
;
Structure prediction by ZEFSAII (Michael W. Deem and Ramdas Pophale) SiO2 
 PCOD9453159
Probable space group: P M M N
;
_chemical_formula_sum "Si O2"
_cell_formula_units_Z 48
_cell_length_a 18.522347
_cell_length_b 13.866981
_cell_length_c 9.137309
_cell_angle_alpha 90.000000
_cell_angle_beta 90.000000
_cell_angle_gamma 90.000000
_cell_volume 2346.908989
_symmetry_space_group_name_H-M "P M M N"
_symmetry_group_IT_number 59
_space_group.IT_coordinate_system_code '2'
_symmetry_cell_setting 'orthorhombic'
loop_
_space_group_symop_operation_xyz
x,y,z
1/2-x,1/2-y,z
1/2+x,-y,-z
-x,1/2+y,-z
-x,-y,-z
1/2+x,1/2+y,-z
1/2-x,y,z
x,1/2-y,z
loop_
_atom_site_type_symbol
_atom_site_label
_atom_site_fract_x
_atom_site_fract_y
_atom_site_fract_z
Si Si1 0.972148 0.976512 0.839954
Si Si2 0.609215 0.439379 0.329851
Si Si3 0.250000 0.633210 0.177374
Si Si4 0.168850 0.363525 0.224765
Si Si5 0.897818 0.364301 0.659842
Si Si6 0.750000 0.365762 0.159521
Si Si7 0.835279 0.859414 0.422895
O O1 0.897366 0.918408 0.846968
O O2 0.035214 0.920002 0.755325
O O3 0.955737 0.072516 0.746413
O O4 0.000000 0.000000 0.000000
O O5 0.604904 0.392773 0.490190
O O6 0.678476 0.400887 0.242623
O O7 0.621318 0.554156 0.350156
O O8 0.250000 0.750000 0.171429
O O9 0.321274 0.607182 0.267131
O O10 0.250000 0.600422 0.009302
O O11 0.250000 0.398051 0.187871
O O12 0.165784 0.250000 0.189533
O O13 0.159911 0.371294 0.401040
O O14 0.908639 0.250000 0.675815
O O15 0.750000 0.250000 0.160765
O O16 0.750000 0.868419 0.386055
O O17 0.858406 0.750000 0.386665
#
# Coordination Sequence:
#
# PCOD9453159 Si02
#       7
#     8   8   4   8   8   4   8
#     4  12  27  43  63  99 137 175 220 279 344 403
#     4  12  23  41  64 100 132 173 227 276 334 402
#     4   9  21  41  65  93 128 176 223 266 325 396
#     4   9  20  41  69  95 122 168 222 275 333 395
#     4  11  24  42  66  97 132 175 225 278 336 402
#     4  11  23  41  66  97 138 180 216 266 338 406
#     4   9  18  36  64  96 127 166 219 279 329 383
#
# _framework density 20.452434
#
# number of rings (size 3 to 8) (size 9 to 14) (size 15 to 20)
#    0.000    1.500    2.500    3.500    1.167    3.333 
#    1.500    0.000    0.000    2.000    0.000    1.167 
#    0.000    0.000    0.000    0.000    0.000    0.000 
#
# Total GULP energy -268456.320441 kJ/mol
# GULP energy per Si atom -5592.840009 kJ/mol
# Density = 2.040588 g / cm^3
# Si number density = 20.452434 Si / 1000 Ang^3
#
#
#
# Elastic Constant Matrix: (Units=GPa)
#
#
# Indices 1 2 3 4 5 6 
#
# 1 161.3406 54.0181 76.5883 0.0000 0.0000 0.0000
# 2 54.0181 88.3233 29.7829 0.0000 0.0000 0.0000
# 3 76.5883 29.7829 142.4100 0.0000 0.0000 0.0000
# 4 0.0000 0.0000 0.0000 26.2925 0.0000 0.0000
# 5 0.0000 0.0000 0.0000 0.0000 62.6534 0.0000
# 6 0.0000 0.0000 0.0000 0.0000 0.0000 -3.4402
#
#
#
# Elastic Compliance Matrix: (Units=1/GPa)
#
#
# Indices 1 2 3 4 5 6 
#
# 1 0.009750 -0.004513 -0.004300 0.000000 0.000000 0.000000
# 2 -0.004513 0.014270 -0.000557 0.000000 0.000000 0.000000
# 3 -0.004300 -0.000557 0.009451 0.000000 0.000000 0.000000
# 4 0.000000 0.000000 0.000000 0.038034 0.000000 0.000000
# 5 0.000000 0.000000 0.000000 0.000000 0.015961 0.000000
# 6 0.000000 0.000000 0.000000 0.000000 0.000000 -0.290684
#
#
# Mechanical properties :
#
#
# Convention : Reuss Voigt Hill
#
# Bulk Modulus (GPa) = 67.88444 79.20582 73.54513
# Shear Modulus (GPa) = -27.84468 32.54678 2.35105
#
# Velocity S-wave (km/s) = -3.69377 3.99349 1.07332
# Velocity P-wave (km/s) = 3.88221 7.75080 6.12970
#
# Compressibility (1/GPa) = 0.01473092
#
# Stress axis : x y z
#
# Youngs Moduli (GPa) = 102.56114 70.07591 105.80951
#
# Poissons Ratio (x) = 0.31627 0.45496
# Poissons Ratio (y) = 0.46289 0.05895
# Poissons Ratio (z) = 0.44099 0.03904
#
# Static dielectric constant tensor:
#      x y z
#    x 1.737230 0.000000 0.000000 
#    y 0.000000 1.748970 0.000000 
#    z 0.000000 0.000000 1.676020 
# 
# From -- ./inp_files/10266.got.cif
#   From: 2010.05.17/outbox.cif.g08.bks.cpg/sg59_6_cif.got.tgz:10266.got - 2010.06.03 14:40:33.
