data_PCOD9453821
_publ_section_title
;
Structure prediction by ZEFSAII (Michael W. Deem and Ramdas Pophale) SiO2 
 PCOD9453821
Probable space group: P B C N
;
_chemical_formula_sum "Si O2"
_cell_formula_units_Z 60
_cell_length_a 11.517872
_cell_length_b 9.175950
_cell_length_c 24.167883
_cell_angle_alpha 90.000000
_cell_angle_beta 90.000000
_cell_angle_gamma 90.000000
_cell_volume 2554.241143
_symmetry_space_group_name_H-M "P B C N"
_symmetry_group_IT_number 60
_symmetry_cell_setting 'orthorhombic'
loop_
_space_group_symop_operation_xyz
x,y,z
1/2-x,1/2-y,1/2+z
1/2+x,1/2-y,-z
-x,y,1/2-z
-x,-y,-z
1/2+x,1/2+y,1/2-z
1/2-x,1/2+y,z
x,-y,1/2+z
loop_
_atom_site_type_symbol
_atom_site_label
_atom_site_fract_x
_atom_site_fract_y
_atom_site_fract_z
Si Si1 0.337230 0.359269 0.024822
Si Si2 0.931001 0.685434 0.377188
Si Si3 0.058371 0.054986 0.836843
Si Si4 0.824526 0.394743 0.567929
Si Si5 0.540108 0.370032 0.936782
Si Si6 0.000000 0.190031 0.250000
Si Si7 0.938203 0.365672 0.343178
Si Si8 0.799365 0.663039 0.632419
O O1 0.345861 0.261848 0.079402
O O2 0.358327 0.529734 0.038835
O O3 0.217144 0.347108 0.991915
O O4 0.446677 0.325493 0.983603
O O5 0.970810 0.806733 0.332282
O O6 0.048463 0.651914 0.412711
O O7 0.893576 0.529000 0.352987
O O8 0.188021 0.113659 0.834074
O O9 0.048052 0.922931 0.794938
O O10 0.024898 0.988212 0.896773
O O11 0.809323 0.565587 0.576900
O O12 0.735102 0.321524 0.611347
O O13 0.577425 0.238586 0.896475
O O14 0.091542 0.286765 0.214493
O O15 0.079631 0.368404 0.338405
#
# Coordination Sequence:
#
# PCOD9453821 Si02
#       8
#     8   8   8   8   8   4   8   8
#     4  10  17  32  51  76 113 166 183 214 274 346
#     4   9  21  31  52  83 119 139 188 248 278 316
#     4   9  17  33  52  84 103 144 179 231 278 344
#     4  10  18  31  49  79 113 149 184 230 279 318
#     4   9  17  29  50  76 113 148 192 209 267 348
#     4  10  20  34  60  78 104 150 184 212 294 368
#     4  10  19  34  50  86 108 138 179 250 280 312
#     4  10  17  32  52  80 114 127 175 251 276 307
#
# _framework density 23.490341999999998
#
# number of rings (size 3 to 8) (size 9 to 14) (size 15 to 20)
#    0.000    2.400    2.667    0.800    1.867    1.067 
#    0.000    0.000    0.000    0.000   27.733    0.000 
#    0.000    0.000    0.000    0.000    0.000    0.000 
#
# Total GULP energy -335012.420860 kJ/mol
# GULP energy per Si atom -5583.540348 kJ/mol
# Density = 2.343688 g / cm^3
# Si number density = 23.490342 Si / 1000 Ang^3
#
#
#
# Elastic Constant Matrix: (Units=GPa)
#
#
# Indices 1 2 3 4 5 6 
#
# 1 31.7340 -5.2783 -2.0077 0.0000 0.0000 0.0000
# 2 -5.2783 152.9343 39.9852 0.0000 0.0000 0.0000
# 3 -2.0077 39.9852 89.2300 0.0000 0.0000 0.0000
# 4 0.0000 0.0000 0.0000 35.8308 0.0000 0.0000
# 5 0.0000 0.0000 0.0000 0.0000 11.2157 0.0000
# 6 0.0000 0.0000 0.0000 0.0000 0.0000 19.8129
#
#
#
# Elastic Compliance Matrix: (Units=1/GPa)
#
#
# Indices 1 2 3 4 5 6 
#
# 1 0.031699 0.001028 0.000253 0.000000 0.000000 0.000000
# 2 0.001028 0.007440 -0.003311 0.000000 0.000000 0.000000
# 3 0.000253 -0.003311 0.012696 0.000000 0.000000 0.000000
# 4 0.000000 0.000000 0.000000 0.027909 0.000000 0.000000
# 5 0.000000 0.000000 0.000000 0.000000 0.089161 0.000000
# 6 0.000000 0.000000 0.000000 0.000000 0.000000 0.050472
#
#
# Mechanical properties :
#
#
# Convention : Reuss Voigt Hill
#
# Bulk Modulus (GPa) = 20.93159 37.69963 29.31561
# Shear Modulus (GPa) = 20.88882 29.45181 25.17032
#
# Velocity S-wave (km/s) = 2.98527 3.54472 3.27696
# Velocity P-wave (km/s) = 4.56207 5.73038 5.17927
#
# Compressibility (1/GPa) = 0.04777467
#
# Stress axis : x y z
#
# Youngs Moduli (GPa) = 31.54680 134.41130 78.76322
#
# Poissons Ratio (x) = -0.13818 -0.01989
# Poissons Ratio (y) = -0.03243 0.26077
# Poissons Ratio (z) = -0.00797 0.44501
#
# Static dielectric constant tensor:
#      x y z
#    x 1.946440 0.000000 0.000000 
#    y 0.000000 1.916890 0.000000 
#    z 0.000000 0.000000 1.960150 
# 
# From -- ./inp_files/24416.got.cif
#   From: 2010.05.17/outbox.cif.g08.bks.cpg/sg60_13_cif.got.tgz:24416.got - 2010.06.03 14:59:27.
