data_PCOD9453922
_publ_section_title
;
Structure prediction by ZEFSAII (Michael W. Deem and Ramdas Pophale) SiO2 
 PCOD9453922
Probable space group: P B C N
;
_chemical_formula_sum "Si O2"
_cell_formula_units_Z 48
_cell_length_a 21.575231
_cell_length_b 9.135789
_cell_length_c 8.708092
_cell_angle_alpha 90.000000
_cell_angle_beta 90.000000
_cell_angle_gamma 90.000000
_cell_volume 1716.423783
_symmetry_space_group_name_H-M "P B C N"
_symmetry_group_IT_number 60
_symmetry_cell_setting 'orthorhombic'
loop_
_space_group_symop_operation_xyz
x,y,z
1/2-x,1/2-y,1/2+z
1/2+x,1/2-y,-z
-x,y,1/2-z
-x,-y,-z
1/2+x,1/2+y,1/2-z
1/2-x,1/2+y,z
x,-y,1/2+z
loop_
_atom_site_type_symbol
_atom_site_label
_atom_site_fract_x
_atom_site_fract_y
_atom_site_fract_z
Si Si1 0.665617 0.913928 0.788767
Si Si2 0.254723 0.643755 0.751354
Si Si3 0.411043 0.831154 0.994827
Si Si4 0.000000 0.660076 0.750000
Si Si5 0.671263 0.548295 0.478720
Si Si6 0.000000 0.182203 0.750000
Si Si7 0.087689 0.806939 0.999762
O O1 0.727091 0.811759 0.767968
O O2 0.690383 0.078785 0.809752
O O3 0.633506 0.915937 0.621993
O O4 0.624426 0.824693 0.912647
O O5 0.305993 0.553297 0.658219
O O6 0.269079 0.604529 0.926941
O O7 0.462591 0.778876 0.871522
O O8 0.448623 0.908972 0.133605
O O9 0.374390 0.684553 0.044844
O O10 0.957666 0.749679 0.631402
O O11 0.633005 0.425634 0.572702
O O12 0.950460 0.109069 0.863609
#
# Coordination Sequence:
#
# PCOD9453922 Si02
#       7
#     8   8   8   4   8   4   8
#     4   9  20  39  56  80 120 158 192 236 284 342
#     4  10  21  36  56  78 118 160 193 236 286 334
#     4   9  18  30  49  77 117 150 186 235 292 351
#     4  10  18  29  52  86 120 149 182 235 312 361
#     4  10  20  33  50  82 118 151 190 238 282 344
#     4   8  16  29  44  70 108 153 184 225 296 355
#     4   9  18  30  49  77 117 150 186 235 292 351
#
# _framework density 27.965122999999998
#
# number of rings (size 3 to 8) (size 9 to 14) (size 15 to 20)
#    0.000    2.667    0.000    2.000    0.000    9.333 
#    0.000    1.667    0.000    0.000    0.000    0.000 
#    0.000  512.000    0.000    0.000    0.000    0.000 
#
# Total GULP energy -268526.272532 kJ/mol
# GULP energy per Si atom -5594.297344 kJ/mol
# Density = 2.790147 g / cm^3
# Si number density = 27.965123 Si / 1000 Ang^3
#
#
#
# Elastic Constant Matrix: (Units=GPa)
#
#
# Indices 1 2 3 4 5 6 
#
# 1 111.9456 56.4685 34.0014 0.0000 0.0000 0.0000
# 2 56.4685 121.8087 48.2309 0.0000 0.0000 0.0000
# 3 34.0014 48.2309 133.6935 0.0000 0.0000 0.0000
# 4 0.0000 0.0000 0.0000 34.8263 0.0000 0.0000
# 5 0.0000 0.0000 0.0000 0.0000 57.4197 0.0000
# 6 0.0000 0.0000 0.0000 0.0000 0.0000 27.3249
#
#
#
# Elastic Compliance Matrix: (Units=1/GPa)
#
#
# Indices 1 2 3 4 5 6 
#
# 1 0.011822 -0.005005 -0.001201 0.000000 0.000000 0.000000
# 2 -0.005005 0.011697 -0.002947 0.000000 0.000000 0.000000
# 3 -0.001201 -0.002947 0.008848 0.000000 0.000000 0.000000
# 4 0.000000 0.000000 0.000000 0.028714 0.000000 0.000000
# 5 0.000000 0.000000 0.000000 0.000000 0.017416 0.000000
# 6 0.000000 0.000000 0.000000 0.000000 0.000000 0.036597
#
#
# Mechanical properties :
#
#
# Convention : Reuss Voigt Hill
#
# Bulk Modulus (GPa) = 71.11598 71.64992 71.38295
# Shear Modulus (GPa) = 36.20913 39.16399 37.68656
#
# Velocity S-wave (km/s) = 3.60223 3.74633 3.67499
# Velocity P-wave (km/s) = 6.54117 6.66259 6.60216
#
# Compressibility (1/GPa) = 0.01406154
#
# Stress axis : x y z
#
# Youngs Moduli (GPa) = 84.58497 85.49453 113.01585
#
# Poissons Ratio (x) = 0.42791 0.13574
# Poissons Ratio (y) = 0.42336 0.33303
# Poissons Ratio (z) = 0.10159 0.25193
#
# Static dielectric constant tensor:
#      x y z
#    x 2.330790 0.000000 0.000000 
#    y 0.000000 2.070350 0.000000 
#    z 0.000000 0.000000 2.197540 
# 
# From -- ./inp_files/7871.got.cif
#   From: 2010.05.17/outbox.cif.g08.bks.cpg/sg60_4_cif.got.tgz:7871.got - 2010.06.03 14:59:27.
