data_PCOD9453684
_publ_section_title
;
Structure prediction by ZEFSAII (Michael W. Deem and Ramdas Pophale) SiO2 
 PCOD9453684
Probable space group: P M M N
;
_chemical_formula_sum "Si O2"
_cell_formula_units_Z 48
_cell_length_a 21.000000
_cell_length_b 9.000000
_cell_length_c 15.000000
_cell_angle_alpha 90.000000
_cell_angle_beta 90.000000
_cell_angle_gamma 90.000000
_cell_volume 2835.000000
_symmetry_space_group_name_H-M "P M M N"
_symmetry_group_IT_number 59
_space_group.IT_coordinate_system_code '2'
_symmetry_cell_setting 'orthorhombic'
loop_
_space_group_symop_operation_xyz
x,y,z
1/2-x,1/2-y,z
1/2+x,-y,-z
-x,1/2+y,-z
-x,-y,-z
1/2+x,1/2+y,-z
1/2-x,y,z
x,1/2-y,z
loop_
_atom_site_type_symbol
_atom_site_label
_atom_site_fract_x
_atom_site_fract_y
_atom_site_fract_z
Si Si1 0.818519 0.928963 0.879072
Si Si2 0.180956 0.426112 0.494179
Si Si3 0.654336 0.424829 0.690544
Si Si4 0.026862 0.421806 0.275860
Si Si5 0.555065 0.423287 0.441211
Si Si6 0.544364 0.574672 0.928885
O O1 0.750000 0.963826 0.920717
O O2 0.822696 0.750000 0.868257
O O3 0.882217 0.978391 0.929404
O O4 0.821431 0.002387 0.781785
O O5 0.250000 0.454422 0.536491
O O6 0.171587 0.250000 0.486809
O O7 0.181528 0.495961 0.395863
O O8 0.121817 0.498672 0.543290
O O9 0.666105 0.250000 0.689249
O O10 0.579510 0.464216 0.689525
O O11 0.051135 0.250000 0.285194
O O12 0.018785 0.449185 0.171439
O O13 0.966298 0.433439 0.338559
O O14 0.500000 0.500000 0.500000
O O15 0.558947 0.250000 0.466287
O O16 0.544970 0.750000 0.945154
O O17 0.500000 0.500000 0.000000
#
# Coordination Sequence:
#
# PCOD9453684 Si02
#       6
#     8   8   8   8   8   8
#     4   9  18  33  51  70  99 137 169 201 251 314
#     4  11  23  36  49  68 102 144 179 216 263 309
#     4  11  20  29  47  75 104 133 168 210 253 305
#     4   9  19  35  53  73 102 137 170 206 258 315
#     4  11  21  34  55  78 102 135 177 219 255 304
#     4   9  18  33  53  77 102 131 167 207 254 307
#
# _framework density 16.931217
#
# number of rings (size 3 to 8) (size 9 to 14) (size 15 to 20)
#    0.000    2.000    1.667    4.000    0.000    7.000 
#    0.000    0.000    0.000    1.000    0.000    4.667 
#    0.000    0.000    0.000    0.000    0.000    0.000 
#
# Total GULP energy -267600.435212 kJ/mol
# GULP energy per Si atom -5575.009067 kJ/mol
# Density = 1.689268 g / cm^3
# Si number density = 16.931217 Si / 1000 Ang^3
#
#
#
# Elastic Constant Matrix: (Units=GPa)
#
#
# Indices 1 2 3 4 5 6 
#
# 1 154.7616 62.2850 68.7119 0.0000 0.0000 0.0000
# 2 62.2850 63.1860 30.1118 0.0000 0.0000 0.0000
# 3 68.7119 30.1118 52.5378 0.0000 0.0000 0.0000
# 4 0.0000 0.0000 0.0000 25.1636 0.0000 0.0000
# 5 0.0000 0.0000 0.0000 0.0000 6.2214 0.0000
# 6 0.0000 0.0000 0.0000 0.0000 0.0000 22.2552
#
#
#
# Elastic Compliance Matrix: (Units=1/GPa)
#
#
# Indices 1 2 3 4 5 6 
#
# 1 0.018700 -0.009325 -0.019113 0.000000 0.000000 0.000000
# 2 -0.009325 0.026424 -0.002948 0.000000 0.000000 0.000000
# 3 -0.019113 -0.002948 0.045720 0.000000 0.000000 0.000000
# 4 0.000000 0.000000 0.000000 0.039740 0.000000 0.000000
# 5 0.000000 0.000000 0.000000 0.000000 0.160737 0.000000
# 6 0.000000 0.000000 0.000000 0.000000 0.000000 0.044933
#
#
# Mechanical properties :
#
#
# Convention : Reuss Voigt Hill
#
# Bulk Modulus (GPa) = 35.62301 65.85586 50.73944
# Shear Modulus (GPa) = 12.24337 18.01980 15.13158
#
# Velocity S-wave (km/s) = 2.69201 3.26589 2.99274
# Velocity P-wave (km/s) = 5.54510 7.29397 6.47881
#
# Compressibility (1/GPa) = 0.02807174
#
# Stress axis : x y z
#
# Youngs Moduli (GPa) = 53.47491 37.84465 21.87218
#
# Poissons Ratio (x) = 0.35292 0.41803
# Poissons Ratio (y) = 0.49868 0.06449
# Poissons Ratio (z) = 1.02204 0.11158
#
# Static dielectric constant tensor:
#      x y z
#    x 1.617600 0.000000 0.000000 
#    y 0.000000 1.567810 0.000000 
#    z 0.000000 0.000000 1.555950 
# 
# From -- ./inp_files/20718.got.cif
#   From: 2010.05.17/outbox.ucp.g08.bks.cvg/sg59_11_cif.got.tgz:20718.got - 2010.06.11 16:43:56.
