data_PCOD9453796
_publ_section_title
;
Structure prediction by ZEFSAII (Michael W. Deem and Ramdas Pophale) SiO2 
 PCOD9453796
Probable space group: P B C N
;
_chemical_formula_sum "Si O2"
_cell_formula_units_Z 48
_cell_length_a 26.148115
_cell_length_b 18.459029
_cell_length_c 5.361039
_cell_angle_alpha 90.000000
_cell_angle_beta 90.000000
_cell_angle_gamma 90.000000
_cell_volume 2587.606331
_symmetry_space_group_name_H-M "P B C N"
_symmetry_group_IT_number 60
_symmetry_cell_setting 'orthorhombic'
loop_
_space_group_symop_operation_xyz
x,y,z
1/2-x,1/2-y,1/2+z
1/2+x,1/2-y,-z
-x,y,1/2-z
-x,-y,-z
1/2+x,1/2+y,1/2-z
1/2-x,1/2+y,z
x,-y,1/2+z
loop_
_atom_site_type_symbol
_atom_site_label
_atom_site_fract_x
_atom_site_fract_y
_atom_site_fract_z
Si Si1 0.920088 0.959272 0.249672
Si Si2 0.030247 0.815999 0.009016
Si Si3 0.683598 0.768144 0.686273
Si Si4 0.779231 0.128538 0.188536
Si Si5 0.195589 0.907582 0.303803
Si Si6 0.134816 0.754317 0.820700
O O1 0.945681 0.886616 0.355118
O O2 0.859321 0.944690 0.227860
O O3 0.933705 0.017241 0.467087
O O4 0.000000 0.782379 0.250000
O O5 0.077120 0.768838 0.901551
O O6 0.000000 0.833311 0.750000
O O7 0.737844 0.807636 0.671704
O O8 0.690071 0.681067 0.693685
O O9 0.647924 0.780795 0.445555
O O10 0.659739 0.788770 0.950707
O O11 0.777477 0.081345 0.435045
O O12 0.835373 0.167498 0.189220
O O13 0.773612 0.080253 0.946355
#
# Coordination Sequence:
#
# PCOD9453796 Si02
#       6
#     8   8   8   8   8   8
#     4  12  25  38  52  63  82 122 166 217 265 287
#     4  12  25  38  52  63  82 122 166 217 265 287
#     4  10  17  28  52  74  90 106 127 165 253 306
#     4  10  17  28  52  74  89 108 126 165 253 306
#     4  10  18  31  46  66  94 106 135 183 236 303
#     4  10  18  31  46  66  93 107 134 184 236 303
#
# _framework density 18.549962000000001
#
# number of rings (size 3 to 8) (size 9 to 14) (size 15 to 20)
#    0.000    1.333    3.333    8.000    4.667    2.000 
#    0.000    0.000    0.000    0.000    0.000    0.000 
#    0.000    0.000    0.000    0.000    0.000    0.000 
#
# Total GULP energy -267557.914224 kJ/mol
# GULP energy per Si atom -5574.123213 kJ/mol
# Density = 1.850774 g / cm^3
# Si number density = 18.549962 Si / 1000 Ang^3
#
#
#
# Elastic Constant Matrix: (Units=GPa)
#
#
# Indices 1 2 3 4 5 6 
#
# 1 60.4918 15.1205 29.1737 0.0000 0.0000 0.0000
# 2 15.1205 17.6717 14.8990 0.0000 0.0000 0.0000
# 3 29.1737 14.8990 192.7884 0.0000 0.0000 0.0000
# 4 0.0000 0.0000 0.0000 -12.0725 0.0000 0.0000
# 5 0.0000 0.0000 0.0000 0.0000 33.1601 0.0000
# 6 0.0000 0.0000 0.0000 0.0000 0.0000 -18.3941
#
#
#
# Elastic Compliance Matrix: (Units=1/GPa)
#
#
# Indices 1 2 3 4 5 6 
#
# 1 0.021712 -0.016909 -0.001979 0.000000 0.000000 0.000000
# 2 -0.016909 0.073701 -0.003137 0.000000 0.000000 0.000000
# 3 -0.001979 -0.003137 0.005729 0.000000 0.000000 0.000000
# 4 0.000000 0.000000 0.000000 -0.082833 0.000000 0.000000
# 5 0.000000 0.000000 0.000000 0.000000 0.030157 0.000000
# 6 0.000000 0.000000 0.000000 0.000000 0.000000 -0.054365
#
#
# Mechanical properties :
#
#
# Convention : Reuss Voigt Hill
#
# Bulk Modulus (GPa) = 17.51573 43.25982 30.38778
# Shear Modulus (GPa) = 87.44195 14.65595 51.04895
#
# Velocity S-wave (km/s) = 6.87321 2.81389 5.25161
# Velocity P-wave (km/s) = 8.51181 5.82483 7.29313
#
# Compressibility (1/GPa) = 0.05709153
#
# Stress axis : x y z
#
# Youngs Moduli (GPa) = 46.05713 13.56841 174.55349
#
# Poissons Ratio (x) = 0.22943 0.34541
# Poissons Ratio (y) = 0.77880 0.54756
# Poissons Ratio (z) = 0.09114 0.04256
#
# Static dielectric constant tensor:
#      x y z
#    x 1.675960 0.000000 0.000000 
#    y 0.000000 1.652590 0.000000 
#    z 0.000000 0.000000 1.845720 
# 
# From -- ./inp_files/2338.got.cif
#   From: 2010.05.17/outbox.cif.g08.bks.cpg/sg60_2_cif.got.tgz:2338.got - 2010.06.03 14:59:27.
