data_PCOD9453947
_publ_section_title
;
Structure prediction by ZEFSAII (Michael W. Deem and Ramdas Pophale) SiO2 
 PCOD9453947
Probable space group: P B C N
;
_chemical_formula_sum "Si O2"
_cell_formula_units_Z 32
_cell_length_a 7.066382
_cell_length_b 19.396757
_cell_length_c 8.504747
_cell_angle_alpha 90.000000
_cell_angle_beta 90.000000
_cell_angle_gamma 90.000000
_cell_volume 1165.702251
_symmetry_space_group_name_H-M "P B C N"
_symmetry_group_IT_number 60
_symmetry_cell_setting 'orthorhombic'
loop_
_space_group_symop_operation_xyz
x,y,z
1/2-x,1/2-y,1/2+z
1/2+x,1/2-y,-z
-x,y,1/2-z
-x,-y,-z
1/2+x,1/2+y,1/2-z
1/2-x,1/2+y,z
x,-y,1/2+z
loop_
_atom_site_type_symbol
_atom_site_label
_atom_site_fract_x
_atom_site_fract_y
_atom_site_fract_z
Si Si1 0.223585 0.478040 0.007353
Si Si2 0.246290 0.663040 0.636092
Si Si3 0.223916 0.601024 0.199318
Si Si4 0.171930 0.711265 0.964847
O O1 0.258678 0.419264 0.137743
O O2 0.297298 0.551688 0.058974
O O3 0.294989 0.438730 0.853364
O O4 0.000000 0.500000 0.000000
O O5 0.286281 0.693241 0.807965
O O6 0.351149 0.708470 0.504195
O O7 0.030103 0.677749 0.578186
O O8 0.000000 0.602030 0.250000
O O9 0.250957 0.675844 0.123663
#
# Coordination Sequence:
#
# PCOD9453947 Si02
#       4
#     8   8   8   8
#     4  10  18  30  55  83 114 145 196 244 288 332
#     4  11  23  37  57  87 119 159 197 246 297 356
#     4  10  18  31  55  80 117 146 190 246 291 330
#     4  11  23  37  57  85 122 156 200 241 301 355
#
# _framework density 27.451260999999999
#
# number of rings (size 3 to 8) (size 9 to 14) (size 15 to 20)
#    0.000    1.500    5.000    3.000    7.000    0.000 
#    0.000    0.000    0.000    1.500    0.000    0.000 
#    0.000    0.000    0.000    0.000    0.000    0.000 
#
# Total GULP energy -178597.264790 kJ/mol
# GULP energy per Si atom -5581.164525 kJ/mol
# Density = 2.738878 g / cm^3
# Si number density = 27.451261 Si / 1000 Ang^3
#
#
#
# Elastic Constant Matrix: (Units=GPa)
#
#
# Indices 1 2 3 4 5 6 
#
# 1 80.0940 -0.8626 14.8773 0.0000 0.0000 0.0000
# 2 -0.8626 168.2516 28.5133 0.0000 0.0000 0.0000
# 3 14.8773 28.5133 149.8785 0.0000 0.0000 0.0000
# 4 0.0000 0.0000 0.0000 61.6118 0.0000 0.0000
# 5 0.0000 0.0000 0.0000 0.0000 10.8459 0.0000
# 6 0.0000 0.0000 0.0000 0.0000 0.0000 11.5474
#
#
#
# Elastic Compliance Matrix: (Units=1/GPa)
#
#
# Indices 1 2 3 4 5 6 
#
# 1 0.012733 0.000289 -0.001319 0.000000 0.000000 0.000000
# 2 0.000289 0.006148 -0.001198 0.000000 0.000000 0.000000
# 3 -0.001319 -0.001198 0.007031 0.000000 0.000000 0.000000
# 4 0.000000 0.000000 0.000000 0.016231 0.000000 0.000000
# 5 0.000000 0.000000 0.000000 0.000000 0.092200 0.000000
# 6 0.000000 0.000000 0.000000 0.000000 0.000000 0.086599
#
#
# Mechanical properties :
#
#
# Convention : Reuss Voigt Hill
#
# Bulk Modulus (GPa) = 46.60780 53.69780 50.15280
# Shear Modulus (GPa) = 21.50062 40.51410 31.00736
#
# Velocity S-wave (km/s) = 2.80166 3.84585 3.36451
# Velocity P-wave (km/s) = 5.24223 6.27092 5.77951
#
# Compressibility (1/GPa) = 0.02145564
#
# Stress axis : x y z
#
# Youngs Moduli (GPa) = 78.53351 162.65362 142.22820
#
# Poissons Ratio (x) = -0.04697 0.18758
# Poissons Ratio (y) = -0.02268 0.17043
# Poissons Ratio (z) = 0.10358 0.19491
#
# Static dielectric constant tensor:
#      x y z
#    x 2.428850 0.000000 0.000000 
#    y 0.000000 2.034230 0.000000 
#    z 0.000000 0.000000 2.372620 
# 
# From -- ./inp_files/3604.got.cif
#   From: 2010.05.17/outbox.cif.g08.bks.cpg/sg60_2_cif.got.tgz:3604.got - 2010.06.03 14:59:27.
