data_PCOD9453238
_publ_section_title
;
Structure prediction by ZEFSAII (Michael W. Deem and Ramdas Pophale) SiO2 
 PCOD9453238
Probable space group: P M M N
;
_chemical_formula_sum "Si O2"
_cell_formula_units_Z 64
_cell_length_a 7.441755
_cell_length_b 25.089783
_cell_length_c 16.710703
_cell_angle_alpha 90.000000
_cell_angle_beta 90.000000
_cell_angle_gamma 90.000000
_cell_volume 3120.089081
_symmetry_space_group_name_H-M "P M M N"
_symmetry_group_IT_number 59
_space_group.IT_coordinate_system_code '2'
_symmetry_cell_setting 'orthorhombic'
loop_
_space_group_symop_operation_xyz
x,y,z
1/2-x,1/2-y,z
1/2+x,-y,-z
-x,1/2+y,-z
-x,-y,-z
1/2+x,1/2+y,-z
1/2-x,y,z
x,1/2-y,z
loop_
_atom_site_type_symbol
_atom_site_label
_atom_site_fract_x
_atom_site_fract_y
_atom_site_fract_z
Si Si1 0.543790 0.022938 0.792438
Si Si2 0.528882 0.918953 0.866385
Si Si3 0.029951 0.688140 0.444836
Si Si4 0.955792 0.314400 0.381379
Si Si5 0.033142 0.628759 0.286311
Si Si6 0.463256 0.309294 0.876412
Si Si7 0.543690 0.690241 0.797629
Si Si8 0.468201 0.416829 0.953984
O O1 0.750000 0.016178 0.766333
O O2 0.464010 0.069967 0.737830
O O3 0.541085 0.047572 0.882009
O O4 0.465836 0.964149 0.804490
O O5 0.750000 0.919044 0.864117
O O6 0.465225 0.859792 0.844381
O O7 0.476738 0.932620 0.957128
O O8 0.250000 0.688013 0.446910
O O9 0.976448 0.750000 0.433117
O O10 0.970014 0.668108 0.532535
O O11 0.971028 0.652611 0.370319
O O12 0.750000 0.332659 0.374497
O O13 0.954776 0.250000 0.388377
O O14 0.044758 0.325135 0.296445
O O15 0.250000 0.625591 0.289194
O O16 0.990309 0.668755 0.213499
O O17 0.250000 0.305964 0.889610
O O18 0.538522 0.250000 0.886450
O O19 0.527711 0.356220 0.934621
O O20 0.750000 0.694505 0.824449
O O21 0.464048 0.750000 0.804985
O O22 0.250000 0.418936 0.949238
#
# Coordination Sequence:
#
# PCOD9453238 Si02
#       8
#     8   8   8   8   8   8   8   8
#     4   9  17  29  44  62  84 108 136 172 210 242
#     4   9  17  29  45  63  82 106 137 172 208 245
#     4   8  13  22  39  62  83 104 133 165 195 234
#     4   8  14  26  43  61  82 106 130 161 202 242
#     4   9  16  26  42  62  82 108 141 171 199 237
#     4   9  17  27  38  56  84 113 137 165 205 246
#     4   9  17  29  45  64  84 106 135 170 206 246
#     4   9  17  29  44  60  80 109 142 173 203 239
#
# _framework density 20.512233999999999
#
# number of rings (size 3 to 8) (size 9 to 14) (size 15 to 20)
#    0.000    3.250    0.000    1.500    0.000    1.250 
#    0.000    4.375    0.000    3.000    0.000    1.750 
#    0.000    0.000    0.000    0.000    0.000    0.000 
#
# Total GULP energy -356633.239514 kJ/mol
# GULP energy per Si atom -5572.394367 kJ/mol
# Density = 2.046555 g / cm^3
# Si number density = 20.512234 Si / 1000 Ang^3
#
#
#
# Elastic Constant Matrix: (Units=GPa)
#
#
# Indices 1 2 3 4 5 6 
#
# 1 62.4505 -1.3846 -10.3776 0.0000 0.0000 0.0000
# 2 -1.3846 82.1671 -0.4609 0.0000 0.0000 0.0000
# 3 -10.3776 -0.4609 32.0699 0.0000 0.0000 0.0000
# 4 0.0000 0.0000 0.0000 7.3193 0.0000 0.0000
# 5 0.0000 0.0000 0.0000 0.0000 12.6164 0.0000
# 6 0.0000 0.0000 0.0000 0.0000 0.0000 -3.0895
#
#
#
# Elastic Compliance Matrix: (Units=1/GPa)
#
#
# Indices 1 2 3 4 5 6 
#
# 1 0.016931 0.000316 0.005483 0.000000 0.000000 0.000000
# 2 0.000316 0.012177 0.000277 0.000000 0.000000 0.000000
# 3 0.005483 0.000277 0.032960 0.000000 0.000000 0.000000
# 4 0.000000 0.000000 0.000000 0.136625 0.000000 0.000000
# 5 0.000000 0.000000 0.000000 0.000000 0.079262 0.000000
# 6 0.000000 0.000000 0.000000 0.000000 0.000000 -0.323677
#
#
# Mechanical properties :
#
#
# Convention : Reuss Voigt Hill
#
# Bulk Modulus (GPa) = 13.47319 16.91569 15.19444
# Shear Modulus (GPa) = -150.90086 15.96329 -67.46878
#
# Velocity S-wave (km/s) = -8.58638 2.79271 -5.74137
# Velocity P-wave (km/s) = 9.57699 4.32013 6.04381
#
# Compressibility (1/GPa) = 0.07422148
#
# Stress axis : x y z
#
# Youngs Moduli (GPa) = 59.06373 82.12067 30.33964
#
# Poissons Ratio (x) = -0.02596 -0.16636
# Poissons Ratio (y) = -0.01867 -0.00841
# Poissons Ratio (z) = -0.32386 -0.02277
#
# Static dielectric constant tensor:
#      x y z
#    x 1.795620 0.000000 0.000000 
#    y 0.000000 1.752130 0.000000 
#    z 0.000000 0.000000 1.716560 
# 
# From -- ./inp_files/26473.got.cif
#   From: 2010.05.17/outbox.cif.g08.bks.cpg/sg59_14_cif.got.tgz:26473.got - 2010.06.03 14:40:33.
