data_PCOD9453777
_publ_section_title
;
Structure prediction by ZEFSAII (Michael W. Deem and Ramdas Pophale) SiO2 
 PCOD9453777
Probable space group: P B C N
;
_chemical_formula_sum "Si O2"
_cell_formula_units_Z 60
_cell_length_a 25.708514
_cell_length_b 5.262628
_cell_length_c 17.204258
_cell_angle_alpha 90.000000
_cell_angle_beta 90.000000
_cell_angle_gamma 90.000000
_cell_volume 2327.638828
_symmetry_space_group_name_H-M "P B C N"
_symmetry_group_IT_number 60
_symmetry_cell_setting 'orthorhombic'
loop_
_space_group_symop_operation_xyz
x,y,z
1/2-x,1/2-y,1/2+z
1/2+x,1/2-y,-z
-x,y,1/2-z
-x,-y,-z
1/2+x,1/2+y,1/2-z
1/2-x,1/2+y,z
x,-y,1/2+z
loop_
_atom_site_type_symbol
_atom_site_label
_atom_site_fract_x
_atom_site_fract_y
_atom_site_fract_z
Si Si1 0.878857 0.216562 0.044370
Si Si2 0.433973 0.798434 0.908514
Si Si3 0.035911 0.440612 0.117042
Si Si4 0.217582 0.388699 0.161662
Si Si5 0.783144 0.362146 0.154361
Si Si6 0.500000 0.353121 0.750000
Si Si7 0.370982 0.413443 0.605414
Si Si8 0.095670 0.773874 0.237933
O O1 0.910792 0.477617 0.037801
O O2 0.916038 0.986920 0.072804
O O3 0.831581 0.273433 0.102602
O O4 0.859566 0.112423 0.962026
O O5 0.403907 0.835937 0.824553
O O6 0.496820 0.843969 0.917158
O O7 0.993886 0.314327 0.174446
O O8 0.071007 0.201778 0.089414
O O9 0.076406 0.569610 0.176083
O O10 0.258727 0.163470 0.147260
O O11 0.203496 0.370316 0.253574
O O12 0.169348 0.315777 0.107961
O O13 0.739169 0.145234 0.139227
O O14 0.451173 0.529556 0.744776
O O15 0.363850 0.557507 0.688986
#
# Coordination Sequence:
#
# PCOD9453777 Si02
#       8
#     8   8   8   8   8   4   8   8
#     4  12  29  45  68 106 147 194 229 288 360 442
#     4  12  25  45  70 101 143 192 249 285 349 409
#     4  11  23  39  70  96 140 188 242 300 341 411
#     4  10  24  45  74 105 133 171 231 300 355 412
#     4  10  22  46  75 103 134 177 235 293 353 422
#     4  10  16  38  60 104 122 174 240 300 338 382
#     4  11  29  44  67 105 148 186 237 288 369 422
#     4  11  22  40  71  96 133 184 243 301 328 411
#
# _framework density 25.777193
#
# number of rings (size 3 to 8) (size 9 to 14) (size 15 to 20)
#    0.000    1.067    2.667    2.400    9.333    3.200 
#    0.000    0.000    0.000    0.000    0.000    0.000 
#    0.000    0.000    0.000    0.000    0.000    0.000 
#
# Total GULP energy -335378.905651 kJ/mol
# GULP energy per Si atom -5589.648428 kJ/mol
# Density = 2.571852 g / cm^3
# Si number density = 25.777193 Si / 1000 Ang^3
#
#
#
# Elastic Constant Matrix: (Units=GPa)
#
#
# Indices 1 2 3 4 5 6 
#
# 1 74.7274 32.7424 35.8490 0.0000 0.0000 0.0000
# 2 32.7424 109.9451 7.2257 0.0000 0.0000 0.0000
# 3 35.8490 7.2257 36.0492 0.0000 0.0000 0.0000
# 4 0.0000 0.0000 0.0000 43.8790 0.0000 0.0000
# 5 0.0000 0.0000 0.0000 0.0000 31.1922 0.0000
# 6 0.0000 0.0000 0.0000 0.0000 0.0000 45.5956
#
#
#
# Elastic Compliance Matrix: (Units=1/GPa)
#
#
# Indices 1 2 3 4 5 6 
#
# 1 0.030250 -0.007126 -0.028654 0.000000 0.000000 0.000000
# 2 -0.007126 0.010895 0.004902 0.000000 0.000000 0.000000
# 3 -0.028654 0.004902 0.055252 0.000000 0.000000 0.000000
# 4 0.000000 0.000000 0.000000 0.022790 0.000000 0.000000
# 5 0.000000 0.000000 0.000000 0.000000 0.032059 0.000000
# 6 0.000000 0.000000 0.000000 0.000000 0.000000 0.021932
#
#
# Mechanical properties :
#
#
# Convention : Reuss Voigt Hill
#
# Bulk Modulus (GPa) = 28.86598 41.37286 35.11942
# Shear Modulus (GPa) = 20.28551 33.79367 27.03959
#
# Velocity S-wave (km/s) = 2.80832 3.62469 3.24230
# Velocity P-wave (km/s) = 4.66241 5.79680 5.26027
#
# Compressibility (1/GPa) = 0.03464286
#
# Stress axis : x y z
#
# Youngs Moduli (GPa) = 33.05757 91.78251 18.09886
#
# Poissons Ratio (x) = 0.65400 0.51860
# Poissons Ratio (y) = 0.23555 -0.08872
# Poissons Ratio (z) = 0.94723 -0.44993
#
# Static dielectric constant tensor:
#      x y z
#    x 2.101220 0.000000 0.000000 
#    y 0.000000 2.044880 0.000000 
#    z 0.000000 0.000000 2.191320 
# 
# From -- ./inp_files/21222.got.cif
#   From: 2010.05.17/outbox.cif.g08.bks.cpg/sg60_11_cif.got.tgz:21222.got - 2010.06.03 14:59:27.
