data_PCOD9453811
_publ_section_title
;
Structure prediction by ZEFSAII (Michael W. Deem and Ramdas Pophale) SiO2 
 PCOD9453811
Probable space group: P B C N
;
_chemical_formula_sum "Si O2"
_cell_formula_units_Z 64
_cell_length_a 7.675572
_cell_length_b 19.395643
_cell_length_c 20.153259
_cell_angle_alpha 90.000000
_cell_angle_beta 90.000000
_cell_angle_gamma 90.000000
_cell_volume 3000.269161
_symmetry_space_group_name_H-M "P B C N"
_symmetry_group_IT_number 60
_symmetry_cell_setting 'orthorhombic'
loop_
_space_group_symop_operation_xyz
x,y,z
1/2-x,1/2-y,1/2+z
1/2+x,1/2-y,-z
-x,y,1/2-z
-x,-y,-z
1/2+x,1/2+y,1/2-z
1/2-x,1/2+y,z
x,-y,1/2+z
loop_
_atom_site_type_symbol
_atom_site_label
_atom_site_fract_x
_atom_site_fract_y
_atom_site_fract_z
Si Si1 0.857132 0.673865 0.478385
Si Si2 0.911417 0.470900 0.932315
Si Si3 0.821187 0.686196 0.783853
Si Si4 0.571941 0.117119 0.906571
Si Si5 0.691683 0.191071 0.217682
Si Si6 0.804972 0.898663 0.169674
Si Si7 0.847948 0.461701 0.694617
Si Si8 0.093022 0.221338 0.909050
O O1 0.806237 0.599408 0.446442
O O2 0.712729 0.706133 0.526705
O O3 0.023471 0.650070 0.523332
O O4 0.930673 0.731404 0.429120
O O5 0.831217 0.543323 0.907356
O O6 0.051733 0.452636 0.875589
O O7 0.000000 0.500000 0.000000
O O8 0.827215 0.668416 0.859638
O O9 0.803780 0.766119 0.769366
O O10 0.690772 0.642471 0.738978
O O11 0.000000 0.662786 0.750000
O O12 0.380667 0.107220 0.871454
O O13 0.500000 0.193295 0.250000
O O14 0.735825 0.111684 0.210564
O O15 0.691288 0.233782 0.148419
O O16 0.933253 0.854651 0.122954
O O17 0.796285 0.978880 0.187363
O O18 0.000000 0.478182 0.750000
#
# Coordination Sequence:
#
# PCOD9453811 Si02
#       8
#     8   8   8   8   8   8   8   8
#     4  10  19  32  51  78 110 148 183 230 278 337
#     4   9  16  29  51  80 108 138 187 240 278 315
#     4   9  16  31  53  80 109 141 180 225 280 340
#     4   8  15  27  48  78 102 137 183 232 268 311
#     4  10  21  34  54  83 111 142 180 237 294 331
#     4   8  15  28  51  75 102 137 179 227 276 320
#     4  10  17  30  53  82 110 140 191 246 284 322
#     4  10  20  35  51  80 110 145 182 228 284 339
#
# _framework density 21.331419
#
# number of rings (size 3 to 8) (size 9 to 14) (size 15 to 20)
#    0.000    2.750    1.250    3.375    0.000    1.000 
#    0.000    0.000    0.000    3.750    6.500    1.750 
#    0.000    0.000    0.000    0.000    0.000    0.000 
#
# Total GULP energy -356292.416350 kJ/mol
# GULP energy per Si atom -5567.069005 kJ/mol
# Density = 2.128287 g / cm^3
# Si number density = 21.331419 Si / 1000 Ang^3
#
#
#
# Elastic Constant Matrix: (Units=GPa)
#
#
# Indices 1 2 3 4 5 6 
#
# 1 34.5271 24.6259 5.3523 0.0000 0.0000 0.0000
# 2 24.6259 167.6604 41.9652 0.0000 0.0000 0.0000
# 3 5.3523 41.9652 62.0320 0.0000 0.0000 0.0000
# 4 0.0000 0.0000 0.0000 46.2267 0.0000 0.0000
# 5 0.0000 0.0000 0.0000 0.0000 16.4570 0.0000
# 6 0.0000 0.0000 0.0000 0.0000 0.0000 13.6234
#
#
#
# Elastic Compliance Matrix: (Units=1/GPa)
#
#
# Indices 1 2 3 4 5 6 
#
# 1 0.032365 -0.004881 0.000510 0.000000 0.000000 0.000000
# 2 -0.004881 0.007916 -0.004934 0.000000 0.000000 0.000000
# 3 0.000510 -0.004934 0.019415 0.000000 0.000000 0.000000
# 4 0.000000 0.000000 0.000000 0.021633 0.000000 0.000000
# 5 0.000000 0.000000 0.000000 0.000000 0.060764 0.000000
# 6 0.000000 0.000000 0.000000 0.000000 0.000000 0.073403
#
#
# Mechanical properties :
#
#
# Convention : Reuss Voigt Hill
#
# Bulk Modulus (GPa) = 24.34003 45.34516 34.84259
# Shear Modulus (GPa) = 20.17728 28.07985 24.12856
#
# Velocity S-wave (km/s) = 3.07888 3.63211 3.36687
# Velocity P-wave (km/s) = 4.90658 6.23644 5.61105
#
# Compressibility (1/GPa) = 0.04108458
#
# Stress axis : x y z
#
# Youngs Moduli (GPa) = 30.89726 126.31871 51.50691
#
# Poissons Ratio (x) = 0.61661 -0.02625
# Poissons Ratio (y) = 0.15082 0.25415
# Poissons Ratio (z) = -0.01575 0.62331
#
# Static dielectric constant tensor:
#      x y z
#    x 1.968510 0.000000 0.000000 
#    y 0.000000 1.831540 0.000000 
#    z 0.000000 0.000000 1.822650 
# 
# From -- ./inp_files/22425.got.cif
#   From: 2010.05.17/outbox.cif.g08.bks.cpg/sg60_12_cif.got.tgz:22425.got - 2010.06.03 14:59:27.
