data_PCOD9453014
_publ_section_title
;
Structure prediction by ZEFSAII (Michael W. Deem and Ramdas Pophale) SiO2 
 PCOD9453014
Probable space group: P M M N
;
_chemical_formula_sum "Si O2"
_cell_formula_units_Z 64
_cell_length_a 19.798653
_cell_length_b 9.206584
_cell_length_c 21.717950
_cell_angle_alpha 90.000000
_cell_angle_beta 90.000000
_cell_angle_gamma 90.000000
_cell_volume 3958.703663
_symmetry_space_group_name_H-M "P M M N"
_symmetry_group_IT_number 59
_space_group.IT_coordinate_system_code '2'
_symmetry_cell_setting 'orthorhombic'
loop_
_space_group_symop_operation_xyz
x,y,z
1/2-x,1/2-y,z
1/2+x,-y,-z
-x,1/2+y,-z
-x,-y,-z
1/2+x,1/2+y,-z
1/2-x,y,z
x,1/2-y,z
loop_
_atom_site_type_symbol
_atom_site_label
_atom_site_fract_x
_atom_site_fract_y
_atom_site_fract_z
Si Si1 0.124706 0.915635 0.837303
Si Si2 0.505739 0.083187 0.682512
Si Si3 0.464363 0.574654 0.558066
Si Si4 0.595323 0.583161 0.043197
Si Si5 0.324570 0.075910 0.582353
Si Si6 0.434809 0.582578 0.077056
Si Si7 0.651020 0.586755 0.278214
Si Si8 0.035819 0.082020 0.198224
O O1 0.143631 0.750000 0.848574
O O2 0.044565 0.918273 0.819027
O O3 0.131603 0.009286 0.898920
O O4 0.162726 0.982066 0.778751
O O5 0.527765 0.250000 0.671081
O O6 0.429253 0.091728 0.708456
O O7 0.499091 0.989848 0.620146
O O8 0.545036 0.003187 0.737617
O O9 0.500000 0.500000 0.500000
O O10 0.467766 0.750000 0.556983
O O11 0.386733 0.518160 0.558102
O O12 0.615376 0.750000 0.035554
O O13 0.515042 0.581533 0.060083
O O14 0.601738 0.495017 0.979927
O O15 0.250000 0.048795 0.555452
O O16 0.339384 0.250000 0.576784
O O17 0.320804 0.044756 0.655461
O O18 0.414604 0.750000 0.083304
O O19 0.428538 0.496982 0.141027
O O20 0.672602 0.750000 0.262805
O O21 0.055767 0.250000 0.203842
#
# Coordination Sequence:
#
# PCOD9453014 Si02
#       8
#     8   8   8   8   8   8   8   8
#     4   9  15  21  30  44  63  88 120 159 200 241
#     4   9  16  27  41  57  77 102 134 172 214 257
#     4  11  21  33  49  69  93 120 152 189 229 275
#     4   9  15  21  28  38  55  81 115 156 199 242
#     4   9  18  33  51  70  93 120 150 186 229 275
#     4   9  15  21  28  39  57  83 116 155 198 242
#     4   8  14  24  38  55  75 100 130 165 206 251
#     4   9  15  22  32  47  66  90 122 160 202 246
#
# _framework density 16.166907999999999
#
# number of rings (size 3 to 8) (size 9 to 14) (size 15 to 20)
#    0.000    2.875    0.000    3.750    0.000    9.250 
#    0.000    0.000    0.000    0.000    0.000    0.000 
#    0.000    0.000    0.000    0.000    0.000    1.250 
#
# Total GULP energy -356380.615342 kJ/mol
# GULP energy per Si atom -5568.447115 kJ/mol
# Density = 1.613011 g / cm^3
# Si number density = 16.166908 Si / 1000 Ang^3
#
#
#
# Elastic Constant Matrix: (Units=GPa)
#
#
# Indices 1 2 3 4 5 6 
#
# 1 22.7603 31.2278 25.7245 0.0000 0.0000 0.0000
# 2 31.2278 156.5310 85.2909 0.0000 0.0000 0.0000
# 3 25.7245 85.2909 113.3120 0.0000 0.0000 0.0000
# 4 0.0000 0.0000 0.0000 31.5307 0.0000 0.0000
# 5 0.0000 0.0000 0.0000 0.0000 10.1830 0.0000
# 6 0.0000 0.0000 0.0000 0.0000 0.0000 2.3470
#
#
#
# Elastic Compliance Matrix: (Units=1/GPa)
#
#
# Indices 1 2 3 4 5 6 
#
# 1 0.064954 -0.008347 -0.008463 0.000000 0.000000 0.000000
# 2 -0.008347 0.011903 -0.007065 0.000000 0.000000 0.000000
# 3 -0.008463 -0.007065 0.016064 0.000000 0.000000 0.000000
# 4 0.000000 0.000000 0.000000 0.031715 0.000000 0.000000
# 5 0.000000 0.000000 0.000000 0.000000 0.098203 0.000000
# 6 0.000000 0.000000 0.000000 0.000000 0.000000 0.426068
#
#
# Mechanical properties :
#
#
# Convention : Reuss Voigt Hill
#
# Bulk Modulus (GPa) = 22.13789 64.12110 43.12949
# Shear Modulus (GPa) = 7.02529 18.83613 12.93071
#
# Velocity S-wave (km/s) = 2.08684 3.41707 2.83119
# Velocity P-wave (km/s) = 4.41923 7.43751 6.11744
#
# Compressibility (1/GPa) = 0.04517143
#
# Stress axis : x y z
#
# Youngs Moduli (GPa) = 15.39561 84.01197 62.25013
#
# Poissons Ratio (x) = 0.70122 0.52685
# Poissons Ratio (y) = 0.12850 0.43978
# Poissons Ratio (z) = 0.13030 0.59352
#
# Static dielectric constant tensor:
#      x y z
#    x 1.537080 0.000000 0.000000 
#    y 0.000000 1.548900 0.000000 
#    z 0.000000 0.000000 1.535270 
# 
# From -- ./inp_files/31064.got.cif
#   From: 2010.05.17/outbox.cif.g08.bks.cpg/sg59_16_cif.got.tgz:31064.got - 2010.06.03 14:40:33.
