data_PCOD9453154
_publ_section_title
;
Structure prediction by ZEFSAII (Michael W. Deem and Ramdas Pophale) SiO2 
 PCOD9453154
Probable space group: P M M N
;
_chemical_formula_sum "Si O2"
_cell_formula_units_Z 48
_cell_length_a 8.784046
_cell_length_b 17.933153
_cell_length_c 15.774840
_cell_angle_alpha 90.000000
_cell_angle_beta 90.000000
_cell_angle_gamma 90.000000
_cell_volume 2484.941781
_symmetry_space_group_name_H-M "P M M N"
_symmetry_group_IT_number 59
_space_group.IT_coordinate_system_code '2'
_symmetry_cell_setting 'orthorhombic'
loop_
_space_group_symop_operation_xyz
x,y,z
1/2-x,1/2-y,z
1/2+x,-y,-z
-x,1/2+y,-z
-x,-y,-z
1/2+x,1/2+y,-z
1/2-x,y,z
x,1/2-y,z
loop_
_atom_site_type_symbol
_atom_site_label
_atom_site_fract_x
_atom_site_fract_y
_atom_site_fract_z
Si Si1 0.566358 0.161383 0.839033
Si Si2 0.426890 0.659402 0.973443
Si Si3 0.931082 0.165064 0.506351
Si Si4 0.568964 0.901415 0.330988
Si Si5 0.067340 0.164378 0.202633
Si Si6 0.932902 0.936762 0.638060
O O1 0.750000 0.152781 0.834094
O O2 0.534387 0.250000 0.831145
O O3 0.487334 0.118450 0.763009
O O4 0.517606 0.135583 0.933426
O O5 0.250000 0.638649 0.965494
O O6 0.434052 0.750000 0.975323
O O7 0.513562 0.635685 0.889019
O O8 0.750000 0.152065 0.503594
O O9 0.961407 0.250000 0.478691
O O10 0.990553 0.153416 0.601429
O O11 0.015711 0.107624 0.445112
O O12 0.750000 0.895788 0.336894
O O13 0.512456 0.983671 0.355685
O O14 0.250000 0.166557 0.202730
O O15 0.011949 0.250000 0.213719
O O16 0.020100 0.112616 0.280399
O O17 0.750000 0.945904 0.638354
#
# Coordination Sequence:
#
# PCOD9453154 Si02
#       6
#     8   8   8   8   8   8
#     4   9  18  35  58  83 112 147 188 232 279 331
#     4   8  15  29  52  81 111 144 182 227 277 327
#     4  11  24  42  64  88 113 143 181 226 276 331
#     4  12  25  39  57  83 115 149 187 230 278 332
#     4   9  18  33  55  83 112 143 182 229 278 327
#     4  11  23  40  60  82 114 152 188 228 277 331
#
# _framework density 19.316347
#
# number of rings (size 3 to 8) (size 9 to 14) (size 15 to 20)
#    0.000    2.000    0.000    5.000    0.000    6.333 
#    0.000    4.167    0.000    0.000    0.000    0.000 
#    0.000    0.000    0.000    0.000    0.000    0.000 
#
# Total GULP energy -268086.288434 kJ/mol
# GULP energy per Si atom -5585.131009 kJ/mol
# Density = 1.927238 g / cm^3
# Si number density = 19.316347 Si / 1000 Ang^3
#
#
#
# Elastic Constant Matrix: (Units=GPa)
#
#
# Indices 1 2 3 4 5 6 
#
# 1 23.2247 10.7757 1.1350 0.0000 0.0000 0.0000
# 2 10.7757 37.1281 3.1615 0.0000 0.0000 0.0000
# 3 1.1350 3.1615 83.4386 0.0000 0.0000 0.0000
# 4 0.0000 0.0000 0.0000 -5.3171 0.0000 0.0000
# 5 0.0000 0.0000 0.0000 0.0000 37.2650 0.0000
# 6 0.0000 0.0000 0.0000 0.0000 0.0000 18.6291
#
#
#
# Elastic Compliance Matrix: (Units=1/GPa)
#
#
# Indices 1 2 3 4 5 6 
#
# 1 0.049759 -0.014431 -0.000130 0.000000 0.000000 0.000000
# 2 -0.014431 0.031206 -0.000986 0.000000 0.000000 0.000000
# 3 -0.000130 -0.000986 0.012024 0.000000 0.000000 0.000000
# 4 0.000000 0.000000 0.000000 -0.188072 0.000000 0.000000
# 5 0.000000 0.000000 0.000000 0.000000 0.026835 0.000000
# 6 0.000000 0.000000 0.000000 0.000000 0.000000 0.053680
#
#
# Mechanical properties :
#
#
# Convention : Reuss Voigt Hill
#
# Bulk Modulus (GPa) = 16.15621 19.32621 17.74121
# Shear Modulus (GPa) = 134.56325 18.69667 76.62996
#
# Velocity S-wave (km/s) = 8.35548 3.11452 6.30533
# Velocity P-wave (km/s) = 10.07312 4.79171 7.88759
#
# Compressibility (1/GPa) = 0.06189572
#
# Stress axis : x y z
#
# Youngs Moduli (GPa) = 20.09676 32.04525 83.16708
#
# Poissons Ratio (x) = 0.46243 0.01082
# Poissons Ratio (y) = 0.29001 0.08201
# Poissons Ratio (z) = 0.00261 0.03160
#
# Static dielectric constant tensor:
#      x y z
#    x 1.646070 0.000000 0.000000 
#    y 0.000000 1.670900 0.000000 
#    z 0.000000 0.000000 1.669810 
# 
# From -- ./inp_files/20481.got.cif
#   From: 2010.05.17/outbox.cif.g08.bks.cpg/sg59_11_cif.got.tgz:20481.got - 2010.06.03 14:40:33.
