data_PCOD9453827
_publ_section_title
;
Structure prediction by ZEFSAII (Michael W. Deem and Ramdas Pophale) SiO2 
 PCOD9453827
Probable space group: P B C N
;
_chemical_formula_sum "Si O2"
_cell_formula_units_Z 48
_cell_length_a 12.286002
_cell_length_b 10.975520
_cell_length_c 13.836253
_cell_angle_alpha 90.000000
_cell_angle_beta 90.000000
_cell_angle_gamma 90.000000
_cell_volume 1865.753142
_symmetry_space_group_name_H-M "P B C N"
_symmetry_group_IT_number 60
_symmetry_cell_setting 'orthorhombic'
loop_
_space_group_symop_operation_xyz
x,y,z
1/2-x,1/2-y,1/2+z
1/2+x,1/2-y,-z
-x,y,1/2-z
-x,-y,-z
1/2+x,1/2+y,1/2-z
1/2-x,1/2+y,z
x,-y,1/2+z
loop_
_atom_site_type_symbol
_atom_site_label
_atom_site_fract_x
_atom_site_fract_y
_atom_site_fract_z
Si Si1 0.736945 0.414372 0.325184
Si Si2 0.615683 0.605220 0.218481
Si Si3 0.454367 0.770651 0.641572
Si Si4 0.911673 0.918347 0.056087
Si Si5 0.467596 0.055094 0.636781
Si Si6 0.690658 0.835747 0.110406
O O1 0.685243 0.550697 0.308687
O O2 0.650207 0.316852 0.362467
O O3 0.848171 0.393174 0.383318
O O4 0.773487 0.384918 0.215712
O O5 0.500000 0.663217 0.250000
O O6 0.582265 0.485786 0.159411
O O7 0.676636 0.692618 0.140653
O O8 0.500000 0.758205 0.750000
O O9 0.538915 0.714296 0.567229
O O10 0.446781 0.912369 0.624582
O O11 0.783512 0.890497 0.039650
O O12 0.000000 0.000000 0.000000
O O13 0.500000 0.068528 0.750000
O O14 0.572622 0.110919 0.585457
#
# Coordination Sequence:
#
# PCOD9453827 Si02
#       6
#     8   8   8   8   8   8
#     4  10  17  32  56 101 123 154 196 263 317 381
#     4  11  19  36  65  97 125 163 216 272 324 386
#     4  11  18  37  60  89 121 163 210 258 310 372
#     4  11  24  40  60  87 124 174 220 256 323 393
#     4   9  20  31  57  94 127 152 195 259 323 372
#     4  10  21  35  61  90 126 159 205 264 327 379
#
# _framework density 25.726877999999999
#
# number of rings (size 3 to 8) (size 9 to 14) (size 15 to 20)
#    0.000    1.667    5.000    2.500    7.000    0.000 
#    0.000    1.667    0.000    2.000    0.000    0.000 
#    0.000    0.000    0.000    0.000    0.000    0.000 
#
# Total GULP energy -267875.712480 kJ/mol
# GULP energy per Si atom -5580.744010 kJ/mol
# Density = 2.566832 g / cm^3
# Si number density = 25.726878 Si / 1000 Ang^3
#
#
#
# Elastic Constant Matrix: (Units=GPa)
#
#
# Indices 1 2 3 4 5 6 
#
# 1 189.1571 58.7513 27.0031 0.0000 0.0000 0.0000
# 2 58.7513 110.8713 6.6966 0.0000 0.0000 0.0000
# 3 27.0031 6.6966 49.4777 0.0000 0.0000 0.0000
# 4 0.0000 0.0000 0.0000 2.6077 0.0000 0.0000
# 5 0.0000 0.0000 0.0000 0.0000 15.2963 0.0000
# 6 0.0000 0.0000 0.0000 0.0000 0.0000 26.2819
#
#
#
# Elastic Compliance Matrix: (Units=1/GPa)
#
#
# Indices 1 2 3 4 5 6 
#
# 1 0.006811 -0.003413 -0.003255 0.000000 0.000000 0.000000
# 2 -0.003413 0.010804 0.000400 0.000000 0.000000 0.000000
# 3 -0.003255 0.000400 0.021934 0.000000 0.000000 0.000000
# 4 0.000000 0.000000 0.000000 0.383482 0.000000 0.000000
# 5 0.000000 0.000000 0.000000 0.000000 0.065375 0.000000
# 6 0.000000 0.000000 0.000000 0.000000 0.000000 0.038049
#
#
# Mechanical properties :
#
#
# Convention : Reuss Voigt Hill
#
# Bulk Modulus (GPa) = 37.01936 59.37868 48.19902
# Shear Modulus (GPa) = 9.12416 25.97418 17.54917
#
# Velocity S-wave (km/s) = 1.88527 3.18089 2.61460
# Velocity P-wave (km/s) = 4.37717 6.05155 5.28114
#
# Compressibility (1/GPa) = 0.02701289
#
# Stress axis : x y z
#
# Youngs Moduli (GPa) = 146.81434 92.56075 45.59205
#
# Poissons Ratio (x) = 0.31588 0.14842
# Poissons Ratio (y) = 0.50104 -0.01825
# Poissons Ratio (z) = 0.47795 -0.03705
#
# Static dielectric constant tensor:
#      x y z
#    x 2.106860 0.000000 0.000000 
#    y 0.000000 2.078440 0.000000 
#    z 0.000000 0.000000 2.065950 
# 
# From -- ./inp_files/19986.got.cif
#   From: 2010.05.17/outbox.cif.g08.bks.cpg/sg60_10_cif.got.tgz:19986.got - 2010.06.03 14:59:27.
