data_PCOD9453535
_publ_section_title
;
Structure prediction by ZEFSAII (Michael W. Deem and Ramdas Pophale) SiO2 
 PCOD9453535
Probable space group: P M M N
;
_chemical_formula_sum "Si O2"
_cell_formula_units_Z 64
_cell_length_a 21.000000
_cell_length_b 9.000000
_cell_length_c 18.000000
_cell_angle_alpha 90.000000
_cell_angle_beta 90.000000
_cell_angle_gamma 90.000000
_cell_volume 3402.000000
_symmetry_space_group_name_H-M "P M M N"
_symmetry_group_IT_number 59
_space_group.IT_coordinate_system_code '2'
_symmetry_cell_setting 'orthorhombic'
loop_
_space_group_symop_operation_xyz
x,y,z
1/2-x,1/2-y,z
1/2+x,-y,-z
-x,1/2+y,-z
-x,-y,-z
1/2+x,1/2+y,-z
1/2-x,y,z
x,1/2-y,z
loop_
_atom_site_type_symbol
_atom_site_label
_atom_site_fract_x
_atom_site_fract_y
_atom_site_fract_z
Si Si1 0.178079 0.577979 0.394254
Si Si2 0.321779 0.072990 0.912827
Si Si3 0.180222 0.078947 0.549245
Si Si4 0.407423 0.918736 0.810661
Si Si5 0.562493 0.575805 0.678647
Si Si6 0.933708 0.926801 0.974919
Si Si7 0.573491 0.081824 0.365953
Si Si8 0.463547 0.924133 0.167479
O O1 0.250000 0.560431 0.365007
O O2 0.159104 0.750000 0.384997
O O3 0.179694 0.532354 0.480201
O O4 0.128221 0.467580 0.357986
O O5 0.250000 0.040796 0.936280
O O6 0.326913 0.250000 0.899362
O O7 0.341481 0.983016 0.839745
O O8 0.374143 0.031054 0.974021
O O9 0.250000 0.064037 0.586574
O O10 0.175095 0.250000 0.523821
O O11 0.120850 0.034886 0.598815
O O12 0.417964 0.750000 0.837094
O O13 0.413657 0.917698 0.722245
O O14 0.463043 0.025258 0.840429
O O15 0.558620 0.750000 0.699120
O O16 0.501400 0.547458 0.625943
O O17 0.555028 0.474286 0.750602
O O18 0.940747 0.750000 0.976929
O O19 0.923316 0.984770 0.891948
O O20 0.000000 0.000000 0.000000
O O21 0.585525 0.250000 0.393739
O O22 0.457573 0.750000 0.155759
#
# Coordination Sequence:
#
# PCOD9453535 Si02
#       8
#     8   8   8   8   8   8   8   8
#     4  10  21  38  60  84 111 146 187 231 282 340
#     4  10  22  38  55  79 112 148 186 229 279 335
#     4  10  21  36  55  80 109 146 191 233 276 333
#     4  10  20  35  55  79 109 145 186 228 275 334
#     4  10  21  38  59  85 115 146 185 234 281 335
#     4  11  21  35  58  84 110 145 189 234 278 334
#     4   9  20  36  54  80 112 146 184 228 277 328
#     4  11  21  35  57  84 112 144 184 231 279 332
#
# _framework density 18.812463000000001
#
# number of rings (size 3 to 8) (size 9 to 14) (size 15 to 20)
#    0.000    1.875    1.250    3.750    0.000    6.250 
#    0.000    3.125    0.000    2.250    0.000    0.000 
#    0.000    0.000    0.000    0.000    0.000    0.000 
#
# Total GULP energy -356888.467707 kJ/mol
# GULP energy per Si atom -5576.382308 kJ/mol
# Density = 1.876965 g / cm^3
# Si number density = 18.812463 Si / 1000 Ang^3
#
#
#
# Elastic Constant Matrix: (Units=GPa)
#
#
# Indices 1 2 3 4 5 6 
#
# 1 93.1783 36.3067 24.9319 0.0000 0.0000 0.0000
# 2 36.3067 44.5962 5.5580 0.0000 0.0000 0.0000
# 3 24.9319 5.5580 19.7058 0.0000 0.0000 0.0000
# 4 0.0000 0.0000 0.0000 29.2061 0.0000 0.0000
# 5 0.0000 0.0000 0.0000 0.0000 26.8632 0.0000
# 6 0.0000 0.0000 0.0000 0.0000 0.0000 25.1094
#
#
#
# Elastic Compliance Matrix: (Units=1/GPa)
#
#
# Indices 1 2 3 4 5 6 
#
# 1 0.023971 -0.016309 -0.025728 0.000000 0.000000 0.000000
# 2 -0.016309 0.034336 0.010949 0.000000 0.000000 0.000000
# 3 -0.025728 0.010949 0.080210 0.000000 0.000000 0.000000
# 4 0.000000 0.000000 0.000000 0.034239 0.000000 0.000000
# 5 0.000000 0.000000 0.000000 0.000000 0.037226 0.000000
# 6 0.000000 0.000000 0.000000 0.000000 0.000000 0.039826
#
#
# Mechanical properties :
#
#
# Convention : Reuss Voigt Hill
#
# Bulk Modulus (GPa) = 13.09902 32.34152 22.72027
# Shear Modulus (GPa) = 14.81787 22.28130 18.54958
#
# Velocity S-wave (km/s) = 2.80958 3.44523 3.14351
# Velocity P-wave (km/s) = 4.18366 5.74935 5.02782
#
# Compressibility (1/GPa) = 0.07634159
#
# Stress axis : x y z
#
# Youngs Moduli (GPa) = 41.71710 29.12387 12.46729
#
# Poissons Ratio (x) = 0.47497 0.32076
# Poissons Ratio (y) = 0.68035 -0.13651
# Poissons Ratio (z) = 1.07331 -0.31889
#
# Static dielectric constant tensor:
#      x y z
#    x 1.671680 0.000000 0.000000 
#    y 0.000000 1.620920 0.000000 
#    z 0.000000 0.000000 1.697270 
# 
# From -- ./inp_files/28132.got.cif
#   From: 2010.05.17/outbox.ucp.g08.bks.cvg/sg59_15_cif.got.tgz:28132.got - 2010.06.11 16:43:56.
