data_PCOD9453254
_publ_section_title
;
Structure prediction by ZEFSAII (Michael W. Deem and Ramdas Pophale) SiO2 
 PCOD9453254
Probable space group: P M M N
;
_chemical_formula_sum "Si O2"
_cell_formula_units_Z 64
_cell_length_a 14.903002
_cell_length_b 9.271306
_cell_length_c 22.077282
_cell_angle_alpha 90.000000
_cell_angle_beta 90.000000
_cell_angle_gamma 90.000000
_cell_volume 3050.424497
_symmetry_space_group_name_H-M "P M M N"
_symmetry_group_IT_number 59
_space_group.IT_coordinate_system_code '2'
_symmetry_cell_setting 'orthorhombic'
loop_
_space_group_symop_operation_xyz
x,y,z
1/2-x,1/2-y,z
1/2+x,-y,-z
-x,1/2+y,-z
-x,-y,-z
1/2+x,1/2+y,-z
1/2-x,y,z
x,1/2-y,z
loop_
_atom_site_type_symbol
_atom_site_label
_atom_site_fract_x
_atom_site_fract_y
_atom_site_fract_z
Si Si1 0.108389 0.584339 0.185827
Si Si2 0.905164 0.925348 0.064261
Si Si3 0.900539 0.921852 0.931928
Si Si4 0.607326 0.914667 0.192936
Si Si5 0.640259 0.415440 0.443084
Si Si6 0.356395 0.586423 0.319747
Si Si7 0.859843 0.584813 0.563358
Si Si8 0.642752 0.585048 0.324835
O O1 0.140383 0.750000 0.182458
O O2 0.140198 0.496606 0.127371
O O3 0.131695 0.525356 0.252194
O O4 0.000093 0.587698 0.185269
O O5 0.921323 0.750000 0.067568
O O6 0.858480 0.968175 0.127628
O O7 0.860381 0.950862 0.998876
O O8 0.998840 0.012317 0.063801
O O9 0.903264 0.750000 0.923330
O O10 0.640811 0.750000 0.198953
O O11 0.625420 0.982187 0.258378
O O12 0.750000 0.416501 0.442781
O O13 0.611792 0.250000 0.444767
O O14 0.612239 0.499032 0.503507
O O15 0.609816 0.494242 0.381870
O O16 0.250000 0.598009 0.329258
O O17 0.393581 0.750000 0.320132
O O18 0.391156 0.492116 0.375105
O O19 0.750000 0.584567 0.563750
O O20 0.888519 0.750000 0.560811
O O21 0.750000 0.593641 0.330777
O O22 0.607606 0.750000 0.326756
#
# Coordination Sequence:
#
# PCOD9453254 Si02
#       8
#     8   8   8   8   8   8   8   8
#     4   9  17  29  44  61  84 113 140 169 209 254
#     4   8  14  25  40  58  82 110 139 173 212 249
#     4   9  15  23  39  62  84 106 138 178 211 243
#     4   8  14  26  43  61  82 109 138 167 204 248
#     4   9  16  26  41  61  85 111 138 170 206 242
#     4   9  17  29  45  64  84 108 139 172 207 250
#     4   9  16  26  42  64  87 109 135 170 209 245
#     4   9  16  26  42  63  84 107 137 171 204 241
#
# _framework density 20.980685999999999
#
# number of rings (size 3 to 8) (size 9 to 14) (size 15 to 20)
#    0.000    3.250    0.000    1.875    0.000    4.000 
#    0.000    2.500    0.000    1.500    0.000    1.750 
#    0.000    0.000    0.000    0.000    0.000    1.375 
#
# Total GULP energy -356547.850909 kJ/mol
# GULP energy per Si atom -5571.060170 kJ/mol
# Density = 2.093293 g / cm^3
# Si number density = 20.980686 Si / 1000 Ang^3
#
#
#
# Elastic Constant Matrix: (Units=GPa)
#
#
# Indices 1 2 3 4 5 6 
#
# 1 57.7926 5.5574 4.7225 0.0000 0.0000 0.0000
# 2 5.5574 89.3030 104.1924 0.0000 0.0000 0.0000
# 3 4.7225 104.1924 281.8446 0.0000 0.0000 0.0000
# 4 0.0000 0.0000 0.0000 47.2642 0.0000 0.0000
# 5 0.0000 0.0000 0.0000 0.0000 18.2836 0.0000
# 6 0.0000 0.0000 0.0000 0.0000 0.0000 -11.8506
#
#
#
# Elastic Compliance Matrix: (Units=1/GPa)
#
#
# Indices 1 2 3 4 5 6 
#
# 1 0.017413 -0.001307 0.000191 0.000000 0.000000 0.000000
# 2 -0.001307 0.019789 -0.007294 0.000000 0.000000 0.000000
# 3 0.000191 -0.007294 0.006241 0.000000 0.000000 0.000000
# 4 0.000000 0.000000 0.000000 0.021158 0.000000 0.000000
# 5 0.000000 0.000000 0.000000 0.000000 0.054694 0.000000
# 6 0.000000 0.000000 0.000000 0.000000 0.000000 -0.084384
#
#
# Mechanical properties :
#
#
# Convention : Reuss Voigt Hill
#
# Bulk Modulus (GPa) = 37.55881 73.09831 55.32856
# Shear Modulus (GPa) = 82.50199 31.70397 57.10298
#
# Velocity S-wave (km/s) = 6.27759 3.89151 5.22264
# Velocity P-wave (km/s) = 8.39552 7.42349 7.92442
#
# Compressibility (1/GPa) = 0.02662491
#
# Stress axis : x y z
#
# Youngs Moduli (GPa) = 57.42736 50.53344 160.22641
#
# Poissons Ratio (x) = 0.06604 -0.03066
# Poissons Ratio (y) = 0.07505 1.16864
# Poissons Ratio (z) = -0.01099 0.36857
#
# Static dielectric constant tensor:
#      x y z
#    x 1.817190 0.000000 0.000000 
#    y 0.000000 1.718420 0.000000 
#    z 0.000000 0.000000 1.805150 
# 
# From -- ./inp_files/30995.got.cif
#   From: 2010.05.17/outbox.cif.g08.bks.cpg/sg59_16_cif.got.tgz:30995.got - 2010.06.03 14:40:33.
