data_PCOD9453064
_publ_section_title
;
Structure prediction by ZEFSAII (Michael W. Deem and Ramdas Pophale) SiO2 
 PCOD9453064
Probable space group: P M M N
;
_chemical_formula_sum "Si O2"
_cell_formula_units_Z 48
_cell_length_a 13.441742
_cell_length_b 19.618732
_cell_length_c 9.326961
_cell_angle_alpha 90.000000
_cell_angle_beta 90.000000
_cell_angle_gamma 90.000000
_cell_volume 2459.612269
_symmetry_space_group_name_H-M "P M M N"
_symmetry_group_IT_number 59
_space_group.IT_coordinate_system_code '2'
_symmetry_cell_setting 'orthorhombic'
loop_
_space_group_symop_operation_xyz
x,y,z
1/2-x,1/2-y,z
1/2+x,-y,-z
-x,1/2+y,-z
-x,-y,-z
1/2+x,1/2+y,-z
1/2-x,y,z
x,1/2-y,z
loop_
_atom_site_type_symbol
_atom_site_label
_atom_site_fract_x
_atom_site_fract_y
_atom_site_fract_z
Si Si1 0.142778 0.672044 0.910880
Si Si2 0.519008 0.905636 0.082032
Si Si3 0.368962 0.479004 0.164124
Si Si4 0.365052 0.171786 0.679290
Si Si5 0.956460 0.926286 0.543915
Si Si6 0.859427 0.172203 0.433722
O O1 0.250000 0.643423 0.958642
O O2 0.136082 0.750000 0.961218
O O3 0.143531 0.673590 0.739245
O O4 0.051532 0.630086 0.967064
O O5 0.443882 0.956178 0.165686
O O6 0.566775 0.851486 0.188803
O O7 0.602849 0.944926 0.989560
O O8 0.250000 0.491777 0.174034
O O9 0.406001 0.433955 0.299609
O O10 0.250000 0.171466 0.723552
O O11 0.388109 0.250000 0.631670
O O12 0.380437 0.112593 0.561108
O O13 0.051701 0.877155 0.531969
O O14 0.000000 0.000000 0.500000
O O15 0.750000 0.149324 0.484667
O O16 0.874824 0.250000 0.483137
#
# Coordination Sequence:
#
# PCOD9453064 Si02
#       6
#     8   8   8   8   8   8
#     4   9  17  32  59  90 117 150 193 246 305 360
#     4  11  21  41  62  89 126 162 204 258 311 366
#     4  11  24  40  62  91 123 162 212 259 307 371
#     4  11  25  44  65  91 127 169 210 257 318 382
#     4  12  23  43  62  90 125 168 207 258 311 372
#     4   9  19  37  62  91 120 154 203 254 303 366
#
# _framework density 19.515270999999998
#
# number of rings (size 3 to 8) (size 9 to 14) (size 15 to 20)
#    0.000    1.500    3.333    3.500    0.000    1.333 
#    0.000    0.000    0.000    7.000    0.000    0.000 
#    0.000    0.000    0.000    0.000    0.000    0.000 
#
# Total GULP energy -267650.437457 kJ/mol
# GULP energy per Si atom -5576.050780 kJ/mol
# Density = 1.947085 g / cm^3
# Si number density = 19.515271 Si / 1000 Ang^3
#
#
#
# Elastic Constant Matrix: (Units=GPa)
#
#
# Indices 1 2 3 4 5 6 
#
# 1 123.8504 32.4850 12.8930 0.0000 0.0000 0.0000
# 2 32.4850 67.0469 4.1096 0.0000 0.0000 0.0000
# 3 12.8930 4.1096 30.4216 0.0000 0.0000 0.0000
# 4 0.0000 0.0000 0.0000 31.3508 0.0000 0.0000
# 5 0.0000 0.0000 0.0000 0.0000 24.8926 0.0000
# 6 0.0000 0.0000 0.0000 0.0000 0.0000 23.6967
#
#
#
# Elastic Compliance Matrix: (Units=1/GPa)
#
#
# Indices 1 2 3 4 5 6 
#
# 1 0.009600 -0.004438 -0.003469 0.000000 0.000000 0.000000
# 2 -0.004438 0.017092 -0.000428 0.000000 0.000000 0.000000
# 3 -0.003469 -0.000428 0.034399 0.000000 0.000000 0.000000
# 4 0.000000 0.000000 0.000000 0.031897 0.000000 0.000000
# 5 0.000000 0.000000 0.000000 0.000000 0.040173 0.000000
# 6 0.000000 0.000000 0.000000 0.000000 0.000000 0.042200
#
#
# Mechanical properties :
#
#
# Convention : Reuss Voigt Hill
#
# Bulk Modulus (GPa) = 22.51223 35.58824 29.05024
# Shear Modulus (GPa) = 24.17363 27.44345 25.80854
#
# Velocity S-wave (km/s) = 3.52334 3.75407 3.64054
# Velocity P-wave (km/s) = 5.30214 6.08822 5.70873
#
# Compressibility (1/GPa) = 0.04442029
#
# Stress axis : x y z
#
# Youngs Moduli (GPa) = 104.17162 58.50810 29.07040
#
# Poissons Ratio (x) = 0.25969 0.10084
# Poissons Ratio (y) = 0.46236 0.01244
# Poissons Ratio (z) = 0.36135 0.02503
#
# Static dielectric constant tensor:
#      x y z
#    x 1.703480 0.000000 0.000000 
#    y 0.000000 1.697800 0.000000 
#    z 0.000000 0.000000 1.693010 
# 
# From -- ./inp_files/15793.got.cif
#   From: 2010.05.17/outbox.cif.g08.bks.cpg/sg59_8_cif.got.tgz:15793.got - 2010.06.03 14:40:33.
