data_PCOD9453804
_publ_section_title
;
Structure prediction by ZEFSAII (Michael W. Deem and Ramdas Pophale) SiO2 
 PCOD9453804
Probable space group: P B C N
;
_chemical_formula_sum "Si O2"
_cell_formula_units_Z 52
_cell_length_a 21.806921
_cell_length_b 28.433448
_cell_length_c 5.500673
_cell_angle_alpha 90.000000
_cell_angle_beta 90.000000
_cell_angle_gamma 90.000000
_cell_volume 3410.670040
_symmetry_space_group_name_H-M "P B C N"
_symmetry_group_IT_number 60
_symmetry_cell_setting 'orthorhombic'
loop_
_space_group_symop_operation_xyz
x,y,z
1/2-x,1/2-y,1/2+z
1/2+x,1/2-y,-z
-x,y,1/2-z
-x,-y,-z
1/2+x,1/2+y,1/2-z
1/2-x,1/2+y,z
x,-y,1/2+z
loop_
_atom_site_type_symbol
_atom_site_label
_atom_site_fract_x
_atom_site_fract_y
_atom_site_fract_z
Si Si1 0.447477 0.111527 0.419439
Si Si2 0.890269 0.764650 0.715108
Si Si3 0.220215 0.691920 0.767870
Si Si4 0.500000 0.191834 0.750000
Si Si5 0.834841 0.332332 0.735698
Si Si6 0.138700 0.778020 0.280653
Si Si7 0.927331 0.478119 0.280530
O O1 0.500000 0.089057 0.250000
O O2 0.479703 0.156977 0.536430
O O3 0.389081 0.130089 0.273509
O O4 0.424893 0.075839 0.627864
O O5 0.823886 0.738165 0.726913
O O6 0.891212 0.794364 0.470066
O O7 0.942227 0.724927 0.698226
O O8 0.894269 0.791340 0.969969
O O9 0.203727 0.665999 0.515480
O O10 0.290444 0.707112 0.779421
O O11 0.202506 0.664643 0.014175
O O12 0.862969 0.279290 0.729700
O O13 0.902428 0.508059 0.513031
O O14 0.000000 0.486442 0.250000
#
# Coordination Sequence:
#
# PCOD9453804 Si02
#       7
#     8   8   8   4   8   8   8
#     4  12  22  31  46  58  82 103 124 167 214 254
#     4  10  19  28  39  56  77 100 125 149 196 240
#     4  10  17  30  43  57  76  96 127 154 183 239
#     4  12  22  30  40  62  86 102 126 168 212 260
#     4  10  19  28  40  62  73  93 123 149 198 239
#     4  10  17  30  43  55  75 100 127 153 182 240
#     4  10  21  35  46  58  72  98 135 164 198 253
#
# _framework density 15.246271
#
# number of rings (size 3 to 8) (size 9 to 14) (size 15 to 20)
#    0.000    1.538    3.846    7.846    0.000    0.000 
#    0.000    0.000    0.000    0.000    0.000    0.000 
#    0.000    0.000    0.000    0.000    0.000    0.000 
#
# Total GULP energy -289865.491927 kJ/mol
# GULP energy per Si atom -5574.336383 kJ/mol
# Density = 1.521157 g / cm^3
# Si number density = 15.246271 Si / 1000 Ang^3
#
#
#
# Elastic Constant Matrix: (Units=GPa)
#
#
# Indices 1 2 3 4 5 6 
#
# 1 30.3244 23.2095 19.6034 0.0000 0.0000 0.0000
# 2 23.2095 24.6927 15.1209 0.0000 0.0000 0.0000
# 3 19.6034 15.1209 142.2969 0.0000 0.0000 0.0000
# 4 0.0000 0.0000 0.0000 325.5968 0.0000 0.0000
# 5 0.0000 0.0000 0.0000 0.0000 16.8715 0.0000
# 6 0.0000 0.0000 0.0000 0.0000 0.0000 -2.1160
#
#
#
# Elastic Compliance Matrix: (Units=1/GPa)
#
#
# Indices 1 2 3 4 5 6 
#
# 1 0.120618 -0.110379 -0.004888 0.000000 0.000000 0.000000
# 2 -0.110379 0.144327 -0.000130 0.000000 0.000000 0.000000
# 3 -0.004888 -0.000130 0.007715 0.000000 0.000000 0.000000
# 4 0.000000 0.000000 0.000000 0.003071 0.000000 0.000000
# 5 0.000000 0.000000 0.000000 0.000000 0.059272 0.000000
# 6 0.000000 0.000000 0.000000 0.000000 0.000000 -0.472587
#
#
# Mechanical properties :
#
#
# Convention : Reuss Voigt Hill
#
# Bulk Modulus (GPa) = 23.88653 34.79797 29.34225
# Shear Modulus (GPa) = 46.65724 77.36246 62.00985
#
# Velocity S-wave (km/s) = 5.53794 7.13106 6.38439
# Velocity P-wave (km/s) = 7.52283 9.52241 8.58106
#
# Compressibility (1/GPa) = 0.04186459
#
# Stress axis : x y z
#
# Youngs Moduli (GPa) = 8.29066 6.92872 129.62220
#
# Poissons Ratio (x) = 0.76479 0.63354
# Poissons Ratio (y) = 0.91512 0.01688
# Poissons Ratio (z) = 0.04052 0.00090
#
# Static dielectric constant tensor:
#      x y z
#    x 1.495360 0.000000 0.000000 
#    y 0.000000 1.492780 0.000000 
#    z 0.000000 0.000000 1.651200 
# 
# From -- ./inp_files/1818.got.cif
#   From: 2010.05.17/outbox.cif.g08.bks.cpg/sg60_1_cif.got.tgz:1818.got - 2010.06.03 14:59:27.
