data_PCOD9453616
_publ_section_title
;
Structure prediction by ZEFSAII (Michael W. Deem and Ramdas Pophale) SiO2 
 PCOD9453616
Probable space group: P M M N
;
_chemical_formula_sum "Si O2"
_cell_formula_units_Z 64
_cell_length_a 9.000000
_cell_length_b 15.000000
_cell_length_c 24.000000
_cell_angle_alpha 90.000000
_cell_angle_beta 90.000000
_cell_angle_gamma 90.000000
_cell_volume 3240.000000
_symmetry_space_group_name_H-M "P M M N"
_symmetry_group_IT_number 59
_space_group.IT_coordinate_system_code '2'
_symmetry_cell_setting 'orthorhombic'
loop_
_space_group_symop_operation_xyz
x,y,z
1/2-x,1/2-y,z
1/2+x,-y,-z
-x,1/2+y,-z
-x,-y,-z
1/2+x,1/2+y,-z
1/2-x,y,z
x,1/2-y,z
loop_
_atom_site_type_symbol
_atom_site_label
_atom_site_fract_x
_atom_site_fract_y
_atom_site_fract_z
Si Si1 0.572924 0.851585 0.137037
Si Si2 0.417386 0.486006 0.319987
Si Si3 0.421372 0.504330 0.058702
Si Si4 0.576944 0.645579 0.268531
Si Si5 0.923900 0.474833 0.424477
Si Si6 0.570968 0.353227 0.527805
Si Si7 0.915572 0.848661 0.778673
Si Si8 0.084890 0.647357 0.887982
O O1 0.750000 0.857530 0.128401
O O2 0.526694 0.750000 0.124349
O O3 0.547147 0.867318 0.202714
O O4 0.491894 0.922608 0.099268
O O5 0.250000 0.485180 0.342510
O O6 0.469216 0.584226 0.303458
O O7 0.530922 0.445051 0.363611
O O8 0.422341 0.426617 0.265134
O O9 0.250000 0.522808 0.052203
O O10 0.456610 0.408650 0.084336
O O11 0.500000 0.500000 0.000000
O O12 0.750000 0.621746 0.278856
O O13 0.559468 0.750000 0.280769
O O14 0.750000 0.489460 0.431502
O O15 0.969081 0.398487 0.468306
O O16 0.003857 0.570529 0.432524
O O17 0.750000 0.352879 0.532881
O O18 0.521106 0.250000 0.534022
O O19 0.750000 0.853230 0.805596
O O20 0.924634 0.750000 0.752586
O O21 0.046384 0.856261 0.822913
O O22 0.250000 0.610681 0.899240
O O23 0.081795 0.750000 0.905470
#
# Coordination Sequence:
#
# PCOD9453616 Si02
#       8
#     8   8   8   8   8   8   8   8
#     4   9  19  38  62  85 111 143 179 223 275 329
#     4  11  22  34  52  80 114 149 181 220 267 311
#     4  12  25  39  57  81 110 144 182 226 275 328
#     4   9  19  36  57  80 107 142 181 219 264 319
#     4  10  21  36  55  81 110 141 179 221 267 320
#     4   9  19  38  61  81 104 137 178 224 271 319
#     4   9  19  36  56  80 111 146 183 220 264 321
#     4  10  21  38  60  84 110 142 182 227 274 327
#
# _framework density 19.753086
#
# number of rings (size 3 to 8) (size 9 to 14) (size 15 to 20)
#    0.000    2.125    0.000    3.750    0.000    7.000 
#    0.000    1.250    0.000    0.000    0.000    0.000 
#    0.000    0.000    0.000    0.000    0.000    0.000 
#
# Total GULP energy -356829.590704 kJ/mol
# GULP energy per Si atom -5575.462355 kJ/mol
# Density = 1.970813 g / cm^3
# Si number density = 19.753086 Si / 1000 Ang^3
#
#
#
# Elastic Constant Matrix: (Units=GPa)
#
#
# Indices 1 2 3 4 5 6 
#
# 1 17.3020 14.8784 15.8153 0.0000 0.0000 0.0000
# 2 14.8784 30.0071 19.4299 0.0000 0.0000 0.0000
# 3 15.8153 19.4299 24.0416 0.0000 0.0000 0.0000
# 4 0.0000 0.0000 0.0000 -32.3284 0.0000 0.0000
# 5 0.0000 0.0000 0.0000 0.0000 22.9938 0.0000
# 6 0.0000 0.0000 0.0000 0.0000 0.0000 13.1280
#
#
#
# Elastic Compliance Matrix: (Units=1/GPa)
#
#
# Indices 1 2 3 4 5 6 
#
# 1 0.151726 -0.022240 -0.081836 0.000000 0.000000 0.000000
# 2 -0.022240 0.073169 -0.044503 0.000000 0.000000 0.000000
# 3 -0.081836 -0.044503 0.131395 0.000000 0.000000 0.000000
# 4 0.000000 0.000000 0.000000 -0.030933 0.000000 0.000000
# 5 0.000000 0.000000 0.000000 0.000000 0.043490 0.000000
# 6 0.000000 0.000000 0.000000 0.000000 0.000000 0.076173
#
#
# Mechanical properties :
#
#
# Convention : Reuss Voigt Hill
#
# Bulk Modulus (GPa) = 16.91155 19.06644 17.98899
# Shear Modulus (GPa) = 6.56263 2.17381 4.36822
#
# Velocity S-wave (km/s) = 1.82470 1.05018 1.48870
# Velocity P-wave (km/s) = 3.60825 3.33824 3.47587
#
# Compressibility (1/GPa) = 0.05913119
#
# Stress axis : x y z
#
# Youngs Moduli (GPa) = 6.59085 13.66703 7.61062
#
# Poissons Ratio (x) = 0.30396 0.62282
# Poissons Ratio (y) = 0.14658 0.33870
# Poissons Ratio (z) = 0.53937 0.60822
#
# Static dielectric constant tensor:
#      x y z
#    x 1.686370 0.000000 0.000000 
#    y 0.000000 1.685600 0.000000 
#    z 0.000000 0.000000 1.724530 
# 
# From -- ./inp_files/31456.got.cif
#   From: 2010.05.17/outbox.ucp.g08.bks.cvg/sg59_16_cif.got.tgz:31456.got - 2010.06.11 16:43:56.
