data_PCOD9453501
_publ_section_title
;
Structure prediction by ZEFSAII (Michael W. Deem and Ramdas Pophale) SiO2 
 PCOD9453501
Probable space group: P M M N
;
_chemical_formula_sum "Si O2"
_cell_formula_units_Z 64
_cell_length_a 24.000000
_cell_length_b 9.000000
_cell_length_c 15.000000
_cell_angle_alpha 90.000000
_cell_angle_beta 90.000000
_cell_angle_gamma 90.000000
_cell_volume 3240.000000
_symmetry_space_group_name_H-M "P M M N"
_symmetry_group_IT_number 59
_space_group.IT_coordinate_system_code '2'
_symmetry_cell_setting 'orthorhombic'
loop_
_space_group_symop_operation_xyz
x,y,z
1/2-x,1/2-y,z
1/2+x,-y,-z
-x,1/2+y,-z
-x,-y,-z
1/2+x,1/2+y,-z
1/2-x,y,z
x,1/2-y,z
loop_
_atom_site_type_symbol
_atom_site_label
_atom_site_fract_x
_atom_site_fract_y
_atom_site_fract_z
Si Si1 0.919935 0.084559 0.554584
Si Si2 0.011602 0.928724 0.094295
Si Si3 0.184165 0.570043 0.883766
Si Si4 0.314129 0.070963 0.431174
Si Si5 0.588231 0.572140 0.226675
Si Si6 0.135749 0.927012 0.075004
Si Si7 0.184559 0.413911 0.233564
Si Si8 0.982356 0.084362 0.369408
O O1 0.907549 0.250000 0.588825
O O2 0.959958 0.099144 0.469448
O O3 0.863948 0.006986 0.517663
O O4 0.957094 0.992049 0.624888
O O5 0.010591 0.750000 0.089918
O O6 0.075192 0.975424 0.111227
O O7 0.962115 0.972776 0.159715
O O8 0.000000 0.000000 0.000000
O O9 0.250000 0.529844 0.880803
O O10 0.181205 0.750000 0.879423
O O11 0.145606 0.500812 0.806766
O O12 0.155920 0.519551 0.977739
O O13 0.250000 0.025946 0.449024
O O14 0.316166 0.250000 0.438098
O O15 0.332705 0.029387 0.330227
O O16 0.593872 0.750000 0.226691
O O17 0.563277 0.513240 0.318566
O O18 0.135178 0.750000 0.068649
O O19 0.176484 0.980948 0.150959
O O20 0.250000 0.395306 0.246695
O O21 0.160026 0.250000 0.216271
O O22 0.986227 0.250000 0.329943
#
# Coordination Sequence:
#
# PCOD9453501 Si02
#       8
#     8   8   8   8   8   8   8   8
#     4  10  21  38  61  89 116 143 185 233 281 338
#     4  10  21  36  54  79 111 143 179 226 274 326
#     4  10  21  38  59  80 107 149 196 237 280 334
#     4   9  19  36  56  81 116 155 191 228 278 341
#     4  11  23  38  58  87 117 145 184 235 284 332
#     4  10  20  34  53  78 108 145 187 229 276 327
#     4   9  19  34  50  74 109 146 185 224 262 316
#     4  10  22  40  62  86 114 150 185 228 285 344
#
# _framework density 19.753086
#
# number of rings (size 3 to 8) (size 9 to 14) (size 15 to 20)
#    0.000    2.125    1.250    2.250    1.750    4.750 
#    0.000    1.875    0.000    0.750    0.000    0.000 
#    0.000    0.000    0.000    0.000    0.000    0.000 
#
# Total GULP energy -356339.925750 kJ/mol
# GULP energy per Si atom -5567.811340 kJ/mol
# Density = 1.970813 g / cm^3
# Si number density = 19.753086 Si / 1000 Ang^3
#
#
#
# Elastic Constant Matrix: (Units=GPa)
#
#
# Indices 1 2 3 4 5 6 
#
# 1 119.8651 47.7663 15.4206 0.0000 0.0000 0.0000
# 2 47.7663 28.4724 10.7313 0.0000 0.0000 0.0000
# 3 15.4206 10.7313 19.5480 0.0000 0.0000 0.0000
# 4 0.0000 0.0000 0.0000 20.8222 0.0000 0.0000
# 5 0.0000 0.0000 0.0000 0.0000 20.7488 0.0000
# 6 0.0000 0.0000 0.0000 0.0000 0.0000 28.1691
#
#
#
# Elastic Compliance Matrix: (Units=1/GPa)
#
#
# Indices 1 2 3 4 5 6 
#
# 1 0.025445 -0.044285 0.004239 0.000000 0.000000 0.000000
# 2 -0.044285 0.121358 -0.031688 0.000000 0.000000 0.000000
# 3 0.004239 -0.031688 0.065208 0.000000 0.000000 0.000000
# 4 0.000000 0.000000 0.000000 0.048026 0.000000 0.000000
# 5 0.000000 0.000000 0.000000 0.000000 0.048196 0.000000
# 6 0.000000 0.000000 0.000000 0.000000 0.000000 0.035500
#
#
# Mechanical properties :
#
#
# Convention : Reuss Voigt Hill
#
# Bulk Modulus (GPa) = 14.58930 35.08022 24.83476
# Shear Modulus (GPa) = 9.80298 20.21251 15.00775
#
# Velocity S-wave (km/s) = 2.23014 3.20231 2.75938
# Velocity P-wave (km/s) = 3.74610 5.60990 4.76992
#
# Compressibility (1/GPa) = 0.06854340
#
# Stress axis : x y z
#
# Youngs Moduli (GPa) = 39.30069 8.24005 15.33547
#
# Poissons Ratio (x) = 0.36491 -0.06500
# Poissons Ratio (y) = 1.74042 0.48595
# Poissons Ratio (z) = -0.16658 0.26111
#
# Static dielectric constant tensor:
#      x y z
#    x 1.761980 0.000000 0.000000 
#    y 0.000000 1.436290 0.000000 
#    z 0.000000 0.000000 2.202240 
# 
# From -- ./inp_files/24710.got.cif
#   From: 2010.05.17/outbox.ucp.g08.bks.cvg/sg59_13_cif.got.tgz:24710.got - 2010.06.11 16:43:56.
