data_PCOD9453775
_publ_section_title
;
Structure prediction by ZEFSAII (Michael W. Deem and Ramdas Pophale) SiO2 
 PCOD9453775
Probable space group: P B C N
;
_chemical_formula_sum "Si O2"
_cell_formula_units_Z 32
_cell_length_a 19.062590
_cell_length_b 5.877171
_cell_length_c 10.051819
_cell_angle_alpha 90.000000
_cell_angle_beta 90.000000
_cell_angle_gamma 90.000000
_cell_volume 1126.146506
_symmetry_space_group_name_H-M "P B C N"
_symmetry_group_IT_number 60
_symmetry_cell_setting 'orthorhombic'
loop_
_space_group_symop_operation_xyz
x,y,z
1/2-x,1/2-y,1/2+z
1/2+x,1/2-y,-z
-x,y,1/2-z
-x,-y,-z
1/2+x,1/2+y,1/2-z
1/2-x,1/2+y,z
x,-y,1/2+z
loop_
_atom_site_type_symbol
_atom_site_label
_atom_site_fract_x
_atom_site_fract_y
_atom_site_fract_z
Si Si1 0.734546 0.130906 0.629232
Si Si2 0.931516 0.113924 0.555863
Si Si3 0.136599 0.889711 0.178636
Si Si4 0.078393 0.542363 0.784544
O O1 0.745070 0.877200 0.565213
O O2 0.653973 0.143757 0.673449
O O3 0.604868 0.865197 0.832655
O O4 0.787125 0.123576 0.756110
O O5 0.913306 0.020773 0.701945
O O6 0.936974 0.376611 0.589116
O O7 0.873440 0.046175 0.448134
O O8 0.000000 0.000000 0.500000
O O9 0.000000 0.629712 0.750000
#
# Coordination Sequence:
#
# PCOD9453775 Si02
#       4
#     8   8   8   8
#     4  10  22  45  68 106 139 195 238 304 362 442
#     4  10  16  35  65 104 139 188 239 299 364 435
#     4   9  19  35  65  99 138 184 238 294 361 432
#     4   9  18  36  62  95 138 184 237 295 358 431
#
# _framework density 28.415486999999999
#
# number of rings (size 3 to 8) (size 9 to 14) (size 15 to 20)
#    1.500    1.000    2.500    0.750    0.000    0.000 
#    9.000    7.500    0.000    3.000    0.000    0.000 
#    0.000    0.000    0.000    0.000    0.000    0.000 
#
# Total GULP energy -178588.011265 kJ/mol
# GULP energy per Si atom -5580.875352 kJ/mol
# Density = 2.835081 g / cm^3
# Si number density = 28.415487 Si / 1000 Ang^3
#
#
#
# Elastic Constant Matrix: (Units=GPa)
#
#
# Indices 1 2 3 4 5 6 
#
# 1 239.9367 84.6656 1.3962 0.0000 0.0000 0.0000
# 2 84.6656 137.1639 33.9215 0.0000 0.0000 0.0000
# 3 1.3962 33.9215 107.5969 0.0000 0.0000 0.0000
# 4 0.0000 0.0000 0.0000 28.1629 0.0000 0.0000
# 5 0.0000 0.0000 0.0000 0.0000 44.5817 0.0000
# 6 0.0000 0.0000 0.0000 0.0000 0.0000 51.0569
#
#
#
# Elastic Compliance Matrix: (Units=1/GPa)
#
#
# Indices 1 2 3 4 5 6 
#
# 1 0.005440 -0.003623 0.001072 0.000000 0.000000 0.000000
# 2 -0.003623 0.010320 -0.003206 0.000000 0.000000 0.000000
# 3 0.001072 -0.003206 0.010291 0.000000 0.000000 0.000000
# 4 0.000000 0.000000 0.000000 0.035508 0.000000 0.000000
# 5 0.000000 0.000000 0.000000 0.000000 0.022431 0.000000
# 6 0.000000 0.000000 0.000000 0.000000 0.000000 0.019586
#
#
# Mechanical properties :
#
#
# Convention : Reuss Voigt Hill
#
# Bulk Modulus (GPa) = 68.79877 80.51824 74.65850
# Shear Modulus (GPa) = 41.68907 49.07457 45.38182
#
# Velocity S-wave (km/s) = 3.83446 4.16027 4.00068
# Velocity P-wave (km/s) = 6.62332 7.17459 6.90446
#
# Compressibility (1/GPa) = 0.01453514
#
# Stress axis : x y z
#
# Youngs Moduli (GPa) = 183.82669 96.90161 97.17305
#
# Poissons Ratio (x) = 0.35106 -0.10413
# Poissons Ratio (y) = 0.66597 0.31158
# Poissons Ratio (z) = -0.19698 0.31071
#
# Static dielectric constant tensor:
#      x y z
#    x 2.795550 0.000000 0.000000 
#    y 0.000000 2.467000 0.000000 
#    z 0.000000 0.000000 2.240080 
# 
# From -- ./inp_files/5523.got.cif
#   From: 2010.05.17/outbox.cif.g08.bks.cpg/sg60_3_cif.got.tgz:5523.got - 2010.06.03 14:59:27.
