data_PCOD9453551
_publ_section_title
;
Structure prediction by ZEFSAII (Michael W. Deem and Ramdas Pophale) SiO2 
 PCOD9453551
Probable space group: P M M N
;
_chemical_formula_sum "Si O2"
_cell_formula_units_Z 64
_cell_length_a 9.000000
_cell_length_b 15.000000
_cell_length_c 24.000000
_cell_angle_alpha 90.000000
_cell_angle_beta 90.000000
_cell_angle_gamma 90.000000
_cell_volume 3240.000000
_symmetry_space_group_name_H-M "P M M N"
_symmetry_group_IT_number 59
_space_group.IT_coordinate_system_code '2'
_symmetry_cell_setting 'orthorhombic'
loop_
_space_group_symop_operation_xyz
x,y,z
1/2-x,1/2-y,z
1/2+x,-y,-z
-x,1/2+y,-z
-x,-y,-z
1/2+x,1/2+y,-z
1/2-x,y,z
x,1/2-y,z
loop_
_atom_site_type_symbol
_atom_site_label
_atom_site_fract_x
_atom_site_fract_y
_atom_site_fract_z
Si Si1 0.927212 0.467106 0.381032
Si Si2 0.073213 0.145287 0.284747
Si Si3 0.571663 0.148993 0.599342
Si Si4 0.426980 0.147613 0.476776
Si Si5 0.576357 0.152506 0.098032
Si Si6 0.424794 0.020575 0.178460
Si Si7 0.927409 0.851500 0.137841
Si Si8 0.076234 0.910738 0.022827
O O1 0.750000 0.473672 0.385770
O O2 0.977038 0.398821 0.333170
O O3 0.997785 0.564743 0.370175
O O4 0.997741 0.424490 0.436860
O O5 0.250000 0.138107 0.298450
O O6 0.040665 0.250000 0.276695
O O7 0.045616 0.086417 0.229869
O O8 0.750000 0.138439 0.597753
O O9 0.539764 0.250000 0.620593
O O10 0.503697 0.144839 0.537072
O O11 0.250000 0.131404 0.481509
O O12 0.445954 0.250000 0.455205
O O13 0.750000 0.137175 0.112286
O O14 0.530921 0.250000 0.119287
O O15 0.479773 0.074910 0.124545
O O16 0.566854 0.151671 0.031376
O O17 0.250000 0.003775 0.175623
O O18 0.509275 0.926815 0.178829
O O19 0.750000 0.859456 0.134463
O O20 0.965627 0.750000 0.153536
O O21 0.996012 0.872662 0.077059
O O22 0.250000 0.925762 0.035493
O O23 0.000000 0.000000 0.000000
#
# Coordination Sequence:
#
# PCOD9453551 Si02
#       8
#     8   8   8   8   8   8   8   8
#     4  12  24  37  58  88 121 158 200 246 297 355
#     4  10  23  44  66  89 118 151 191 241 296 353
#     4  10  21  38  60  86 119 160 204 248 294 348
#     4  10  20  35  57  86 123 164 203 247 297 350
#     4  10  21  36  56  83 117 154 189 230 284 346
#     4  11  23  40  64  89 114 148 192 244 297 350
#     4  11  24  41  61  86 119 159 200 243 292 348
#     4  11  21  35  57  86 120 158 196 236 287 345
#
# _framework density 19.753086
#
# number of rings (size 3 to 8) (size 9 to 14) (size 15 to 20)
#    0.000    1.375    1.250    4.500    0.000    7.000 
#    0.000    0.625    0.000    0.750    0.000    0.000 
#    0.000    0.000    0.000    0.000    0.000    0.000 
#
# Total GULP energy -357670.814799 kJ/mol
# GULP energy per Si atom -5588.606481 kJ/mol
# Density = 1.970813 g / cm^3
# Si number density = 19.753086 Si / 1000 Ang^3
#
#
#
# Elastic Constant Matrix: (Units=GPa)
#
#
# Indices 1 2 3 4 5 6 
#
# 1 98.7958 77.3820 27.0959 0.0000 0.0000 0.0000
# 2 77.3820 171.3280 28.2532 0.0000 0.0000 0.0000
# 3 27.0959 28.2532 31.9538 0.0000 0.0000 0.0000
# 4 0.0000 0.0000 0.0000 27.9349 0.0000 0.0000
# 5 0.0000 0.0000 0.0000 0.0000 27.5318 0.0000
# 6 0.0000 0.0000 0.0000 0.0000 0.0000 32.2639
#
#
#
# Elastic Compliance Matrix: (Units=1/GPa)
#
#
# Indices 1 2 3 4 5 6 
#
# 1 0.017757 -0.006482 -0.009326 0.000000 0.000000 0.000000
# 2 -0.006482 0.009199 -0.002637 0.000000 0.000000 0.000000
# 3 -0.009326 -0.002637 0.041535 0.000000 0.000000 0.000000
# 4 0.000000 0.000000 0.000000 0.035797 0.000000 0.000000
# 5 0.000000 0.000000 0.000000 0.000000 0.036322 0.000000
# 6 0.000000 0.000000 0.000000 0.000000 0.000000 0.030994
#
#
# Mechanical properties :
#
#
# Convention : Reuss Voigt Hill
#
# Bulk Modulus (GPa) = 31.64489 63.05998 47.35243
# Shear Modulus (GPa) = 22.82807 28.83590 25.83199
#
# Velocity S-wave (km/s) = 3.40320 3.82490 3.62020
# Velocity P-wave (km/s) = 5.61225 7.17634 6.44194
#
# Compressibility (1/GPa) = 0.03160068
#
# Stress axis : x y z
#
# Youngs Moduli (GPa) = 56.31674 108.70296 24.07606
#
# Poissons Ratio (x) = 0.70462 0.22453
# Poissons Ratio (y) = 0.36505 0.06350
# Poissons Ratio (z) = 0.52520 0.28669
#
# Static dielectric constant tensor:
#      x y z
#    x 1.657390 0.000000 0.000000 
#    y 0.000000 1.723740 0.000000 
#    z 0.000000 0.000000 1.700140 
# 
# From -- ./inp_files/31411.got.cif
#   From: 2010.05.17/outbox.ucp.g08.bks.cvg/sg59_16_cif.got.tgz:31411.got - 2010.06.11 16:43:56.
