data_PCOD9453292
_publ_section_title
;
Structure prediction by ZEFSAII (Michael W. Deem and Ramdas Pophale) SiO2 
 PCOD9453292
Probable space group: P M M N
;
_chemical_formula_sum "Si O2"
_cell_formula_units_Z 64
_cell_length_a 7.603760
_cell_length_b 14.228750
_cell_length_c 24.283406
_cell_angle_alpha 90.000000
_cell_angle_beta 90.000000
_cell_angle_gamma 90.000000
_cell_volume 2627.270264
_symmetry_space_group_name_H-M "P M M N"
_symmetry_group_IT_number 59
_space_group.IT_coordinate_system_code '2'
_symmetry_cell_setting 'orthorhombic'
loop_
_space_group_symop_operation_xyz
x,y,z
1/2-x,1/2-y,z
1/2+x,-y,-z
-x,1/2+y,-z
-x,-y,-z
1/2+x,1/2+y,-z
1/2-x,y,z
x,1/2-y,z
loop_
_atom_site_type_symbol
_atom_site_label
_atom_site_fract_x
_atom_site_fract_y
_atom_site_fract_z
Si Si1 0.543433 0.141186 0.906745
Si Si2 0.959281 0.390623 0.490012
Si Si3 0.458291 0.142150 0.025483
Si Si4 0.034747 0.562823 0.626298
Si Si5 0.465844 0.954467 0.744976
Si Si6 0.047529 0.349721 0.609689
Si Si7 0.954171 0.855103 0.213434
Si Si8 0.960489 0.356694 0.144319
O O1 0.750000 0.141430 0.896212
O O2 0.479156 0.250000 0.911684
O O3 0.459893 0.107363 0.849845
O O4 0.517088 0.098946 0.967430
O O5 0.750000 0.372267 0.492933
O O6 0.020565 0.377125 0.426958
O O7 0.000000 0.500000 0.500000
O O8 0.044509 0.344932 0.543163
O O9 0.250000 0.147627 0.022390
O O10 0.533088 0.250000 0.027080
O O11 0.501720 0.098500 0.084724
O O12 0.250000 0.560767 0.622913
O O13 0.984321 0.593407 0.687541
O O14 0.973565 0.453513 0.621752
O O15 0.250000 0.955369 0.746095
O O16 0.527893 0.905283 0.800665
O O17 0.527317 0.062766 0.748577
O O18 0.250000 0.352108 0.628910
O O19 0.970212 0.250000 0.630256
O O20 0.750000 0.845948 0.227927
O O21 0.032334 0.750000 0.215210
O O22 0.750000 0.353145 0.148893
O O23 0.029547 0.250000 0.142383
#
# Coordination Sequence:
#
# PCOD9453292 Si02
#       8
#     8   8   8   8   8   8   8   8
#     4   9  16  27  45  68  94 123 153 187 231 285
#     4   9  16  28  47  69  94 124 157 193 235 281
#     4   9  16  27  46  70  93 117 149 193 241 286
#     4   8  15  28  46  68  93 122 157 196 234 274
#     4   9  17  30  48  70  95 123 159 200 237 277
#     4   9  17  29  47  72 100 128 159 197 241 288
#     4   9  17  29  46  68  93 121 153 190 232 278
#     4   9  17  30  48  68  90 118 152 191 237 287
#
# _framework density 24.359884000000001
#
# number of rings (size 3 to 8) (size 9 to 14) (size 15 to 20)
#    0.000    3.125    0.000    1.875    0.000    3.750 
#    0.000    4.375    0.000    9.750    0.000    5.250 
#    0.000    0.000    0.000    0.000    0.000    0.000 
#
# Total GULP energy -356870.958798 kJ/mol
# GULP energy per Si atom -5576.108731 kJ/mol
# Density = 2.430444 g / cm^3
# Si number density = 24.359884 Si / 1000 Ang^3
#
#
#
# Elastic Constant Matrix: (Units=GPa)
#
#
# Indices 1 2 3 4 5 6 
#
# 1 62.1591 -3.1728 -2.2892 0.0000 0.0000 0.0000
# 2 -3.1728 41.9446 11.8541 0.0000 0.0000 0.0000
# 3 -2.2892 11.8541 163.2018 0.0000 0.0000 0.0000
# 4 0.0000 0.0000 0.0000 5.0637 0.0000 0.0000
# 5 0.0000 0.0000 0.0000 0.0000 8.5540 0.0000
# 6 0.0000 0.0000 0.0000 0.0000 0.0000 -3.1132
#
#
#
# Elastic Compliance Matrix: (Units=1/GPa)
#
#
# Indices 1 2 3 4 5 6 
#
# 1 0.016153 0.001182 0.000141 0.000000 0.000000 0.000000
# 2 0.001182 0.024427 -0.001758 0.000000 0.000000 0.000000
# 3 0.000141 -0.001758 0.006257 0.000000 0.000000 0.000000
# 4 0.000000 0.000000 0.000000 0.197483 0.000000 0.000000
# 5 0.000000 0.000000 0.000000 0.000000 0.116904 0.000000
# 6 0.000000 0.000000 0.000000 0.000000 0.000000 -0.321213
#
#
# Mechanical properties :
#
#
# Convention : Reuss Voigt Hill
#
# Bulk Modulus (GPa) = 21.75437 31.12105 26.43771
# Shear Modulus (GPa) = 88.96223 19.49514 54.22869
#
# Velocity S-wave (km/s) = 6.04973 2.83202 4.72333
# Velocity P-wave (km/s) = 7.59926 4.84738 6.37361
#
# Compressibility (1/GPa) = 0.04596777
#
# Stress axis : x y z
#
# Youngs Moduli (GPa) = 61.90701 40.93806 159.82032
#
# Poissons Ratio (x) = -0.04839 -0.02249
# Poissons Ratio (y) = -0.07318 0.28091
# Poissons Ratio (z) = -0.00871 0.07196
#
# Static dielectric constant tensor:
#      x y z
#    x 1.902130 0.000000 0.000000 
#    y 0.000000 1.996320 0.000000 
#    z 0.000000 0.000000 1.979740 
# 
# From -- ./inp_files/31764.got.cif
#   From: 2010.05.17/outbox.cif.g08.bks.cpg/sg59_16_cif.got.tgz:31764.got - 2010.06.03 14:40:33.
