data_PCOD9453225
_publ_section_title
;
Structure prediction by ZEFSAII (Michael W. Deem and Ramdas Pophale) SiO2 
 PCOD9453225
Probable space group: P M M N
;
_chemical_formula_sum "Si O2"
_cell_formula_units_Z 64
_cell_length_a 9.395117
_cell_length_b 14.857534
_cell_length_c 21.982406
_cell_angle_alpha 90.000000
_cell_angle_beta 90.000000
_cell_angle_gamma 90.000000
_cell_volume 3068.486030
_symmetry_space_group_name_H-M "P M M N"
_symmetry_group_IT_number 59
_space_group.IT_coordinate_system_code '2'
_symmetry_cell_setting 'orthorhombic'
loop_
_space_group_symop_operation_xyz
x,y,z
1/2-x,1/2-y,z
1/2+x,-y,-z
-x,1/2+y,-z
-x,-y,-z
1/2+x,1/2+y,-z
1/2-x,y,z
x,1/2-y,z
loop_
_atom_site_type_symbol
_atom_site_label
_atom_site_fract_x
_atom_site_fract_y
_atom_site_fract_z
Si Si1 0.587701 0.357736 0.739367
Si Si2 0.414994 0.140185 0.488540
Si Si3 0.915527 0.859704 0.377089
Si Si4 0.412368 0.639704 0.629591
Si Si5 0.076515 0.902328 0.997795
Si Si6 0.087491 0.893147 0.128545
Si Si7 0.410607 0.143730 0.255375
Si Si8 0.914138 0.890634 0.880436
O O1 0.750000 0.392651 0.738859
O O2 0.594567 0.250000 0.733836
O O3 0.503056 0.392046 0.680955
O O4 0.519581 0.375258 0.805854
O O5 0.250000 0.113269 0.481741
O O6 0.416352 0.250000 0.487888
O O7 0.467197 0.112437 0.555675
O O8 0.507296 0.110371 0.431413
O O9 0.750000 0.884312 0.371719
O O10 0.920717 0.750000 0.376520
O O11 0.250000 0.609995 0.629248
O O12 0.412290 0.750000 0.629620
O O13 0.492466 0.608493 0.690436
O O14 0.250000 0.909199 0.995524
O O15 0.035712 0.858523 0.062926
O O16 0.012360 0.860420 0.936375
O O17 0.000000 0.000000 0.000000
O O18 0.250000 0.859505 0.134328
O O19 0.090752 0.000791 0.120950
O O20 0.250000 0.105613 0.256323
O O21 0.398345 0.250000 0.266638
O O22 0.466693 0.134392 0.186792
O O23 0.750000 0.859242 0.887558
#
# Coordination Sequence:
#
# PCOD9453225 Si02
#       8
#     8   8   8   8   8   8   8   8
#     4   9  16  26  41  60  83 111 139 166 199 243
#     4   8  13  22  36  53  76 108 141 169 200 242
#     4   8  14  24  37  55  81 110 138 170 207 243
#     4   9  16  24  36  57  84 110 136 170 209 246
#     4   9  16  28  46  65  85 109 139 176 213 248
#     4   8  15  28  44  62  83 107 136 168 203 244
#     4   9  17  29  44  61  83 112 142 171 209 257
#     4   9  17  30  47  64  83 109 141 176 211 250
#
# _framework density 20.857191
#
# number of rings (size 3 to 8) (size 9 to 14) (size 15 to 20)
#    0.000    3.375    0.000    2.250    0.000    2.500 
#    0.000    6.250    0.000    0.750    0.000    0.875 
#    0.000    0.000    0.000    0.000    0.000    0.000 
#
# Total GULP energy -356519.901925 kJ/mol
# GULP energy per Si atom -5570.623468 kJ/mol
# Density = 2.080972 g / cm^3
# Si number density = 20.857191 Si / 1000 Ang^3
#
#
#
# Elastic Constant Matrix: (Units=GPa)
#
#
# Indices 1 2 3 4 5 6 
#
# 1 78.3026 3.7267 108.6744 0.0000 0.0000 0.0000
# 2 3.7267 55.5446 0.5278 0.0000 0.0000 0.0000
# 3 108.6744 0.5278 272.0673 0.0000 0.0000 0.0000
# 4 0.0000 0.0000 0.0000 23.2188 0.0000 0.0000
# 5 0.0000 0.0000 0.0000 0.0000 38.6750 0.0000
# 6 0.0000 0.0000 0.0000 0.0000 0.0000 -8.3632
#
#
#
# Elastic Compliance Matrix: (Units=1/GPa)
#
#
# Indices 1 2 3 4 5 6 
#
# 1 0.028842 -0.001826 -0.011517 0.000000 0.000000 0.000000
# 2 -0.001826 0.018119 0.000694 0.000000 0.000000 0.000000
# 3 -0.011517 0.000694 0.008275 0.000000 0.000000 0.000000
# 4 0.000000 0.000000 0.000000 0.043069 0.000000 0.000000
# 5 0.000000 0.000000 0.000000 0.000000 0.025856 0.000000
# 6 0.000000 0.000000 0.000000 0.000000 0.000000 -0.119571
#
#
# Mechanical properties :
#
#
# Convention : Reuss Voigt Hill
#
# Bulk Modulus (GPa) = 33.40146 70.19692 51.79919
# Shear Modulus (GPa) = 125.41529 30.23849 77.82689
#
# Velocity S-wave (km/s) = 7.76280 3.81174 6.11516
# Velocity P-wave (km/s) = 9.81820 7.28708 8.64577
#
# Compressibility (1/GPa) = 0.02993881
#
# Stress axis : x y z
#
# Youngs Moduli (GPa) = 34.67123 55.18928 120.85103
#
# Poissons Ratio (x) = 0.10076 1.39187
# Poissons Ratio (y) = 0.06330 -0.08388
# Poissons Ratio (z) = 0.39932 -0.03831
#
# Static dielectric constant tensor:
#      x y z
#    x 1.706260 0.000000 0.000000 
#    y 0.000000 1.829420 0.000000 
#    z 0.000000 0.000000 1.788890 
# 
# From -- ./inp_files/29724.got.cif
#   From: 2010.05.17/outbox.cif.g08.bks.cpg/sg59_15_cif.got.tgz:29724.got - 2010.06.03 14:40:33.
