data_PCOD9453954
_publ_section_title
;
Structure prediction by ZEFSAII (Michael W. Deem and Ramdas Pophale) SiO2 
 PCOD9453954
Probable space group: P B C N
;
_chemical_formula_sum "Si O2"
_cell_formula_units_Z 48
_cell_length_a 17.944313
_cell_length_b 12.337943
_cell_length_c 8.176892
_cell_angle_alpha 90.000000
_cell_angle_beta 90.000000
_cell_angle_gamma 90.000000
_cell_volume 1810.330453
_symmetry_space_group_name_H-M "P B C N"
_symmetry_group_IT_number 60
_symmetry_cell_setting 'orthorhombic'
loop_
_space_group_symop_operation_xyz
x,y,z
1/2-x,1/2-y,1/2+z
1/2+x,1/2-y,-z
-x,y,1/2-z
-x,-y,-z
1/2+x,1/2+y,1/2-z
1/2-x,1/2+y,z
x,-y,1/2+z
loop_
_atom_site_type_symbol
_atom_site_label
_atom_site_fract_x
_atom_site_fract_y
_atom_site_fract_z
Si Si1 0.429725 0.203796 0.852205
Si Si2 0.299229 0.752366 0.102473
Si Si3 0.897362 0.063944 0.042628
Si Si4 0.232874 0.590049 0.332941
Si Si5 0.580713 0.112395 0.289006
Si Si6 0.889974 0.146197 0.674161
O O1 0.500000 0.166322 0.750000
O O2 0.359785 0.212831 0.733153
O O3 0.440461 0.330994 0.895305
O O4 0.415047 0.138822 0.018577
O O5 0.237242 0.688005 0.201111
O O6 0.276788 0.860114 0.011247
O O7 0.325987 0.670518 0.960608
O O8 0.818302 0.050250 0.146693
O O9 0.935370 0.948790 0.081376
O O10 0.879572 0.098429 0.856414
O O11 0.152073 0.544532 0.278595
O O12 0.500000 0.064247 0.250000
O O13 0.579691 0.231013 0.197629
#
# Coordination Sequence:
#
# PCOD9453954 Si02
#       6
#     8   8   8   8   8   8
#     4  10  19  31  48  71 102 138 172 207 251 303
#     4  10  18  31  49  71  98 132 169 213 254 301
#     4  10  20  32  50  74 102 137 171 210 254 301
#     4  10  18  31  50  73 100 132 171 214 252 296
#     4  10  21  35  52  75 105 139 172 210 255 305
#     4  10  20  34  50  74 104 134 172 208 255 308
#
# _framework density 26.514498
#
# number of rings (size 3 to 8) (size 9 to 14) (size 15 to 20)
#    0.000    2.000    0.000    8.000    0.000    0.667 
#    0.000    4.167    0.000    0.000    0.000    4.667 
#    0.000    6.667    0.000    0.667    0.000    0.000 
#
# Total GULP energy -268057.456729 kJ/mol
# GULP energy per Si atom -5584.530349 kJ/mol
# Density = 2.645415 g / cm^3
# Si number density = 26.514498 Si / 1000 Ang^3
#
#
#
# Elastic Constant Matrix: (Units=GPa)
#
#
# Indices 1 2 3 4 5 6 
#
# 1 108.1823 11.9844 45.7225 0.0000 0.0000 0.0000
# 2 11.9844 118.8405 35.0144 0.0000 0.0000 0.0000
# 3 45.7225 35.0144 120.8679 0.0000 0.0000 0.0000
# 4 0.0000 0.0000 0.0000 31.0673 0.0000 0.0000
# 5 0.0000 0.0000 0.0000 0.0000 58.4261 0.0000
# 6 0.0000 0.0000 0.0000 0.0000 0.0000 12.7876
#
#
#
# Elastic Compliance Matrix: (Units=1/GPa)
#
#
# Indices 1 2 3 4 5 6 
#
# 1 0.011005 0.000128 -0.004200 0.000000 0.000000 0.000000
# 2 0.000128 0.009201 -0.002714 0.000000 0.000000 0.000000
# 3 -0.004200 -0.002714 0.010648 0.000000 0.000000 0.000000
# 4 0.000000 0.000000 0.000000 0.032188 0.000000 0.000000
# 5 0.000000 0.000000 0.000000 0.000000 0.017116 0.000000
# 6 0.000000 0.000000 0.000000 0.000000 0.000000 0.078201
#
#
# Mechanical properties :
#
#
# Convention : Reuss Voigt Hill
#
# Bulk Modulus (GPa) = 57.86278 59.25927 58.56103
# Shear Modulus (GPa) = 28.13859 37.46748 32.80304
#
# Velocity S-wave (km/s) = 3.26122 3.76319 3.52116
# Velocity P-wave (km/s) = 6.00427 6.42499 6.21818
#
# Compressibility (1/GPa) = 0.01728227
#
# Stress axis : x y z
#
# Youngs Moduli (GPa) = 90.87152 108.67962 93.91074
#
# Poissons Ratio (x) = -0.01387 0.39441
# Poissons Ratio (y) = -0.01160 0.25486
# Poissons Ratio (z) = 0.38165 0.29494
#
# Static dielectric constant tensor:
#      x y z
#    x 1.899950 0.000000 0.000000 
#    y 0.000000 2.126170 0.000000 
#    z 0.000000 0.000000 1.990670 
# 
# From -- ./inp_files/6810.got.cif
#   From: 2010.05.17/outbox.cif.g08.bks.cpg/sg60_4_cif.got.tgz:6810.got - 2010.06.03 14:59:27.
