data_PCOD9453342
_publ_section_title
;
Structure prediction by ZEFSAII (Michael W. Deem and Ramdas Pophale) SiO2 
 PCOD9453342
Probable space group: P M M N
;
_chemical_formula_sum "Si O2"
_cell_formula_units_Z 48
_cell_length_a 9.000000
_cell_length_b 24.000000
_cell_length_c 12.000000
_cell_angle_alpha 90.000000
_cell_angle_beta 90.000000
_cell_angle_gamma 90.000000
_cell_volume 2592.000000
_symmetry_space_group_name_H-M "P M M N"
_symmetry_group_IT_number 59
_space_group.IT_coordinate_system_code '2'
_symmetry_cell_setting 'orthorhombic'
loop_
_space_group_symop_operation_xyz
x,y,z
1/2-x,1/2-y,z
1/2+x,-y,-z
-x,1/2+y,-z
-x,-y,-z
1/2+x,1/2+y,-z
1/2-x,y,z
x,1/2-y,z
loop_
_atom_site_type_symbol
_atom_site_label
_atom_site_fract_x
_atom_site_fract_y
_atom_site_fract_z
Si Si1 0.081758 0.816611 0.706315
Si Si2 0.576665 0.602177 0.856616
Si Si3 0.927482 0.993824 0.124086
Si Si4 0.414585 0.682281 0.450072
Si Si5 0.088346 0.316212 0.754959
Si Si6 0.422763 0.613176 0.093229
O O1 0.250000 0.831613 0.744384
O O2 0.070153 0.750000 0.712663
O O3 0.066813 0.833893 0.577796
O O4 0.958464 0.846580 0.777814
O O5 0.750000 0.589894 0.867670
O O6 0.488123 0.547916 0.813621
O O7 0.506249 0.616456 0.976030
O O8 0.750000 0.992274 0.118588
O O9 0.999092 0.936304 0.162979
O O10 0.000000 0.000000 0.000000
O O11 0.250000 0.664668 0.411585
O O12 0.415007 0.750000 0.449584
O O13 0.540785 0.662883 0.366573
O O14 0.250000 0.337823 0.791026
O O15 0.097653 0.250000 0.749277
O O16 0.958793 0.331882 0.839102
O O17 0.250000 0.602193 0.076743
#
# Coordination Sequence:
#
# PCOD9453342 Si02
#       6
#     8   8   8   8   8   8
#     4   9  18  33  52  74 101 133 168 204 244 291
#     4  11  21  33  50  74 103 132 165 203 246 294
#     4  10  18  32  52  72  96 126 164 204 243 289
#     4   8  15  30  51  72  95 127 167 205 240 285
#     4  10  20  33  50  74 103 132 164 203 246 292
#     4  11  21  34  52  73  99 131 167 204 246 294
#
# _framework density 18.518519000000001
#
# number of rings (size 3 to 8) (size 9 to 14) (size 15 to 20)
#    0.000    2.167    0.000    8.000    0.000    2.667 
#    0.000    1.667    0.000    1.000    0.000    0.000 
#    0.000    0.000    0.000    0.000    0.000    0.000 
#
# Total GULP energy -267249.242055 kJ/mol
# GULP energy per Si atom -5567.692543 kJ/mol
# Density = 1.847637 g / cm^3
# Si number density = 18.518519 Si / 1000 Ang^3
#
#
#
# Elastic Constant Matrix: (Units=GPa)
#
#
# Indices 1 2 3 4 5 6 
#
# 1 136.0062 29.3848 27.9157 0.0000 0.0000 0.0000
# 2 29.3848 28.6275 16.5484 0.0000 0.0000 0.0000
# 3 27.9157 16.5484 30.6755 0.0000 0.0000 0.0000
# 4 0.0000 0.0000 0.0000 115.1590 0.0000 0.0000
# 5 0.0000 0.0000 0.0000 0.0000 28.0092 0.0000
# 6 0.0000 0.0000 0.0000 0.0000 0.0000 26.3475
#
#
#
# Elastic Compliance Matrix: (Units=1/GPa)
#
#
# Indices 1 2 3 4 5 6 
#
# 1 0.009982 -0.007258 -0.005168 0.000000 0.000000 0.000000
# 2 -0.007258 0.056039 -0.023626 0.000000 0.000000 0.000000
# 3 -0.005168 -0.023626 0.050048 0.000000 0.000000 0.000000
# 4 0.000000 0.000000 0.000000 0.008684 0.000000 0.000000
# 5 0.000000 0.000000 0.000000 0.000000 0.035703 0.000000
# 6 0.000000 0.000000 0.000000 0.000000 0.000000 0.037954
#
#
# Mechanical properties :
#
#
# Convention : Reuss Voigt Hill
#
# Bulk Modulus (GPa) = 22.74585 38.11188 30.42887
# Shear Modulus (GPa) = 17.53358 42.00049 29.76704
#
# Velocity S-wave (km/s) = 3.08037 4.76755 4.01361
# Velocity P-wave (km/s) = 4.99610 7.13660 6.16004
#
# Compressibility (1/GPa) = 0.04396406
#
# Stress axis : x y z
#
# Youngs Moduli (GPa) = 100.18516 17.84479 19.98093
#
# Poissons Ratio (x) = 0.12952 0.10326
# Poissons Ratio (y) = 0.72716 0.47207
# Poissons Ratio (z) = 0.51776 0.42160
#
# Static dielectric constant tensor:
#      x y z
#    x 1.657460 0.000000 0.000000 
#    y 0.000000 1.754010 0.000000 
#    z 0.000000 0.000000 1.645260 
# 
# From -- ./inp_files/14306.got.cif
#   From: 2010.05.17/outbox.ucp.g08.bks.cvg/sg59_8_cif.got.tgz:14306.got - 2010.06.11 16:43:56.
