data_PCOD9453963
_publ_section_title
;
Structure prediction by ZEFSAII (Michael W. Deem and Ramdas Pophale) SiO2 
 PCOD9453963
Probable space group: P B C N
;
_chemical_formula_sum "Si O2"
_cell_formula_units_Z 60
_cell_length_a 13.958707
_cell_length_b 12.179921
_cell_length_c 18.453286
_cell_angle_alpha 90.000000
_cell_angle_beta 90.000000
_cell_angle_gamma 90.000000
_cell_volume 3137.352923
_symmetry_space_group_name_H-M "P B C N"
_symmetry_group_IT_number 60
_symmetry_cell_setting 'orthorhombic'
loop_
_space_group_symop_operation_xyz
x,y,z
1/2-x,1/2-y,1/2+z
1/2+x,1/2-y,-z
-x,y,1/2-z
-x,-y,-z
1/2+x,1/2+y,1/2-z
1/2-x,1/2+y,z
x,-y,1/2+z
loop_
_atom_site_type_symbol
_atom_site_label
_atom_site_fract_x
_atom_site_fract_y
_atom_site_fract_z
Si Si1 0.883414 0.105310 0.357249
Si Si2 0.226489 0.730065 0.078070
Si Si3 0.955269 0.753035 0.573903
Si Si4 0.000000 0.955472 0.250000
Si Si5 0.110459 0.133184 0.884398
Si Si6 0.686364 0.918685 0.060900
Si Si7 0.617941 0.842197 0.524715
Si Si8 0.412704 0.595069 0.547725
O O1 0.783775 0.171109 0.357216
O O2 0.968120 0.191333 0.373975
O O3 0.873698 0.020986 0.425564
O O4 0.923411 0.031369 0.292707
O O5 0.138607 0.810170 0.096285
O O6 0.196775 0.640112 0.017870
O O7 0.302642 0.806322 0.034614
O O8 0.879416 0.667715 0.604888
O O9 0.901987 0.852978 0.531938
O O10 0.017257 0.684757 0.514361
O O11 0.063125 0.886770 0.306775
O O12 0.210106 0.073386 0.901506
O O13 0.126682 0.258708 0.908101
O O14 0.025929 0.091204 0.937570
O O15 0.636418 0.034838 0.049269
#
# Coordination Sequence:
#
# PCOD9453963 Si02
#       8
#     8   8   8   4   8   8   8   8
#     4  10  19  34  51  71 100 136 175 215 252 292
#     4   9  18  29  49  80 104 127 162 204 265 327
#     4   9  18  30  52  83 107 131 162 204 266 327
#     4  10  22  38  52  66  98 144 186 228 246 278
#     4   9  20  34  49  72  99 138 182 208 249 305
#     4  10  18  31  54  83 108 131 161 209 266 323
#     4   9  17  31  51  79 111 130 155 209 268 321
#     4   9  17  31  50  74 104 131 161 209 264 316
#
# _framework density 19.124403000000001
#
# number of rings (size 3 to 8) (size 9 to 14) (size 15 to 20)
#    0.000    2.667    0.000    2.400    0.000    8.533 
#    0.000    5.333    0.000    0.800    0.000    0.000 
#    0.000    0.000    0.000    0.000    0.000    0.000 
#
# Total GULP energy -334358.460590 kJ/mol
# GULP energy per Si atom -5572.641010 kJ/mol
# Density = 1.908088 g / cm^3
# Si number density = 19.124403 Si / 1000 Ang^3
#
#
#
# Elastic Constant Matrix: (Units=GPa)
#
#
# Indices 1 2 3 4 5 6 
#
# 1 83.7424 30.3342 10.2084 0.0000 0.0000 0.0000
# 2 30.3342 96.8696 11.7443 0.0000 0.0000 0.0000
# 3 10.2084 11.7443 46.5453 0.0000 0.0000 0.0000
# 4 0.0000 0.0000 0.0000 15.6176 0.0000 0.0000
# 5 0.0000 0.0000 0.0000 0.0000 15.0768 0.0000
# 6 0.0000 0.0000 0.0000 0.0000 0.0000 33.0732
#
#
#
# Elastic Compliance Matrix: (Units=1/GPa)
#
#
# Indices 1 2 3 4 5 6 
#
# 1 0.013643 -0.004033 -0.001975 0.000000 0.000000 0.000000
# 2 -0.004033 0.011841 -0.002103 0.000000 0.000000 0.000000
# 3 -0.001975 -0.002103 0.022448 0.000000 0.000000 0.000000
# 4 0.000000 0.000000 0.000000 0.064030 0.000000 0.000000
# 5 0.000000 0.000000 0.000000 0.000000 0.066327 0.000000
# 6 0.000000 0.000000 0.000000 0.000000 0.000000 0.030236
#
#
# Mechanical properties :
#
#
# Convention : Reuss Voigt Hill
#
# Bulk Modulus (GPa) = 31.53501 36.85902 34.19701
# Shear Modulus (GPa) = 21.24793 24.41155 22.82974
#
# Velocity S-wave (km/s) = 3.33684 3.57664 3.45882
# Velocity P-wave (km/s) = 5.60100 6.03088 5.81991
#
# Compressibility (1/GPa) = 0.03171079
#
# Stress axis : x y z
#
# Youngs Moduli (GPa) = 73.29817 84.45230 44.54695
#
# Poissons Ratio (x) = 0.34058 0.08796
# Poissons Ratio (y) = 0.29560 0.09369
# Poissons Ratio (z) = 0.14474 0.17762
#
# Static dielectric constant tensor:
#      x y z
#    x 1.721230 0.000000 0.000000 
#    y 0.000000 1.693870 0.000000 
#    z 0.000000 0.000000 1.670100 
# 
# From -- ./inp_files/22987.got.cif
#   From: 2010.05.17/outbox.cif.g08.bks.cpg/sg60_12_cif.got.tgz:22987.got - 2010.06.03 14:59:27.
