data_PCOD9453782
_publ_section_title
;
Structure prediction by ZEFSAII (Michael W. Deem and Ramdas Pophale) SiO2 
 PCOD9453782
Probable space group: P B C N
;
_chemical_formula_sum "Si O2"
_cell_formula_units_Z 32
_cell_length_a 17.478527
_cell_length_b 25.134145
_cell_length_c 5.027556
_cell_angle_alpha 90.000000
_cell_angle_beta 90.000000
_cell_angle_gamma 90.000000
_cell_volume 2208.644727
_symmetry_space_group_name_H-M "P B C N"
_symmetry_group_IT_number 60
_symmetry_cell_setting 'orthorhombic'
loop_
_space_group_symop_operation_xyz
x,y,z
1/2-x,1/2-y,1/2+z
1/2+x,1/2-y,-z
-x,y,1/2-z
-x,-y,-z
1/2+x,1/2+y,1/2-z
1/2-x,1/2+y,z
x,-y,1/2+z
loop_
_atom_site_type_symbol
_atom_site_label
_atom_site_fract_x
_atom_site_fract_y
_atom_site_fract_z
Si Si1 0.088164 0.035981 0.208890
Si Si2 0.411138 0.704177 0.817621
Si Si3 0.158513 0.853117 0.818458
Si Si4 0.283201 0.222613 0.205408
O O1 0.142208 0.085417 0.268867
O O2 0.000000 0.054427 0.250000
O O3 0.098256 0.987744 0.416124
O O4 0.500000 0.705718 0.750000
O O5 0.369202 0.664773 0.608975
O O6 0.369380 0.761114 0.775865
O O7 0.392121 0.680992 0.107704
O O8 0.245663 0.834102 0.768271
O O9 0.234550 0.261702 0.401762
#
# Coordination Sequence:
#
# PCOD9453782 Si02
#       4
#     8   8   8   8
#     4  10  19  28  38  54  75  99 131 164 186 212
#     4  10  17  26  42  61  79 101 129 156 188 232
#     4  10  18  29  41  55  79 108 130 155 193 226
#     4   8  16  27  39  56  77 100 126 155 187 228
#
# _framework density 14.488523000000001
#
# number of rings (size 3 to 8) (size 9 to 14) (size 15 to 20)
#    0.000    2.500    0.000    3.750    0.000    2.000 
#    0.000    0.000    0.000    0.000    0.000    0.000 
#    0.000    2.000    0.000    0.000    0.000    8.500 
#
# Total GULP energy -178240.936102 kJ/mol
# GULP energy per Si atom -5570.029253 kJ/mol
# Density = 1.445555 g / cm^3
# Si number density = 14.488523 Si / 1000 Ang^3
#
#
#
# Elastic Constant Matrix: (Units=GPa)
#
#
# Indices 1 2 3 4 5 6 
#
# 1 24.4308 12.4732 -10.9031 0.0000 0.0000 0.0000
# 2 12.4732 48.9501 -12.7994 0.0000 0.0000 0.0000
# 3 -10.9031 -12.7994 49.0680 0.0000 0.0000 0.0000
# 4 0.0000 0.0000 0.0000 7.4342 0.0000 0.0000
# 5 0.0000 0.0000 0.0000 0.0000 13.7059 0.0000
# 6 0.0000 0.0000 0.0000 0.0000 0.0000 15.3313
#
#
#
# Elastic Compliance Matrix: (Units=1/GPa)
#
#
# Indices 1 2 3 4 5 6 
#
# 1 0.050062 -0.010569 0.008367 0.000000 0.000000 0.000000
# 2 -0.010569 0.024156 0.003953 0.000000 0.000000 0.000000
# 3 0.008367 0.003953 0.023270 0.000000 0.000000 0.000000
# 4 0.000000 0.000000 0.000000 0.134513 0.000000 0.000000
# 5 0.000000 0.000000 0.000000 0.000000 0.072961 0.000000
# 6 0.000000 0.000000 0.000000 0.000000 0.000000 0.065226
#
#
# Mechanical properties :
#
#
# Convention : Reuss Voigt Hill
#
# Bulk Modulus (GPa) = 9.90202 11.11003 10.50602
# Shear Modulus (GPa) = 12.48909 16.20617 14.34763
#
# Velocity S-wave (km/s) = 2.93917 3.34810 3.15028
# Velocity P-wave (km/s) = 4.28573 4.75723 4.52762
#
# Compressibility (1/GPa) = 0.10098953
#
# Stress axis : x y z
#
# Youngs Moduli (GPa) = 19.97528 41.39835 42.97359
#
# Poissons Ratio (x) = 0.43753 -0.35956
# Poissons Ratio (y) = 0.21111 -0.16986
# Poissons Ratio (z) = -0.16713 -0.16363
#
# Static dielectric constant tensor:
#      x y z
#    x 1.489170 0.000000 0.000000 
#    y 0.000000 1.475660 0.000000 
#    z 0.000000 0.000000 1.493980 
# 
# From -- ./inp_files/439.got.cif
#   From: 2010.05.17/outbox.cif.g08.bks.cpg/sg60_1_cif.got.tgz:439.got - 2010.06.03 14:59:27.
