data_PCOD9453272
_publ_section_title
;
Structure prediction by ZEFSAII (Michael W. Deem and Ramdas Pophale) SiO2 
 PCOD9453272
Probable space group: P M M N
;
_chemical_formula_sum "Si O2"
_cell_formula_units_Z 48
_cell_length_a 14.858922
_cell_length_b 7.386087
_cell_length_c 18.828750
_cell_angle_alpha 90.000000
_cell_angle_beta 90.000000
_cell_angle_gamma 90.000000
_cell_volume 2066.441956
_symmetry_space_group_name_H-M "P M M N"
_symmetry_group_IT_number 59
_space_group.IT_coordinate_system_code '2'
_symmetry_cell_setting 'orthorhombic'
loop_
_space_group_symop_operation_xyz
x,y,z
1/2-x,1/2-y,z
1/2+x,-y,-z
-x,1/2+y,-z
-x,-y,-z
1/2+x,1/2+y,-z
1/2-x,y,z
x,1/2-y,z
loop_
_atom_site_type_symbol
_atom_site_label
_atom_site_fract_x
_atom_site_fract_y
_atom_site_fract_z
Si Si1 0.850161 0.961022 0.621740
Si Si2 0.033935 0.972767 0.675431
Si Si3 0.947247 0.462425 0.171449
Si Si4 0.897164 0.034667 0.022127
Si Si5 0.646537 0.468231 0.460367
Si Si6 0.846659 0.469111 0.869636
O O1 0.750000 0.041119 0.627482
O O2 0.842967 0.750000 0.639877
O O3 0.930876 0.036144 0.668202
O O4 0.880115 0.970934 0.539198
O O5 0.034022 0.750000 0.675333
O O6 0.073559 0.034187 0.750434
O O7 0.087167 0.030678 0.605427
O O8 0.925585 0.250000 0.172265
O O9 0.056255 0.474131 0.160926
O O10 0.895222 0.538499 0.102554
O O11 0.879498 0.250000 0.025872
O O12 0.845989 0.969023 0.952343
O O13 0.000000 0.000000 0.000000
O O14 0.750000 0.524582 0.450324
O O15 0.643697 0.250000 0.461349
O O16 0.750000 0.525316 0.836638
O O17 0.848766 0.250000 0.868702
#
# Coordination Sequence:
#
# PCOD9453272 Si02
#       6
#     8   8   8   8   8   8
#     4   9  17  29  45  64  86 114 147 181 216 256
#     4   9  17  29  45  66  91 116 143 178 221 264
#     4   9  17  29  45  64  86 113 145 178 211 254
#     4   8  14  26  43  60  79 106 139 171 203 242
#     4   9  17  30  47  65  86 113 145 182 221 259
#     4   9  17  29  44  63  88 115 142 176 218 259
#
# _framework density 23.228332000000002
#
# number of rings (size 3 to 8) (size 9 to 14) (size 15 to 20)
#    0.000    3.167    0.000    0.500    0.000    1.000 
#    0.000    4.167    0.000    7.000    0.000    0.000 
#    0.000    4.000    0.000    0.000    0.000    0.000 
#
# Total GULP energy -267580.546380 kJ/mol
# GULP energy per Si atom -5574.594716 kJ/mol
# Density = 2.317546 g / cm^3
# Si number density = 23.228332 Si / 1000 Ang^3
#
#
#
# Elastic Constant Matrix: (Units=GPa)
#
#
# Indices 1 2 3 4 5 6 
#
# 1 16.9921 -6.7215 -1.7102 0.0000 0.0000 0.0000
# 2 -6.7215 84.8246 -4.5915 0.0000 0.0000 0.0000
# 3 -1.7102 -4.5915 68.0980 0.0000 0.0000 0.0000
# 4 0.0000 0.0000 0.0000 1.6928 0.0000 0.0000
# 5 0.0000 0.0000 0.0000 0.0000 11.8198 0.0000
# 6 0.0000 0.0000 0.0000 0.0000 0.0000 0.4903
#
#
#
# Elastic Compliance Matrix: (Units=1/GPa)
#
#
# Indices 1 2 3 4 5 6 
#
# 1 0.060990 0.004934 0.001864 0.000000 0.000000 0.000000
# 2 0.004934 0.012231 0.000949 0.000000 0.000000 0.000000
# 3 0.001864 0.000949 0.014796 0.000000 0.000000 0.000000
# 4 0.000000 0.000000 0.000000 0.590728 0.000000 0.000000
# 5 0.000000 0.000000 0.000000 0.000000 0.084604 0.000000
# 6 0.000000 0.000000 0.000000 0.000000 0.000000 2.039382
#
#
# Mechanical properties :
#
#
# Convention : Reuss Voigt Hill
#
# Bulk Modulus (GPa) = 9.66086 15.98536 12.82311
# Shear Modulus (GPa) = 1.77196 14.99646 8.38421
#
# Velocity S-wave (km/s) = 0.87436 2.54364 1.90192
# Velocity P-wave (km/s) = 2.27760 3.94000 3.21800
#
# Compressibility (1/GPa) = 0.10351048
#
# Stress axis : x y z
#
# Youngs Moduli (GPa) = 16.39610 81.75723 67.58809
#
# Poissons Ratio (x) = -0.40337 -0.12601
# Poissons Ratio (y) = -0.08089 -0.06411
# Poissons Ratio (z) = -0.03057 -0.07756
#
# Static dielectric constant tensor:
#      x y z
#    x 1.872630 0.000000 0.000000 
#    y 0.000000 1.873150 0.000000 
#    z 0.000000 0.000000 1.890690 
# 
# From -- ./inp_files/23168.got.cif
#   From: 2010.05.17/outbox.cif.g08.bks.cpg/sg59_12_cif.got.tgz:23168.got - 2010.06.03 14:40:33.
