data_PCOD9453350
_publ_section_title
;
Structure prediction by ZEFSAII (Michael W. Deem and Ramdas Pophale) SiO2 
 PCOD9453350
Probable space group: P M M N
;
_chemical_formula_sum "Si O2"
_cell_formula_units_Z 56
_cell_length_a 21.000000
_cell_length_b 9.000000
_cell_length_c 15.000000
_cell_angle_alpha 90.000000
_cell_angle_beta 90.000000
_cell_angle_gamma 90.000000
_cell_volume 2835.000000
_symmetry_space_group_name_H-M "P M M N"
_symmetry_group_IT_number 59
_space_group.IT_coordinate_system_code '2'
_symmetry_cell_setting 'orthorhombic'
loop_
_space_group_symop_operation_xyz
x,y,z
1/2-x,1/2-y,z
1/2+x,-y,-z
-x,1/2+y,-z
-x,-y,-z
1/2+x,1/2+y,-z
1/2-x,y,z
x,1/2-y,z
loop_
_atom_site_type_symbol
_atom_site_label
_atom_site_fract_x
_atom_site_fract_y
_atom_site_fract_z
Si Si1 0.179772 0.576745 0.987275
Si Si2 0.004526 0.077671 0.230889
Si Si3 0.140465 0.916315 0.790061
Si Si4 0.325638 0.087832 0.620532
Si Si5 0.174683 0.574973 0.444607
Si Si6 0.541016 0.570862 0.580072
Si Si7 0.943548 0.927623 0.943443
O O1 0.250000 0.541364 0.021468
O O2 0.165332 0.750000 0.007455
O O3 0.124820 0.471910 0.021244
O O4 0.178620 0.564855 0.880267
O O5 0.023060 0.250000 0.242140
O O6 0.934353 0.076373 0.189491
O O7 0.005569 0.017705 0.329857
O O8 0.050420 0.011834 0.157360
O O9 0.153935 0.750000 0.754056
O O10 0.153039 0.038768 0.717016
O O11 0.250000 0.099951 0.623251
O O12 0.351755 0.250000 0.593515
O O13 0.337959 0.960209 0.548869
O O14 0.250000 0.532313 0.426110
O O15 0.168962 0.750000 0.425776
O O16 0.114534 0.483434 0.405971
O O17 0.500000 0.500000 0.500000
O O18 0.539388 0.750000 0.570017
O O19 0.952153 0.750000 0.944397
O O20 0.000000 0.000000 0.000000
#
# Coordination Sequence:
#
# PCOD9453350 Si02
#       7
#     8   8   8   8   8   8   8
#     4  10  21  37  58  86 120 157 196 243 301 357
#     4   9  20  37  58  83 112 149 194 238 291 355
#     4  10  18  33  55  78 110 151 191 232 289 360
#     4  10  20  32  48  76 112 146 187 239 292 351
#     4  10  21  38  58  79 109 154 202 247 301 360
#     4  11  22  38  61  90 122 155 195 250 303 355
#     4  11  21  39  63  86 115 154 200 245 291 347
#
# _framework density 19.753086
#
# number of rings (size 3 to 8) (size 9 to 14) (size 15 to 20)
#    0.000    1.857    1.429    3.000    0.000    4.286 
#    0.000    4.286    0.000    4.286    0.000    0.000 
#    0.000    0.000    0.000    0.000    0.000    0.000 
#
# Total GULP energy -311855.670476 kJ/mol
# GULP energy per Si atom -5568.851258 kJ/mol
# Density = 1.970813 g / cm^3
# Si number density = 19.753086 Si / 1000 Ang^3
#
#
#
# Elastic Constant Matrix: (Units=GPa)
#
#
# Indices 1 2 3 4 5 6 
#
# 1 44.0545 50.5081 43.1828 0.0000 0.0000 0.0000
# 2 50.5081 52.6550 16.7344 0.0000 0.0000 0.0000
# 3 43.1828 16.7344 69.2608 0.0000 0.0000 0.0000
# 4 0.0000 0.0000 0.0000 17.3204 0.0000 0.0000
# 5 0.0000 0.0000 0.0000 0.0000 25.8844 0.0000
# 6 0.0000 0.0000 0.0000 0.0000 0.0000 31.8071
#
#
#
# Elastic Compliance Matrix: (Units=1/GPa)
#
#
# Indices 1 2 3 4 5 6 
#
# 1 -0.062871 0.051829 0.026676 0.000000 0.000000 0.000000
# 2 0.051829 -0.022156 -0.026961 0.000000 0.000000 0.000000
# 3 0.026676 -0.026961 0.004320 0.000000 0.000000 0.000000
# 4 0.000000 0.000000 0.000000 0.057735 0.000000 0.000000
# 5 0.000000 0.000000 0.000000 0.000000 0.038633 0.000000
# 6 0.000000 0.000000 0.000000 0.000000 0.000000 0.031440
#
#
# Mechanical properties :
#
#
# Convention : Reuss Voigt Hill
#
# Bulk Modulus (GPa) = 44.67939 42.98011 43.82975
# Shear Modulus (GPa) = -103.04017 18.70537 -42.16740
#
# Velocity S-wave (km/s) = -7.23031 3.08061 -4.62532
# Velocity P-wave (km/s) = 6.85821 5.87022 2.50755
#
# Compressibility (1/GPa) = 0.02238169
#
# Stress axis : x y z
#
# Youngs Moduli (GPa) = -15.90567 -45.13503 231.45621
#
# Poissons Ratio (x) = 2.33931 -6.17432
# Poissons Ratio (y) = 0.82438 6.24039
# Poissons Ratio (z) = 0.42430 -1.21690
#
# Static dielectric constant tensor:
#      x y z
#    x 1.757010 0.000000 0.000000 
#    y 0.000000 1.688450 0.000000 
#    z 0.000000 0.000000 1.807610 
# 
# From -- ./inp_files/24242.got.cif
#   From: 2010.05.17/outbox.ucp.g08.bks.cvg/sg59_13_cif.got.tgz:24242.got - 2010.06.11 16:43:56.
