data_PCOD9453593
_publ_section_title
;
Structure prediction by ZEFSAII (Michael W. Deem and Ramdas Pophale) SiO2 
 PCOD9453593
Probable space group: P M M N
;
_chemical_formula_sum "Si O2"
_cell_formula_units_Z 56
_cell_length_a 15.000000
_cell_length_b 9.000000
_cell_length_c 21.000000
_cell_angle_alpha 90.000000
_cell_angle_beta 90.000000
_cell_angle_gamma 90.000000
_cell_volume 2835.000000
_symmetry_space_group_name_H-M "P M M N"
_symmetry_group_IT_number 59
_space_group.IT_coordinate_system_code '2'
_symmetry_cell_setting 'orthorhombic'
loop_
_space_group_symop_operation_xyz
x,y,z
1/2-x,1/2-y,z
1/2+x,-y,-z
-x,1/2+y,-z
-x,-y,-z
1/2+x,1/2+y,-z
1/2-x,y,z
x,1/2-y,z
loop_
_atom_site_type_symbol
_atom_site_label
_atom_site_fract_x
_atom_site_fract_y
_atom_site_fract_z
Si Si1 0.651513 0.072627 0.333880
Si Si2 0.996616 0.571660 0.569685
Si Si3 0.857496 0.422064 0.071570
Si Si4 0.604195 0.582872 0.203456
Si Si5 0.351903 0.576220 0.343450
Si Si6 0.857129 0.422194 0.933202
Si Si7 0.394020 0.580424 0.204844
O O1 0.750000 0.039569 0.358729
O O2 0.641858 0.250000 0.326767
O O3 0.578295 0.022388 0.384615
O O4 0.642669 0.004195 0.263618
O O5 0.998867 0.750000 0.563926
O O6 0.910846 0.517114 0.608560
O O7 0.000000 0.500000 0.500000
O O8 0.750000 0.420834 0.070851
O O9 0.886958 0.250000 0.076284
O O10 0.883756 0.509246 0.134548
O O11 0.886769 0.484176 0.002085
O O12 0.639963 0.750000 0.201819
O O13 0.498923 0.588289 0.215080
O O14 0.250000 0.575503 0.363986
O O15 0.382450 0.750000 0.341685
O O16 0.356581 0.516976 0.270557
O O17 0.750000 0.418572 0.934845
O O18 0.889613 0.250000 0.931973
O O19 0.880358 0.491527 0.864743
O O20 0.357228 0.750000 0.199776
#
# Coordination Sequence:
#
# PCOD9453593 Si02
#       7
#     8   8   8   8   8   8   8
#     4  10  22  41  63  85 112 152 198 237 279 337
#     4  11  24  42  65  92 124 155 189 237 290 344
#     4   9  18  32  49  70 100 141 190 239 284 338
#     4  11  21  32  51  80 113 145 183 237 295 344
#     4  10  20  37  63  91 121 159 198 237 286 346
#     4   8  14  27  48  72  99 138 189 238 281 332
#     4   9  17  30  50  79 112 143 186 240 286 333
#
# _framework density 19.753086
#
# number of rings (size 3 to 8) (size 9 to 14) (size 15 to 20)
#    0.000    2.286    1.429    2.571    0.000    6.000 
#    0.000    1.429    0.000    1.714    0.000    2.000 
#    0.000    0.000    0.000    0.000    0.000    0.000 
#
# Total GULP energy -312076.599451 kJ/mol
# GULP energy per Si atom -5572.796419 kJ/mol
# Density = 1.970813 g / cm^3
# Si number density = 19.753086 Si / 1000 Ang^3
#
#
#
# Elastic Constant Matrix: (Units=GPa)
#
#
# Indices 1 2 3 4 5 6 
#
# 1 82.1530 24.6689 48.1406 0.0000 0.0000 0.0000
# 2 24.6689 27.2897 40.8885 0.0000 0.0000 0.0000
# 3 48.1406 40.8885 181.6587 0.0000 0.0000 0.0000
# 4 0.0000 0.0000 0.0000 19.4597 0.0000 0.0000
# 5 0.0000 0.0000 0.0000 0.0000 41.9535 0.0000
# 6 0.0000 0.0000 0.0000 0.0000 0.0000 14.7809
#
#
#
# Elastic Compliance Matrix: (Units=1/GPa)
#
#
# Indices 1 2 3 4 5 6 
#
# 1 0.017002 -0.013004 -0.001579 0.000000 0.000000 0.000000
# 2 -0.013004 0.065237 -0.011238 0.000000 0.000000 0.000000
# 3 -0.001579 -0.011238 0.008453 0.000000 0.000000 0.000000
# 4 0.000000 0.000000 0.000000 0.051388 0.000000 0.000000
# 5 0.000000 0.000000 0.000000 0.000000 0.023836 0.000000
# 6 0.000000 0.000000 0.000000 0.000000 0.000000 0.067655
#
#
# Mechanical properties :
#
#
# Convention : Reuss Voigt Hill
#
# Bulk Modulus (GPa) = 25.60769 57.61082 41.60925
# Shear Modulus (GPa) = 16.76566 27.06570 21.91568
#
# Velocity S-wave (km/s) = 2.91651 3.70564 3.33450
# Velocity P-wave (km/s) = 4.93289 6.89477 5.99463
#
# Compressibility (1/GPa) = 0.03905077
#
# Stress axis : x y z
#
# Youngs Moduli (GPa) = 58.81525 15.32881 118.30697
#
# Poissons Ratio (x) = 0.19934 0.18677
# Poissons Ratio (y) = 0.76484 1.32948
# Poissons Ratio (z) = 0.09285 0.17226
#
# Static dielectric constant tensor:
#      x y z
#    x 1.723210 0.000000 0.000000 
#    y 0.000000 1.714640 0.000000 
#    z 0.000000 0.000000 1.705180 
# 
# From -- ./inp_files/30415.got.cif
#   From: 2010.05.17/outbox.ucp.g08.bks.cvg/sg59_16_cif.got.tgz:30415.got - 2010.06.11 16:43:56.
