data_PCOD9453930
_publ_section_title
;
Structure prediction by ZEFSAII (Michael W. Deem and Ramdas Pophale) SiO2 
 PCOD9453930
Probable space group: P B C N
;
_chemical_formula_sum "Si O2"
_cell_formula_units_Z 56
_cell_length_a 25.317302
_cell_length_b 5.371489
_cell_length_c 18.969183
_cell_angle_alpha 90.000000
_cell_angle_beta 90.000000
_cell_angle_gamma 90.000000
_cell_volume 2579.649721
_symmetry_space_group_name_H-M "P B C N"
_symmetry_group_IT_number 60
_symmetry_cell_setting 'orthorhombic'
loop_
_space_group_symop_operation_xyz
x,y,z
1/2-x,1/2-y,1/2+z
1/2+x,1/2-y,-z
-x,y,1/2-z
-x,-y,-z
1/2+x,1/2+y,1/2-z
1/2-x,1/2+y,z
x,-y,1/2+z
loop_
_atom_site_type_symbol
_atom_site_label
_atom_site_fract_x
_atom_site_fract_y
_atom_site_fract_z
Si Si1 0.895469 0.244767 0.431612
Si Si2 0.049869 0.247861 0.923867
Si Si3 0.894762 0.252258 0.075413
Si Si4 0.717170 0.737142 0.454429
Si Si5 0.925774 0.256315 0.910272
Si Si6 0.280022 0.797615 0.209727
Si Si7 0.784769 0.811443 0.640557
O O1 0.943034 0.245754 0.489888
O O2 0.842905 0.243989 0.480695
O O3 0.900875 0.488718 0.384234
O O4 0.901494 0.000345 0.384634
O O5 0.080189 0.491894 0.896983
O O6 0.988420 0.258592 0.906231
O O7 0.076006 0.993946 0.897012
O O8 0.832791 0.230228 0.088101
O O9 0.906991 0.255962 0.992023
O O10 0.748854 0.483989 0.470253
O O11 0.704346 0.746373 0.370431
O O12 0.232087 0.592477 0.215354
O O13 0.309657 0.719924 0.280783
O O14 0.742898 0.582266 0.633356
#
# Coordination Sequence:
#
# PCOD9453930 Si02
#       7
#     8   8   8   8   8   8   8
#     4  10  18  30  48  69  90 119 156 186 224 267
#     4  10  19  33  48  67  90 119 157 194 222 264
#     4  10  18  30  48  69  90 119 156 186 224 267
#     4  10  19  32  47  69  96 122 150 184 221 270
#     4  10  19  33  48  67  90 119 157 194 222 264
#     4   8  16  30  48  64  87 120 153 184 218 258
#     4  10  19  32  47  69  96 122 150 184 221 270
#
# _framework density 21.708372000000001
#
# number of rings (size 3 to 8) (size 9 to 14) (size 15 to 20)
#    0.000    2.286    0.000    6.000    0.000    0.000 
#    0.000   17.143    0.000    0.000    0.000   11.000 
#    0.000    0.000    0.000    0.000    0.000    0.000 
#
# Total GULP energy -312201.238881 kJ/mol
# GULP energy per Si atom -5575.022123 kJ/mol
# Density = 2.165896 g / cm^3
# Si number density = 21.708372 Si / 1000 Ang^3
#
#
#
# Elastic Constant Matrix: (Units=GPa)
#
#
# Indices 1 2 3 4 5 6 
#
# 1 85.0397 44.1507 -2.1967 0.0000 0.0000 0.0000
# 2 44.1507 215.2065 -8.4342 0.0000 0.0000 0.0000
# 3 -2.1967 -8.4342 26.9555 0.0000 0.0000 0.0000
# 4 0.0000 0.0000 0.0000 7.1165 0.0000 0.0000
# 5 0.0000 0.0000 0.0000 0.0000 2.2750 0.0000
# 6 0.0000 0.0000 0.0000 0.0000 0.0000 38.1052
#
#
#
# Elastic Compliance Matrix: (Units=1/GPa)
#
#
# Indices 1 2 3 4 5 6 
#
# 1 0.013162 -0.002691 0.000231 0.000000 0.000000 0.000000
# 2 -0.002691 0.005255 0.001425 0.000000 0.000000 0.000000
# 3 0.000231 0.001425 0.037563 0.000000 0.000000 0.000000
# 4 0.000000 0.000000 0.000000 0.140519 0.000000 0.000000
# 5 0.000000 0.000000 0.000000 0.000000 0.439563 0.000000
# 6 0.000000 0.000000 0.000000 0.000000 0.000000 0.026243
#
#
# Mechanical properties :
#
#
# Convention : Reuss Voigt Hill
#
# Bulk Modulus (GPa) = 18.55009 43.80460 31.17734
# Shear Modulus (GPa) = 7.32765 29.07812 18.20289
#
# Velocity S-wave (km/s) = 1.83925 3.66387 2.89886
# Velocity P-wave (km/s) = 3.61581 6.17423 5.05941
#
# Compressibility (1/GPa) = 0.05390809
#
# Stress axis : x y z
#
# Youngs Moduli (GPa) = 75.97381 190.30670 26.62206
#
# Poissons Ratio (x) = 0.51217 -0.00614
# Poissons Ratio (y) = 0.20447 -0.03793
# Poissons Ratio (z) = -0.01752 -0.27115
#
# Static dielectric constant tensor:
#      x y z
#    x 1.791840 0.000000 0.000000 
#    y 0.000000 1.974540 0.000000 
#    z 0.000000 0.000000 1.833880 
# 
# From -- ./inp_files/21742.got.cif
#   From: 2010.05.17/outbox.cif.g08.bks.cpg/sg60_11_cif.got.tgz:21742.got - 2010.06.03 14:59:27.
