data_PCOD9453855
_publ_section_title
;
Structure prediction by ZEFSAII (Michael W. Deem and Ramdas Pophale) SiO2 
 PCOD9453855
Probable space group: P B C N
;
_chemical_formula_sum "Si O2"
_cell_formula_units_Z 52
_cell_length_a 14.652685
_cell_length_b 12.109835
_cell_length_c 14.375804
_cell_angle_alpha 90.000000
_cell_angle_beta 90.000000
_cell_angle_gamma 90.000000
_cell_volume 2550.865629
_symmetry_space_group_name_H-M "P B C N"
_symmetry_group_IT_number 60
_symmetry_cell_setting 'orthorhombic'
loop_
_space_group_symop_operation_xyz
x,y,z
1/2-x,1/2-y,1/2+z
1/2+x,1/2-y,-z
-x,y,1/2-z
-x,-y,-z
1/2+x,1/2+y,1/2-z
1/2-x,1/2+y,z
x,-y,1/2+z
loop_
_atom_site_type_symbol
_atom_site_label
_atom_site_fract_x
_atom_site_fract_y
_atom_site_fract_z
Si Si1 0.875525 0.252663 0.012072
Si Si2 0.865240 0.738994 0.306250
Si Si3 0.463311 0.992274 0.658220
Si Si4 0.293226 0.301578 0.394326
Si Si5 0.084123 0.987677 0.928808
Si Si6 0.000000 0.071731 0.750000
Si Si7 0.925680 0.366655 0.508194
O O1 0.812238 0.318308 0.082895
O O2 0.980093 0.295213 0.005560
O O3 0.872399 0.127931 0.046407
O O4 0.828067 0.260646 0.910774
O O5 0.912012 0.617740 0.303377
O O6 0.808755 0.766995 0.213578
O O7 0.937605 0.840567 0.306031
O O8 0.500000 0.051926 0.750000
O O9 0.544210 0.949707 0.590603
O O10 0.406259 0.068170 0.587313
O O11 0.346515 0.410613 0.427009
O O12 0.343345 0.206320 0.454163
O O13 0.047692 0.994302 0.824000
O O14 0.000000 0.000000 0.000000
#
# Coordination Sequence:
#
# PCOD9453855 Si02
#       7
#     8   8   8   8   8   4   8
#     4  11  23  41  63  95 128 161 220 272 314 379
#     4  10  18  39  65  87 121 172 216 246 317 399
#     4  10  17  34  63  87 118 162 202 250 318 377
#     4  11  23  42  64  93 127 169 219 263 315 392
#     4  11  20  41  69  89 125 169 215 262 324 378
#     4  10  18  36  70  92 112 174 222 256 310 392
#     4  10  21  37  62  91 124 163 210 267 312 368
#
# _framework density 20.385237
#
# number of rings (size 3 to 8) (size 9 to 14) (size 15 to 20)
#    0.000    1.538    5.385    1.846    0.000    3.692 
#    6.923    1.538    0.000    0.000    0.000    0.000 
#    0.000    0.000    0.000    0.000    0.000    0.000 
#
# Total GULP energy -289882.170726 kJ/mol
# GULP energy per Si atom -5574.657129 kJ/mol
# Density = 2.033884 g / cm^3
# Si number density = 20.385237 Si / 1000 Ang^3
#
#
#
# Elastic Constant Matrix: (Units=GPa)
#
#
# Indices 1 2 3 4 5 6 
#
# 1 47.6662 4.2235 11.3555 0.0000 0.0000 0.0000
# 2 4.2235 60.0869 44.4794 0.0000 0.0000 0.0000
# 3 11.3555 44.4794 92.9436 0.0000 0.0000 0.0000
# 4 0.0000 0.0000 0.0000 43.9615 0.0000 0.0000
# 5 0.0000 0.0000 0.0000 0.0000 21.6553 0.0000
# 6 0.0000 0.0000 0.0000 0.0000 0.0000 6.8302
#
#
#
# Elastic Compliance Matrix: (Units=1/GPa)
#
#
# Indices 1 2 3 4 5 6 
#
# 1 0.021626 0.000675 -0.002965 0.000000 0.000000 0.000000
# 2 0.000675 0.025794 -0.012426 0.000000 0.000000 0.000000
# 3 -0.002965 -0.012426 0.017068 0.000000 0.000000 0.000000
# 4 0.000000 0.000000 0.000000 0.022747 0.000000 0.000000
# 5 0.000000 0.000000 0.000000 0.000000 0.046178 0.000000
# 6 0.000000 0.000000 0.000000 0.000000 0.000000 0.146409
#
#
# Mechanical properties :
#
#
# Convention : Reuss Voigt Hill
#
# Bulk Modulus (GPa) = 28.52697 35.64596 32.08646
# Shear Modulus (GPa) = 15.57922 23.86530 19.72226
#
# Velocity S-wave (km/s) = 2.76749 3.42528 3.11380
# Velocity P-wave (km/s) = 4.92304 5.75913 5.35742
#
# Compressibility (1/GPa) = 0.03505455
#
# Stress axis : x y z
#
# Youngs Moduli (GPa) = 46.24105 38.76899 58.58810
#
# Poissons Ratio (x) = -0.02616 0.17372
# Poissons Ratio (y) = -0.03121 0.72804
# Poissons Ratio (z) = 0.13711 0.48176
#
# Static dielectric constant tensor:
#      x y z
#    x 1.736980 0.000000 0.000000 
#    y 0.000000 1.780720 0.000000 
#    z 0.000000 0.000000 1.717000 
# 
# From -- ./inp_files/16851.got.cif
#   From: 2010.05.17/outbox.cif.g08.bks.cpg/sg60_9_cif.got.tgz:16851.got - 2010.06.03 14:59:27.
