data_PCOD9453814
_publ_section_title
;
Structure prediction by ZEFSAII (Michael W. Deem and Ramdas Pophale) SiO2 
 PCOD9453814
Probable space group: P B C N
;
_chemical_formula_sum "Si O2"
_cell_formula_units_Z 56
_cell_length_a 9.391891
_cell_length_b 23.861372
_cell_length_c 13.954219
_cell_angle_alpha 90.000000
_cell_angle_beta 90.000000
_cell_angle_gamma 90.000000
_cell_volume 3127.187991
_symmetry_space_group_name_H-M "P B C N"
_symmetry_group_IT_number 60
_symmetry_cell_setting 'orthorhombic'
loop_
_space_group_symop_operation_xyz
x,y,z
1/2-x,1/2-y,1/2+z
1/2+x,1/2-y,-z
-x,y,1/2-z
-x,-y,-z
1/2+x,1/2+y,1/2-z
1/2-x,1/2+y,z
x,-y,1/2+z
loop_
_atom_site_type_symbol
_atom_site_label
_atom_site_fract_x
_atom_site_fract_y
_atom_site_fract_z
Si Si1 0.477941 0.286795 0.483644
Si Si2 0.892104 0.394892 0.112158
Si Si3 0.809895 0.735381 0.620559
Si Si4 0.117619 0.915622 0.491040
Si Si5 0.852430 0.204944 0.804122
Si Si6 0.055976 0.997972 0.143916
Si Si7 0.696860 0.087393 0.827884
O O1 0.326733 0.259893 0.451351
O O2 0.557699 0.271994 0.582675
O O3 0.446452 0.353455 0.478399
O O4 0.590359 0.267826 0.401468
O O5 0.869212 0.328070 0.117859
O O6 0.842477 0.418409 0.215508
O O7 0.056865 0.409770 0.106941
O O8 0.785942 0.414105 0.029391
O O9 0.743824 0.739792 0.728469
O O10 0.052527 0.958015 0.413200
O O11 0.077393 0.943344 0.591147
O O12 0.773677 0.147689 0.831705
O O13 0.000000 0.189417 0.750000
O O14 0.201175 0.962672 0.143289
O O15 0.000000 0.005268 0.250000
#
# Coordination Sequence:
#
# PCOD9453814 Si02
#       7
#     8   8   8   8   8   8   8
#     4  10  19  35  53  78 111 142 182 233 270 334
#     4   9  19  33  50  84 109 135 183 232 276 331
#     4   9  20  32  53  79 110 143 183 221 280 334
#     4  10  21  35  54  82 110 141 190 229 279 340
#     4   9  17  32  52  77 107 142 182 227 276 326
#     4  11  20  34  58  79 105 150 188 232 281 336
#     4  10  17  30  57  78 105 137 179 238 275 318
#
# _framework density 17.907464000000001
#
# number of rings (size 3 to 8) (size 9 to 14) (size 15 to 20)
#    0.000    2.286    2.857    1.286    2.000    0.571 
#    0.000    2.857    0.000    0.000    0.000    0.000 
#    0.000    0.000    0.000    0.000    0.000    0.000 
#
# Total GULP energy -311937.885401 kJ/mol
# GULP energy per Si atom -5570.319382 kJ/mol
# Density = 1.786671 g / cm^3
# Si number density = 17.907464 Si / 1000 Ang^3
#
#
#
# Elastic Constant Matrix: (Units=GPa)
#
#
# Indices 1 2 3 4 5 6 
#
# 1 87.1213 13.2233 39.7646 0.0000 0.0000 0.0000
# 2 13.2233 22.9906 16.8884 0.0000 0.0000 0.0000
# 3 39.7646 16.8884 60.0586 0.0000 0.0000 0.0000
# 4 0.0000 0.0000 0.0000 31.3253 0.0000 0.0000
# 5 0.0000 0.0000 0.0000 0.0000 34.2623 0.0000
# 6 0.0000 0.0000 0.0000 0.0000 0.0000 -3.9240
#
#
#
# Elastic Compliance Matrix: (Units=1/GPa)
#
#
# Indices 1 2 3 4 5 6 
#
# 1 0.016511 -0.001848 -0.010412 0.000000 0.000000 0.000000
# 2 -0.001848 0.055027 -0.014250 0.000000 0.000000 0.000000
# 3 -0.010412 -0.014250 0.027552 0.000000 0.000000 0.000000
# 4 0.000000 0.000000 0.000000 0.031923 0.000000 0.000000
# 5 0.000000 0.000000 0.000000 0.000000 0.029187 0.000000
# 6 0.000000 0.000000 0.000000 0.000000 0.000000 -0.254839
#
#
# Mechanical properties :
#
#
# Convention : Reuss Voigt Hill
#
# Bulk Modulus (GPa) = 21.70662 34.43589 28.07126
# Shear Modulus (GPa) = -190.37991 19.01899 -85.68046
#
# Velocity S-wave (km/s) = -10.32201 3.26248 -6.92460
# Velocity P-wave (km/s) = 11.39784 5.78475 6.94433
#
# Compressibility (1/GPa) = 0.04606889
#
# Stress axis : x y z
#
# Youngs Moduli (GPa) = 60.56480 18.17301 36.29565
#
# Poissons Ratio (x) = 0.03358 0.37793
# Poissons Ratio (y) = 0.11192 0.51721
# Poissons Ratio (z) = 0.63063 0.25896
#
# Static dielectric constant tensor:
#      x y z
#    x 1.674810 0.000000 0.000000 
#    y 0.000000 1.570750 0.000000 
#    z 0.000000 0.000000 1.649510 
# 
# From -- ./inp_files/15259.got.cif
#   From: 2010.05.17/outbox.cif.g08.bks.cpg/sg60_8_cif.got.tgz:15259.got - 2010.06.03 14:59:27.
