data_PCOD9453040
_publ_section_title
;
Structure prediction by ZEFSAII (Michael W. Deem and Ramdas Pophale) SiO2 
 PCOD9453040
Probable space group: P M M N
;
_chemical_formula_sum "Si O2"
_cell_formula_units_Z 48
_cell_length_a 15.402325
_cell_length_b 14.404656
_cell_length_c 11.952811
_cell_angle_alpha 90.000000
_cell_angle_beta 90.000000
_cell_angle_gamma 90.000000
_cell_volume 2651.912722
_symmetry_space_group_name_H-M "P M M N"
_symmetry_group_IT_number 59
_space_group.IT_coordinate_system_code '2'
_symmetry_cell_setting 'orthorhombic'
loop_
_space_group_symop_operation_xyz
x,y,z
1/2-x,1/2-y,z
1/2+x,-y,-z
-x,1/2+y,-z
-x,-y,-z
1/2+x,1/2+y,-z
1/2-x,y,z
x,1/2-y,z
loop_
_atom_site_type_symbol
_atom_site_label
_atom_site_fract_x
_atom_site_fract_y
_atom_site_fract_z
Si Si1 0.991633 0.360382 0.839846
Si Si2 0.571314 0.430509 0.448205
Si Si3 0.053671 0.642130 0.903420
Si Si4 0.350087 0.013432 0.773507
Si Si5 0.072511 0.147369 0.300678
Si Si6 0.650880 0.447715 0.676047
O O1 0.993226 0.250000 0.824429
O O2 0.917405 0.405329 0.762915
O O3 0.082753 0.405855 0.805350
O O4 0.971177 0.380267 0.969643
O O5 0.500000 0.500000 0.500000
O O6 0.627262 0.480481 0.352370
O O7 0.510858 0.357026 0.383866
O O8 0.629613 0.404752 0.554038
O O9 0.081334 0.750000 0.897785
O O10 0.124902 0.572738 0.853923
O O11 0.970015 0.633125 0.821948
O O12 0.250000 0.039006 0.783936
O O13 0.112425 0.250000 0.307303
O O14 0.132448 0.059099 0.327535
O O15 0.750000 0.430496 0.707482
#
# Coordination Sequence:
#
# PCOD9453040 Si02
#       6
#     8   8   8   8   8   8
#     4  11  23  40  58  81 120 157 191 234 284 342
#     4   9  17  37  57  81 115 151 185 232 283 338
#     4   9  19  38  61  83 113 150 187 232 286 339
#     4  11  21  36  62  89 115 149 193 241 290 337
#     4   9  18  35  61  85 109 146 189 236 287 335
#     4  11  22  37  58  84 117 152 190 233 285 343
#
# _framework density 18.100142999999999
#
# number of rings (size 3 to 8) (size 9 to 14) (size 15 to 20)
#    0.000    2.000    5.000    1.000    0.000    2.667 
#    0.000    1.667    0.000    8.000    0.000    0.000 
#    0.000    0.000    0.000    0.000    0.000    0.000 
#
# Total GULP energy -267653.353062 kJ/mol
# GULP energy per Si atom -5576.111522 kJ/mol
# Density = 1.805895 g / cm^3
# Si number density = 18.100143 Si / 1000 Ang^3
#
#
#
# Elastic Constant Matrix: (Units=GPa)
#
#
# Indices 1 2 3 4 5 6 
#
# 1 129.0472 35.6935 35.5074 0.0000 0.0000 0.0000
# 2 35.6935 65.5813 37.2030 0.0000 0.0000 0.0000
# 3 35.5074 37.2030 113.1827 0.0000 0.0000 0.0000
# 4 0.0000 0.0000 0.0000 -5.5364 0.0000 0.0000
# 5 0.0000 0.0000 0.0000 0.0000 7.3431 0.0000
# 6 0.0000 0.0000 0.0000 0.0000 0.0000 0.6963
#
#
#
# Elastic Compliance Matrix: (Units=1/GPa)
#
#
# Indices 1 2 3 4 5 6 
#
# 1 0.009338 -0.004204 -0.001547 0.000000 0.000000 0.000000
# 2 -0.004204 0.020636 -0.005464 0.000000 0.000000 0.000000
# 3 -0.001547 -0.005464 0.011117 0.000000 0.000000 0.000000
# 4 0.000000 0.000000 0.000000 -0.180624 0.000000 0.000000
# 5 0.000000 0.000000 0.000000 0.000000 0.136181 0.000000
# 6 0.000000 0.000000 0.000000 0.000000 0.000000 1.436226
#
#
# Mechanical properties :
#
#
# Convention : Reuss Voigt Hill
#
# Bulk Modulus (GPa) = 53.59370 58.29101 55.94235
# Shear Modulus (GPa) = 3.42108 13.79443 8.60776
#
# Velocity S-wave (km/s) = 1.37630 2.76364 2.18311
# Velocity P-wave (km/s) = 5.67445 6.51600 6.10973
#
# Compressibility (1/GPa) = 0.01865891
#
# Stress axis : x y z
#
# Youngs Moduli (GPa) = 107.09173 48.45845 89.95412
#
# Poissons Ratio (x) = 0.20374 0.13920
# Poissons Ratio (y) = 0.45025 0.49152
# Poissons Ratio (z) = 0.16572 0.26478
#
# Static dielectric constant tensor:
#      x y z
#    x 1.597200 0.000000 0.000000 
#    y 0.000000 1.637550 0.000000 
#    z 0.000000 0.000000 1.634080 
# 
# From -- ./inp_files/16807.got.cif
#   From: 2010.05.17/outbox.cif.g08.bks.cpg/sg59_9_cif.got.tgz:16807.got - 2010.06.03 14:40:33.
