data_PCOD9453844
_publ_section_title
;
Structure prediction by ZEFSAII (Michael W. Deem and Ramdas Pophale) SiO2 
 PCOD9453844
Probable space group: P B C N
;
_chemical_formula_sum "Si O2"
_cell_formula_units_Z 48
_cell_length_a 22.424059
_cell_length_b 19.994901
_cell_length_c 5.752412
_cell_angle_alpha 90.000000
_cell_angle_beta 90.000000
_cell_angle_gamma 90.000000
_cell_volume 2579.190789
_symmetry_space_group_name_H-M "P B C N"
_symmetry_group_IT_number 60
_symmetry_cell_setting 'orthorhombic'
loop_
_space_group_symop_operation_xyz
x,y,z
1/2-x,1/2-y,1/2+z
1/2+x,1/2-y,-z
-x,y,1/2-z
-x,-y,-z
1/2+x,1/2+y,1/2-z
1/2-x,1/2+y,z
x,-y,1/2+z
loop_
_atom_site_type_symbol
_atom_site_label
_atom_site_fract_x
_atom_site_fract_y
_atom_site_fract_z
Si Si1 0.223900 0.339552 0.459849
Si Si2 0.672603 0.276992 0.823019
Si Si3 0.435327 0.092265 0.674441
Si Si4 0.558742 0.241050 0.608504
Si Si5 0.614713 0.179302 0.204648
Si Si6 0.310185 0.032286 0.730540
O O1 0.213853 0.266854 0.347628
O O2 0.287544 0.336826 0.583239
O O3 0.167971 0.349253 0.634197
O O4 0.218394 0.394550 0.261401
O O5 0.612117 0.289821 0.682825
O O6 0.649333 0.227105 0.024352
O O7 0.500000 0.066006 0.750000
O O8 0.429902 0.163903 0.807000
O O9 0.421953 0.119043 0.413990
O O10 0.381665 0.043514 0.735953
O O11 0.500000 0.260362 0.750000
O O12 0.567802 0.227632 0.336393
O O13 0.294264 0.003936 0.475492
#
# Coordination Sequence:
#
# PCOD9453844 Si02
#       6
#     8   8   8   8   8   8
#     4  11  20  35  54  83 106 139 195 233 295 336
#     4  10  19  30  58  81 101 139 176 241 284 344
#     4  10  21  35  52  73 100 149 199 242 273 315
#     4   9  19  33  51  83 109 142 175 228 296 342
#     4  10  17  34  53  78 109 140 180 237 292 337
#     4  12  26  41  55  75 114 158 197 245 284 327
#
# _framework density 18.610489999999999
#
# number of rings (size 3 to 8) (size 9 to 14) (size 15 to 20)
#    0.000    1.667    6.667    1.000    0.000    6.667 
#    0.000    0.000    0.000    0.000    0.000    0.000 
#    0.000    1.333    0.000    0.000    0.000    0.000 
#
# Total GULP energy -267312.344224 kJ/mol
# GULP energy per Si atom -5569.007171 kJ/mol
# Density = 1.856813 g / cm^3
# Si number density = 18.610490 Si / 1000 Ang^3
#
#
#
# Elastic Constant Matrix: (Units=GPa)
#
#
# Indices 1 2 3 4 5 6 
#
# 1 69.4523 17.4077 26.0150 0.0000 0.0000 0.0000
# 2 17.4077 18.7706 11.5328 0.0000 0.0000 0.0000
# 3 26.0150 11.5328 80.8974 0.0000 0.0000 0.0000
# 4 0.0000 0.0000 0.0000 17.3374 0.0000 0.0000
# 5 0.0000 0.0000 0.0000 0.0000 19.4304 0.0000
# 6 0.0000 0.0000 0.0000 0.0000 0.0000 18.7494
#
#
#
# Elastic Compliance Matrix: (Units=1/GPa)
#
#
# Indices 1 2 3 4 5 6 
#
# 1 0.019949 -0.015956 -0.004140 0.000000 0.000000 0.000000
# 2 -0.015956 0.071152 -0.005012 0.000000 0.000000 0.000000
# 3 -0.004140 -0.005012 0.014407 0.000000 0.000000 0.000000
# 4 0.000000 0.000000 0.000000 0.057679 0.000000 0.000000
# 5 0.000000 0.000000 0.000000 0.000000 0.051466 0.000000
# 6 0.000000 0.000000 0.000000 0.000000 0.000000 0.053335
#
#
# Mechanical properties :
#
#
# Convention : Reuss Voigt Hill
#
# Bulk Modulus (GPa) = 18.08640 31.00350 24.54495
# Shear Modulus (GPa) = 14.85287 18.71443 16.78365
#
# Velocity S-wave (km/s) = 2.82812 3.17454 3.00632
# Velocity P-wave (km/s) = 4.51706 5.48928 5.02673
#
# Compressibility (1/GPa) = 0.05529017
#
# Stress axis : x y z
#
# Youngs Moduli (GPa) = 50.12888 14.05440 69.40908
#
# Poissons Ratio (x) = 0.22426 0.28738
# Poissons Ratio (y) = 0.79987 0.34790
# Poissons Ratio (z) = 0.20755 0.07044
#
# Static dielectric constant tensor:
#      x y z
#    x 1.681650 0.000000 0.000000 
#    y 0.000000 1.629060 0.000000 
#    z 0.000000 0.000000 1.825160 
# 
# From -- ./inp_files/2062.got.cif
#   From: 2010.05.17/outbox.cif.g08.bks.cpg/sg60_2_cif.got.tgz:2062.got - 2010.06.03 14:59:27.
