data_PCOD9453161
_publ_section_title
;
Structure prediction by ZEFSAII (Michael W. Deem and Ramdas Pophale) SiO2 
 PCOD9453161
Probable space group: P M M N
;
_chemical_formula_sum "Si O2"
_cell_formula_units_Z 26
_cell_length_a 10.819330
_cell_length_b 15.529408
_cell_length_c 6.906275
_cell_angle_alpha 90.000000
_cell_angle_beta 90.000000
_cell_angle_gamma 90.000000
_cell_volume 1160.377062
_symmetry_space_group_name_H-M "P M M N"
_symmetry_group_IT_number 59
_space_group.IT_coordinate_system_code '2'
_symmetry_cell_setting 'orthorhombic'
loop_
_space_group_symop_operation_xyz
x,y,z
1/2-x,1/2-y,z
1/2+x,-y,-z
-x,1/2+y,-z
-x,-y,-z
1/2+x,1/2+y,-z
1/2-x,y,z
x,1/2-y,z
loop_
_atom_site_type_symbol
_atom_site_label
_atom_site_fract_x
_atom_site_fract_y
_atom_site_fract_z
Si Si1 0.065620 0.906858 0.235127
Si Si2 0.109066 0.851279 0.658227
Si Si3 0.614246 0.594269 0.927695
Si Si4 0.750000 0.250000 0.842980
O O1 0.080399 0.905516 0.465988
O O2 0.143907 0.825480 0.165563
O O3 0.113944 0.995031 0.141242
O O4 0.927000 0.899954 0.151503
O O5 0.250000 0.870665 0.726777
O O6 0.111950 0.750000 0.603646
O O7 0.998941 0.865088 0.807822
O O8 0.750000 0.631178 0.893659
#
# Coordination Sequence:
#
# PCOD9453161 Si02
#       4
#     8   8   8   2
#     4  11  23  43  71  94 130 172 226 269 319 382
#     4  11  23  41  69  97 127 175 229 270 311 383
#     4  11  26  42  64 101 138 169 209 272 343 389
#     4  12  20  44  76  92 122 174 234 268 298 392
#
# _framework density 22.406510999999998
#
# number of rings (size 3 to 8) (size 9 to 14) (size 15 to 20)
#    0.000    0.923    4.615    0.923    4.308    3.077 
#    0.000    0.000    0.000    0.000    0.000    0.000 
#    0.000    0.000    0.000    0.000    0.000    0.000 
#
# Total GULP energy -144803.338194 kJ/mol
# GULP energy per Si atom -5569.359161 kJ/mol
# Density = 2.235551 g / cm^3
# Si number density = 22.406511 Si / 1000 Ang^3
#
#
#
# Elastic Constant Matrix: (Units=GPa)
#
#
# Indices 1 2 3 4 5 6 
#
# 1 193.1145 3.8175 61.3282 0.0000 0.0000 0.0000
# 2 3.8175 64.1245 -16.9786 0.0000 0.0000 0.0000
# 3 61.3282 -16.9786 62.3354 0.0000 0.0000 0.0000
# 4 0.0000 0.0000 0.0000 -298.7031 0.0000 0.0000
# 5 0.0000 0.0000 0.0000 0.0000 18.9972 0.0000
# 6 0.0000 0.0000 0.0000 0.0000 0.0000 15.8371
#
#
#
# Elastic Compliance Matrix: (Units=1/GPa)
#
#
# Indices 1 2 3 4 5 6 
#
# 1 0.007956 -0.002744 -0.008574 0.000000 0.000000 0.000000
# 2 -0.002744 0.017753 0.007535 0.000000 0.000000 0.000000
# 3 -0.008574 0.007535 0.026530 0.000000 0.000000 0.000000
# 4 0.000000 0.000000 0.000000 -0.003348 0.000000 0.000000
# 5 0.000000 0.000000 0.000000 0.000000 0.052639 0.000000
# 6 0.000000 0.000000 0.000000 0.000000 0.000000 0.063143
#
#
# Mechanical properties :
#
#
# Convention : Reuss Voigt Hill
#
# Bulk Modulus (GPa) = 22.38506 46.21210 34.29858
# Shear Modulus (GPa) = 26.71933 -34.67993 -3.98030
#
# Velocity S-wave (km/s) = 3.45698 -3.93843 -1.33426
# Velocity P-wave (km/s) = 5.09376 0.11152 3.60097
#
# Compressibility (1/GPa) = 0.04467266
#
# Stress axis : x y z
#
# Youngs Moduli (GPa) = 125.69912 56.32820 37.69261
#
# Poissons Ratio (x) = 0.15456 0.32319
# Poissons Ratio (y) = 0.34490 -0.28402
# Poissons Ratio (z) = 1.07779 -0.42444
#
# Static dielectric constant tensor:
#      x y z
#    x 1.822250 0.000000 0.000000 
#    y 0.000000 1.809350 0.000000 
#    z 0.000000 0.000000 1.936030 
# 
# From -- ./inp_files/5193.got.cif
#   From: 2010.05.17/outbox.cif.g08.bks.cpg/sg59_3_cif.got.tgz:5193.got - 2010.06.03 14:40:33.
