data_PCOD9453494
_publ_section_title
;
Structure prediction by ZEFSAII (Michael W. Deem and Ramdas Pophale) SiO2 
 PCOD9453494
Probable space group: P M M N
;
_chemical_formula_sum "Si O2"
_cell_formula_units_Z 64
_cell_length_a 18.000000
_cell_length_b 9.000000
_cell_length_c 21.000000
_cell_angle_alpha 90.000000
_cell_angle_beta 90.000000
_cell_angle_gamma 90.000000
_cell_volume 3402.000000
_symmetry_space_group_name_H-M "P M M N"
_symmetry_group_IT_number 59
_space_group.IT_coordinate_system_code '2'
_symmetry_cell_setting 'orthorhombic'
loop_
_space_group_symop_operation_xyz
x,y,z
1/2-x,1/2-y,z
1/2+x,-y,-z
-x,1/2+y,-z
-x,-y,-z
1/2+x,1/2+y,-z
1/2-x,y,z
x,1/2-y,z
loop_
_atom_site_type_symbol
_atom_site_label
_atom_site_fract_x
_atom_site_fract_y
_atom_site_fract_z
Si Si1 0.669570 0.927564 0.000320
Si Si2 0.444891 0.428284 0.102366
Si Si3 0.336125 0.431208 0.618471
Si Si4 0.579146 0.423266 0.769896
Si Si5 0.384468 0.573201 0.877895
Si Si6 0.659302 0.577360 0.518604
Si Si7 0.902760 0.923116 0.250361
Si Si8 0.163186 0.927825 0.353781
O O1 0.750000 0.957199 0.969991
O O2 0.662239 0.750000 0.007499
O O3 0.665838 0.001712 0.068696
O O4 0.601805 0.983783 0.957477
O O5 0.443950 0.250000 0.101770
O O6 0.407023 0.486414 0.166372
O O7 0.530784 0.475238 0.104634
O O8 0.250000 0.473464 0.625029
O O9 0.338418 0.250000 0.615969
O O10 0.365748 0.482262 0.549999
O O11 0.379350 0.479692 0.680654
O O12 0.598850 0.250000 0.779683
O O13 0.491440 0.430269 0.755927
O O14 0.621724 0.482660 0.708648
O O15 0.380713 0.750000 0.879412
O O16 0.368593 0.513732 0.807674
O O17 0.750000 0.569900 0.516640
O O18 0.639593 0.750000 0.524772
O O19 0.633053 0.490894 0.580239
O O20 0.880453 0.750000 0.244760
O O21 0.250000 0.966483 0.349341
O O22 0.156701 0.750000 0.355287
#
# Coordination Sequence:
#
# PCOD9453494 Si02
#       8
#     8   8   8   8   8   8   8   8
#     4  10  21  36  53  74  99 125 156 195 235 276
#     4   9  19  35  53  72  95 125 159 194 233 278
#     4   8  14  26  46  69  89 113 150 192 229 269
#     4   9  18  31  47  68  93 122 156 191 228 275
#     4  10  20  34  52  73  98 127 158 192 232 281
#     4   8  14  26  44  65  87 113 150 192 230 272
#     4   9  17  31  50  69  92 123 156 190 230 276
#     4   9  17  29  44  63  90 123 156 190 230 277
#
# _framework density 18.812463000000001
#
# number of rings (size 3 to 8) (size 9 to 14) (size 15 to 20)
#    0.000    3.000    0.000    1.500    0.000    2.750 
#    0.000    2.500    0.000    0.750    0.000    0.000 
#    0.000    0.000    0.000    0.000    0.000    0.000 
#
# Total GULP energy -356453.005181 kJ/mol
# GULP energy per Si atom -5569.578206 kJ/mol
# Density = 1.876965 g / cm^3
# Si number density = 18.812463 Si / 1000 Ang^3
#
#
#
# Elastic Constant Matrix: (Units=GPa)
#
#
# Indices 1 2 3 4 5 6 
#
# 1 18.1345 20.9599 39.0195 0.0000 0.0000 0.0000
# 2 20.9599 -14.8522 11.4794 0.0000 0.0000 0.0000
# 3 39.0195 11.4794 126.1990 0.0000 0.0000 0.0000
# 4 0.0000 0.0000 0.0000 22.0793 0.0000 0.0000
# 5 0.0000 0.0000 0.0000 0.0000 27.5283 0.0000
# 6 0.0000 0.0000 0.0000 0.0000 0.0000 -2.2636
#
#
#
# Elastic Compliance Matrix: (Units=1/GPa)
#
#
# Indices 1 2 3 4 5 6 
#
# 1 0.039779 0.043568 -0.016262 0.000000 0.000000 0.000000
# 2 0.043568 -0.015190 -0.012089 0.000000 0.000000 0.000000
# 3 -0.016262 -0.012089 0.014052 0.000000 0.000000 0.000000
# 4 0.000000 0.000000 0.000000 0.045291 0.000000 0.000000
# 5 0.000000 0.000000 0.000000 0.000000 0.036326 0.000000
# 6 0.000000 0.000000 0.000000 0.000000 0.000000 -0.441773
#
#
# Mechanical properties :
#
#
# Convention : Reuss Voigt Hill
#
# Bulk Modulus (GPa) = 14.47721 30.26652 22.37186
# Shear Modulus (GPa) = -15.20114 13.33696 -0.93209
#
# Velocity S-wave (km/s) = -2.84568 2.66549 -0.70466
# Velocity P-wave (km/s) = 1.75640 5.05930 3.35497
#
# Compressibility (1/GPa) = 0.06907408
#
# Stress axis : x y z
#
# Youngs Moduli (GPa) = 25.13897 -65.83454 71.16539
#
# Poissons Ratio (x) = 2.86827 1.15731
# Poissons Ratio (y) = -1.09525 0.86032
# Poissons Ratio (z) = 0.40882 -0.79588
#
# Static dielectric constant tensor:
#      x y z
#    x 1.669980 0.000000 0.000000 
#    y 0.000000 1.625860 0.000000 
#    z 0.000000 0.000000 1.665840 
# 
# From -- ./inp_files/30739.got.cif
#   From: 2010.05.17/outbox.ucp.g08.bks.cvg/sg59_16_cif.got.tgz:30739.got - 2010.06.11 16:43:56.
