data_PCOD9453018
_publ_section_title
;
Structure prediction by ZEFSAII (Michael W. Deem and Ramdas Pophale) SiO2 
 PCOD9453018
Probable space group: P M M N
;
_chemical_formula_sum "Si O2"
_cell_formula_units_Z 56
_cell_length_a 24.365581
_cell_length_b 14.913819
_cell_length_c 8.751186
_cell_angle_alpha 90.000000
_cell_angle_beta 90.000000
_cell_angle_gamma 90.000000
_cell_volume 3180.039791
_symmetry_space_group_name_H-M "P M M N"
_symmetry_group_IT_number 59
_space_group.IT_coordinate_system_code '2'
_symmetry_cell_setting 'orthorhombic'
loop_
_space_group_symop_operation_xyz
x,y,z
1/2-x,1/2-y,z
1/2+x,-y,-z
-x,1/2+y,-z
-x,-y,-z
1/2+x,1/2+y,-z
1/2-x,y,z
x,1/2-y,z
loop_
_atom_site_type_symbol
_atom_site_label
_atom_site_fract_x
_atom_site_fract_y
_atom_site_fract_z
Si Si1 0.686420 0.144017 0.221717
Si Si2 0.406038 0.978127 0.281255
Si Si3 0.898080 0.648793 0.939623
Si Si4 0.483469 0.437148 0.858850
Si Si5 0.314011 0.355979 0.794417
Si Si6 0.685738 0.355649 0.859502
Si Si7 0.388647 0.002921 0.634709
O O1 0.750000 0.121195 0.255410
O O2 0.679657 0.250000 0.247573
O O3 0.644640 0.085612 0.317959
O O4 0.677254 0.127220 0.040827
O O5 0.460057 0.922347 0.230662
O O6 0.353412 0.919585 0.235489
O O7 0.405923 0.999275 0.459708
O O8 0.404625 0.071207 0.185563
O O9 0.895410 0.750000 0.878267
O O10 0.948681 0.641130 0.060077
O O11 0.844067 0.630109 0.042459
O O12 0.441041 0.485067 0.744499
O O13 0.500000 0.500000 0.000000
O O14 0.250000 0.380794 0.800468
O O15 0.318184 0.250000 0.760257
O O16 0.347485 0.415256 0.673998
O O17 0.750000 0.371029 0.826712
O O18 0.674553 0.250000 0.832657
#
# Coordination Sequence:
#
# PCOD9453018 Si02
#       7
#     8   8   8   8   8   8   8
#     4   9  18  34  55  77 103 139 182 220 254 304
#     4  11  22  34  53  80 112 140 166 213 276 328
#     4   9  19  36  57  78 101 136 182 225 262 308
#     4   9  19  37  56  74  97 135 181 220 253 306
#     4   9  18  34  55  76 100 137 183 220 250 297
#     4   9  19  36  57  80 106 140 183 224 260 308
#     4  11  21  33  52  79 111 140 169 214 272 322
#
# _framework density 17.609843000000001
#
# number of rings (size 3 to 8) (size 9 to 14) (size 15 to 20)
#    0.000    2.429    0.000    4.286    0.000    4.571 
#    0.000    5.714    0.000    6.857    0.000    0.000 
#    0.000    0.000    0.000    0.000    0.000    0.000 
#
# Total GULP energy -312287.609973 kJ/mol
# GULP energy per Si atom -5576.564464 kJ/mol
# Density = 1.756976 g / cm^3
# Si number density = 17.609843 Si / 1000 Ang^3
#
#
#
# Elastic Constant Matrix: (Units=GPa)
#
#
# Indices 1 2 3 4 5 6 
#
# 1 92.1815 35.1118 53.9984 0.0000 0.0000 0.0000
# 2 35.1118 57.1650 43.5576 0.0000 0.0000 0.0000
# 3 53.9984 43.5576 100.8705 0.0000 0.0000 0.0000
# 4 0.0000 0.0000 0.0000 10.7271 0.0000 0.0000
# 5 0.0000 0.0000 0.0000 0.0000 -28.1934 0.0000
# 6 0.0000 0.0000 0.0000 0.0000 0.0000 9.0401
#
#
#
# Elastic Compliance Matrix: (Units=1/GPa)
#
#
# Indices 1 2 3 4 5 6 
#
# 1 0.016765 -0.005155 -0.006749 0.000000 0.000000 0.000000
# 2 -0.005155 0.027657 -0.009183 0.000000 0.000000 0.000000
# 3 -0.006749 -0.009183 0.017492 0.000000 0.000000 0.000000
# 4 0.000000 0.000000 0.000000 0.093222 0.000000 0.000000
# 5 0.000000 0.000000 0.000000 0.000000 -0.035469 0.000000
# 6 0.000000 0.000000 0.000000 0.000000 0.000000 0.110619
#
#
# Mechanical properties :
#
#
# Convention : Reuss Voigt Hill
#
# Bulk Modulus (GPa) = 50.65865 57.28363 53.97114
# Shear Modulus (GPa) = 17.91873 6.15138 12.03505
#
# Velocity S-wave (km/s) = 3.19335 1.87102 2.61708
# Velocity P-wave (km/s) = 6.51355 6.10472 6.31245
#
# Compressibility (1/GPa) = 0.01973997
#
# Stress axis : x y z
#
# Youngs Moduli (GPa) = 59.64814 36.15764 57.16982
#
# Poissons Ratio (x) = 0.18640 0.38582
# Poissons Ratio (y) = 0.30750 0.52499
# Poissons Ratio (z) = 0.40254 0.33203
#
# Static dielectric constant tensor:
#      x y z
#    x 1.606880 0.000000 0.000000 
#    y 0.000000 1.596660 0.000000 
#    z 0.000000 0.000000 1.577340 
# 
# From -- ./inp_files/11405.got.cif
#   From: 2010.05.17/outbox.cif.g08.bks.cpg/sg59_6_cif.got.tgz:11405.got - 2010.06.03 14:40:33.
