data_PCOD9453274
_publ_section_title
;
Structure prediction by ZEFSAII (Michael W. Deem and Ramdas Pophale) SiO2 
 PCOD9453274
Probable space group: P M M N
;
_chemical_formula_sum "Si O2"
_cell_formula_units_Z 48
_cell_length_a 9.814337
_cell_length_b 7.659045
_cell_length_c 32.324472
_cell_angle_alpha 90.000000
_cell_angle_beta 90.000000
_cell_angle_gamma 90.000000
_cell_volume 2429.780416
_symmetry_space_group_name_H-M "P M M N"
_symmetry_group_IT_number 59
_space_group.IT_coordinate_system_code '2'
_symmetry_cell_setting 'orthorhombic'
loop_
_space_group_symop_operation_xyz
x,y,z
1/2-x,1/2-y,z
1/2+x,-y,-z
-x,1/2+y,-z
-x,-y,-z
1/2+x,1/2+y,-z
1/2-x,y,z
x,1/2-y,z
loop_
_atom_site_type_symbol
_atom_site_label
_atom_site_fract_x
_atom_site_fract_y
_atom_site_fract_z
Si Si1 0.903467 0.459325 0.038058
Si Si2 0.594614 0.539867 0.461351
Si Si3 0.906644 0.535690 0.793298
Si Si4 0.415093 0.453124 0.628008
Si Si5 0.404380 0.954979 0.719325
Si Si6 0.592415 0.462906 0.130429
O O1 0.750000 0.524876 0.030521
O O2 0.896840 0.250000 0.040818
O O3 0.946625 0.520194 0.083941
O O4 0.000000 0.500000 0.000000
O O5 0.500000 0.500000 0.500000
O O6 0.750000 0.476749 0.467843
O O7 0.601520 0.750000 0.457390
O O8 0.540444 0.474203 0.416651
O O9 0.750000 0.478692 0.793278
O O10 0.904747 0.750000 0.793144
O O11 0.990734 0.474891 0.753043
O O12 0.989969 0.479656 0.833947
O O13 0.250000 0.465357 0.626271
O O14 0.452843 0.250000 0.630090
O O15 0.454883 0.531094 0.672036
O O16 0.250000 0.030061 0.721859
O O17 0.391565 0.750000 0.728487
O O18 0.750000 0.514670 0.138141
O O19 0.591372 0.250000 0.131065
#
# Coordination Sequence:
#
# PCOD9453274 Si02
#       6
#     8   8   8   8   8   8
#     4   9  18  31  47  69  95 122 154 192 233 276
#     4   9  18  32  49  70  95 122 154 192 232 273
#     4   9  16  25  39  62  90 115 140 176 222 265
#     4   8  15  29  47  65  87 116 149 183 217 258
#     4   9  16  26  43  66  87 109 141 179 217 257
#     4   8  14  26  43  62  86 116 149 184 220 261
#
# _framework density 19.754871000000001
#
# number of rings (size 3 to 8) (size 9 to 14) (size 15 to 20)
#    0.000    3.333    0.000    2.500    0.000    4.000 
#    0.000    4.167    0.000    4.500    0.000    2.333 
#    0.000    0.000    0.000    0.000    0.000    0.000 
#
# Total GULP energy -267384.746909 kJ/mol
# GULP energy per Si atom -5570.515561 kJ/mol
# Density = 1.970991 g / cm^3
# Si number density = 19.754871 Si / 1000 Ang^3
#
#
#
# Elastic Constant Matrix: (Units=GPa)
#
#
# Indices 1 2 3 4 5 6 
#
# 1 109.9667 5.2574 126.4546 0.0000 0.0000 0.0000
# 2 5.2574 30.4371 6.2776 0.0000 0.0000 0.0000
# 3 126.4546 6.2776 222.4139 0.0000 0.0000 0.0000
# 4 0.0000 0.0000 0.0000 18.2945 0.0000 0.0000
# 5 0.0000 0.0000 0.0000 0.0000 33.5452 0.0000
# 6 0.0000 0.0000 0.0000 0.0000 0.0000 8.9398
#
#
#
# Elastic Compliance Matrix: (Units=1/GPa)
#
#
# Indices 1 2 3 4 5 6 
#
# 1 0.026332 -0.001469 -0.014930 0.000000 0.000000 0.000000
# 2 -0.001469 0.033129 -0.000100 0.000000 0.000000 0.000000
# 3 -0.014930 -0.000100 0.012987 0.000000 0.000000 0.000000
# 4 0.000000 0.000000 0.000000 0.054661 0.000000 0.000000
# 5 0.000000 0.000000 0.000000 0.000000 0.029811 0.000000
# 6 0.000000 0.000000 0.000000 0.000000 0.000000 0.111859
#
#
# Mechanical properties :
#
#
# Convention : Reuss Voigt Hill
#
# Bulk Modulus (GPa) = 25.34786 70.97744 48.16265
# Shear Modulus (GPa) = 15.87667 27.14445 21.51056
#
# Velocity S-wave (km/s) = 2.83801 3.71086 3.30339
# Velocity P-wave (km/s) = 4.85779 7.37345 6.24363
#
# Compressibility (1/GPa) = 0.03945106
#
# Stress axis : x y z
#
# Youngs Moduli (GPa) = 37.97608 30.18509 76.99749
#
# Poissons Ratio (x) = 0.04435 1.14957
# Poissons Ratio (y) = 0.05579 0.00768
# Poissons Ratio (z) = 0.56698 0.00301
#
# Static dielectric constant tensor:
#      x y z
#    x 1.673950 0.000000 0.000000 
#    y 0.000000 1.755060 0.000000 
#    z 0.000000 0.000000 1.713020 
# 
# From -- ./inp_files/32474.got.cif
#   From: 2010.05.17/outbox.cif.g08.bks.cpg/sg59_17_cif.got.tgz:32474.got - 2010.06.03 14:40:33.
