data_PCOD9453397
_publ_section_title
;
Structure prediction by ZEFSAII (Michael W. Deem and Ramdas Pophale) SiO2 
 PCOD9453397
Probable space group: P M M N
;
_chemical_formula_sum "Si O2"
_cell_formula_units_Z 64
_cell_length_a 21.000000
_cell_length_b 9.000000
_cell_length_c 21.000000
_cell_angle_alpha 90.000000
_cell_angle_beta 90.000000
_cell_angle_gamma 90.000000
_cell_volume 3969.000000
_symmetry_space_group_name_H-M "P M M N"
_symmetry_group_IT_number 59
_space_group.IT_coordinate_system_code '2'
_symmetry_cell_setting 'orthorhombic'
loop_
_space_group_symop_operation_xyz
x,y,z
1/2-x,1/2-y,z
1/2+x,-y,-z
-x,1/2+y,-z
-x,-y,-z
1/2+x,1/2+y,-z
1/2-x,y,z
x,1/2-y,z
loop_
_atom_site_type_symbol
_atom_site_label
_atom_site_fract_x
_atom_site_fract_y
_atom_site_fract_z
Si Si1 0.087446 0.573644 0.521728
Si Si2 0.038560 0.428896 0.395774
Si Si3 0.961092 0.071209 0.895079
Si Si4 0.825690 0.079626 0.124103
Si Si5 0.613878 0.571950 0.246331
Si Si6 0.325578 0.419875 0.616590
Si Si7 0.090677 0.427430 0.976694
Si Si8 0.975373 0.570794 0.754382
O O1 0.083510 0.750000 0.512860
O O2 0.082730 0.498277 0.451804
O O3 0.148876 0.523735 0.560836
O O4 0.030323 0.531132 0.572009
O O5 0.043846 0.250000 0.397140
O O6 0.047144 0.470677 0.319878
O O7 0.951536 0.250000 0.890512
O O8 0.031734 0.047141 0.926415
O O9 0.952155 0.000266 0.823508
O O10 0.920113 0.999759 0.953358
O O11 0.750000 0.083530 0.123431
O O12 0.850056 0.250000 0.128254
O O13 0.847841 0.986931 0.185562
O O14 0.851382 0.002659 0.060319
O O15 0.603739 0.750000 0.240771
O O16 0.648457 0.541340 0.313307
O O17 0.547798 0.484611 0.247036
O O18 0.250000 0.422909 0.619264
O O19 0.346866 0.250000 0.603037
O O20 0.096845 0.250000 0.983801
O O21 0.969492 0.750000 0.759122
#
# Coordination Sequence:
#
# PCOD9453397 Si02
#       8
#     8   8   8   8   8   8   8   8
#     4  10  19  32  50  73  97 128 168 211 253 293
#     4   9  19  33  49  71 100 132 164 203 253 302
#     4  10  20  33  51  75 102 132 166 207 255 301
#     4  11  23  36  51  72 101 138 175 212 252 293
#     4  11  21  33  49  71 101 137 176 211 245 291
#     4  10  21  35  50  69  98 137 175 210 250 296
#     4  10  20  34  52  74  99 133 170 209 253 296
#     4  11  20  32  51  75 104 135 168 205 250 303
#
# _framework density 16.124969
#
# number of rings (size 3 to 8) (size 9 to 14) (size 15 to 20)
#    0.000    1.750    2.500    2.625    0.000    4.750 
#    0.000    0.000    0.000    0.000    0.000    0.875 
#    0.000    1.000    0.000    0.000    0.000    0.000 
#
# Total GULP energy -356369.401838 kJ/mol
# GULP energy per Si atom -5568.271904 kJ/mol
# Density = 1.608827 g / cm^3
# Si number density = 16.124969 Si / 1000 Ang^3
#
#
#
# Elastic Constant Matrix: (Units=GPa)
#
#
# Indices 1 2 3 4 5 6 
#
# 1 28.6937 12.7074 25.1539 0.0000 0.0000 0.0000
# 2 12.7074 59.6538 50.1273 0.0000 0.0000 0.0000
# 3 25.1539 50.1273 166.1030 0.0000 0.0000 0.0000
# 4 0.0000 0.0000 0.0000 37.5789 0.0000 0.0000
# 5 0.0000 0.0000 0.0000 0.0000 16.1051 0.0000
# 6 0.0000 0.0000 0.0000 0.0000 0.0000 17.7691
#
#
#
# Elastic Compliance Matrix: (Units=1/GPa)
#
#
# Indices 1 2 3 4 5 6 
#
# 1 0.041158 -0.004729 -0.004806 0.000000 0.000000 0.000000
# 2 -0.004729 0.023002 -0.006226 0.000000 0.000000 0.000000
# 3 -0.004806 -0.006226 0.008627 0.000000 0.000000 0.000000
# 4 0.000000 0.000000 0.000000 0.026611 0.000000 0.000000
# 5 0.000000 0.000000 0.000000 0.000000 0.062092 0.000000
# 6 0.000000 0.000000 0.000000 0.000000 0.000000 0.056277
#
#
# Mechanical properties :
#
#
# Convention : Reuss Voigt Hill
#
# Bulk Modulus (GPa) = 24.23284 47.82530 36.02907
# Shear Modulus (GPa) = 19.00827 25.38808 22.19818
#
# Velocity S-wave (km/s) = 3.43710 3.97225 3.71433
# Velocity P-wave (km/s) = 5.55089 7.12474 6.38648
#
# Compressibility (1/GPa) = 0.04126631
#
# Stress axis : x y z
#
# Youngs Moduli (GPa) = 24.29656 43.47420 115.91703
#
# Poissons Ratio (x) = 0.20560 0.55705
# Poissons Ratio (y) = 0.11491 0.72164
# Poissons Ratio (z) = 0.11676 0.27065
#
# Static dielectric constant tensor:
#      x y z
#    x 1.554950 0.000000 0.000000 
#    y 0.000000 1.554110 0.000000 
#    z 0.000000 0.000000 1.551460 
# 
# From -- ./inp_files/30933.got.cif
#   From: 2010.05.17/outbox.ucp.g08.bks.cvg/sg59_16_cif.got.tgz:30933.got - 2010.06.11 16:43:56.
