data_PCOD9453892
_publ_section_title
;
Structure prediction by ZEFSAII (Michael W. Deem and Ramdas Pophale) SiO2 
 PCOD9453892
Probable space group: P B C N
;
_chemical_formula_sum "Si O2"
_cell_formula_units_Z 48
_cell_length_a 14.442843
_cell_length_b 29.971549
_cell_length_c 5.315212
_cell_angle_alpha 90.000000
_cell_angle_beta 90.000000
_cell_angle_gamma 90.000000
_cell_volume 2300.819081
_symmetry_space_group_name_H-M "P B C N"
_symmetry_group_IT_number 60
_symmetry_cell_setting 'orthorhombic'
loop_
_space_group_symop_operation_xyz
x,y,z
1/2-x,1/2-y,1/2+z
1/2+x,1/2-y,-z
-x,y,1/2-z
-x,-y,-z
1/2+x,1/2+y,1/2-z
1/2-x,1/2+y,z
x,-y,1/2+z
loop_
_atom_site_type_symbol
_atom_site_label
_atom_site_fract_x
_atom_site_fract_y
_atom_site_fract_z
Si Si1 0.442487 0.283219 0.992080
Si Si2 0.657682 0.094108 0.644667
Si Si3 0.254327 0.778515 0.939603
Si Si4 0.100368 0.314021 0.263875
Si Si5 0.718760 0.484463 0.148617
Si Si6 0.404261 0.046802 0.352672
O O1 0.500000 0.299305 0.750000
O O2 0.419265 0.230996 0.922013
O O3 0.500000 0.286130 0.250000
O O4 0.340343 0.304855 0.999107
O O5 0.666332 0.147176 0.638605
O O6 0.615003 0.079954 0.378896
O O7 0.753665 0.066974 0.662938
O O8 0.600901 0.074609 0.886937
O O9 0.253692 0.740686 0.160227
O O10 0.352345 0.801173 0.998783
O O11 0.000000 0.335890 0.250000
O O12 0.669897 0.502391 0.393753
O O13 0.818257 0.512063 0.136153
O O14 0.500000 0.024772 0.250000
#
# Coordination Sequence:
#
# PCOD9453892 Si02
#       6
#     8   8   8   8   8   8
#     4  10  20  35  52  68  86 114 153 191 229 274
#     4  10  20  28  38  56  78 105 139 177 212 244
#     4  10  20  34  50  68  91 118 147 183 229 279
#     4  10  20  31  46  67  92 116 144 182 225 265
#     4   8  16  27  37  49  69 101 141 177 202 232
#     4  10  18  27  37  50  72 105 144 178 203 235
#
# _framework density 20.862134000000001
#
# number of rings (size 3 to 8) (size 9 to 14) (size 15 to 20)
#    0.000    2.333    0.000    4.500    0.000   12.667 
#    0.000    0.000    0.000    0.000    0.000    0.000 
#    0.000    0.000    0.000    0.000    0.000   45.000 
#
# Total GULP energy -267214.183694 kJ/mol
# GULP energy per Si atom -5566.962160 kJ/mol
# Density = 2.081465 g / cm^3
# Si number density = 20.862134 Si / 1000 Ang^3
#
#
#
# Elastic Constant Matrix: (Units=GPa)
#
#
# Indices 1 2 3 4 5 6 
#
# 1 60.2118 -13.0706 13.0954 0.0000 0.0000 0.0000
# 2 -13.0706 26.7207 -0.2218 0.0000 0.0000 0.0000
# 3 13.0954 -0.2218 129.7877 0.0000 0.0000 0.0000
# 4 0.0000 0.0000 0.0000 15.2713 0.0000 0.0000
# 5 0.0000 0.0000 0.0000 0.0000 25.0175 0.0000
# 6 0.0000 0.0000 0.0000 0.0000 0.0000 -0.8452
#
#
#
# Elastic Compliance Matrix: (Units=1/GPa)
#
#
# Indices 1 2 3 4 5 6 
#
# 1 0.019041 0.009298 -0.001905 0.000000 0.000000 0.000000
# 2 0.009298 0.041965 -0.000866 0.000000 0.000000 0.000000
# 3 -0.001905 -0.000866 0.007896 0.000000 0.000000 0.000000
# 4 0.000000 0.000000 0.000000 0.065482 0.000000 0.000000
# 5 0.000000 0.000000 0.000000 0.000000 0.039972 0.000000
# 6 0.000000 0.000000 0.000000 0.000000 0.000000 -1.183124
#
#
# Mechanical properties :
#
#
# Convention : Reuss Voigt Hill
#
# Bulk Modulus (GPa) = 12.20189 24.03623 18.11906
# Shear Modulus (GPa) = -5.02764 22.34987 8.66112
#
# Velocity S-wave (km/s) = -1.55408 3.27664 2.03976
# Velocity P-wave (km/s) = 1.62521 5.08544 3.77511
#
# Compressibility (1/GPa) = 0.08195450
#
# Stress axis : x y z
#
# Youngs Moduli (GPa) = 52.51870 23.82926 126.65201
#
# Poissons Ratio (x) = -0.22157 0.24131
# Poissons Ratio (y) = -0.48833 0.10974
# Poissons Ratio (z) = 0.10006 0.02065
#
# Static dielectric constant tensor:
#      x y z
#    x 1.882180 0.000000 0.000000 
#    y 0.000000 1.797730 0.000000 
#    z 0.000000 0.000000 1.837230 
# 
# From -- ./inp_files/1424.got.cif
#   From: 2010.05.17/outbox.cif.g08.bks.cpg/sg60_1_cif.got.tgz:1424.got - 2010.06.03 14:59:27.
