data_PCOD9453297
_publ_section_title
;
Structure prediction by ZEFSAII (Michael W. Deem and Ramdas Pophale) SiO2 
 PCOD9453297
Probable space group: P M M N
;
_chemical_formula_sum "Si O2"
_cell_formula_units_Z 56
_cell_length_a 22.306539
_cell_length_b 9.395362
_cell_length_c 18.149744
_cell_angle_alpha 90.000000
_cell_angle_beta 90.000000
_cell_angle_gamma 90.000000
_cell_volume 3803.787209
_symmetry_space_group_name_H-M "P M M N"
_symmetry_group_IT_number 59
_space_group.IT_coordinate_system_code '2'
_symmetry_cell_setting 'orthorhombic'
loop_
_space_group_symop_operation_xyz
x,y,z
1/2-x,1/2-y,z
1/2+x,-y,-z
-x,1/2+y,-z
-x,-y,-z
1/2+x,1/2+y,-z
1/2-x,y,z
x,1/2-y,z
loop_
_atom_site_type_symbol
_atom_site_label
_atom_site_fract_x
_atom_site_fract_y
_atom_site_fract_z
Si Si1 0.582977 0.414068 0.553634
Si Si2 0.604787 0.581256 0.697873
Si Si3 0.060326 0.414017 0.588409
Si Si4 0.411993 0.079891 0.037578
Si Si5 0.036347 0.581544 0.731854
Si Si6 0.455233 0.919718 0.899316
Si Si7 0.818675 0.923435 0.839321
O O1 0.601549 0.250000 0.547528
O O2 0.612231 0.493620 0.622954
O O3 0.590949 0.499188 0.477689
O O4 0.511197 0.415030 0.570246
O O5 0.613483 0.750000 0.683924
O O6 0.535832 0.564302 0.724548
O O7 0.648361 0.534733 0.763695
O O8 0.079534 0.250000 0.590402
O O9 0.066053 0.491532 0.666787
O O10 0.407603 0.250000 0.026713
O O11 0.475067 0.052922 0.079585
O O12 0.358334 0.031880 0.090685
O O13 0.416206 0.001675 0.959565
O O14 0.048269 0.750000 0.721632
O O15 0.054696 0.539475 0.814437
O O16 0.446146 0.750000 0.905654
O O17 0.750000 0.970552 0.842580
O O18 0.819390 0.750000 0.839690
#
# Coordination Sequence:
#
# PCOD9453297 Si02
#       7
#     8   8   8   8   8   8   8
#     4   9  16  25  36  52  76 106 136 163 194 234
#     4   9  15  25  40  56  76 104 138 172 204 238
#     4   9  16  24  35  54  78 104 134 164 195 232
#     4   9  16  27  41  59  80 105 139 175 211 249
#     4   9  15  24  38  55  79 108 136 166 202 246
#     4   9  16  26  40  58  81 109 138 170 209 254
#     4   9  16  27  44  63  82 107 142 180 214 248
#
# _framework density 14.72217
#
# number of rings (size 3 to 8) (size 9 to 14) (size 15 to 20)
#    0.000    3.000    1.429    0.857    0.000    4.000 
#    0.000    0.714    0.000    1.714    0.000    0.000 
#    0.000    1.143    0.000   11.143    0.000    3.429 
#
# Total GULP energy -311791.725868 kJ/mol
# GULP energy per Si atom -5567.709390 kJ/mol
# Density = 1.468866 g / cm^3
# Si number density = 14.722170 Si / 1000 Ang^3
#
#
#
# Elastic Constant Matrix: (Units=GPa)
#
#
# Indices 1 2 3 4 5 6 
#
# 1 45.8268 26.0450 46.3224 0.0000 0.0000 0.0000
# 2 26.0450 62.9290 78.6042 0.0000 0.0000 0.0000
# 3 46.3224 78.6042 180.0563 0.0000 0.0000 0.0000
# 4 0.0000 0.0000 0.0000 29.8476 0.0000 0.0000
# 5 0.0000 0.0000 0.0000 0.0000 10.4625 0.0000
# 6 0.0000 0.0000 0.0000 0.0000 0.0000 8.1319
#
#
#
# Elastic Compliance Matrix: (Units=1/GPa)
#
#
# Indices 1 2 3 4 5 6 
#
# 1 0.030558 -0.006218 -0.005147 0.000000 0.000000 0.000000
# 2 -0.006218 0.036213 -0.014209 0.000000 0.000000 0.000000
# 3 -0.005147 -0.014209 0.013081 0.000000 0.000000 0.000000
# 4 0.000000 0.000000 0.000000 0.033504 0.000000 0.000000
# 5 0.000000 0.000000 0.000000 0.000000 0.095579 0.000000
# 6 0.000000 0.000000 0.000000 0.000000 0.000000 0.122972
#
#
# Mechanical properties :
#
#
# Convention : Reuss Voigt Hill
#
# Bulk Modulus (GPa) = 34.83924 65.63947 50.23935
# Shear Modulus (GPa) = 12.73483 18.87777 15.80630
#
# Velocity S-wave (km/s) = 2.94430 3.58476 3.28020
# Velocity P-wave (km/s) = 5.93922 7.86233 6.96745
#
# Compressibility (1/GPa) = 0.02870327
#
# Stress axis : x y z
#
# Youngs Moduli (GPa) = 32.72475 27.61420 76.44650
#
# Poissons Ratio (x) = 0.17171 0.39346
# Poissons Ratio (y) = 0.20349 1.08625
# Poissons Ratio (z) = 0.16843 0.39238
#
# Static dielectric constant tensor:
#      x y z
#    x 1.458450 0.000000 0.000000 
#    y 0.000000 1.490100 0.000000 
#    z 0.000000 0.000000 1.486210 
# 
# From -- ./inp_files/26120.got.cif
#   From: 2010.05.17/outbox.cif.g08.bks.cpg/sg59_14_cif.got.tgz:26120.got - 2010.06.03 14:40:33.
