data_PCOD9453270
_publ_section_title
;
Structure prediction by ZEFSAII (Michael W. Deem and Ramdas Pophale) SiO2 
 PCOD9453270
Probable space group: P M M N
;
_chemical_formula_sum "Si O2"
_cell_formula_units_Z 40
_cell_length_a 7.337328
_cell_length_b 13.551929
_cell_length_c 15.760500
_cell_angle_alpha 90.000000
_cell_angle_beta 90.000000
_cell_angle_gamma 90.000000
_cell_volume 1567.144500
_symmetry_space_group_name_H-M "P M M N"
_symmetry_group_IT_number 59
_space_group.IT_coordinate_system_code '2'
_symmetry_cell_setting 'orthorhombic'
loop_
_space_group_symop_operation_xyz
x,y,z
1/2-x,1/2-y,z
1/2+x,-y,-z
-x,1/2+y,-z
-x,-y,-z
1/2+x,1/2+y,-z
1/2-x,y,z
x,1/2-y,z
loop_
_atom_site_type_symbol
_atom_site_label
_atom_site_fract_x
_atom_site_fract_y
_atom_site_fract_z
Si Si1 0.537973 0.584538 0.798673
Si Si2 0.466019 0.113886 0.017938
Si Si3 0.027996 0.072366 0.383495
Si Si4 0.461660 0.856423 0.430705
Si Si5 0.029127 0.145071 0.830406
O O1 0.750000 0.612503 0.799305
O O2 0.460520 0.628058 0.886686
O O3 0.464355 0.613358 0.706831
O O4 0.531694 0.463672 0.800990
O O5 0.250000 0.135036 0.021057
O O6 0.532393 0.154265 0.928537
O O7 0.500000 0.000000 0.000000
O O8 0.250000 0.071655 0.383813
O O9 0.962795 0.958546 0.393618
O O10 0.970624 0.129458 0.467563
O O11 0.250000 0.854537 0.405570
O O12 0.543321 0.750000 0.408932
O O13 0.250000 0.141018 0.828454
O O14 0.974373 0.250000 0.788283
#
# Coordination Sequence:
#
# PCOD9453270 Si02
#       5
#     8   8   8   8   8
#     4   9  17  29  46  67  89 115 149 188 229 270
#     4   8  14  26  42  59  82 113 145 175 210 254
#     4   9  18  32  50  73  97 121 154 195 237 280
#     4   9  18  33  51  69  93 126 158 189 232 285
#     4   9  17  28  42  62  89 120 152 185 223 268
#
# _framework density 25.524131000000001
#
# number of rings (size 3 to 8) (size 9 to 14) (size 15 to 20)
#    0.000    3.200    0.000    0.000    0.000    2.400 
#    0.000    3.000    0.000    3.600    0.000    0.000 
#    0.000    0.000    0.000    0.000    0.000    0.000 
#
# Total GULP energy -223010.047281 kJ/mol
# GULP energy per Si atom -5575.251182 kJ/mol
# Density = 2.546604 g / cm^3
# Si number density = 25.524131 Si / 1000 Ang^3
#
#
#
# Elastic Constant Matrix: (Units=GPa)
#
#
# Indices 1 2 3 4 5 6 
#
# 1 108.2430 -6.0491 -9.2956 0.0000 0.0000 0.0000
# 2 -6.0491 95.8357 -14.2398 0.0000 0.0000 0.0000
# 3 -9.2956 -14.2398 164.7179 0.0000 0.0000 0.0000
# 4 0.0000 0.0000 0.0000 -15.0393 0.0000 0.0000
# 5 0.0000 0.0000 0.0000 0.0000 8.0256 0.0000
# 6 0.0000 0.0000 0.0000 0.0000 0.0000 -16.4281
#
#
#
# Elastic Compliance Matrix: (Units=1/GPa)
#
#
# Indices 1 2 3 4 5 6 
#
# 1 0.009326 0.000676 0.000585 0.000000 0.000000 0.000000
# 2 0.000676 0.010619 0.000956 0.000000 0.000000 0.000000
# 3 0.000585 0.000956 0.006187 0.000000 0.000000 0.000000
# 4 0.000000 0.000000 0.000000 -0.066492 0.000000 0.000000
# 5 0.000000 0.000000 0.000000 0.000000 0.124601 0.000000
# 6 0.000000 0.000000 0.000000 0.000000 0.000000 -0.060871
#
#
# Mechanical properties :
#
#
# Convention : Reuss Voigt Hill
#
# Bulk Modulus (GPa) = 32.71695 34.40307 33.56001
# Shear Modulus (GPa) = 171.67064 21.87037 96.77050
#
# Velocity S-wave (km/s) = 8.21001 2.93038 6.16406
# Velocity P-wave (km/s) = 10.13499 4.99574 7.98985
#
# Compressibility (1/GPa) = 0.03056520
#
# Stress axis : x y z
#
# Youngs Moduli (GPa) = 107.22207 94.16872 161.63854
#
# Poissons Ratio (x) = -0.06362 -0.09451
# Poissons Ratio (y) = -0.07244 -0.15455
# Poissons Ratio (z) = -0.06270 -0.09004
#
# Static dielectric constant tensor:
#      x y z
#    x 1.958490 0.000000 0.000000 
#    y 0.000000 2.023130 0.000000 
#    z 0.000000 0.000000 2.021300 
# 
# From -- ./inp_files/19890.got.cif
#   From: 2010.05.17/outbox.cif.g08.bks.cpg/sg59_10_cif.got.tgz:19890.got - 2010.06.03 14:40:33.
