data_PCOD9453089
_publ_section_title
;
Structure prediction by ZEFSAII (Michael W. Deem and Ramdas Pophale) SiO2 
 PCOD9453089
Probable space group: P M M N
;
_chemical_formula_sum "Si O2"
_cell_formula_units_Z 56
_cell_length_a 20.495421
_cell_length_b 7.492154
_cell_length_c 16.453687
_cell_angle_alpha 90.000000
_cell_angle_beta 90.000000
_cell_angle_gamma 90.000000
_cell_volume 2526.543446
_symmetry_space_group_name_H-M "P M M N"
_symmetry_group_IT_number 59
_space_group.IT_coordinate_system_code '2'
_symmetry_cell_setting 'orthorhombic'
loop_
_space_group_symop_operation_xyz
x,y,z
1/2-x,1/2-y,z
1/2+x,-y,-z
-x,1/2+y,-z
-x,-y,-z
1/2+x,1/2+y,-z
1/2-x,y,z
x,1/2-y,z
loop_
_atom_site_type_symbol
_atom_site_label
_atom_site_fract_x
_atom_site_fract_y
_atom_site_fract_z
Si Si1 0.824427 0.532864 0.183633
Si Si2 0.414084 0.032003 0.667164
Si Si3 0.324405 0.465982 0.002126
Si Si4 0.040886 0.547785 0.079556
Si Si5 0.677970 0.039687 0.666832
Si Si6 0.323592 0.034374 0.522118
Si Si7 0.045355 0.530024 0.257846
O O1 0.750000 0.480359 0.202561
O O2 0.825853 0.750000 0.182806
O O3 0.873561 0.474503 0.253171
O O4 0.838828 0.477172 0.091072
O O5 0.412639 0.250000 0.666355
O O6 0.377048 0.971095 0.586395
O O7 0.488596 0.977440 0.679959
O O8 0.250000 0.521114 0.022256
O O9 0.325746 0.250000 0.003889
O O10 0.382521 0.531716 0.058697
O O11 0.021841 0.750000 0.093203
O O12 0.028632 0.462750 0.167276
O O13 0.000000 0.500000 0.000000
O O14 0.750000 0.962852 0.683517
O O15 0.681311 0.250000 0.685255
O O16 0.616635 0.966667 0.715626
O O17 0.665215 0.021697 0.570537
O O18 0.250000 0.977389 0.545526
O O19 0.324000 0.250000 0.523444
O O20 0.046869 0.750000 0.258144
#
# Coordination Sequence:
#
# PCOD9453089 Si02
#       7
#     8   8   8   8   8   8   8
#     4   8  13  23  43  70  97 126 159 195 238 291
#     4   9  15  25  44  70  98 124 157 200 239 283
#     4   9  18  33  53  77 104 134 172 218 264 310
#     4  11  22  36  55  77 104 137 174 217 263 313
#     4   9  18  34  53  70  93 127 165 202 240 287
#     4   9  17  29  48  75 101 123 151 192 243 293
#     4   9  19  33  50  72  94 125 169 209 244 288
#
# _framework density 22.164669
#
# number of rings (size 3 to 8) (size 9 to 14) (size 15 to 20)
#    0.000    2.857    0.000    2.571    0.000    5.429 
#    0.000    2.857    0.000    6.000    0.000    4.000 
#    0.000    0.000    0.000    0.000    0.000    0.000 
#
# Total GULP energy -312587.444741 kJ/mol
# GULP energy per Si atom -5581.918656 kJ/mol
# Density = 2.211422 g / cm^3
# Si number density = 22.164669 Si / 1000 Ang^3
#
#
#
# Elastic Constant Matrix: (Units=GPa)
#
#
# Indices 1 2 3 4 5 6 
#
# 1 114.0933 1.7917 62.6994 0.0000 0.0000 0.0000
# 2 1.7917 55.1234 3.4364 0.0000 0.0000 0.0000
# 3 62.6994 3.4364 64.8935 0.0000 0.0000 0.0000
# 4 0.0000 0.0000 0.0000 12.7774 0.0000 0.0000
# 5 0.0000 0.0000 0.0000 0.0000 34.1862 0.0000
# 6 0.0000 0.0000 0.0000 0.0000 0.0000 4.5238
#
#
#
# Elastic Compliance Matrix: (Units=1/GPa)
#
#
# Indices 1 2 3 4 5 6 
#
# 1 0.018702 0.000520 -0.018097 0.000000 0.000000 0.000000
# 2 0.000520 0.018216 -0.001467 0.000000 0.000000 0.000000
# 3 -0.018097 -0.001467 0.032973 0.000000 0.000000 0.000000
# 4 0.000000 0.000000 0.000000 0.078263 0.000000 0.000000
# 5 0.000000 0.000000 0.000000 0.000000 0.029252 0.000000
# 6 0.000000 0.000000 0.000000 0.000000 0.000000 0.221051
#
#
# Mechanical properties :
#
#
# Convention : Reuss Voigt Hill
#
# Bulk Modulus (GPa) = 31.44447 41.10725 36.27586
# Shear Modulus (GPa) = 11.18208 21.37634 16.27921
#
# Velocity S-wave (km/s) = 2.24855 3.10890 2.71304
# Velocity P-wave (km/s) = 4.57808 5.61013 5.12018
#
# Compressibility (1/GPa) = 0.03180210
#
# Stress axis : x y z
#
# Youngs Moduli (GPa) = 53.47134 54.89781 30.32830
#
# Poissons Ratio (x) = -0.02856 0.54885
# Poissons Ratio (y) = -0.02782 0.04450
# Poissons Ratio (z) = 0.96766 0.08055
#
# Static dielectric constant tensor:
#      x y z
#    x 1.806200 0.000000 0.000000 
#    y 0.000000 1.857890 0.000000 
#    z 0.000000 0.000000 1.803600 
# 
# From -- ./inp_files/20951.got.cif
#   From: 2010.05.17/outbox.cif.g08.bks.cpg/sg59_11_cif.got.tgz:20951.got - 2010.06.03 14:40:33.
