data_PCOD9453210
_publ_section_title
;
Structure prediction by ZEFSAII (Michael W. Deem and Ramdas Pophale) SiO2 
 PCOD9453210
Probable space group: P M M N
;
_chemical_formula_sum "Si O2"
_cell_formula_units_Z 56
_cell_length_a 19.081885
_cell_length_b 7.401160
_cell_length_c 19.911117
_cell_angle_alpha 90.000000
_cell_angle_beta 90.000000
_cell_angle_gamma 90.000000
_cell_volume 2812.008904
_symmetry_space_group_name_H-M "P M M N"
_symmetry_group_IT_number 59
_space_group.IT_coordinate_system_code '2'
_symmetry_cell_setting 'orthorhombic'
loop_
_space_group_symop_operation_xyz
x,y,z
1/2-x,1/2-y,z
1/2+x,-y,-z
-x,1/2+y,-z
-x,-y,-z
1/2+x,1/2+y,-z
1/2-x,y,z
x,1/2-y,z
loop_
_atom_site_type_symbol
_atom_site_label
_atom_site_fract_x
_atom_site_fract_y
_atom_site_fract_z
Si Si1 0.828262 0.029661 0.861938
Si Si2 0.331537 0.533025 0.559550
Si Si3 0.167892 0.970262 0.413625
Si Si4 0.329257 0.037447 0.707383
Si Si5 0.100148 0.530276 0.276168
Si Si6 0.543253 0.529093 0.208050
Si Si7 0.028914 0.965487 0.073724
O O1 0.750000 0.968257 0.879022
O O2 0.827280 0.250000 0.863438
O O3 0.849615 0.977902 0.785845
O O4 0.892264 0.968983 0.909573
O O5 0.250000 0.474000 0.560417
O O6 0.332396 0.750000 0.558950
O O7 0.359893 0.471910 0.487157
O O8 0.360243 0.477942 0.631859
O O9 0.250000 0.020342 0.408225
O O10 0.166347 0.750000 0.413139
O O11 0.126290 0.033290 0.348412
O O12 0.250000 0.961012 0.708498
O O13 0.322841 0.250000 0.720765
O O14 0.383961 0.963400 0.761184
O O15 0.101212 0.750000 0.277558
O O16 0.021889 0.476412 0.255436
O O17 0.545208 0.750000 0.207993
O O18 0.522553 0.469586 0.133109
O O19 0.032278 0.750000 0.081567
O O20 0.000000 0.000000 0.000000
#
# Coordination Sequence:
#
# PCOD9453210 Si02
#       7
#     8   8   8   8   8   8   8
#     4   8  13  22  39  63  86 107 134 168 202 236
#     4   8  14  24  37  55  80 105 128 161 204 240
#     4   8  12  18  31  53  79 104 129 158 195 238
#     4   9  16  27  43  58  73 101 141 175 197 225
#     4   8  12  19  34  56  81 105 128 160 201 240
#     4   8  15  27  41  58  79 102 130 164 200 234
#     4   9  17  30  47  65  87 112 134 161 201 247
#
# _framework density 19.91459
#
# number of rings (size 3 to 8) (size 9 to 14) (size 15 to 20)
#    0.000    3.714    0.000    3.000    0.000    1.714 
#    0.000    2.143    0.000    1.286    0.000    4.000 
#    0.000    4.571    0.000    0.000    0.000    0.000 
#
# Total GULP energy -311897.838341 kJ/mol
# GULP energy per Si atom -5569.604256 kJ/mol
# Density = 1.986926 g / cm^3
# Si number density = 19.914590 Si / 1000 Ang^3
#
#
#
# Elastic Constant Matrix: (Units=GPa)
#
#
# Indices 1 2 3 4 5 6 
#
# 1 120.9665 5.8394 109.7555 0.0000 0.0000 0.0000
# 2 5.8394 63.8170 2.8931 0.0000 0.0000 0.0000
# 3 109.7555 2.8931 174.9861 0.0000 0.0000 0.0000
# 4 0.0000 0.0000 0.0000 7.8660 0.0000 0.0000
# 5 0.0000 0.0000 0.0000 0.0000 26.7639 0.0000
# 6 0.0000 0.0000 0.0000 0.0000 0.0000 -6.9283
#
#
#
# Elastic Compliance Matrix: (Units=1/GPa)
#
#
# Indices 1 2 3 4 5 6 
#
# 1 0.019279 -0.001217 -0.012072 0.000000 0.000000 0.000000
# 2 -0.001217 0.015758 0.000503 0.000000 0.000000 0.000000
# 3 -0.012072 0.000503 0.013278 0.000000 0.000000 0.000000
# 4 0.000000 0.000000 0.000000 0.127129 0.000000 0.000000
# 5 0.000000 0.000000 0.000000 0.000000 0.037364 0.000000
# 6 0.000000 0.000000 0.000000 0.000000 0.000000 -0.144335
#
#
# Mechanical properties :
#
#
# Convention : Reuss Voigt Hill
#
# Bulk Modulus (GPa) = 43.96929 66.30508 55.13719
# Shear Modulus (GPa) = 49.20015 21.62576 35.41296
#
# Velocity S-wave (km/s) = 4.97586 3.29891 4.22150
# Velocity P-wave (km/s) = 7.42557 6.91935 7.17693
#
# Compressibility (1/GPa) = 0.02274314
#
# Stress axis : x y z
#
# Youngs Moduli (GPa) = 51.87120 63.45838 75.31155
#
# Poissons Ratio (x) = 0.07721 0.90915
# Poissons Ratio (y) = 0.06312 -0.03786
# Poissons Ratio (z) = 0.62618 -0.03190
#
# Static dielectric constant tensor:
#      x y z
#    x 1.696700 0.000000 0.000000 
#    y 0.000000 1.785600 0.000000 
#    z 0.000000 0.000000 1.705940 
# 
# From -- ./inp_files/30616.got.cif
#   From: 2010.05.17/outbox.cif.g08.bks.cpg/sg59_16_cif.got.tgz:30616.got - 2010.06.03 14:40:33.
