data_PCOD9453807
_publ_section_title
;
Structure prediction by ZEFSAII (Michael W. Deem and Ramdas Pophale) SiO2 
 PCOD9453807
Probable space group: P B C N
;
_chemical_formula_sum "Si O2"
_cell_formula_units_Z 32
_cell_length_a 7.675854
_cell_length_b 11.784213
_cell_length_c 13.739306
_cell_angle_alpha 90.000000
_cell_angle_beta 90.000000
_cell_angle_gamma 90.000000
_cell_volume 1242.773790
_symmetry_space_group_name_H-M "P B C N"
_symmetry_group_IT_number 60
_symmetry_cell_setting 'orthorhombic'
loop_
_space_group_symop_operation_xyz
x,y,z
1/2-x,1/2-y,1/2+z
1/2+x,1/2-y,-z
-x,y,1/2-z
-x,-y,-z
1/2+x,1/2+y,1/2-z
1/2-x,1/2+y,z
x,-y,1/2+z
loop_
_atom_site_type_symbol
_atom_site_label
_atom_site_fract_x
_atom_site_fract_y
_atom_site_fract_z
Si Si1 0.829363 0.341076 0.179926
Si Si2 0.011593 0.757404 0.515320
Si Si3 0.692332 0.630845 0.874785
Si Si4 0.516337 0.055747 0.362374
O O1 0.680907 0.341830 0.260170
O O2 0.862458 0.462176 0.129004
O O3 0.000000 0.332507 0.250000
O O4 0.859010 0.248007 0.097705
O O5 0.977628 0.862640 0.442986
O O6 0.183352 0.729719 0.578242
O O7 0.000605 0.651679 0.441386
O O8 0.803148 0.514302 0.877769
O O9 0.500000 0.094936 0.250000
#
# Coordination Sequence:
#
# PCOD9453807 Si02
#       4
#     8   8   8   8
#     4   7  14  29  45  64  93 122 155 195 224 274
#     4  10  17  30  50  70  93 130 161 191 243 285
#     4   9  18  30  47  72  97 121 162 204 231 278
#     4   8  16  31  50  70  93 127 164 190 227 293
#
# _framework density 25.748854999999999
#
# number of rings (size 3 to 8) (size 9 to 14) (size 15 to 20)
#    0.000    4.500    0.000    3.000    0.000    2.000 
#    0.000    1.250    0.000    0.000    0.000   24.500 
#    0.000    0.000    0.000    0.000    0.000    0.000 
#
# Total GULP energy -178384.996886 kJ/mol
# GULP energy per Si atom -5574.531153 kJ/mol
# Density = 2.569025 g / cm^3
# Si number density = 25.748855 Si / 1000 Ang^3
#
#
#
# Elastic Constant Matrix: (Units=GPa)
#
#
# Indices 1 2 3 4 5 6 
#
# 1 87.7241 27.0983 25.8255 0.0000 0.0000 0.0000
# 2 27.0983 58.5568 27.6446 0.0000 0.0000 0.0000
# 3 25.8255 27.6446 153.9564 0.0000 0.0000 0.0000
# 4 0.0000 0.0000 0.0000 28.9950 0.0000 0.0000
# 5 0.0000 0.0000 0.0000 0.0000 32.2843 0.0000
# 6 0.0000 0.0000 0.0000 0.0000 0.0000 15.0895
#
#
#
# Elastic Compliance Matrix: (Units=1/GPa)
#
#
# Indices 1 2 3 4 5 6 
#
# 1 0.013517 -0.005665 -0.001250 0.000000 0.000000 0.000000
# 2 -0.005665 0.021034 -0.002826 0.000000 0.000000 0.000000
# 3 -0.001250 -0.002826 0.007213 0.000000 0.000000 0.000000
# 4 0.000000 0.000000 0.000000 0.034489 0.000000 0.000000
# 5 0.000000 0.000000 0.000000 0.000000 0.030975 0.000000
# 6 0.000000 0.000000 0.000000 0.000000 0.000000 0.066271
#
#
# Mechanical properties :
#
#
# Convention : Reuss Voigt Hill
#
# Bulk Modulus (GPa) = 44.88399 51.26377 48.07388
# Shear Modulus (GPa) = 24.94899 29.91834 27.43366
#
# Velocity S-wave (km/s) = 3.11615 3.41241 3.26764
# Velocity P-wave (km/s) = 5.51511 5.95637 5.73999
#
# Compressibility (1/GPa) = 0.02227966
#
# Stress axis : x y z
#
# Youngs Moduli (GPa) = 73.97847 47.54320 138.64633
#
# Poissons Ratio (x) = 0.26934 0.17334
# Poissons Ratio (y) = 0.41910 0.39188
# Poissons Ratio (z) = 0.09249 0.13438
#
# Static dielectric constant tensor:
#      x y z
#    x 2.259010 0.000000 0.000000 
#    y 0.000000 2.039000 0.000000 
#    z 0.000000 0.000000 2.055680 
# 
# From -- ./inp_files/10723.got.cif
#   From: 2010.05.17/outbox.cif.g08.bks.cpg/sg60_6_cif.got.tgz:10723.got - 2010.06.03 14:59:27.
