data_PCOD9453078
_publ_section_title
;
Structure prediction by ZEFSAII (Michael W. Deem and Ramdas Pophale) SiO2 
 PCOD9453078
Probable space group: P M M N
;
_chemical_formula_sum "Si O2"
_cell_formula_units_Z 64
_cell_length_a 8.713580
_cell_length_b 14.181412
_cell_length_c 31.704453
_cell_angle_alpha 90.000000
_cell_angle_beta 90.000000
_cell_angle_gamma 90.000000
_cell_volume 3917.746776
_symmetry_space_group_name_H-M "P M M N"
_symmetry_group_IT_number 59
_space_group.IT_coordinate_system_code '2'
_symmetry_cell_setting 'orthorhombic'
loop_
_space_group_symop_operation_xyz
x,y,z
1/2-x,1/2-y,z
1/2+x,-y,-z
-x,1/2+y,-z
-x,-y,-z
1/2+x,1/2+y,-z
1/2-x,y,z
x,1/2-y,z
loop_
_atom_site_type_symbol
_atom_site_label
_atom_site_fract_x
_atom_site_fract_y
_atom_site_fract_z
Si Si1 0.935704 0.359051 0.619431
Si Si2 0.435584 0.539280 0.934985
Si Si3 0.929455 0.978963 0.682465
Si Si4 0.565080 0.141885 0.244013
Si Si5 0.436722 0.642043 0.852026
Si Si6 0.435347 0.143458 0.984373
Si Si7 0.426572 0.360641 0.400878
Si Si8 0.428279 0.483955 0.545755
O O1 0.750000 0.363368 0.618824
O O2 0.982210 0.250000 0.623669
O O3 0.986992 0.426525 0.658352
O O4 0.994184 0.405229 0.575829
O O5 0.250000 0.543417 0.935533
O O6 0.488930 0.572624 0.888981
O O7 0.497654 0.608936 0.971073
O O8 0.481876 0.434432 0.949705
O O9 0.750000 0.993579 0.692088
O O10 0.941390 0.898634 0.646516
O O11 0.009811 0.936794 0.723395
O O12 0.750000 0.143077 0.244415
O O13 0.514682 0.250000 0.254668
O O14 0.513991 0.121610 0.195894
O O15 0.250000 0.639736 0.851650
O O16 0.480991 0.750000 0.862161
O O17 0.250000 0.141480 0.987089
O O18 0.483686 0.250000 0.974799
O O19 0.250000 0.382590 0.414150
O O20 0.449794 0.250000 0.403230
O O21 0.542156 0.419006 0.429286
O O22 0.500000 0.500000 0.500000
O O23 0.250000 0.462110 0.541712
#
# Coordination Sequence:
#
# PCOD9453078 Si02
#       8
#     8   8   8   8   8   8   8   8
#     4   9  19  37  57  73  92 122 159 196 233 272
#     4   9  16  27  44  61  79 112 153 184 215 265
#     4   9  17  30  49  72  94 116 145 182 223 266
#     4   9  17  28  43  65  93 123 150 178 218 266
#     4   8  14  25  41  61  84 112 149 186 215 253
#     4   9  17  27  39  60  88 111 136 180 233 273
#     4   9  18  33  51  70  94 123 153 185 221 263
#     4  11  22  35  51  72  99 127 156 190 227 270
#
# _framework density 16.335920999999999
#
# number of rings (size 3 to 8) (size 9 to 14) (size 15 to 20)
#    0.000    2.875    0.000    3.375    0.000    4.500 
#    0.000    0.625    0.000    1.500    0.000    1.750 
#    0.000    0.000    0.000    0.000    0.000    0.000 
#
# Total GULP energy -356452.765074 kJ/mol
# GULP energy per Si atom -5569.574454 kJ/mol
# Density = 1.629874 g / cm^3
# Si number density = 16.335921 Si / 1000 Ang^3
#
#
#
# Elastic Constant Matrix: (Units=GPa)
#
#
# Indices 1 2 3 4 5 6 
#
# 1 14.6227 21.7266 25.8601 0.0000 0.0000 0.0000
# 2 21.7266 120.0642 76.1408 0.0000 0.0000 0.0000
# 3 25.8601 76.1408 121.9122 0.0000 0.0000 0.0000
# 4 0.0000 0.0000 0.0000 13.9277 0.0000 0.0000
# 5 0.0000 0.0000 0.0000 0.0000 23.7233 0.0000
# 6 0.0000 0.0000 0.0000 0.0000 0.0000 19.5207
#
#
#
# Elastic Compliance Matrix: (Units=1/GPa)
#
#
# Indices 1 2 3 4 5 6 
#
# 1 0.114831 -0.008830 -0.018843 0.000000 0.000000 0.000000
# 2 -0.008830 0.014470 -0.007164 0.000000 0.000000 0.000000
# 3 -0.018843 -0.007164 0.016674 0.000000 0.000000 0.000000
# 4 0.000000 0.000000 0.000000 0.071799 0.000000 0.000000
# 5 0.000000 0.000000 0.000000 0.000000 0.042153 0.000000
# 6 0.000000 0.000000 0.000000 0.000000 0.000000 0.051228
#
#
# Mechanical properties :
#
#
# Convention : Reuss Voigt Hill
#
# Bulk Modulus (GPa) = 13.10613 56.00601 34.55607
# Shear Modulus (GPa) = 12.30729 20.29245 16.29987
#
# Velocity S-wave (km/s) = 2.74777 3.52831 3.16221
# Velocity P-wave (km/s) = 4.25527 7.13842 5.87641
#
# Compressibility (1/GPa) = 0.07630017
#
# Stress axis : x y z
#
# Youngs Moduli (GPa) = 8.70846 69.10789 59.97278
#
# Poissons Ratio (x) = 0.61021 1.13009
# Poissons Ratio (y) = 0.07689 0.42967
# Poissons Ratio (z) = 0.16410 0.49512
#
# Static dielectric constant tensor:
#      x y z
#    x 1.564600 0.000000 0.000000 
#    y 0.000000 1.552500 0.000000 
#    z 0.000000 0.000000 1.542230 
# 
# From -- ./inp_files/33197.got.cif
#   From: 2010.05.17/outbox.cif.g08.bks.cpg/sg59_17_cif.got.tgz:33197.got - 2010.06.03 14:40:33.
