data_PCOD9453776
_publ_section_title
;
Structure prediction by ZEFSAII (Michael W. Deem and Ramdas Pophale) SiO2 
 PCOD9453776
Probable space group: P B C N
;
_chemical_formula_sum "Si O2"
_cell_formula_units_Z 44
_cell_length_a 13.585404
_cell_length_b 7.478704
_cell_length_c 16.406454
_cell_angle_alpha 90.000000
_cell_angle_beta 90.000000
_cell_angle_gamma 90.000000
_cell_volume 1666.915664
_symmetry_space_group_name_H-M "P B C N"
_symmetry_group_IT_number 60
_symmetry_cell_setting 'orthorhombic'
loop_
_space_group_symop_operation_xyz
x,y,z
1/2-x,1/2-y,1/2+z
1/2+x,1/2-y,-z
-x,y,1/2-z
-x,-y,-z
1/2+x,1/2+y,1/2-z
1/2-x,1/2+y,z
x,-y,1/2+z
loop_
_atom_site_type_symbol
_atom_site_label
_atom_site_fract_x
_atom_site_fract_y
_atom_site_fract_z
Si Si1 0.822356 0.636775 0.842176
Si Si2 0.318429 0.423902 0.779328
Si Si3 0.353986 0.219526 0.363441
Si Si4 0.548149 0.752133 0.466391
Si Si5 0.388089 0.350120 0.085414
Si Si6 0.000000 0.707655 0.250000
O O1 0.761435 0.503786 0.784514
O O2 0.866974 0.779492 0.778039
O O3 0.728420 0.687867 0.901916
O O4 0.914210 0.602349 0.901278
O O5 0.258472 0.324164 0.849515
O O6 0.373023 0.584929 0.822978
O O7 0.386925 0.214847 0.453999
O O8 0.421170 0.101223 0.303990
O O9 0.582358 0.558255 0.431048
O O10 0.439296 0.741898 0.505928
O O11 0.436977 0.295772 0.173309
#
# Coordination Sequence:
#
# PCOD9453776 Si02
#       6
#     8   8   8   8   8   4
#     4  11  19  38  60  84 121 159 193 249 296 358
#     4  10  20  35  58  84 112 157 202 230 300 356
#     4  10  21  34  60  85 115 151 200 249 291 359
#     4  10  22  36  61  87 124 152 202 250 301 350
#     4  10  20  36  59  91 113 162 199 244 296 361
#     4  10  16  36  60  82 110 154 198 242 286 356
#
# _framework density 26.396059000000001
#
# number of rings (size 3 to 8) (size 9 to 14) (size 15 to 20)
#    0.000    1.818    5.455    0.000    2.545    0.000 
#    0.000    0.909    4.000    2.182    0.000    0.000 
#    0.000    0.000    0.000    0.000    0.000    0.000 
#
# Total GULP energy -245173.120335 kJ/mol
# GULP energy per Si atom -5572.116371 kJ/mol
# Density = 2.633598 g / cm^3
# Si number density = 26.396059 Si / 1000 Ang^3
#
#
#
# Elastic Constant Matrix: (Units=GPa)
#
#
# Indices 1 2 3 4 5 6 
#
# 1 96.6711 10.9801 33.4044 0.0000 0.0000 0.0000
# 2 10.9801 49.0613 17.5033 0.0000 0.0000 0.0000
# 3 33.4044 17.5033 114.2181 0.0000 0.0000 0.0000
# 4 0.0000 0.0000 0.0000 15.0532 0.0000 0.0000
# 5 0.0000 0.0000 0.0000 0.0000 58.8998 0.0000
# 6 0.0000 0.0000 0.0000 0.0000 0.0000 26.2049
#
#
#
# Elastic Compliance Matrix: (Units=1/GPa)
#
#
# Indices 1 2 3 4 5 6 
#
# 1 0.011606 -0.001467 -0.003170 0.000000 0.000000 0.000000
# 2 -0.001467 0.021747 -0.002904 0.000000 0.000000 0.000000
# 3 -0.003170 -0.002904 0.010127 0.000000 0.000000 0.000000
# 4 0.000000 0.000000 0.000000 0.066431 0.000000 0.000000
# 5 0.000000 0.000000 0.000000 0.000000 0.016978 0.000000
# 6 0.000000 0.000000 0.000000 0.000000 0.000000 0.038161
#
#
# Mechanical properties :
#
#
# Convention : Reuss Voigt Hill
#
# Bulk Modulus (GPa) = 35.21090 42.63623 38.92357
# Shear Modulus (GPa) = 26.37178 33.23576 29.80377
#
# Velocity S-wave (km/s) = 3.16425 3.55225 3.36385
# Velocity P-wave (km/s) = 5.16898 5.74563 5.46492
#
# Compressibility (1/GPa) = 0.02840029
#
# Stress axis : x y z
#
# Youngs Moduli (GPa) = 86.16090 45.98368 98.74458
#
# Poissons Ratio (x) = 0.06744 0.31298
# Poissons Ratio (y) = 0.12637 0.28672
# Poissons Ratio (z) = 0.27310 0.13352
#
# Static dielectric constant tensor:
#      x y z
#    x 2.182900 0.000000 0.000000 
#    y 0.000000 2.232270 0.000000 
#    z 0.000000 0.000000 1.996290 
# 
# From -- ./inp_files/17253.got.cif
#   From: 2010.05.17/outbox.cif.g08.bks.cpg/sg60_9_cif.got.tgz:17253.got - 2010.06.03 14:59:27.
