data_PCOD9453313
_publ_section_title
;
Structure prediction by ZEFSAII (Michael W. Deem and Ramdas Pophale) SiO2 
 PCOD9453313
Probable space group: P M M N
;
_chemical_formula_sum "Si O2"
_cell_formula_units_Z 48
_cell_length_a 10.343243
_cell_length_b 12.991673
_cell_length_c 18.110594
_cell_angle_alpha 90.000000
_cell_angle_beta 90.000000
_cell_angle_gamma 90.000000
_cell_volume 2433.629737
_symmetry_space_group_name_H-M "P M M N"
_symmetry_group_IT_number 59
_space_group.IT_coordinate_system_code '2'
_symmetry_cell_setting 'orthorhombic'
loop_
_space_group_symop_operation_xyz
x,y,z
1/2-x,1/2-y,z
1/2+x,-y,-z
-x,1/2+y,-z
-x,-y,-z
1/2+x,1/2+y,-z
1/2-x,y,z
x,1/2-y,z
loop_
_atom_site_type_symbol
_atom_site_label
_atom_site_fract_x
_atom_site_fract_y
_atom_site_fract_z
Si Si1 0.465424 0.137884 0.437953
Si Si2 0.602316 0.861583 0.968916
Si Si3 0.393329 0.591662 0.414597
Si Si4 0.100522 0.584418 0.092919
Si Si5 0.602264 0.131570 0.288488
Si Si6 0.904333 0.046890 0.745627
O O1 0.403548 0.250000 0.425275
O O2 0.514515 0.131950 0.521658
O O3 0.580480 0.130975 0.377430
O O4 0.389729 0.032865 0.423357
O O5 0.750000 0.867295 0.997878
O O6 0.587130 0.750000 0.932004
O O7 0.499512 0.869891 0.034817
O O8 0.587544 0.960412 0.917011
O O9 0.250000 0.632143 0.426562
O O10 0.432293 0.608635 0.329773
O O11 0.250000 0.611664 0.075944
O O12 0.073810 0.607092 0.178292
O O13 0.750000 0.101953 0.271199
O O14 0.581916 0.250000 0.264452
O O15 0.496346 0.053155 0.256909
O O16 0.750000 0.020378 0.743924
#
# Coordination Sequence:
#
# PCOD9453313 Si02
#       6
#     8   8   8   8   8   8
#     4   9  17  29  45  64  88 121 160 200 239 277
#     4   9  18  33  53  75  97 124 159 195 232 279
#     4   9  17  29  45  66  91 120 156 196 236 279
#     4   9  18  33  52  74 100 128 157 192 235 282
#     4   9  17  28  43  65  91 121 160 202 242 282
#     4   9  18  31  46  67  96 126 155 189 234 285
#
# _framework density 19.723625999999999
#
# number of rings (size 3 to 8) (size 9 to 14) (size 15 to 20)
#    0.000    3.000    0.000    0.500    0.000    3.333 
#    0.000    5.833    0.000    3.000    0.000    0.000 
#    0.000    0.000    0.000    0.000    0.000    0.000 
#
# Total GULP energy -267316.636276 kJ/mol
# GULP energy per Si atom -5569.096589 kJ/mol
# Density = 1.967873 g / cm^3
# Si number density = 19.723626 Si / 1000 Ang^3
#
#
#
# Elastic Constant Matrix: (Units=GPa)
#
#
# Indices 1 2 3 4 5 6 
#
# 1 53.6516 0.9758 15.1482 0.0000 0.0000 0.0000
# 2 0.9758 68.9492 -14.3338 0.0000 0.0000 0.0000
# 3 15.1482 -14.3338 82.8858 0.0000 0.0000 0.0000
# 4 0.0000 0.0000 0.0000 3.7709 0.0000 0.0000
# 5 0.0000 0.0000 0.0000 0.0000 13.5488 0.0000
# 6 0.0000 0.0000 0.0000 0.0000 0.0000 -0.9632
#
#
#
# Elastic Compliance Matrix: (Units=1/GPa)
#
#
# Indices 1 2 3 4 5 6 
#
# 1 0.019728 -0.001067 -0.003790 0.000000 0.000000 0.000000
# 2 -0.001067 0.015102 0.002807 0.000000 0.000000 0.000000
# 3 -0.003790 0.002807 0.013243 0.000000 0.000000 0.000000
# 4 0.000000 0.000000 0.000000 0.265192 0.000000 0.000000
# 5 0.000000 0.000000 0.000000 0.000000 0.073807 0.000000
# 6 0.000000 0.000000 0.000000 0.000000 0.000000 -1.038182
#
#
# Mechanical properties :
#
#
# Convention : Reuss Voigt Hill
#
# Bulk Modulus (GPa) = 22.74170 23.22968 22.98569
# Shear Modulus (GPa) = -7.90699 16.85106 4.47203
#
# Velocity S-wave (km/s) = -2.00439 2.92611 1.50741
# Velocity P-wave (km/s) = 2.48966 4.81865 3.83522
#
# Compressibility (1/GPa) = 0.04397209
#
# Stress axis : x y z
#
# Youngs Moduli (GPa) = 50.68868 66.21635 75.51256
#
# Poissons Ratio (x) = 0.07066 0.28620
# Poissons Ratio (y) = 0.05409 -0.21194
# Poissons Ratio (z) = 0.19211 -0.18585
#
# Static dielectric constant tensor:
#      x y z
#    x 1.671250 0.000000 0.000000 
#    y 0.000000 1.721070 0.000000 
#    z 0.000000 0.000000 1.684620 
# 
# From -- ./inp_files/26905.got.cif
#   From: 2010.05.17/outbox.cif.g08.bks.cpg/sg59_14_cif.got.tgz:26905.got - 2010.06.03 14:40:33.
