data_PCOD9453302
_publ_section_title
;
Structure prediction by ZEFSAII (Michael W. Deem and Ramdas Pophale) SiO2 
 PCOD9453302
Probable space group: P M M N
;
_chemical_formula_sum "Si O2"
_cell_formula_units_Z 56
_cell_length_a 8.010246
_cell_length_b 14.197811
_cell_length_c 30.446545
_cell_angle_alpha 90.000000
_cell_angle_beta 90.000000
_cell_angle_gamma 90.000000
_cell_volume 3462.623414
_symmetry_space_group_name_H-M "P M M N"
_symmetry_group_IT_number 59
_space_group.IT_coordinate_system_code '2'
_symmetry_cell_setting 'orthorhombic'
loop_
_space_group_symop_operation_xyz
x,y,z
1/2-x,1/2-y,z
1/2+x,-y,-z
-x,1/2+y,-z
-x,-y,-z
1/2+x,1/2+y,-z
1/2-x,y,z
x,1/2-y,z
loop_
_atom_site_type_symbol
_atom_site_label
_atom_site_fract_x
_atom_site_fract_y
_atom_site_fract_z
Si Si1 0.951176 0.460742 0.932053
Si Si2 0.551114 0.857972 0.249874
Si Si3 0.950769 0.358561 0.844724
Si Si4 0.451740 0.958056 0.432215
Si Si5 0.951393 0.143658 0.020460
Si Si6 0.048432 0.355429 0.479366
Si Si7 0.950629 0.358474 0.655548
O O1 0.750000 0.455168 0.931739
O O2 0.012577 0.419034 0.885983
O O3 0.998761 0.567684 0.943026
O O4 0.010520 0.397814 0.973465
O O5 0.750000 0.854905 0.250050
O O6 0.483806 0.750000 0.249782
O O7 0.495460 0.898737 0.203203
O O8 0.494238 0.898659 0.296450
O O9 0.750000 0.354795 0.847369
O O10 0.012871 0.250000 0.847670
O O11 0.250000 0.961283 0.430573
O O12 0.500203 0.888018 0.471657
O O13 0.512866 0.919112 0.385602
O O14 0.511726 0.061807 0.446831
O O15 0.750000 0.146044 0.018818
O O16 0.011702 0.250000 0.027457
O O17 0.250000 0.354201 0.477052
O O18 0.987017 0.250000 0.470176
O O19 0.750000 0.354465 0.652594
O O20 0.013542 0.250000 0.652724
#
# Coordination Sequence:
#
# PCOD9453302 Si02
#       7
#     8   8   8   8   8   8   8
#     4   9  17  28  43  63  84 109 142 174 203 239
#     4   9  17  27  39  58  83 107 131 163 204 247
#     4   9  16  27  43  61  83 111 139 167 202 244
#     4   9  17  28  42  60  81 108 141 170 198 238
#     4   9  17  29  43  60  85 114 141 170 205 244
#     4   9  17  28  41  59  84 110 135 167 205 240
#     4   9  16  26  40  57  78 105 135 165 198 239
#
# _framework density 16.172709000000001
#
# number of rings (size 3 to 8) (size 9 to 14) (size 15 to 20)
#    0.000    3.000    0.000    1.286    0.000    5.714 
#    0.000    1.429    0.000    2.571    0.000    1.000 
#    0.000    5.714    0.000    0.000    0.000    0.000 
#
# Total GULP energy -311879.789498 kJ/mol
# GULP energy per Si atom -5569.281955 kJ/mol
# Density = 1.613590 g / cm^3
# Si number density = 16.172709 Si / 1000 Ang^3
#
#
#
# Elastic Constant Matrix: (Units=GPa)
#
#
# Indices 1 2 3 4 5 6 
#
# 1 9.7510 7.4859 8.7488 0.0000 0.0000 0.0000
# 2 7.4859 107.2321 72.3743 0.0000 0.0000 0.0000
# 3 8.7488 72.3743 160.7983 0.0000 0.0000 0.0000
# 4 0.0000 0.0000 0.0000 22.5245 0.0000 0.0000
# 5 0.0000 0.0000 0.0000 0.0000 19.2741 0.0000
# 6 0.0000 0.0000 0.0000 0.0000 0.0000 14.5749
#
#
#
# Elastic Compliance Matrix: (Units=1/GPa)
#
#
# Indices 1 2 3 4 5 6 
#
# 1 0.109813 -0.005219 -0.003626 0.000000 0.000000 0.000000
# 2 -0.005219 0.013643 -0.005857 0.000000 0.000000 0.000000
# 3 -0.003626 -0.005857 0.009052 0.000000 0.000000 0.000000
# 4 0.000000 0.000000 0.000000 0.044396 0.000000 0.000000
# 5 0.000000 0.000000 0.000000 0.000000 0.051883 0.000000
# 6 0.000000 0.000000 0.000000 0.000000 0.000000 0.068611
#
#
# Mechanical properties :
#
#
# Convention : Reuss Voigt Hill
#
# Bulk Modulus (GPa) = 9.69881 50.55549 30.12715
# Shear Modulus (GPa) = 13.84393 23.88620 18.86507
#
# Velocity S-wave (km/s) = 2.92893 3.84727 3.41908
# Velocity P-wave (km/s) = 4.17711 7.14584 5.85283
#
# Compressibility (1/GPa) = 0.10310545
#
# Stress axis : x y z
#
# Youngs Moduli (GPa) = 9.10639 73.29952 110.47013
#
# Poissons Ratio (x) = 0.38255 0.40053
# Poissons Ratio (y) = 0.04753 0.64697
# Poissons Ratio (z) = 0.03302 0.42928
#
# Static dielectric constant tensor:
#      x y z
#    x 1.576800 0.000000 0.000000 
#    y 0.000000 1.542180 0.000000 
#    z 0.000000 0.000000 1.554780 
# 
# From -- ./inp_files/33177.got.cif
#   From: 2010.05.17/outbox.cif.g08.bks.cpg/sg59_17_cif.got.tgz:33177.got - 2010.06.03 14:40:33.
