data_PCOD9453265
_publ_section_title
;
Structure prediction by ZEFSAII (Michael W. Deem and Ramdas Pophale) SiO2 
 PCOD9453265
Probable space group: P M M N
;
_chemical_formula_sum "Si O2"
_cell_formula_units_Z 56
_cell_length_a 14.616476
_cell_length_b 8.669931
_cell_length_c 20.947774
_cell_angle_alpha 90.000000
_cell_angle_beta 90.000000
_cell_angle_gamma 90.000000
_cell_volume 2654.582327
_symmetry_space_group_name_H-M "P M M N"
_symmetry_group_IT_number 59
_space_group.IT_coordinate_system_code '2'
_symmetry_cell_setting 'orthorhombic'
loop_
_space_group_symop_operation_xyz
x,y,z
1/2-x,1/2-y,z
1/2+x,-y,-z
-x,1/2+y,-z
-x,-y,-z
1/2+x,1/2+y,-z
1/2-x,y,z
x,1/2-y,z
loop_
_atom_site_type_symbol
_atom_site_label
_atom_site_fract_x
_atom_site_fract_y
_atom_site_fract_z
Si Si1 0.898326 0.424969 0.422755
Si Si2 0.152480 0.563337 0.117511
Si Si3 0.152278 0.568137 0.317896
Si Si4 0.116995 0.423651 0.448039
Si Si5 0.054030 0.435833 0.849568
Si Si6 0.446712 0.436612 0.708450
Si Si7 0.097457 0.566323 0.978668
O O1 0.864412 0.250000 0.424304
O O2 0.858692 0.524716 0.480675
O O3 0.006989 0.421504 0.439233
O O4 0.893564 0.494833 0.351945
O O5 0.250000 0.508422 0.145148
O O6 0.151048 0.750000 0.125144
O O7 0.052957 0.510833 0.142787
O O8 0.154896 0.529494 0.041704
O O9 0.250000 0.503549 0.294708
O O10 0.152406 0.750000 0.303210
O O11 0.150231 0.540030 0.393913
O O12 0.053632 0.509407 0.294552
O O13 0.148275 0.250000 0.434795
O O14 0.052395 0.250000 0.854050
O O15 0.087719 0.477860 0.778954
O O16 0.113141 0.497906 0.908649
O O17 0.446885 0.250000 0.702228
O O18 0.094882 0.750000 0.973073
O O19 0.000000 0.500000 0.000000
#
# Coordination Sequence:
#
# PCOD9453265 Si02
#       7
#     8   8   8   8   8   8   8
#     4   9  16  26  41  60  80 103 134 173 213 248
#     4   8  14  25  42  64  86 109 142 180 213 248
#     4   9  17  28  41  59  85 115 145 176 209 249
#     4   9  16  26  41  59  79 105 137 174 213 249
#     4   9  17  28  43  63  88 118 147 177 214 257
#     4   9  17  28  41  60  86 114 143 172 206 249
#     4   9  16  27  44  63  84 111 142 179 219 257
#
# _framework density 21.095597999999999
#
# number of rings (size 3 to 8) (size 9 to 14) (size 15 to 20)
#    0.000    3.143    0.000    2.143    0.000    4.857 
#    0.000    2.857    0.000   10.714    0.000    7.000 
#    0.000    3.429    0.000    0.000    0.000    0.000 
#
# Total GULP energy -311821.566990 kJ/mol
# GULP energy per Si atom -5568.242268 kJ/mol
# Density = 2.104758 g / cm^3
# Si number density = 21.095598 Si / 1000 Ang^3
#
#
#
# Elastic Constant Matrix: (Units=GPa)
#
#
# Indices 1 2 3 4 5 6 
#
# 1 28.2925 -5.0737 -12.2493 0.0000 0.0000 0.0000
# 2 -5.0737 15.0409 21.5683 0.0000 0.0000 0.0000
# 3 -12.2493 21.5683 158.2425 0.0000 0.0000 0.0000
# 4 0.0000 0.0000 0.0000 23.1101 0.0000 0.0000
# 5 0.0000 0.0000 0.0000 0.0000 -12.1509 0.0000
# 6 0.0000 0.0000 0.0000 0.0000 0.0000 -2.6098
#
#
#
# Elastic Compliance Matrix: (Units=1/GPa)
#
#
# Indices 1 2 3 4 5 6 
#
# 1 0.037898 0.010661 0.001481 0.000000 0.000000 0.000000
# 2 0.010661 0.085636 -0.010847 0.000000 0.000000 0.000000
# 3 0.001481 -0.010847 0.007912 0.000000 0.000000 0.000000
# 4 0.000000 0.000000 0.000000 0.043271 0.000000 0.000000
# 5 0.000000 0.000000 0.000000 0.000000 -0.082298 0.000000
# 6 0.000000 0.000000 0.000000 0.000000 0.000000 -0.383171
#
#
# Mechanical properties :
#
#
# Convention : Reuss Voigt Hill
#
# Bulk Modulus (GPa) = 7.46071 23.34071 15.40071
# Shear Modulus (GPa) = -20.10754 14.82525 -2.64115
#
# Velocity S-wave (km/s) = -3.09068 2.65385 -1.12014
# Velocity P-wave (km/s) = 3.03185 4.52535 2.37557
#
# Compressibility (1/GPa) = 0.13403547
#
# Stress axis : x y z
#
# Youngs Moduli (GPa) = 26.38670 11.67738 126.38355
#
# Poissons Ratio (x) = -0.12449 -0.18712
# Poissons Ratio (y) = -0.28131 1.37085
# Poissons Ratio (z) = -0.03907 0.12666
#
# Static dielectric constant tensor:
#      x y z
#    x 1.802900 0.000000 0.000000 
#    y 0.000000 1.729020 0.000000 
#    z 0.000000 0.000000 1.783210 
# 
# From -- ./inp_files/30602.got.cif
#   From: 2010.05.17/outbox.cif.g08.bks.cpg/sg59_16_cif.got.tgz:30602.got - 2010.06.03 14:40:33.
