data_PCOD9453382
_publ_section_title
;
Structure prediction by ZEFSAII (Michael W. Deem and Ramdas Pophale) SiO2 
 PCOD9453382
Probable space group: P M M N
;
_chemical_formula_sum "Si O2"
_cell_formula_units_Z 64
_cell_length_a 9.000000
_cell_length_b 18.000000
_cell_length_c 24.000000
_cell_angle_alpha 90.000000
_cell_angle_beta 90.000000
_cell_angle_gamma 90.000000
_cell_volume 3888.000000
_symmetry_space_group_name_H-M "P M M N"
_symmetry_group_IT_number 59
_space_group.IT_coordinate_system_code '2'
_symmetry_cell_setting 'orthorhombic'
loop_
_space_group_symop_operation_xyz
x,y,z
1/2-x,1/2-y,z
1/2+x,-y,-z
-x,1/2+y,-z
-x,-y,-z
1/2+x,1/2+y,-z
1/2-x,y,z
x,1/2-y,z
loop_
_atom_site_type_symbol
_atom_site_label
_atom_site_fract_x
_atom_site_fract_y
_atom_site_fract_z
Si Si1 0.070152 0.834254 0.563880
Si Si2 0.071193 0.948564 0.132024
Si Si3 0.070715 0.517846 0.632468
Si Si4 0.071584 0.334015 0.183412
Si Si5 0.429193 0.402438 0.067562
Si Si6 0.427908 0.523548 0.763014
Si Si7 0.571251 0.662099 0.050281
Si Si8 0.928571 0.434130 0.536468
O O1 0.250000 0.832179 0.567811
O O2 0.016045 0.750000 0.575245
O O3 0.023783 0.901719 0.605603
O O4 0.035014 0.861226 0.500553
O O5 0.250000 0.947514 0.135416
O O6 0.007369 0.875525 0.102934
O O7 0.025806 0.016773 0.090578
O O8 0.004128 0.967997 0.192548
O O9 0.250000 0.513592 0.625975
O O10 0.035108 0.512353 0.697914
O O11 0.996277 0.451462 0.596955
O O12 0.250000 0.346361 0.188372
O O13 0.038299 0.250000 0.200041
O O14 0.033214 0.346909 0.118227
O O15 0.986039 0.395301 0.218713
O O16 0.250000 0.402849 0.063710
O O17 0.483206 0.376962 0.007147
O O18 0.250000 0.519292 0.769040
O O19 0.750000 0.651500 0.054675
O O20 0.543619 0.750000 0.046673
O O21 0.750000 0.440442 0.538342
O O22 0.000000 0.500000 0.500000
#
# Coordination Sequence:
#
# PCOD9453382 Si02
#       8
#     8   8   8   8   8   8   8   8
#     4   8  14  26  45  70  98 124 149 179 220 269
#     4  10  20  34  51  70  95 127 162 200 244 293
#     4   9  18  31  48  69  92 123 161 199 234 271
#     4   9  17  30  47  68  98 132 161 192 235 289
#     4   8  15  29  49  71  94 124 159 192 234 292
#     4  10  20  33  49  69  93 124 167 210 242 279
#     4  10  19  31  50  74  97 122 154 195 246 300
#     4   9  16  27  46  69  94 125 157 189 224 266
#
# _framework density 16.460905
#
# number of rings (size 3 to 8) (size 9 to 14) (size 15 to 20)
#    0.000    2.875    0.000    3.375    0.000    3.500 
#    0.000    3.750    0.000   13.125    0.000    3.500 
#    0.000    0.000    0.000    0.000    0.000    0.000 
#
# Total GULP energy -356393.484570 kJ/mol
# GULP energy per Si atom -5568.648196 kJ/mol
# Density = 1.642344 g / cm^3
# Si number density = 16.460905 Si / 1000 Ang^3
#
#
#
# Elastic Constant Matrix: (Units=GPa)
#
#
# Indices 1 2 3 4 5 6 
#
# 1 34.0841 19.1016 38.3685 0.0000 0.0000 0.0000
# 2 19.1016 47.0622 41.8042 0.0000 0.0000 0.0000
# 3 38.3685 41.8042 137.6570 0.0000 0.0000 0.0000
# 4 0.0000 0.0000 0.0000 14.5892 0.0000 0.0000
# 5 0.0000 0.0000 0.0000 0.0000 24.5895 0.0000
# 6 0.0000 0.0000 0.0000 0.0000 0.0000 21.7665
#
#
#
# Elastic Compliance Matrix: (Units=1/GPa)
#
#
# Indices 1 2 3 4 5 6 
#
# 1 0.045924 -0.009955 -0.009777 0.000000 0.000000 0.000000
# 2 -0.009955 0.031256 -0.006717 0.000000 0.000000 0.000000
# 3 -0.009777 -0.006717 0.012029 0.000000 0.000000 0.000000
# 4 0.000000 0.000000 0.000000 0.068544 0.000000 0.000000
# 5 0.000000 0.000000 0.000000 0.000000 0.040668 0.000000
# 6 0.000000 0.000000 0.000000 0.000000 0.000000 0.045942
#
#
# Mechanical properties :
#
#
# Convention : Reuss Voigt Hill
#
# Bulk Modulus (GPa) = 27.53985 46.37241 36.95613
# Shear Modulus (GPa) = 16.16213 20.15765 18.15989
#
# Velocity S-wave (km/s) = 3.13685 3.50319 3.32507
# Velocity P-wave (km/s) = 5.46686 6.67799 6.10254
#
# Compressibility (1/GPa) = 0.03631102
#
# Stress axis : x y z
#
# Youngs Moduli (GPa) = 21.77495 31.99416 83.12938
#
# Poissons Ratio (x) = 0.31850 0.81276
# Poissons Ratio (y) = 0.21677 0.55839
# Poissons Ratio (z) = 0.21290 0.21491
#
# Static dielectric constant tensor:
#      x y z
#    x 1.551300 0.000000 0.000000 
#    y 0.000000 1.559400 0.000000 
#    z 0.000000 0.000000 1.570170 
# 
# From -- ./inp_files/31776.got.cif
#   From: 2010.05.17/outbox.ucp.g08.bks.cvg/sg59_16_cif.got.tgz:31776.got - 2010.06.11 16:43:56.
