data_PCOD9453962
_publ_section_title
;
Structure prediction by ZEFSAII (Michael W. Deem and Ramdas Pophale) SiO2 
 PCOD9453962
Probable space group: P B C N
;
_chemical_formula_sum "Si O2"
_cell_formula_units_Z 44
_cell_length_a 12.757052
_cell_length_b 24.007930
_cell_length_c 7.865449
_cell_angle_alpha 90.000000
_cell_angle_beta 90.000000
_cell_angle_gamma 90.000000
_cell_volume 2408.954301
_symmetry_space_group_name_H-M "P B C N"
_symmetry_group_IT_number 60
_symmetry_cell_setting 'orthorhombic'
loop_
_space_group_symop_operation_xyz
x,y,z
1/2-x,1/2-y,1/2+z
1/2+x,1/2-y,-z
-x,y,1/2-z
-x,-y,-z
1/2+x,1/2+y,1/2-z
1/2-x,1/2+y,z
x,-y,1/2+z
loop_
_atom_site_type_symbol
_atom_site_label
_atom_site_fract_x
_atom_site_fract_y
_atom_site_fract_z
Si Si1 0.492154 0.197940 0.956437
Si Si2 0.088525 0.084256 0.963497
Si Si3 0.778364 0.700053 0.962015
Si Si4 0.264072 0.174098 0.940637
Si Si5 0.444908 0.323104 0.934558
Si Si6 0.500000 0.504485 0.250000
O O1 0.500000 0.198242 0.750000
O O2 0.606403 0.180311 0.019640
O O3 0.384886 0.166353 0.997218
O O4 0.473024 0.262229 0.006595
O O5 0.993673 0.128717 0.951565
O O6 0.190395 0.122250 0.981580
O O7 0.087839 0.038536 0.816362
O O8 0.056424 0.045337 0.120120
O O9 0.762515 0.684206 0.763991
O O10 0.775373 0.767455 0.978930
O O11 0.680892 0.676092 0.068314
O O12 0.500000 0.327802 0.750000
#
# Coordination Sequence:
#
# PCOD9453962 Si02
#       6
#     8   8   8   8   8   4
#     4   8  16  31  48  79 109 148 174 200 263 361
#     4  11  20  38  52  82 106 150 186 252 282 330
#     4  10  19  32  53  84 116 152 179 210 271 373
#     4  10  20  32  55  78 119 149 181 221 284 335
#     4  10  18  31  54  76 114 148 176 222 286 327
#     4  10  24  34  56  76 106 140 212 240 298 318
#
# _framework density 18.265187000000001
#
# number of rings (size 3 to 8) (size 9 to 14) (size 15 to 20)
#    0.000    2.182    2.727    2.182    0.000    0.000 
#    0.000    0.000    0.000    0.000    0.000   34.364 
#    0.000    0.000    0.000    0.000    0.000    0.000 
#
# Total GULP energy -245255.344508 kJ/mol
# GULP energy per Si atom -5573.985102 kJ/mol
# Density = 1.822361 g / cm^3
# Si number density = 18.265187 Si / 1000 Ang^3
#
#
#
# Elastic Constant Matrix: (Units=GPa)
#
#
# Indices 1 2 3 4 5 6 
#
# 1 187.6647 60.0863 17.7131 0.0000 0.0000 0.0000
# 2 60.0863 97.6981 16.6566 0.0000 0.0000 0.0000
# 3 17.7131 16.6566 29.5188 0.0000 0.0000 0.0000
# 4 0.0000 0.0000 0.0000 313.5964 0.0000 0.0000
# 5 0.0000 0.0000 0.0000 0.0000 18.9569 0.0000
# 6 0.0000 0.0000 0.0000 0.0000 0.0000 27.8148
#
#
#
# Elastic Compliance Matrix: (Units=1/GPa)
#
#
# Indices 1 2 3 4 5 6 
#
# 1 0.006729 -0.003817 -0.001884 0.000000 0.000000 0.000000
# 2 -0.003817 0.013491 -0.005322 0.000000 0.000000 0.000000
# 3 -0.001884 -0.005322 0.038010 0.000000 0.000000 0.000000
# 4 0.000000 0.000000 0.000000 0.003189 0.000000 0.000000
# 5 0.000000 0.000000 0.000000 0.000000 0.052751 0.000000
# 6 0.000000 0.000000 0.000000 0.000000 0.000000 0.035952
#
#
# Mechanical properties :
#
#
# Convention : Reuss Voigt Hill
#
# Bulk Modulus (GPa) = 27.63659 55.97705 41.80682
# Shear Modulus (GPa) = 27.14030 86.76866 56.95448
#
# Velocity S-wave (km/s) = 3.85892 6.89986 5.59014
# Velocity P-wave (km/s) = 5.91766 9.70519 8.03771
#
# Compressibility (1/GPa) = 0.03618392
#
# Stress axis : x y z
#
# Youngs Moduli (GPa) = 148.61945 74.12622 26.30886
#
# Poissons Ratio (x) = 0.28294 0.04956
# Poissons Ratio (y) = 0.56729 0.14001
# Poissons Ratio (z) = 0.27996 0.39449
#
# Static dielectric constant tensor:
#      x y z
#    x 1.670980 0.000000 0.000000 
#    y 0.000000 1.574800 0.000000 
#    z 0.000000 0.000000 1.725530 
# 
# From -- ./inp_files/4993.got.cif
#   From: 2010.05.17/outbox.cif.g08.bks.cpg/sg60_3_cif.got.tgz:4993.got - 2010.06.03 14:59:27.
