data_PCOD9453692
_publ_section_title
;
Structure prediction by ZEFSAII (Michael W. Deem and Ramdas Pophale) SiO2 
 PCOD9453692
Probable space group: P M M N
;
_chemical_formula_sum "Si O2"
_cell_formula_units_Z 40
_cell_length_a 9.000000
_cell_length_b 15.000000
_cell_length_c 15.000000
_cell_angle_alpha 90.000000
_cell_angle_beta 90.000000
_cell_angle_gamma 90.000000
_cell_volume 2025.000000
_symmetry_space_group_name_H-M "P M M N"
_symmetry_group_IT_number 59
_space_group.IT_coordinate_system_code '2'
_symmetry_cell_setting 'orthorhombic'
loop_
_space_group_symop_operation_xyz
x,y,z
1/2-x,1/2-y,z
1/2+x,-y,-z
-x,1/2+y,-z
-x,-y,-z
1/2+x,1/2+y,-z
1/2-x,y,z
x,1/2-y,z
loop_
_atom_site_type_symbol
_atom_site_label
_atom_site_fract_x
_atom_site_fract_y
_atom_site_fract_z
Si Si1 0.422808 0.931086 0.729000
Si Si2 0.573529 0.102274 0.664354
Si Si3 0.927275 0.250000 0.518083
Si Si4 0.925719 0.750000 0.672940
Si Si5 0.072598 0.750000 0.187656
Si Si6 0.072971 0.250000 0.005382
Si Si7 0.924390 0.069768 0.065399
O O1 0.250000 0.915992 0.709412
O O2 0.508436 0.839126 0.715959
O O3 0.437854 0.959316 0.832153
O O4 0.486770 0.010383 0.669350
O O5 0.750000 0.084822 0.665353
O O6 0.540959 0.163614 0.578945
O O7 0.540574 0.164173 0.750529
O O8 0.750000 0.250000 0.498665
O O9 0.021006 0.250000 0.429213
O O10 0.750000 0.750000 0.680391
O O11 0.250000 0.750000 0.168346
O O12 0.981168 0.750000 0.097198
O O13 0.250000 0.250000 0.010115
O O14 0.005170 0.163362 0.051716
O O15 0.750000 0.079131 0.044273
O O16 0.000000 0.000000 0.000000
#
# Coordination Sequence:
#
# PCOD9453692 Si02
#       7
#     8   8   4   4   4   4   8
#     4  11  24  41  61  86 118 156 195 241 295 347
#     4   9  19  37  63  91 118 152 193 237 291 350
#     4   9  20  41  65  91 122 152 187 236 289 346
#     4  12  26  42  63  88 116 155 200 243 290 347
#     4   9  18  35  59  87 120 156 195 244 295 344
#     4  12  24  36  55  84 118 159 202 245 296 351
#     4  11  24  41  61  87 119 157 201 247 296 349
#
# _framework density 19.753086
#
# number of rings (size 3 to 8) (size 9 to 14) (size 15 to 20)
#    0.000    1.600    0.000    6.000    0.000   11.200 
#    0.000    2.000    0.000    0.000    0.000    0.000 
#    0.000    0.000    0.000    0.000    0.000    0.000 
#
# Total GULP energy -223690.119848 kJ/mol
# GULP energy per Si atom -5592.252996 kJ/mol
# Density = 1.970813 g / cm^3
# Si number density = 19.753086 Si / 1000 Ang^3
#
#
#
# Elastic Constant Matrix: (Units=GPa)
#
#
# Indices 1 2 3 4 5 6 
#
# 1 110.6460 70.8899 49.9352 0.0000 0.0000 0.0000
# 2 70.8899 135.0599 18.9152 0.0000 0.0000 0.0000
# 3 49.9352 18.9152 49.5643 0.0000 0.0000 0.0000
# 4 0.0000 0.0000 0.0000 -278.3047 0.0000 0.0000
# 5 0.0000 0.0000 0.0000 0.0000 32.0655 0.0000
# 6 0.0000 0.0000 0.0000 0.0000 0.0000 28.3481
#
#
#
# Elastic Compliance Matrix: (Units=1/GPa)
#
#
# Indices 1 2 3 4 5 6 
#
# 1 0.025431 -0.010311 -0.021687 0.000000 0.000000 0.000000
# 2 -0.010311 0.012003 0.005808 0.000000 0.000000 0.000000
# 3 -0.021687 0.005808 0.039808 0.000000 0.000000 0.000000
# 4 0.000000 0.000000 0.000000 -0.003593 0.000000 0.000000
# 5 0.000000 0.000000 0.000000 0.000000 0.031186 0.000000
# 6 0.000000 0.000000 0.000000 0.000000 0.000000 0.035276
#
#
# Mechanical properties :
#
#
# Convention : Reuss Voigt Hill
#
# Bulk Modulus (GPa) = 40.22148 63.86120 52.04134
# Shear Modulus (GPa) = 24.90299 -33.20955 -4.15328
#
# Velocity S-wave (km/s) = 3.55451 -4.10473 -1.45161
# Velocity P-wave (km/s) = 6.10347 3.15195 4.85732
#
# Compressibility (1/GPa) = 0.02486234
#
# Stress axis : x y z
#
# Youngs Moduli (GPa) = 39.32146 83.31367 25.12031
#
# Poissons Ratio (x) = 0.85906 0.54478
# Poissons Ratio (y) = 0.40545 -0.14589
# Poissons Ratio (z) = 0.85275 -0.48386
#
# Static dielectric constant tensor:
#      x y z
#    x 1.657330 0.000000 0.000000 
#    y 0.000000 1.667340 0.000000 
#    z 0.000000 0.000000 1.689940 
# 
# From -- ./inp_files/20050.got.cif
#   From: 2010.05.17/outbox.ucp.g08.bks.cvg/sg59_11_cif.got.tgz:20050.got - 2010.06.11 16:43:56.
