data_PCOD9453067
_publ_section_title
;
Structure prediction by ZEFSAII (Michael W. Deem and Ramdas Pophale) SiO2 
 PCOD9453067
Probable space group: P M M N
;
_chemical_formula_sum "Si O2"
_cell_formula_units_Z 48
_cell_length_a 36.362340
_cell_length_b 7.534088
_cell_length_c 7.718263
_cell_angle_alpha 90.000000
_cell_angle_beta 90.000000
_cell_angle_gamma 90.000000
_cell_volume 2114.472713
_symmetry_space_group_name_H-M "P M M N"
_symmetry_group_IT_number 59
_space_group.IT_coordinate_system_code '2'
_symmetry_cell_setting 'orthorhombic'
loop_
_space_group_symop_operation_xyz
x,y,z
1/2-x,1/2-y,z
1/2+x,-y,-z
-x,1/2+y,-z
-x,-y,-z
1/2+x,1/2+y,-z
1/2-x,y,z
x,1/2-y,z
loop_
_atom_site_type_symbol
_atom_site_label
_atom_site_fract_x
_atom_site_fract_y
_atom_site_fract_z
Si Si1 0.913390 0.049179 0.296213
Si Si2 0.664432 0.032747 0.374141
Si Si3 0.509287 0.456055 0.195908
Si Si4 0.291183 0.533385 0.947410
Si Si5 0.929367 0.054000 0.703964
Si Si6 0.350655 0.968064 0.232281
O O1 0.910487 0.250000 0.221929
O O2 0.873089 0.968778 0.279976
O O3 0.951084 0.958952 0.235604
O O4 0.918199 0.063494 0.503573
O O5 0.663039 0.250000 0.377256
O O6 0.697375 0.981477 0.247735
O O7 0.663442 0.978496 0.575400
O O8 0.516147 0.250000 0.224675
O O9 0.471196 0.489341 0.294602
O O10 0.500000 0.500000 0.000000
O O11 0.250000 0.474710 0.990880
O O12 0.291339 0.750000 0.952046
O O13 0.322077 0.476814 0.085341
O O14 0.932546 0.250000 0.782283
O O15 0.893190 0.969013 0.791431
O O16 0.352478 0.750000 0.231919
#
# Coordination Sequence:
#
# PCOD9453067 Si02
#       6
#     8   8   8   8   8   8
#     4   8  16  30  47  65  86 119 162 198 234 280
#     4   8  14  25  39  56  82 116 154 190 227 277
#     4  11  22  32  45  69  97 126 158 198 240 281
#     4   9  16  23  35  58  87 121 155 186 227 279
#     4   9  17  32  51  68  88 122 163 199 237 283
#     4   8  15  26  41  61  85 118 155 190 231 281
#
# _framework density 22.700695
#
# number of rings (size 3 to 8) (size 9 to 14) (size 15 to 20)
#    0.000    3.167    0.000    3.000    2.333    0.667 
#    0.000    4.167    0.000    0.000    0.000    0.000 
#    0.000    0.667    0.000    0.333    0.000    0.000 
#
# Total GULP energy -267364.969593 kJ/mol
# GULP energy per Si atom -5570.103533 kJ/mol
# Density = 2.264903 g / cm^3
# Si number density = 22.700695 Si / 1000 Ang^3
#
#
#
# Elastic Constant Matrix: (Units=GPa)
#
#
# Indices 1 2 3 4 5 6 
#
# 1 96.7067 3.9441 15.3776 0.0000 0.0000 0.0000
# 2 3.9441 49.4706 -6.3578 0.0000 0.0000 0.0000
# 3 15.3776 -6.3578 43.4221 0.0000 0.0000 0.0000
# 4 0.0000 0.0000 0.0000 -0.8759 0.0000 0.0000
# 5 0.0000 0.0000 0.0000 0.0000 43.8573 0.0000
# 6 0.0000 0.0000 0.0000 0.0000 0.0000 4.6211
#
#
#
# Elastic Compliance Matrix: (Units=1/GPa)
#
#
# Indices 1 2 3 4 5 6 
#
# 1 0.011053 -0.001411 -0.004121 0.000000 0.000000 0.000000
# 2 -0.001411 0.020782 0.003543 0.000000 0.000000 0.000000
# 3 -0.004121 0.003543 0.025008 0.000000 0.000000 0.000000
# 4 0.000000 0.000000 0.000000 -1.141672 0.000000 0.000000
# 5 0.000000 0.000000 0.000000 0.000000 0.022801 0.000000
# 6 0.000000 0.000000 0.000000 0.000000 0.000000 0.216398
#
#
# Mechanical properties :
#
#
# Convention : Reuss Voigt Hill
#
# Bulk Modulus (GPa) = 18.91637 23.94745 21.43191
# Shear Modulus (GPa) = -6.06774 21.29620 7.61423
#
# Velocity S-wave (km/s) = -1.63668 3.06621 1.83343
# Velocity P-wave (km/s) = 2.18618 4.80704 3.73410
#
# Compressibility (1/GPa) = 0.05286426
#
# Stress axis : x y z
#
# Youngs Moduli (GPa) = 90.47006 48.11903 39.98736
#
# Poissons Ratio (x) = 0.06789 0.16479
# Poissons Ratio (y) = 0.12764 -0.14166
# Poissons Ratio (z) = 0.37283 -0.17046
#
# Static dielectric constant tensor:
#      x y z
#    x 1.944630 0.000000 0.000000 
#    y 0.000000 -5.834920 0.000000 
#    z 0.000000 0.000000 1.821780 
# 
# From -- ./inp_files/6296.got.cif
#   From: 2010.05.17/outbox.cif.g08.bks.cpg/sg59_4_cif.got.tgz:6296.got - 2010.06.03 14:40:33.
