data_PCOD9453097
_publ_section_title
;
Structure prediction by ZEFSAII (Michael W. Deem and Ramdas Pophale) SiO2 
 PCOD9453097
Probable space group: P M M N
;
_chemical_formula_sum "Si O2"
_cell_formula_units_Z 64
_cell_length_a 17.711087
_cell_length_b 9.046745
_cell_length_c 21.421137
_cell_angle_alpha 90.000000
_cell_angle_beta 90.000000
_cell_angle_gamma 90.000000
_cell_volume 3432.259251
_symmetry_space_group_name_H-M "P M M N"
_symmetry_group_IT_number 59
_space_group.IT_coordinate_system_code '2'
_symmetry_cell_setting 'orthorhombic'
loop_
_space_group_symop_operation_xyz
x,y,z
1/2-x,1/2-y,z
1/2+x,-y,-z
-x,1/2+y,-z
-x,-y,-z
1/2+x,1/2+y,-z
1/2-x,y,z
x,1/2-y,z
loop_
_atom_site_type_symbol
_atom_site_label
_atom_site_fract_x
_atom_site_fract_y
_atom_site_fract_z
Si Si1 0.065424 0.571773 0.598786
Si Si2 0.663329 0.576078 0.508767
Si Si3 0.157855 0.080069 0.982161
Si Si4 0.342131 0.921003 0.856284
Si Si5 0.163335 0.929726 0.719781
Si Si6 0.595286 0.071780 0.623908
Si Si7 0.662654 0.429872 0.755601
Si Si8 0.157842 0.921282 0.108142
O O1 0.059504 0.750000 0.594661
O O2 0.109656 0.507833 0.539575
O O3 0.112040 0.531466 0.661324
O O4 0.984461 0.496181 0.604184
O O5 0.750000 0.564105 0.487609
O O6 0.643663 0.750000 0.512786
O O7 0.654257 0.498738 0.575735
O O8 0.250000 0.070575 0.982116
O O9 0.136528 0.250000 0.982179
O O10 0.132094 0.005025 0.917949
O O11 0.132144 0.004734 0.046299
O O12 0.250000 0.924427 0.855227
O O13 0.364544 0.750000 0.861547
O O14 0.364850 0.980812 0.788042
O O15 0.250000 0.979007 0.710421
O O16 0.165096 0.750000 0.723222
O O17 0.404496 0.750000 0.380724
O O18 0.615320 0.028716 0.694965
O O19 0.750000 0.476365 0.747364
O O20 0.663290 0.250000 0.758617
O O21 0.634298 0.480808 0.823729
O O22 0.250000 0.925546 0.109403
O O23 0.135960 0.750000 0.102789
#
# Coordination Sequence:
#
# PCOD9453097 Si02
#       8
#     8   8   8   8   8   8   8   8
#     4  11  22  37  57  80 108 140 174 211 254 304
#     4  11  24  41  60  83 109 135 168 211 256 303
#     4   9  15  21  31  55  92 127 156 191 243 301
#     4   8  13  23  40  61  86 119 160 203 245 292
#     4   8  15  29  50  74  97 126 169 215 254 298
#     4  11  22  37  57  80 108 140 174 211 254 304
#     4   8  15  29  50  74  97 126 169 215 254 298
#     4   8  13  23  40  61  86 119 160 203 245 292
#
# _framework density 18.646609999999999
#
# number of rings (size 3 to 8) (size 9 to 14) (size 15 to 20)
#    0.000    2.750    0.000    4.125    0.000    3.500 
#    0.000    2.500    0.000    6.000    0.000    0.875 
#    0.000    0.000    0.000    0.000    0.000    0.000 
#
# Total GULP energy -356763.752544 kJ/mol
# GULP energy per Si atom -5574.433634 kJ/mol
# Density = 1.860417 g / cm^3
# Si number density = 18.646610 Si / 1000 Ang^3
#
#
#
# Elastic Constant Matrix: (Units=GPa)
#
#
# Indices 1 2 3 4 5 6 
#
# 1 29.0588 11.2335 11.0330 0.0000 0.0000 0.0000
# 2 11.2335 60.0064 37.5743 0.0000 0.0000 0.0000
# 3 11.0330 37.5743 123.7476 0.0000 0.0000 0.0000
# 4 0.0000 0.0000 0.0000 11.3941 0.0000 0.0000
# 5 0.0000 0.0000 0.0000 0.0000 -6.8906 0.0000
# 6 0.0000 0.0000 0.0000 0.0000 0.0000 7.7129
#
#
#
# Elastic Compliance Matrix: (Units=1/GPa)
#
#
# Indices 1 2 3 4 5 6 
#
# 1 0.037319 -0.006054 -0.001489 0.000000 0.000000 0.000000
# 2 -0.006054 0.021559 -0.006006 0.000000 0.000000 0.000000
# 3 -0.001489 -0.006006 0.010037 0.000000 0.000000 0.000000
# 4 0.000000 0.000000 0.000000 0.087764 0.000000 0.000000
# 5 0.000000 0.000000 0.000000 0.000000 -0.145126 0.000000
# 6 0.000000 0.000000 0.000000 0.000000 0.000000 0.129654
#
#
# Mechanical properties :
#
#
# Convention : Reuss Voigt Hill
#
# Bulk Modulus (GPa) = 23.91389 36.94382 30.42885
# Shear Modulus (GPa) = 27.43560 12.64143 20.03851
#
# Velocity S-wave (km/s) = 3.83997 2.60657 3.28174
# Velocity P-wave (km/s) = 5.70203 5.37723 5.54201
#
# Compressibility (1/GPa) = 0.04181670
#
# Stress axis : x y z
#
# Youngs Moduli (GPa) = 26.79633 46.38388 99.62642
#
# Poissons Ratio (x) = 0.28080 0.14835
# Poissons Ratio (y) = 0.16222 0.59840
# Poissons Ratio (z) = 0.03990 0.27860
#
# Static dielectric constant tensor:
#      x y z
#    x 1.650030 0.000000 0.000000 
#    y 0.000000 1.620130 0.000000 
#    z 0.000000 0.000000 1.668240 
# 
# From -- ./inp_files/28226.got.cif
#   From: 2010.05.17/outbox.cif.g08.bks.cpg/sg59_15_cif.got.tgz:28226.got - 2010.06.03 14:40:33.
