data_PCOD9453560
_publ_section_title
;
Structure prediction by ZEFSAII (Michael W. Deem and Ramdas Pophale) SiO2 
 PCOD9453560
Probable space group: P M M N
;
_chemical_formula_sum "Si O2"
_cell_formula_units_Z 40
_cell_length_a 18.000000
_cell_length_b 9.000000
_cell_length_c 12.000000
_cell_angle_alpha 90.000000
_cell_angle_beta 90.000000
_cell_angle_gamma 90.000000
_cell_volume 1944.000000
_symmetry_space_group_name_H-M "P M M N"
_symmetry_group_IT_number 59
_space_group.IT_coordinate_system_code '2'
_symmetry_cell_setting 'orthorhombic'
loop_
_space_group_symop_operation_xyz
x,y,z
1/2-x,1/2-y,z
1/2+x,-y,-z
-x,1/2+y,-z
-x,-y,-z
1/2+x,1/2+y,-z
1/2-x,y,z
x,1/2-y,z
loop_
_atom_site_type_symbol
_atom_site_label
_atom_site_fract_x
_atom_site_fract_y
_atom_site_fract_z
Si Si1 0.576147 0.076727 0.465521
Si Si2 0.431459 0.078667 0.129402
Si Si3 0.895256 0.078442 0.087779
Si Si4 0.164316 0.421043 0.350000
Si Si5 0.332999 0.076075 0.716805
O O1 0.564168 0.250000 0.459432
O O2 0.500000 0.000000 0.500000
O O3 0.638225 0.031825 0.555154
O O4 0.606578 0.015476 0.350112
O O5 0.420537 0.250000 0.091731
O O6 0.519937 0.054582 0.130338
O O7 0.391377 0.062532 0.246889
O O8 0.397199 0.966542 0.040725
O O9 0.875613 0.250000 0.104554
O O10 0.841787 0.971941 0.156027
O O11 0.250000 0.442947 0.317231
O O12 0.157458 0.250000 0.391512
O O13 0.250000 0.041504 0.676438
O O14 0.345879 0.250000 0.702587
#
# Coordination Sequence:
#
# PCOD9453560 Si02
#       5
#     8   8   8   8   8
#     4  12  25  41  63  88 116 151 193 240 290 347
#     4   9  19  36  57  83 117 157 198 239 287 342
#     4  10  20  35  58  86 117 155 199 245 289 339
#     4  10  21  38  60  86 118 155 195 240 291 347
#     4  11  24  41  61  86 119 157 195 238 291 349
#
# _framework density 20.576132000000001
#
# number of rings (size 3 to 8) (size 9 to 14) (size 15 to 20)
#    0.000    1.600    0.000    4.800    0.000    8.400 
#    0.000    2.000    0.000    0.000    0.000    0.000 
#    0.000    0.000    0.000    0.000    0.000    0.000 
#
# Total GULP energy -223503.797224 kJ/mol
# GULP energy per Si atom -5587.594931 kJ/mol
# Density = 2.052930 g / cm^3
# Si number density = 20.576132 Si / 1000 Ang^3
#
#
#
# Elastic Constant Matrix: (Units=GPa)
#
#
# Indices 1 2 3 4 5 6 
#
# 1 17.7197 36.9672 14.8625 0.0000 0.0000 0.0000
# 2 36.9672 49.0322 36.2939 0.0000 0.0000 0.0000
# 3 14.8625 36.2939 49.3666 0.0000 0.0000 0.0000
# 4 0.0000 0.0000 0.0000 34.8617 0.0000 0.0000
# 5 0.0000 0.0000 0.0000 0.0000 -23.3168 0.0000
# 6 0.0000 0.0000 0.0000 0.0000 0.0000 17.6797
#
#
#
# Elastic Compliance Matrix: (Units=1/GPa)
#
#
# Indices 1 2 3 4 5 6 
#
# 1 -0.058493 0.068154 -0.032496 0.000000 0.000000 0.000000
# 2 0.068154 -0.034666 0.004967 0.000000 0.000000 0.000000
# 3 -0.032496 0.004967 0.026388 0.000000 0.000000 0.000000
# 4 0.000000 0.000000 0.000000 0.028685 0.000000 0.000000
# 5 0.000000 0.000000 0.000000 0.000000 -0.042888 0.000000
# 6 0.000000 0.000000 0.000000 0.000000 0.000000 0.056562
#
#
# Mechanical properties :
#
#
# Convention : Reuss Voigt Hill
#
# Bulk Modulus (GPa) = 69.06275 32.48506 50.77390
# Shear Modulus (GPa) = -49.58628 7.71124 -20.93752
#
# Velocity S-wave (km/s) = -4.91439 1.93799 -3.19339
# Velocity P-wave (km/s) = 1.19820 4.56396 3.33657
#
# Compressibility (1/GPa) = 0.01447959
#
# Stress axis : x y z
#
# Youngs Moduli (GPa) = -17.09611 -28.84710 37.89600
#
# Poissons Ratio (x) = 1.96603 1.23146
# Poissons Ratio (y) = 1.16516 -0.18824
# Poissons Ratio (z) = -0.55555 0.14329
#
# Static dielectric constant tensor:
#      x y z
#    x 1.719250 0.000000 0.000000 
#    y 0.000000 1.699600 0.000000 
#    z 0.000000 0.000000 1.772590 
# 
# From -- ./inp_files/13817.got.cif
#   From: 2010.05.17/outbox.ucp.g08.bks.cvg/sg59_7_cif.got.tgz:13817.got - 2010.06.11 16:43:56.
