data_PCOD9453160
_publ_section_title
;
Structure prediction by ZEFSAII (Michael W. Deem and Ramdas Pophale) SiO2 
 PCOD9453160
Probable space group: P M M N
;
_chemical_formula_sum "Si O2"
_cell_formula_units_Z 38
_cell_length_a 23.508737
_cell_length_b 8.327367
_cell_length_c 10.135283
_cell_angle_alpha 90.000000
_cell_angle_beta 90.000000
_cell_angle_gamma 90.000000
_cell_volume 1984.142603
_symmetry_space_group_name_H-M "P M M N"
_symmetry_group_IT_number 59
_space_group.IT_coordinate_system_code '2'
_symmetry_cell_setting 'orthorhombic'
loop_
_space_group_symop_operation_xyz
x,y,z
1/2-x,1/2-y,z
1/2+x,-y,-z
-x,1/2+y,-z
-x,-y,-z
1/2+x,1/2+y,-z
1/2-x,y,z
x,1/2-y,z
loop_
_atom_site_type_symbol
_atom_site_label
_atom_site_fract_x
_atom_site_fract_y
_atom_site_fract_z
Si Si1 0.516434 0.932542 0.641389
Si Si2 0.852596 0.001068 0.649017
Si Si3 0.872827 0.250000 0.136766
Si Si4 0.317297 0.750000 0.140174
Si Si5 0.750000 0.750000 0.650847
Si Si6 0.955703 0.939743 0.110815
Si Si7 0.319332 0.750000 0.571542
O O1 0.494983 0.750000 0.659799
O O2 0.500000 0.000000 0.500000
O O3 0.584422 0.931674 0.650511
O O4 0.489186 0.045718 0.751504
O O5 0.845675 0.102808 0.782851
O O6 0.843570 0.103073 0.515110
O O7 0.799895 0.884689 0.650422
O O8 0.908229 0.417946 0.119738
O O9 0.842783 0.250000 0.279794
O O10 0.829360 0.250000 0.014189
O O11 0.250000 0.750000 0.167054
O O12 0.938995 0.750000 0.088870
O O13 0.000000 0.000000 0.000000
O O14 0.250000 0.750000 0.569564
#
# Coordination Sequence:
#
# PCOD9453160 Si02
#       7
#     8   8   4   4   2   8   4
#     4  12  25  40  63 100 136 174 219 280 340 405
#     4  11  23  41  69  94 131 173 226 281 335 401
#     4  12  25  45  68  93 140 180 214 279 346 402
#     4  11  23  43  67  97 123 173 229 279 332 394
#     4  12  20  44  66 102 128 172 226 286 338 392
#     4  12  25  45  65  95 133 177 224 270 338 411
#     4  11  23  43  64  94 131 177 222 267 335 405
#
# _framework density 19.151851000000001
#
# number of rings (size 3 to 8) (size 9 to 14) (size 15 to 20)
#    0.000    0.421    5.263    4.105    5.895    0.000 
#    3.789    0.000    0.000    2.526    0.000    0.000 
#    0.000    0.000    0.000    0.000    0.000    0.000 
#
# Total GULP energy -211591.530548 kJ/mol
# GULP energy per Si atom -5568.198172 kJ/mol
# Density = 1.910826 g / cm^3
# Si number density = 19.151851 Si / 1000 Ang^3
#
#
#
# Elastic Constant Matrix: (Units=GPa)
#
#
# Indices 1 2 3 4 5 6 
#
# 1 53.9813 8.9890 -13.8016 0.0000 0.0000 0.0000
# 2 8.9890 129.9150 10.4007 0.0000 0.0000 0.0000
# 3 -13.8016 10.4007 114.5964 0.0000 0.0000 0.0000
# 4 0.0000 0.0000 0.0000 -2.7131 0.0000 0.0000
# 5 0.0000 0.0000 0.0000 0.0000 27.3744 0.0000
# 6 0.0000 0.0000 0.0000 0.0000 0.0000 32.1215
#
#
#
# Elastic Compliance Matrix: (Units=1/GPa)
#
#
# Indices 1 2 3 4 5 6 
#
# 1 0.019415 -0.001542 0.002478 0.000000 0.000000 0.000000
# 2 -0.001542 0.007876 -0.000901 0.000000 0.000000 0.000000
# 3 0.002478 -0.000901 0.009106 0.000000 0.000000 0.000000
# 4 0.000000 0.000000 0.000000 -0.368586 0.000000 0.000000
# 5 0.000000 0.000000 0.000000 0.000000 0.036530 0.000000
# 6 0.000000 0.000000 0.000000 0.000000 0.000000 0.031132
#
#
# Mechanical properties :
#
#
# Convention : Reuss Voigt Hill
#
# Bulk Modulus (GPa) = 27.41995 34.40764 30.91380
# Shear Modulus (GPa) = -19.80660 30.88355 5.53847
#
# Velocity S-wave (km/s) = -3.21937 4.02003 1.70240
# Velocity P-wave (km/s) = 0.72740 6.28905 4.47668
#
# Compressibility (1/GPa) = 0.03646979
#
# Stress axis : x y z
#
# Youngs Moduli (GPa) = 51.50583 126.96627 109.81188
#
# Poissons Ratio (x) = 0.19575 -0.27214
# Poissons Ratio (y) = 0.07941 0.09889
# Poissons Ratio (z) = -0.12764 0.11433
#
# Static dielectric constant tensor:
#      x y z
#    x 1.642190 0.000000 0.000000 
#    y 0.000000 1.686580 0.000000 
#    z 0.000000 0.000000 1.639510 
# 
# From -- ./inp_files/11914.got.cif
#   From: 2010.05.17/outbox.cif.g08.bks.cpg/sg59_6_cif.got.tgz:11914.got - 2010.06.03 14:40:33.
