data_PCOD9453085
_publ_section_title
;
Structure prediction by ZEFSAII (Michael W. Deem and Ramdas Pophale) SiO2 
 PCOD9453085
Probable space group: P M M N
;
_chemical_formula_sum "Si O2"
_cell_formula_units_Z 64
_cell_length_a 8.866954
_cell_length_b 23.441784
_cell_length_c 18.715296
_cell_angle_alpha 90.000000
_cell_angle_beta 90.000000
_cell_angle_gamma 90.000000
_cell_volume 3890.109406
_symmetry_space_group_name_H-M "P M M N"
_symmetry_group_IT_number 59
_space_group.IT_coordinate_system_code '2'
_symmetry_cell_setting 'orthorhombic'
loop_
_space_group_symop_operation_xyz
x,y,z
1/2-x,1/2-y,z
1/2+x,-y,-z
-x,1/2+y,-z
-x,-y,-z
1/2+x,1/2+y,-z
1/2-x,y,z
x,1/2-y,z
loop_
_atom_site_type_symbol
_atom_site_label
_atom_site_fract_x
_atom_site_fract_y
_atom_site_fract_z
Si Si1 0.068654 0.315758 0.766941
Si Si2 0.429938 0.004943 0.420925
Si Si3 0.570564 0.632910 0.630417
Si Si4 0.430805 0.818446 0.772504
Si Si5 0.569010 0.608149 0.367268
Si Si6 0.074334 0.819403 0.084103
Si Si7 0.928780 0.183810 0.508513
Si Si8 0.933545 0.316622 0.070379
O O1 0.250000 0.314730 0.766803
O O2 0.016411 0.250000 0.755703
O O3 0.019497 0.356715 0.702786
O O4 0.013058 0.335847 0.844547
O O5 0.250000 0.998541 0.426484
O O6 0.462805 0.067027 0.388365
O O7 0.500000 0.000000 0.500000
O O8 0.497868 0.954216 0.373666
O O9 0.750000 0.641513 0.624314
O O10 0.514137 0.650465 0.708395
O O11 0.486542 0.670485 0.570861
O O12 0.250000 0.826275 0.765867
O O13 0.457815 0.750000 0.768410
O O14 0.478287 0.839585 0.851908
O O15 0.750000 0.604042 0.367638
O O16 0.515471 0.643512 0.436352
O O17 0.250000 0.835031 0.091638
O O18 0.068009 0.750000 0.080774
O O19 0.016554 0.840575 0.006558
O O20 0.750000 0.172822 0.512921
O O21 0.956405 0.250000 0.526025
O O22 0.750000 0.317743 0.068583
O O23 0.977718 0.250000 0.071492
#
# Coordination Sequence:
#
# PCOD9453085 Si02
#       8
#     8   8   8   8   8   8   8   8
#     4   9  18  31  46  69 103 135 160 192 240 296
#     4  11  23  39  57  74  93 123 165 212 255 297
#     4  11  23  36  51  72  98 128 161 202 253 297
#     4   9  17  30  49  73 102 134 166 200 239 288
#     4  11  22  36  54  74  97 129 165 205 252 295
#     4   8  13  23  42  67  95 129 166 198 230 276
#     4  11  23  36  52  74  99 129 164 199 239 293
#     4   7  11  22  41  66  96 129 163 197 233 277
#
# _framework density 16.451981
#
# number of rings (size 3 to 8) (size 9 to 14) (size 15 to 20)
#    0.000    2.375    1.250    3.750    0.000    5.750 
#    0.000    1.875    0.000    2.250    0.000    0.875 
#    0.000    0.000    0.000    0.000    0.000    0.000 
#
# Total GULP energy -356733.701299 kJ/mol
# GULP energy per Si atom -5573.964083 kJ/mol
# Density = 1.641454 g / cm^3
# Si number density = 16.451981 Si / 1000 Ang^3
#
#
#
# Elastic Constant Matrix: (Units=GPa)
#
#
# Indices 1 2 3 4 5 6 
#
# 1 25.2624 24.6229 13.8926 0.0000 0.0000 0.0000
# 2 24.6229 44.3679 15.1659 0.0000 0.0000 0.0000
# 3 13.8926 15.1659 103.1198 0.0000 0.0000 0.0000
# 4 0.0000 0.0000 0.0000 3.2138 0.0000 0.0000
# 5 0.0000 0.0000 0.0000 0.0000 23.9613 0.0000
# 6 0.0000 0.0000 0.0000 0.0000 0.0000 21.6731
#
#
#
# Elastic Compliance Matrix: (Units=1/GPa)
#
#
# Indices 1 2 3 4 5 6 
#
# 1 0.088564 -0.047458 -0.004952 0.000000 0.000000 0.000000
# 2 -0.047458 0.049163 -0.000837 0.000000 0.000000 0.000000
# 3 -0.004952 -0.000837 0.010488 0.000000 0.000000 0.000000
# 4 0.000000 0.000000 0.000000 0.311160 0.000000 0.000000
# 5 0.000000 0.000000 0.000000 0.000000 0.041734 0.000000
# 6 0.000000 0.000000 0.000000 0.000000 0.000000 0.046140
#
#
# Mechanical properties :
#
#
# Convention : Reuss Voigt Hill
#
# Bulk Modulus (GPa) = 23.96852 31.12363 27.54608
# Shear Modulus (GPa) = 7.48896 17.70755 12.59826
#
# Velocity S-wave (km/s) = 2.13586 3.28429 2.77024
# Velocity P-wave (km/s) = 4.54785 5.77417 5.19730
#
# Compressibility (1/GPa) = 0.04172139
#
# Stress axis : x y z
#
# Youngs Moduli (GPa) = 11.29121 20.34064 95.35021
#
# Poissons Ratio (x) = 0.96533 0.47217
# Poissons Ratio (y) = 0.53586 0.07978
# Poissons Ratio (z) = 0.05591 0.01702
#
# Static dielectric constant tensor:
#      x y z
#    x 1.551870 0.000000 0.000000 
#    y 0.000000 1.536130 0.000000 
#    z 0.000000 0.000000 1.572860 
# 
# From -- ./inp_files/26310.got.cif
#   From: 2010.05.17/outbox.cif.g08.bks.cpg/sg59_14_cif.got.tgz:26310.got - 2010.06.03 14:40:33.
