data_PCOD9453251
_publ_section_title
;
Structure prediction by ZEFSAII (Michael W. Deem and Ramdas Pophale) SiO2 
 PCOD9453251
Probable space group: P M M N
;
_chemical_formula_sum "Si O2"
_cell_formula_units_Z 56
_cell_length_a 7.299435
_cell_length_b 14.283598
_cell_length_c 21.307473
_cell_angle_alpha 90.000000
_cell_angle_beta 90.000000
_cell_angle_gamma 90.000000
_cell_volume 2221.563908
_symmetry_space_group_name_H-M "P M M N"
_symmetry_group_IT_number 59
_space_group.IT_coordinate_system_code '2'
_symmetry_cell_setting 'orthorhombic'
loop_
_space_group_symop_operation_xyz
x,y,z
1/2-x,1/2-y,z
1/2+x,-y,-z
-x,1/2+y,-z
-x,-y,-z
1/2+x,1/2+y,-z
1/2-x,y,z
x,1/2-y,z
loop_
_atom_site_type_symbol
_atom_site_label
_atom_site_fract_x
_atom_site_fract_y
_atom_site_fract_z
Si Si1 0.458365 0.889345 0.920987
Si Si2 0.528397 0.350141 0.619186
Si Si3 0.461162 0.348659 0.806355
Si Si4 0.972272 0.393385 0.945296
Si Si5 0.967054 0.392411 0.482565
Si Si6 0.964632 0.066677 0.348292
Si Si7 0.475549 0.939348 0.788000
O O1 0.250000 0.855277 0.917115
O O2 0.458811 0.000841 0.934741
O O3 0.537017 0.884552 0.850691
O O4 0.536769 0.854875 0.987356
O O5 0.750000 0.351935 0.620134
O O6 0.469712 0.250000 0.647873
O O7 0.465330 0.346479 0.546451
O O8 0.475272 0.452344 0.645786
O O9 0.250000 0.350518 0.785460
O O10 0.544663 0.250000 0.784344
O O11 0.467226 0.345259 0.881821
O O12 0.537143 0.451436 0.790894
O O13 0.750000 0.393848 0.946706
O O14 0.750000 0.371920 0.479597
O O15 0.040872 0.385567 0.411649
O O16 0.000000 0.500000 0.500000
O O17 0.750000 0.088973 0.348279
O O18 0.034479 0.096198 0.280094
O O19 0.250000 0.940084 0.790740
#
# Coordination Sequence:
#
# PCOD9453251 Si02
#       7
#     8   8   8   8   8   8   8
#     4   8  14  25  39  54  73  96 120 149 189 230
#     4   9  17  28  40  55  79 108 131 154 191 236
#     4   9  17  28  39  51  73 105 132 152 183 230
#     4   9  15  23  38  57  73  92 122 160 191 213
#     4   8  14  25  40  57  75  97 127 161 194 225
#     4   9  16  26  42  61  78  99 130 166 195 222
#     4   8  14  25  40  57  76  99 127 155 185 224
#
# _framework density 25.207464999999999
#
# number of rings (size 3 to 8) (size 9 to 14) (size 15 to 20)
#    0.000    3.429    0.000    1.286    0.000    1.714 
#    0.000    4.286    0.000    0.000    0.000    1.000 
#    0.000    5.714    0.000    2.143    0.000    3.286 
#
# Total GULP energy -311910.668805 kJ/mol
# GULP energy per Si atom -5569.833372 kJ/mol
# Density = 2.515009 g / cm^3
# Si number density = 25.207465 Si / 1000 Ang^3
#
#
#
# Elastic Constant Matrix: (Units=GPa)
#
#
# Indices 1 2 3 4 5 6 
#
# 1 118.0814 -8.1892 -3.6979 0.0000 0.0000 0.0000
# 2 -8.1892 48.9793 -4.9891 0.0000 0.0000 0.0000
# 3 -3.6979 -4.9891 241.6870 0.0000 0.0000 0.0000
# 4 0.0000 0.0000 0.0000 -238.8059 0.0000 0.0000
# 5 0.0000 0.0000 0.0000 0.0000 3.6506 0.0000
# 6 0.0000 0.0000 0.0000 0.0000 0.0000 -17.6461
#
#
#
# Elastic Compliance Matrix: (Units=1/GPa)
#
#
# Indices 1 2 3 4 5 6 
#
# 1 0.008574 0.001450 0.000161 0.000000 0.000000 0.000000
# 2 0.001450 0.020705 0.000450 0.000000 0.000000 0.000000
# 3 0.000161 0.000450 0.004149 0.000000 0.000000 0.000000
# 4 0.000000 0.000000 0.000000 -0.004188 0.000000 0.000000
# 5 0.000000 0.000000 0.000000 0.000000 0.273928 0.000000
# 6 0.000000 0.000000 0.000000 0.000000 0.000000 -0.056670
#
#
# Mechanical properties :
#
#
# Convention : Reuss Voigt Hill
#
# Bulk Modulus (GPa) = 26.63101 41.66611 34.14856
# Shear Modulus (GPa) = 19.61591 -22.18535 -1.28472
#
# Velocity S-wave (km/s) = 2.79261 -2.96988 -0.71468
# Velocity P-wave (km/s) = 4.58104 2.19200 3.59102
#
# Compressibility (1/GPa) = 0.03755021
#
# Stress axis : x y z
#
# Youngs Moduli (GPa) = 116.62698 48.29742 241.00276
#
# Poissons Ratio (x) = -0.07003 -0.03883
# Poissons Ratio (y) = -0.16911 -0.10835
# Poissons Ratio (z) = -0.01879 -0.02171
#
# Static dielectric constant tensor:
#      x y z
#    x 1.954700 0.000000 0.000000 
#    y 0.000000 2.015900 0.000000 
#    z 0.000000 0.000000 2.050140 
# 
# From -- ./inp_files/29310.got.cif
#   From: 2010.05.17/outbox.cif.g08.bks.cpg/sg59_15_cif.got.tgz:29310.got - 2010.06.03 14:40:33.
