data_PCOD9453331
_publ_section_title
;
Structure prediction by ZEFSAII (Michael W. Deem and Ramdas Pophale) SiO2 
 PCOD9453331
Probable space group: P M M N
;
_chemical_formula_sum "Si O2"
_cell_formula_units_Z 48
_cell_length_a 9.000000
_cell_length_b 30.000000
_cell_length_c 9.000000
_cell_angle_alpha 90.000000
_cell_angle_beta 90.000000
_cell_angle_gamma 90.000000
_cell_volume 2430.000000
_symmetry_space_group_name_H-M "P M M N"
_symmetry_group_IT_number 59
_space_group.IT_coordinate_system_code '2'
_symmetry_cell_setting 'orthorhombic'
loop_
_space_group_symop_operation_xyz
x,y,z
1/2-x,1/2-y,z
1/2+x,-y,-z
-x,1/2+y,-z
-x,-y,-z
1/2+x,1/2+y,-z
1/2-x,y,z
x,1/2-y,z
loop_
_atom_site_type_symbol
_atom_site_label
_atom_site_fract_x
_atom_site_fract_y
_atom_site_fract_z
Si Si1 0.084971 0.975339 0.130449
Si Si2 0.571382 0.659911 0.253169
Si Si3 0.918922 0.121761 0.017273
Si Si4 0.927567 0.886037 0.672462
Si Si5 0.573263 0.300113 0.477716
Si Si6 0.431195 0.927955 0.407222
O O1 0.250000 0.994947 0.139370
O O2 0.028232 0.969322 0.299630
O O3 0.093796 0.924371 0.073420
O O4 0.000000 0.000000 0.000000
O O5 0.750000 0.661895 0.250206
O O6 0.498298 0.696945 0.358142
O O7 0.514722 0.614595 0.334208
O O8 0.500018 0.656906 0.090162
O O9 0.750000 0.135420 0.057123
O O10 0.018174 0.111249 0.159336
O O11 0.750000 0.888273 0.656439
O O12 0.989878 0.838161 0.615584
O O13 0.007819 0.924242 0.573944
O O14 0.750000 0.310092 0.484998
O O15 0.554756 0.250000 0.418609
O O16 0.250000 0.923371 0.403934
#
# Coordination Sequence:
#
# PCOD9453331 Si02
#       6
#     8   8   8   8   8   8
#     4   9  19  33  53  77 101 132 170 214 259 303
#     4  10  18  30  51  77 101 128 166 211 250 288
#     4  10  20  36  54  74 103 138 172 207 253 310
#     4  11  21  33  53  80 105 134 172 216 261 302
#     4  10  20  35  55  77 103 138 173 204 247 305
#     4   9  17  32  51  72 100 137 173 203 246 306
#
# _framework density 19.753086
#
# number of rings (size 3 to 8) (size 9 to 14) (size 15 to 20)
#    0.000    2.167    0.000    7.500    0.000    5.333 
#    0.000    1.667    0.000    5.000    0.000    0.000 
#    0.000    0.000    0.000    0.000    0.000    0.000 
#
# Total GULP energy -267487.225562 kJ/mol
# GULP energy per Si atom -5572.650533 kJ/mol
# Density = 1.970813 g / cm^3
# Si number density = 19.753086 Si / 1000 Ang^3
#
#
#
# Elastic Constant Matrix: (Units=GPa)
#
#
# Indices 1 2 3 4 5 6 
#
# 1 131.3014 9.8071 15.1065 0.0000 0.0000 0.0000
# 2 9.8071 38.0971 -2.0946 0.0000 0.0000 0.0000
# 3 15.1065 -2.0946 79.2428 0.0000 0.0000 0.0000
# 4 0.0000 0.0000 0.0000 24.0718 0.0000 0.0000
# 5 0.0000 0.0000 0.0000 0.0000 33.3559 0.0000
# 6 0.0000 0.0000 0.0000 0.0000 0.0000 16.3187
#
#
#
# Elastic Compliance Matrix: (Units=1/GPa)
#
#
# Indices 1 2 3 4 5 6 
#
# 1 0.007957 -0.002135 -0.001573 0.000000 0.000000 0.000000
# 2 -0.002135 0.026860 0.001117 0.000000 0.000000 0.000000
# 3 -0.001573 0.001117 0.012949 0.000000 0.000000 0.000000
# 4 0.000000 0.000000 0.000000 0.041542 0.000000 0.000000
# 5 0.000000 0.000000 0.000000 0.000000 0.029980 0.000000
# 6 0.000000 0.000000 0.000000 0.000000 0.000000 0.061279
#
#
# Mechanical properties :
#
#
# Convention : Reuss Voigt Hill
#
# Bulk Modulus (GPa) = 23.48351 32.69769 28.09060
# Shear Modulus (GPa) = 25.00716 29.80411 27.40563
#
# Velocity S-wave (km/s) = 3.56193 3.88858 3.72884
# Velocity P-wave (km/s) = 5.36943 6.06223 5.72632
#
# Compressibility (1/GPa) = 0.04258307
#
# Stress axis : x y z
#
# Youngs Moduli (GPa) = 125.68328 37.23058 77.22679
#
# Poissons Ratio (x) = 0.07948 0.12149
# Poissons Ratio (y) = 0.26829 -0.08626
# Poissons Ratio (z) = 0.19773 -0.04158
#
# Static dielectric constant tensor:
#      x y z
#    x 1.670600 0.000000 0.000000 
#    y 0.000000 1.729670 0.000000 
#    z 0.000000 0.000000 1.769020 
# 
# From -- ./inp_files/6303.got.cif
#   From: 2010.05.17/outbox.ucp.g08.bks.cvg/sg59_4_cif.got.tgz:6303.got - 2010.06.11 16:43:56.
