data_PCOD9453041
_publ_section_title
;
Structure prediction by ZEFSAII (Michael W. Deem and Ramdas Pophale) SiO2 
 PCOD9453041
Probable space group: P M M N
;
_chemical_formula_sum "Si O2"
_cell_formula_units_Z 48
_cell_length_a 17.555209
_cell_length_b 17.265315
_cell_length_c 9.185614
_cell_angle_alpha 90.000000
_cell_angle_beta 90.000000
_cell_angle_gamma 90.000000
_cell_volume 2784.124820
_symmetry_space_group_name_H-M "P M M N"
_symmetry_group_IT_number 59
_space_group.IT_coordinate_system_code '2'
_symmetry_cell_setting 'orthorhombic'
loop_
_space_group_symop_operation_xyz
x,y,z
1/2-x,1/2-y,z
1/2+x,-y,-z
-x,1/2+y,-z
-x,-y,-z
1/2+x,1/2+y,-z
1/2-x,y,z
x,1/2-y,z
loop_
_atom_site_type_symbol
_atom_site_label
_atom_site_fract_x
_atom_site_fract_y
_atom_site_fract_z
Si Si1 0.465928 0.403525 0.840842
Si Si2 0.340439 0.657017 0.655704
Si Si3 0.660339 0.662105 0.978195
Si Si4 0.162366 0.485063 0.195041
Si Si5 0.445753 0.935650 0.427872
Si Si6 0.591655 0.429036 0.070313
O O1 0.502447 0.386622 0.685074
O O2 0.445975 0.495621 0.851415
O O3 0.390142 0.357887 0.881905
O O4 0.526448 0.389555 0.971270
O O5 0.250000 0.638954 0.633743
O O6 0.348634 0.750000 0.647872
O O7 0.395696 0.614766 0.539279
O O8 0.368025 0.624856 0.812417
O O9 0.750000 0.650318 0.007990
O O10 0.648268 0.750000 0.932904
O O11 0.638385 0.600943 0.853706
O O12 0.250000 0.484988 0.236973
O O13 0.111831 0.519134 0.321827
O O14 0.149389 0.535756 0.049189
O O15 0.500000 0.000000 0.500000
#
# Coordination Sequence:
#
# PCOD9453041 Si02
#       6
#     8   8   8   8   8   8
#     4   9  18  33  56  81 108 139 185 229 274 330
#     4  11  24  39  56  83 117 152 190 237 291 339
#     4   9  18  32  53  83 113 139 177 231 282 327
#     4   9  18  34  57  80 105 145 187 225 274 329
#     4  11  21  37  55  80 114 148 190 230 270 333
#     4   9  17  34  57  81 104 136 183 238 275 326
#
# _framework density 17.240606
#
# number of rings (size 3 to 8) (size 9 to 14) (size 15 to 20)
#    0.000    2.333    1.667    2.000    0.000    2.000 
#    0.000    2.500    0.000    9.000    0.000    2.333 
#    0.000    0.000    0.000    0.000    0.000    0.000 
#
# Total GULP energy -267538.449557 kJ/mol
# GULP energy per Si atom -5573.717699 kJ/mol
# Density = 1.720137 g / cm^3
# Si number density = 17.240606 Si / 1000 Ang^3
#
#
#
# Elastic Constant Matrix: (Units=GPa)
#
#
# Indices 1 2 3 4 5 6 
#
# 1 53.2933 44.7658 38.5677 0.0000 0.0000 0.0000
# 2 44.7658 87.7023 53.9587 0.0000 0.0000 0.0000
# 3 38.5677 53.9587 101.7169 0.0000 0.0000 0.0000
# 4 0.0000 0.0000 0.0000 13.5444 0.0000 0.0000
# 5 0.0000 0.0000 0.0000 0.0000 24.0930 0.0000
# 6 0.0000 0.0000 0.0000 0.0000 0.0000 25.8689
#
#
#
# Elastic Compliance Matrix: (Units=1/GPa)
#
#
# Indices 1 2 3 4 5 6 
#
# 1 0.034881 -0.014351 -0.005613 0.000000 0.000000 0.000000
# 2 -0.014351 0.022831 -0.006670 0.000000 0.000000 0.000000
# 3 -0.005613 -0.006670 0.015498 0.000000 0.000000 0.000000
# 4 0.000000 0.000000 0.000000 0.073831 0.000000 0.000000
# 5 0.000000 0.000000 0.000000 0.000000 0.041506 0.000000
# 6 0.000000 0.000000 0.000000 0.000000 0.000000 0.038656
#
#
# Mechanical properties :
#
#
# Convention : Reuss Voigt Hill
#
# Bulk Modulus (GPa) = 50.14526 57.47745 53.81136
# Shear Modulus (GPa) = 17.41449 19.72928 18.57188
#
# Velocity S-wave (km/s) = 3.18163 3.38649 3.28566
# Velocity P-wave (km/s) = 6.53037 6.97868 6.75824
#
# Compressibility (1/GPa) = 0.01994206
#
# Stress axis : x y z
#
# Youngs Moduli (GPa) = 28.66930 43.80012 64.52577
#
# Poissons Ratio (x) = 0.62857 0.36217
# Poissons Ratio (y) = 0.41143 0.43039
# Poissons Ratio (z) = 0.16091 0.29215
#
# Static dielectric constant tensor:
#      x y z
#    x 1.615020 0.000000 0.000000 
#    y 0.000000 1.581160 0.000000 
#    z 0.000000 0.000000 1.576010 
# 
# From -- ./inp_files/9026.got.cif
#   From: 2010.05.17/outbox.cif.g08.bks.cpg/sg59_5_cif.got.tgz:9026.got - 2010.06.03 14:40:33.
