data_PCOD9453876
_publ_section_title
;
Structure prediction by ZEFSAII (Michael W. Deem and Ramdas Pophale) SiO2 
 PCOD9453876
Probable space group: P B C N
;
_chemical_formula_sum "Si O2"
_cell_formula_units_Z 40
_cell_length_a 13.626580
_cell_length_b 14.556634
_cell_length_c 9.545418
_cell_angle_alpha 90.000000
_cell_angle_beta 90.000000
_cell_angle_gamma 90.000000
_cell_volume 1893.401793
_symmetry_space_group_name_H-M "P B C N"
_symmetry_group_IT_number 60
_symmetry_cell_setting 'orthorhombic'
loop_
_space_group_symop_operation_xyz
x,y,z
1/2-x,1/2-y,1/2+z
1/2+x,1/2-y,-z
-x,y,1/2-z
-x,-y,-z
1/2+x,1/2+y,1/2-z
1/2-x,1/2+y,z
x,-y,1/2+z
loop_
_atom_site_type_symbol
_atom_site_label
_atom_site_fract_x
_atom_site_fract_y
_atom_site_fract_z
Si Si1 0.785881 0.901373 0.925380
Si Si2 0.082264 0.617744 0.968887
Si Si3 0.847578 0.041432 0.147612
Si Si4 0.000000 0.520064 0.250000
Si Si5 0.500000 0.390672 0.250000
Si Si6 0.502455 0.689567 0.456294
O O1 0.771165 0.922609 0.761763
O O2 0.886401 0.843648 0.933072
O O3 0.694912 0.854943 0.002528
O O4 0.803473 0.997563 0.007581
O O5 0.072414 0.545191 0.841913
O O6 0.018158 0.705276 0.925704
O O7 0.047422 0.577350 0.120547
O O8 0.926904 0.120728 0.118705
O O9 0.909684 0.957834 0.215282
O O10 0.520034 0.327688 0.381388
#
# Coordination Sequence:
#
# PCOD9453876 Si02
#       6
#     8   8   8   4   4   8
#     4  11  22  40  67  99 129 168 218 260 339 389
#     4  11  25  47  67  96 124 183 219 270 324 391
#     4  11  19  39  65  96 132 167 199 275 328 385
#     4  10  25  51  68  80 142 172 220 273 327 382
#     4  10  17  37  62  90 136 166 190 261 345 366
#     4  11  22  39  65  99 136 163 216 276 318 383
#
# _framework density 21.125997999999999
#
# number of rings (size 3 to 8) (size 9 to 14) (size 15 to 20)
#    0.000    1.200    4.000    3.000    2.800    0.000 
#   18.000    0.000    0.000    0.000    0.000    0.000 
#    0.000    0.000    0.000    0.000    0.000    0.000 
#
# Total GULP energy -223298.247238 kJ/mol
# GULP energy per Si atom -5582.456181 kJ/mol
# Density = 2.107791 g / cm^3
# Si number density = 21.125998 Si / 1000 Ang^3
#
#
#
# Elastic Constant Matrix: (Units=GPa)
#
#
# Indices 1 2 3 4 5 6 
#
# 1 73.0905 28.3480 28.7316 0.0000 0.0000 0.0000
# 2 28.3480 89.6807 23.1842 0.0000 0.0000 0.0000
# 3 28.7316 23.1842 120.0182 0.0000 0.0000 0.0000
# 4 0.0000 0.0000 0.0000 8.9817 0.0000 0.0000
# 5 0.0000 0.0000 0.0000 0.0000 11.7168 0.0000
# 6 0.0000 0.0000 0.0000 0.0000 0.0000 11.2782
#
#
#
# Elastic Compliance Matrix: (Units=1/GPa)
#
#
# Indices 1 2 3 4 5 6 
#
# 1 0.016636 -0.004451 -0.003123 0.000000 0.000000 0.000000
# 2 -0.004451 0.012928 -0.001432 0.000000 0.000000 0.000000
# 3 -0.003123 -0.001432 0.009356 0.000000 0.000000 0.000000
# 4 0.000000 0.000000 0.000000 0.111338 0.000000 0.000000
# 5 0.000000 0.000000 0.000000 0.000000 0.085347 0.000000
# 6 0.000000 0.000000 0.000000 0.000000 0.000000 0.088666
#
#
# Mechanical properties :
#
#
# Convention : Reuss Voigt Hill
#
# Bulk Modulus (GPa) = 47.82746 49.25743 48.54244
# Shear Modulus (GPa) = 14.31633 19.89706 17.10669
#
# Velocity S-wave (km/s) = 2.60602 3.07225 2.84869
# Velocity P-wave (km/s) = 5.63413 5.99597 5.81786
#
# Compressibility (1/GPa) = 0.02090849
#
# Stress axis : x y z
#
# Youngs Moduli (GPa) = 60.11226 77.35248 106.88144
#
# Poissons Ratio (x) = 0.34431 0.33375
# Poissons Ratio (y) = 0.26757 0.15302
# Poissons Ratio (z) = 0.18771 0.11075
#
# Static dielectric constant tensor:
#      x y z
#    x 1.769700 0.000000 0.000000 
#    y 0.000000 1.729750 0.000000 
#    z 0.000000 0.000000 1.795180 
# 
# From -- ./inp_files/5711.got.cif
#   From: 2010.05.17/outbox.cif.g08.bks.cpg/sg60_3_cif.got.tgz:5711.got - 2010.06.03 14:59:27.
