data_PCOD9453222
_publ_section_title
;
Structure prediction by ZEFSAII (Michael W. Deem and Ramdas Pophale) SiO2 
 PCOD9453222
Probable space group: P M M N
;
_chemical_formula_sum "Si O2"
_cell_formula_units_Z 48
_cell_length_a 14.288287
_cell_length_b 7.465067
_cell_length_c 24.809268
_cell_angle_alpha 90.000000
_cell_angle_beta 90.000000
_cell_angle_gamma 90.000000
_cell_volume 2646.231443
_symmetry_space_group_name_H-M "P M M N"
_symmetry_group_IT_number 59
_space_group.IT_coordinate_system_code '2'
_symmetry_cell_setting 'orthorhombic'
loop_
_space_group_symop_operation_xyz
x,y,z
1/2-x,1/2-y,z
1/2+x,-y,-z
-x,1/2+y,-z
-x,-y,-z
1/2+x,1/2+y,-z
1/2-x,y,z
x,1/2-y,z
loop_
_atom_site_type_symbol
_atom_site_label
_atom_site_fract_x
_atom_site_fract_y
_atom_site_fract_z
Si Si1 0.141995 0.968784 0.810681
Si Si2 0.641835 0.468346 0.310695
Si Si3 0.037914 0.536215 0.583975
Si Si4 0.355248 0.465923 0.022016
Si Si5 0.033122 0.963185 0.914056
Si Si6 0.355453 0.534967 0.477244
O O1 0.250000 0.021107 0.820845
O O2 0.140853 0.750000 0.811295
O O3 0.116503 0.025383 0.749955
O O4 0.074562 0.033303 0.858139
O O5 0.750000 0.518999 0.321048
O O6 0.639791 0.250000 0.310281
O O7 0.575968 0.531758 0.359051
O O8 0.051303 0.750000 0.584754
O O9 0.098669 0.466848 0.533170
O O10 0.929880 0.504034 0.569623
O O11 0.250000 0.532162 0.030359
O O12 0.353483 0.250000 0.026175
O O13 0.392929 0.508595 0.962309
O O14 0.434005 0.533711 0.063710
O O15 0.021868 0.750000 0.907403
O O16 0.250000 0.468408 0.469258
O O17 0.350764 0.750000 0.481574
#
# Coordination Sequence:
#
# PCOD9453222 Si02
#       6
#     8   8   8   8   8   8
#     4   8  13  21  36  59  81  99 124 159 194 227
#     4   8  13  22  38  60  83 104 126 156 195 234
#     4   9  16  26  42  62  81 102 131 165 196 228
#     4   9  17  27  38  55  80 106 129 157 195 232
#     4   9  16  26  41  59  78 102 132 161 189 228
#     4   9  17  28  41  58  81 108 134 159 193 237
#
# _framework density 18.139002000000001
#
# number of rings (size 3 to 8) (size 9 to 14) (size 15 to 20)
#    0.000    3.333    0.000    2.000    0.000    3.333 
#    0.000    0.000    0.000    3.500    0.000    7.000 
#    0.000    0.000    0.000    0.000    0.000    0.000 
#
# Total GULP energy -267523.193099 kJ/mol
# GULP energy per Si atom -5573.399856 kJ/mol
# Density = 1.809772 g / cm^3
# Si number density = 18.139002 Si / 1000 Ang^3
#
#
#
# Elastic Constant Matrix: (Units=GPa)
#
#
# Indices 1 2 3 4 5 6 
#
# 1 159.9487 -0.3547 112.2975 0.0000 0.0000 0.0000
# 2 -0.3547 50.6250 3.0104 0.0000 0.0000 0.0000
# 3 112.2975 3.0104 161.5932 0.0000 0.0000 0.0000
# 4 0.0000 0.0000 0.0000 8.6421 0.0000 0.0000
# 5 0.0000 0.0000 0.0000 0.0000 26.2270 0.0000
# 6 0.0000 0.0000 0.0000 0.0000 0.0000 10.3583
#
#
#
# Elastic Compliance Matrix: (Units=1/GPa)
#
#
# Indices 1 2 3 4 5 6 
#
# 1 0.012226 0.000592 -0.008508 0.000000 0.000000 0.000000
# 2 0.000592 0.019804 -0.000780 0.000000 0.000000 0.000000
# 3 -0.008508 -0.000780 0.012115 0.000000 0.000000 0.000000
# 4 0.000000 0.000000 0.000000 0.115712 0.000000 0.000000
# 5 0.000000 0.000000 0.000000 0.000000 0.038129 0.000000
# 6 0.000000 0.000000 0.000000 0.000000 0.000000 0.096541
#
#
# Mechanical properties :
#
#
# Convention : Reuss Voigt Hill
#
# Bulk Modulus (GPa) = 37.37894 66.89704 52.13799
# Shear Modulus (GPa) = 15.58426 26.19306 20.88866
#
# Velocity S-wave (km/s) = 2.93432 3.80415 3.39719
# Velocity P-wave (km/s) = 5.66851 7.50038 6.64784
#
# Compressibility (1/GPa) = 0.02675303
#
# Stress axis : x y z
#
# Youngs Moduli (GPa) = 81.79028 50.49579 82.54091
#
# Poissons Ratio (x) = -0.02987 0.70223
# Poissons Ratio (y) = -0.04839 0.06439
# Poissons Ratio (z) = 0.69584 0.03939
#
# Static dielectric constant tensor:
#      x y z
#    x 1.616590 0.000000 0.000000 
#    y 0.000000 1.703090 0.000000 
#    z 0.000000 0.000000 1.615600 
# 
# From -- ./inp_files/30521.got.cif
#   From: 2010.05.17/outbox.cif.g08.bks.cpg/sg59_16_cif.got.tgz:30521.got - 2010.06.03 14:40:33.
