data_PCOD9453946
_publ_section_title
;
Structure prediction by ZEFSAII (Michael W. Deem and Ramdas Pophale) SiO2 
 PCOD9453946
Probable space group: P B C N
;
_chemical_formula_sum "Si O2"
_cell_formula_units_Z 64
_cell_length_a 14.381085
_cell_length_b 9.939551
_cell_length_c 27.097167
_cell_angle_alpha 90.000000
_cell_angle_beta 90.000000
_cell_angle_gamma 90.000000
_cell_volume 3873.310450
_symmetry_space_group_name_H-M "P B C N"
_symmetry_group_IT_number 60
_symmetry_cell_setting 'orthorhombic'
loop_
_space_group_symop_operation_xyz
x,y,z
1/2-x,1/2-y,1/2+z
1/2+x,1/2-y,-z
-x,y,1/2-z
-x,-y,-z
1/2+x,1/2+y,1/2-z
1/2-x,1/2+y,z
x,-y,1/2+z
loop_
_atom_site_type_symbol
_atom_site_label
_atom_site_fract_x
_atom_site_fract_y
_atom_site_fract_z
Si Si1 0.495713 0.309010 0.668940
Si Si2 0.484839 0.482646 0.081298
Si Si3 0.229407 0.324657 0.450334
Si Si4 0.895441 0.248266 0.624200
Si Si5 0.150673 0.057419 0.494296
Si Si6 0.607872 0.939587 0.138131
Si Si7 0.348695 0.369344 0.753045
Si Si8 0.725365 0.364706 0.212190
O O1 0.475243 0.403138 0.622523
O O2 0.523351 0.157632 0.653674
O O3 0.413063 0.323634 0.708058
O O4 0.588134 0.361306 0.697367
O O5 0.520184 0.344120 0.105803
O O6 0.568061 0.530175 0.045093
O O7 0.394478 0.460944 0.047830
O O8 0.312601 0.265068 0.416239
O O9 0.189368 0.205302 0.483446
O O10 0.271653 0.446427 0.481885
O O11 0.152763 0.381113 0.412169
O O12 0.917323 0.404704 0.631847
O O13 0.853066 0.184331 0.673989
O O14 0.690145 0.926068 0.179069
O O15 0.266074 0.264200 0.760277
O O16 0.312046 0.520800 0.751588
#
# Coordination Sequence:
#
# PCOD9453946 Si02
#       8
#     8   8   8   8   8   8   8   8
#     4  10  20  35  54  78 113 145 173 221 279 328
#     4  10  20  35  53  79 112 146 177 219 280 328
#     4  10  18  31  53  83 108 136 181 232 266 316
#     4  10  18  30  55  83 105 136 181 232 267 310
#     4  10  20  34  54  81 111 141 182 226 272 322
#     4  10  18  30  55  84 107 134 181 230 270 308
#     4  10  20  34  55  81 109 141 177 223 276 322
#     4  10  18  31  54  82 106 134 182 226 265 316
#
# _framework density 16.523333000000001
#
# number of rings (size 3 to 8) (size 9 to 14) (size 15 to 20)
#    0.000    2.000    5.000    0.000    0.000    0.000 
#    0.000    4.375    2.750    0.000    0.000    0.000 
#    0.000    0.000    0.000    0.000    0.000    0.000 
#
# Total GULP energy -356959.124423 kJ/mol
# GULP energy per Si atom -5577.486319 kJ/mol
# Density = 1.648573 g / cm^3
# Si number density = 16.523333 Si / 1000 Ang^3
#
#
#
# Elastic Constant Matrix: (Units=GPa)
#
#
# Indices 1 2 3 4 5 6 
#
# 1 49.6899 43.3732 34.9712 0.0000 0.0000 0.0000
# 2 43.3732 140.0093 52.0092 0.0000 0.0000 0.0000
# 3 34.9712 52.0092 63.8134 0.0000 0.0000 0.0000
# 4 0.0000 0.0000 0.0000 22.0284 0.0000 0.0000
# 5 0.0000 0.0000 0.0000 0.0000 18.2207 0.0000
# 6 0.0000 0.0000 0.0000 0.0000 0.0000 23.2964
#
#
#
# Elastic Compliance Matrix: (Units=1/GPa)
#
#
# Indices 1 2 3 4 5 6 
#
# 1 0.035386 -0.005391 -0.014999 0.000000 0.000000 0.000000
# 2 -0.005391 0.011065 -0.006064 0.000000 0.000000 0.000000
# 3 -0.014999 -0.006064 0.028833 0.000000 0.000000 0.000000
# 4 0.000000 0.000000 0.000000 0.045396 0.000000 0.000000
# 5 0.000000 0.000000 0.000000 0.000000 0.054883 0.000000
# 6 0.000000 0.000000 0.000000 0.000000 0.000000 0.042925
#
#
# Mechanical properties :
#
#
# Convention : Reuss Voigt Hill
#
# Bulk Modulus (GPa) = 44.68922 57.13554 50.91238
# Shear Modulus (GPa) = 17.93057 20.91972 19.42514
#
# Velocity S-wave (km/s) = 3.29776 3.56205 3.43245
# Velocity P-wave (km/s) = 6.45020 7.18132 6.82556
#
# Compressibility (1/GPa) = 0.02237676
#
# Stress axis : x y z
#
# Youngs Moduli (GPa) = 28.25960 90.37602 34.68272
#
# Poissons Ratio (x) = 0.48717 0.52021
# Poissons Ratio (y) = 0.15233 0.21032
# Poissons Ratio (z) = 0.42387 0.54804
#
# Static dielectric constant tensor:
#      x y z
#    x 1.545500 0.000000 0.000000 
#    y 0.000000 1.540000 0.000000 
#    z 0.000000 0.000000 1.545580 
# 
# From -- ./inp_files/26182.got.cif
#   From: 2010.05.17/outbox.cif.g08.bks.cpg/sg60_14_cif.got.tgz:26182.got - 2010.06.03 14:59:27.
