data_PCOD9453472
_publ_section_title
;
Structure prediction by ZEFSAII (Michael W. Deem and Ramdas Pophale) SiO2 
 PCOD9453472
Probable space group: P M M N
;
_chemical_formula_sum "Si O2"
_cell_formula_units_Z 56
_cell_length_a 9.000000
_cell_length_b 15.000000
_cell_length_c 21.000000
_cell_angle_alpha 90.000000
_cell_angle_beta 90.000000
_cell_angle_gamma 90.000000
_cell_volume 2835.000000
_symmetry_space_group_name_H-M "P M M N"
_symmetry_group_IT_number 59
_space_group.IT_coordinate_system_code '2'
_symmetry_cell_setting 'orthorhombic'
loop_
_space_group_symop_operation_xyz
x,y,z
1/2-x,1/2-y,z
1/2+x,-y,-z
-x,1/2+y,-z
-x,-y,-z
1/2+x,1/2+y,-z
1/2-x,y,z
x,1/2-y,z
loop_
_atom_site_type_symbol
_atom_site_label
_atom_site_fract_x
_atom_site_fract_y
_atom_site_fract_z
Si Si1 0.074428 0.465852 0.414011
Si Si2 0.083670 0.856847 0.053483
Si Si3 0.072555 0.349939 0.812859
Si Si4 0.929045 0.146725 0.527915
Si Si5 0.922329 0.456605 0.187764
Si Si6 0.421138 0.647278 0.685920
Si Si7 0.573907 0.855267 0.924615
O O1 0.250000 0.460644 0.425578
O O2 0.031673 0.570599 0.419743
O O3 0.993049 0.402296 0.465513
O O4 0.027978 0.421163 0.348813
O O5 0.250000 0.893539 0.062957
O O6 0.096878 0.750000 0.046698
O O7 0.980739 0.867166 0.114939
O O8 0.008024 0.886637 0.988597
O O9 0.250000 0.343209 0.808586
O O10 0.014179 0.250000 0.793716
O O11 0.032256 0.446451 0.782988
O O12 0.750000 0.150402 0.523696
O O13 0.980158 0.250000 0.535792
O O14 0.750000 0.465651 0.166035
O O15 0.923785 0.380285 0.240913
O O16 0.023329 0.420341 0.131381
O O17 0.250000 0.636172 0.663094
O O18 0.463133 0.750000 0.675528
O O19 0.750000 0.858133 0.933839
O O20 0.535065 0.750000 0.911739
#
# Coordination Sequence:
#
# PCOD9453472 Si02
#       7
#     8   8   8   8   8   8   8
#     4  10  20  33  53  82 111 140 179 221 256 296
#     4   9  17  30  50  74  99 129 164 201 247 309
#     4   9  18  34  54  74  97 125 161 209 260 305
#     4   9  18  34  55  79 111 148 179 211 257 307
#     4  10  21  36  54  74  97 131 173 211 250 302
#     4  10  21  37  55  75 104 141 175 208 252 307
#     4  10  20  33  50  74 103 131 161 205 259 307
#
# _framework density 19.753086
#
# number of rings (size 3 to 8) (size 9 to 14) (size 15 to 20)
#    0.000    2.429    0.000    2.143    0.000    7.714 
#    0.000    0.714    0.000    0.857    0.000    0.000 
#    0.000    0.000    0.000    0.000    0.000    0.000 
#
# Total GULP energy -311885.155461 kJ/mol
# GULP energy per Si atom -5569.377776 kJ/mol
# Density = 1.970813 g / cm^3
# Si number density = 19.753086 Si / 1000 Ang^3
#
#
#
# Elastic Constant Matrix: (Units=GPa)
#
#
# Indices 1 2 3 4 5 6 
#
# 1 2.7465 17.6940 3.3848 0.0000 0.0000 0.0000
# 2 17.6940 137.8753 11.9269 0.0000 0.0000 0.0000
# 3 3.3848 11.9269 18.5897 0.0000 0.0000 0.0000
# 4 0.0000 0.0000 0.0000 23.7716 0.0000 0.0000
# 5 0.0000 0.0000 0.0000 0.0000 21.4715 0.0000
# 6 0.0000 0.0000 0.0000 0.0000 0.0000 26.2101
#
#
#
# Elastic Compliance Matrix: (Units=1/GPa)
#
#
# Indices 1 2 3 4 5 6 
#
# 1 3.571723 -0.425742 -0.377189 0.000000 0.000000 0.000000
# 2 -0.425742 0.058427 0.040033 0.000000 0.000000 0.000000
# 3 -0.377189 0.040033 0.096787 0.000000 0.000000 0.000000
# 4 0.000000 0.000000 0.000000 0.042067 0.000000 0.000000
# 5 0.000000 0.000000 0.000000 0.000000 0.046573 0.000000
# 6 0.000000 0.000000 0.000000 0.000000 0.000000 0.038153
#
#
# Mechanical properties :
#
#
# Convention : Reuss Voigt Hill
#
# Bulk Modulus (GPa) = 0.45431 25.02475 12.73953
# Shear Modulus (GPa) = 0.81790 22.70437 11.76113
#
# Velocity S-wave (km/s) = 0.64417 3.39397 2.44274
# Velocity P-wave (km/s) = 0.88531 5.29670 3.79729
#
# Compressibility (1/GPa) = 2.20114194
#
# Stress axis : x y z
#
# Youngs Moduli (GPa) = 0.27998 17.11549 10.33198
#
# Poissons Ratio (x) = 7.28678 3.89711
# Poissons Ratio (y) = 0.11920 -0.41362
# Poissons Ratio (z) = 0.10560 -0.68519
#
# Static dielectric constant tensor:
#      x y z
#    x 1.688370 0.000000 0.000000 
#    y 0.000000 1.757120 0.000000 
#    z 0.000000 0.000000 1.722600 
# 
# From -- ./inp_files/29141.got.cif
#   From: 2010.05.17/outbox.ucp.g08.bks.cvg/sg59_15_cif.got.tgz:29141.got - 2010.06.11 16:43:56.
