data_PCOD9453686
_publ_section_title
;
Structure prediction by ZEFSAII (Michael W. Deem and Ramdas Pophale) SiO2 
 PCOD9453686
Probable space group: P M M N
;
_chemical_formula_sum "Si O2"
_cell_formula_units_Z 64
_cell_length_a 9.000000
_cell_length_b 18.000000
_cell_length_c 21.000000
_cell_angle_alpha 90.000000
_cell_angle_beta 90.000000
_cell_angle_gamma 90.000000
_cell_volume 3402.000000
_symmetry_space_group_name_H-M "P M M N"
_symmetry_group_IT_number 59
_space_group.IT_coordinate_system_code '2'
_symmetry_cell_setting 'orthorhombic'
loop_
_space_group_symop_operation_xyz
x,y,z
1/2-x,1/2-y,z
1/2+x,-y,-z
-x,1/2+y,-z
-x,-y,-z
1/2+x,1/2+y,-z
1/2-x,y,z
x,1/2-y,z
loop_
_atom_site_type_symbol
_atom_site_label
_atom_site_fract_x
_atom_site_fract_y
_atom_site_fract_z
Si Si1 0.574517 0.576681 0.321461
Si Si2 0.425466 0.575176 0.975752
Si Si3 0.070629 0.938971 0.833123
Si Si4 0.576920 0.099441 0.300827
Si Si5 0.084667 0.338460 0.419196
Si Si6 0.912486 0.664409 0.079351
Si Si7 0.425501 0.598032 0.193718
Si Si8 0.568549 0.664438 0.445528
O O1 0.750000 0.592638 0.311087
O O2 0.557799 0.487938 0.317059
O O3 0.478502 0.611133 0.265230
O O4 0.528288 0.610619 0.388458
O O5 0.250000 0.567500 0.980391
O O6 0.462877 0.591708 0.902526
O O7 0.500000 0.500000 0.000000
O O8 0.485545 0.635289 0.023577
O O9 0.250000 0.951634 0.828106
O O10 0.026196 0.890644 0.771977
O O11 0.986984 0.016903 0.826004
O O12 0.750000 0.117142 0.303437
O O13 0.496702 0.144426 0.354734
O O14 0.250000 0.370550 0.414482
O O15 0.095186 0.250000 0.426872
O O16 0.012864 0.363362 0.485773
O O17 0.750000 0.626243 0.079223
O O18 0.893320 0.750000 0.069313
O O19 0.992044 0.651972 0.145936
O O20 0.250000 0.601152 0.187151
O O21 0.750000 0.665012 0.449659
O O22 0.523141 0.750000 0.433559
#
# Coordination Sequence:
#
# PCOD9453686 Si02
#       8
#     8   8   8   8   8   8   8   8
#     4   9  18  33  52  75 106 139 174 216 259 314
#     4  11  21  35  60  86 108 139 180 226 273 325
#     4   9  19  36  56  78 107 139 174 213 258 319
#     4   9  18  32  50  75 105 137 171 211 259 312
#     4   9  18  33  52  74 100 132 174 222 267 314
#     4  11  24  40  56  77 110 149 186 225 270 322
#     4  11  21  33  53  79 107 139 175 219 267 317
#     4   8  15  30  52  74  97 133 178 215 256 317
#
# _framework density 18.812463000000001
#
# number of rings (size 3 to 8) (size 9 to 14) (size 15 to 20)
#    0.000    2.375    1.250    3.375    0.000    4.750 
#    0.000    2.500    0.000    4.500    0.000    0.000 
#    0.000    0.000    0.000    0.000    0.000    0.000 
#
# Total GULP energy -356474.167675 kJ/mol
# GULP energy per Si atom -5569.908870 kJ/mol
# Density = 1.876965 g / cm^3
# Si number density = 18.812463 Si / 1000 Ang^3
#
#
#
# Elastic Constant Matrix: (Units=GPa)
#
#
# Indices 1 2 3 4 5 6 
#
# 1 9.3507 14.4496 32.6654 0.0000 0.0000 0.0000
# 2 14.4496 0.7601 14.6164 0.0000 0.0000 0.0000
# 3 32.6654 14.6164 107.9962 0.0000 0.0000 0.0000
# 4 0.0000 0.0000 0.0000 35.9721 0.0000 0.0000
# 5 0.0000 0.0000 0.0000 0.0000 21.9794 0.0000
# 6 0.0000 0.0000 0.0000 0.0000 0.0000 11.8349
#
#
#
# Elastic Compliance Matrix: (Units=1/GPa)
#
#
# Indices 1 2 3 4 5 6 
#
# 1 0.012190 0.100358 -0.017270 0.000000 0.000000 0.000000
# 2 0.100358 0.005299 -0.031072 0.000000 0.000000 0.000000
# 3 -0.017270 -0.031072 0.018689 0.000000 0.000000 0.000000
# 4 0.000000 0.000000 0.000000 0.027799 0.000000 0.000000
# 5 0.000000 0.000000 0.000000 0.000000 0.045497 0.000000
# 6 0.000000 0.000000 0.000000 0.000000 0.000000 0.084496
#
#
# Mechanical properties :
#
#
# Convention : Reuss Voigt Hill
#
# Bulk Modulus (GPa) = 7.13216 26.84110 16.98663
# Shear Modulus (GPa) = 36.58315 17.71564 27.14939
#
# Velocity S-wave (km/s) = 4.41457 3.07204 3.80302
# Velocity P-wave (km/s) = 5.45747 5.18478 5.32287
#
# Compressibility (1/GPa) = 0.14021002
#
# Stress axis : x y z
#
# Youngs Moduli (GPa) = 82.03274 188.70630 53.50861
#
# Poissons Ratio (x) = -18.93823 0.92409
# Poissons Ratio (y) = -8.23266 1.66264
# Poissons Ratio (z) = 1.41669 5.86356
#
# Static dielectric constant tensor:
#      x y z
#    x 1.654020 0.000000 0.000000 
#    y 0.000000 1.636590 0.000000 
#    z 0.000000 0.000000 1.509050 
# 
# From -- ./inp_files/29370.got.cif
#   From: 2010.05.17/outbox.ucp.g08.bks.cvg/sg59_15_cif.got.tgz:29370.got - 2010.06.11 16:43:56.
