data_PCOD9453201
_publ_section_title
;
Structure prediction by ZEFSAII (Michael W. Deem and Ramdas Pophale) SiO2 
 PCOD9453201
Probable space group: P M M N
;
_chemical_formula_sum "Si O2"
_cell_formula_units_Z 56
_cell_length_a 14.219878
_cell_length_b 7.445905
_cell_length_c 30.673806
_cell_angle_alpha 90.000000
_cell_angle_beta 90.000000
_cell_angle_gamma 90.000000
_cell_volume 3247.738306
_symmetry_space_group_name_H-M "P M M N"
_symmetry_group_IT_number 59
_space_group.IT_coordinate_system_code '2'
_symmetry_cell_setting 'orthorhombic'
loop_
_space_group_symop_operation_xyz
x,y,z
1/2-x,1/2-y,z
1/2+x,-y,-z
-x,1/2+y,-z
-x,-y,-z
1/2+x,1/2+y,-z
1/2-x,y,z
x,1/2-y,z
loop_
_atom_site_type_symbol
_atom_site_label
_atom_site_fract_x
_atom_site_fract_y
_atom_site_fract_z
Si Si1 0.859542 0.030035 0.154850
Si Si2 0.038249 0.964835 0.568521
Si Si3 0.145056 0.465416 0.479966
Si Si4 0.640688 0.470204 0.345234
Si Si5 0.364185 0.540507 0.750033
Si Si6 0.644007 0.033971 0.980233
Si Si7 0.958076 0.036577 0.067768
O O1 0.750000 0.980665 0.148334
O O2 0.861377 0.250000 0.156258
O O3 0.892166 0.966047 0.202745
O O4 0.920991 0.968133 0.113977
O O5 0.029730 0.750000 0.572713
O O6 0.078102 0.031947 0.614327
O O7 0.937479 0.034580 0.551711
O O8 0.111116 0.998795 0.529257
O O9 0.250000 0.534835 0.472353
O O10 0.147635 0.250000 0.474941
O O11 0.750000 0.521359 0.351628
O O12 0.639757 0.250000 0.344466
O O13 0.608013 0.533139 0.297255
O O14 0.250000 0.535004 0.750111
O O15 0.392043 0.750000 0.749969
O O16 0.750000 0.968872 0.972971
O O17 0.647759 0.250000 0.983082
O O18 0.567211 0.991749 0.943422
O O19 0.601087 0.966181 0.026216
O O20 0.941851 0.250000 0.068612
#
# Coordination Sequence:
#
# PCOD9453201 Si02
#       7
#     8   8   8   8   8   8   8
#     4   8  12  19  33  53  76  99 120 143 175 215
#     4   9  16  25  38  54  70  93 124 150 173 207
#     4   9  17  27  36  49  72  97 119 147 181 212
#     4   8  12  18  30  50  73  92 113 144 176 205
#     4   7  10  16  27  47  74  96 112 137 175 213
#     4   9  17  28  39  52  74 101 125 150 180 215
#     4   9  16  25  39  58  75  94 123 154 181 210
#
# _framework density 17.242768000000002
#
# number of rings (size 3 to 8) (size 9 to 14) (size 15 to 20)
#    0.000    3.571    0.000    2.571    0.000    2.857 
#    0.000    0.000    0.000    1.286    0.000    2.000 
#    0.000    9.143    0.000    1.429    0.000    2.286 
#
# Total GULP energy -311823.577267 kJ/mol
# GULP energy per Si atom -5568.278165 kJ/mol
# Density = 1.720352 g / cm^3
# Si number density = 17.242768 Si / 1000 Ang^3
#
#
#
# Elastic Constant Matrix: (Units=GPa)
#
#
# Indices 1 2 3 4 5 6 
#
# 1 111.4029 0.8263 89.7656 0.0000 0.0000 0.0000
# 2 0.8263 51.8728 8.1980 0.0000 0.0000 0.0000
# 3 89.7656 8.1980 185.2642 0.0000 0.0000 0.0000
# 4 0.0000 0.0000 0.0000 5.8450 0.0000 0.0000
# 5 0.0000 0.0000 0.0000 0.0000 25.5742 0.0000
# 6 0.0000 0.0000 0.0000 0.0000 0.0000 6.3057
#
#
#
# Elastic Compliance Matrix: (Units=1/GPa)
#
#
# Indices 1 2 3 4 5 6 
#
# 1 0.014767 0.000902 -0.007195 0.000000 0.000000 0.000000
# 2 0.000902 0.019469 -0.001298 0.000000 0.000000 0.000000
# 3 -0.007195 -0.001298 0.008941 0.000000 0.000000 0.000000
# 4 0.000000 0.000000 0.000000 0.171086 0.000000 0.000000
# 5 0.000000 0.000000 0.000000 0.000000 0.039102 0.000000
# 6 0.000000 0.000000 0.000000 0.000000 0.000000 0.158586
#
#
# Mechanical properties :
#
#
# Convention : Reuss Voigt Hill
#
# Bulk Modulus (GPa) = 35.72180 60.67996 48.20088
# Shear Modulus (GPa) = 11.45563 24.19499 17.82531
#
# Velocity S-wave (km/s) = 2.58034 3.74999 3.21874
# Velocity P-wave (km/s) = 5.44422 7.34968 6.46751
#
# Compressibility (1/GPa) = 0.02799411
#
# Stress axis : x y z
#
# Youngs Moduli (GPa) = 67.71695 51.36431 111.83967
#
# Poissons Ratio (x) = -0.04632 0.80470
# Poissons Ratio (y) = -0.06107 0.14522
# Poissons Ratio (z) = 0.48723 0.06670
#
# Static dielectric constant tensor:
#      x y z
#    x 1.566090 0.000000 0.000000 
#    y 0.000000 1.684880 0.000000 
#    z 0.000000 0.000000 1.610700 
# 
# From -- ./inp_files/33305.got.cif
#   From: 2010.05.17/outbox.cif.g08.bks.cpg/sg59_17_cif.got.tgz:33305.got - 2010.06.03 14:40:33.
