data_PCOD9453489
_publ_section_title
;
Structure prediction by ZEFSAII (Michael W. Deem and Ramdas Pophale) SiO2 
 PCOD9453489
Probable space group: P M M N
;
_chemical_formula_sum "Si O2"
_cell_formula_units_Z 64
_cell_length_a 21.000000
_cell_length_b 9.000000
_cell_length_c 18.000000
_cell_angle_alpha 90.000000
_cell_angle_beta 90.000000
_cell_angle_gamma 90.000000
_cell_volume 3402.000000
_symmetry_space_group_name_H-M "P M M N"
_symmetry_group_IT_number 59
_space_group.IT_coordinate_system_code '2'
_symmetry_cell_setting 'orthorhombic'
loop_
_space_group_symop_operation_xyz
x,y,z
1/2-x,1/2-y,z
1/2+x,-y,-z
-x,1/2+y,-z
-x,-y,-z
1/2+x,1/2+y,-z
1/2-x,y,z
x,1/2-y,z
loop_
_atom_site_type_symbol
_atom_site_label
_atom_site_fract_x
_atom_site_fract_y
_atom_site_fract_z
Si Si1 0.046069 0.575696 0.801531
Si Si2 0.678643 0.072699 0.989447
Si Si3 0.545756 0.424444 0.374005
Si Si4 0.824593 0.070803 0.725339
Si Si5 0.326776 0.427772 0.562359
Si Si6 0.903139 0.928060 0.590921
Si Si7 0.678286 0.572035 0.150738
Si Si8 0.581853 0.428722 0.861471
O O1 0.050575 0.750000 0.820837
O O2 0.031681 0.562864 0.713777
O O3 0.115187 0.500856 0.814261
O O4 0.986486 0.503512 0.845691
O O5 0.750000 0.050740 0.955299
O O6 0.674001 0.250000 0.005117
O O7 0.619450 0.032213 0.937036
O O8 0.676973 0.981338 0.065316
O O9 0.553582 0.250000 0.393549
O O10 0.614989 0.501179 0.388775
O O11 0.478363 0.477918 0.412175
O O12 0.750000 0.022535 0.727748
O O13 0.823884 0.250000 0.719298
O O14 0.866385 0.032949 0.797834
O O15 0.864687 0.003206 0.657682
O O16 0.250000 0.474085 0.567829
O O17 0.326270 0.250000 0.575790
O O18 0.358398 0.454561 0.481049
O O19 0.906204 0.750000 0.602269
O O20 0.750000 0.529564 0.179796
O O21 0.673708 0.750000 0.156349
O O22 0.572824 0.250000 0.860309
#
# Coordination Sequence:
#
# PCOD9453489 Si02
#       8
#     8   8   8   8   8   8   8   8
#     4  11  23  39  59  84 114 148 191 236 282 339
#     4   9  18  35  59  85 115 152 191 233 283 336
#     4  10  22  39  59  83 112 148 190 235 282 335
#     4  10  20  33  53  84 118 152 190 229 273 328
#     4  10  22  38  58  85 114 147 188 233 284 341
#     4  10  20  38  59  82 114 150 188 230 279 336
#     4  10  22  40  61  85 112 145 189 238 287 340
#     4  10  20  35  56  83 117 153 189 231 280 333
#
# _framework density 18.812463000000001
#
# number of rings (size 3 to 8) (size 9 to 14) (size 15 to 20)
#    0.000    2.000    1.250    1.875    0.000    6.750 
#    0.000    2.500    0.000    2.250    0.000    0.000 
#    0.000    0.000    0.000    0.000    0.000    0.000 
#
# Total GULP energy -356661.854920 kJ/mol
# GULP energy per Si atom -5572.841483 kJ/mol
# Density = 1.876965 g / cm^3
# Si number density = 18.812463 Si / 1000 Ang^3
#
#
#
# Elastic Constant Matrix: (Units=GPa)
#
#
# Indices 1 2 3 4 5 6 
#
# 1 193.6730 40.3012 22.1216 0.0000 0.0000 0.0000
# 2 40.3012 34.2836 12.4478 0.0000 0.0000 0.0000
# 3 22.1216 12.4478 27.5318 0.0000 0.0000 0.0000
# 4 0.0000 0.0000 0.0000 22.1511 0.0000 0.0000
# 5 0.0000 0.0000 0.0000 0.0000 41.0545 0.0000
# 6 0.0000 0.0000 0.0000 0.0000 0.0000 35.7907
#
#
#
# Elastic Compliance Matrix: (Units=1/GPa)
#
#
# Indices 1 2 3 4 5 6 
#
# 1 0.006951 -0.007350 -0.002262 0.000000 0.000000 0.000000
# 2 -0.007350 0.042669 -0.013386 0.000000 0.000000 0.000000
# 3 -0.002262 -0.013386 0.044191 0.000000 0.000000 0.000000
# 4 0.000000 0.000000 0.000000 0.045145 0.000000 0.000000
# 5 0.000000 0.000000 0.000000 0.000000 0.024358 0.000000
# 6 0.000000 0.000000 0.000000 0.000000 0.000000 0.027940
#
#
# Mechanical properties :
#
#
# Convention : Reuss Voigt Hill
#
# Bulk Modulus (GPa) = 20.91383 45.02550 32.96966
# Shear Modulus (GPa) = 19.74818 31.84045 25.79431
#
# Velocity S-wave (km/s) = 3.24348 4.11849 3.70689
# Velocity P-wave (km/s) = 5.01678 6.82655 5.99040
#
# Compressibility (1/GPa) = 0.04781525
#
# Stress axis : x y z
#
# Youngs Moduli (GPa) = 143.86081 23.43641 22.62890
#
# Poissons Ratio (x) = 0.17226 0.05119
# Poissons Ratio (y) = 1.05736 0.30291
# Poissons Ratio (z) = 0.32544 0.31372
#
# Static dielectric constant tensor:
#      x y z
#    x 1.654610 0.000000 0.000000 
#    y 0.000000 1.641510 0.000000 
#    z 0.000000 0.000000 1.689820 
# 
# From -- ./inp_files/28247.got.cif
#   From: 2010.05.17/outbox.ucp.g08.bks.cvg/sg59_15_cif.got.tgz:28247.got - 2010.06.11 16:43:56.
