data_PCOD9453714
_publ_section_title
;
Structure prediction by ZEFSAII (Michael W. Deem and Ramdas Pophale) SiO2 
 PCOD9453714
Probable space group: P B C N
;
_chemical_formula_sum "Si O2"
_cell_formula_units_Z 64
_cell_length_a 31.701880
_cell_length_b 5.523412
_cell_length_c 12.494084
_cell_angle_alpha 90.000000
_cell_angle_beta 90.000000
_cell_angle_gamma 90.000000
_cell_volume 2187.745899
_symmetry_space_group_name_H-M "P B C N"
_symmetry_group_IT_number 60
_symmetry_cell_setting 'orthorhombic'
loop_
_space_group_symop_operation_xyz
x,y,z
1/2-x,1/2-y,1/2+z
1/2+x,1/2-y,-z
-x,y,1/2-z
-x,-y,-z
1/2+x,1/2+y,1/2-z
1/2-x,1/2+y,z
x,-y,1/2+z
loop_
_atom_site_type_symbol
_atom_site_label
_atom_site_fract_x
_atom_site_fract_y
_atom_site_fract_z
Si Si1 0.484127 0.112515 0.872399
Si Si2 0.143399 0.610918 0.105379
Si Si3 0.140431 0.095222 0.861257
Si Si4 0.236005 0.402564 0.140131
Si Si5 0.108221 0.112833 0.103975
Si Si6 0.386452 0.093829 0.860995
Si Si7 0.766808 0.890760 0.604455
Si Si8 0.015829 0.888921 0.127616
O O1 0.500000 0.143892 0.750000
O O2 0.435510 0.037473 0.873062
O O3 0.487227 0.388349 0.914258
O O4 0.511617 0.885793 0.914216
O O5 0.187965 0.482343 0.126586
O O6 0.109977 0.397363 0.135627
O O7 0.140990 0.896047 0.135088
O O8 0.136067 0.626752 0.976062
O O9 0.135843 0.360536 0.809651
O O10 0.118147 0.860955 0.810179
O O11 0.188708 0.023115 0.877718
O O12 0.117167 0.129741 0.975459
O O13 0.259805 0.634551 0.189872
O O14 0.257775 0.368631 0.023794
O O15 0.063035 0.990490 0.123194
O O16 0.766189 0.605901 0.636575
O O17 0.000000 0.856452 0.250000
#
# Coordination Sequence:
#
# PCOD9453714 Si02
#       8
#     8   8   8   8   8   8   8   8
#     4  10  21  37  54  70  89 122 164 214 257 292
#     4  10  19  30  45  72 104 137 163 193 242 294
#     4  10  19  30  45  72 104 137 163 193 242 294
#     4  10  16  25  41  63  96 141 168 186 219 277
#     4  10  18  32  48  67  97 130 163 203 243 295
#     4  10  18  32  48  67  97 130 163 203 243 295
#     4  10  16  25  41  63  96 141 168 186 219 277
#     4  10  21  37  54  70  89 122 164 214 257 292
#
# _framework density 29.253854
#
# number of rings (size 3 to 8) (size 9 to 14) (size 15 to 20)
#    0.000    2.000    0.000    9.000    0.000    0.000 
#    0.000   15.000    0.000    0.000    0.000    0.000 
#    0.000    0.000    0.000 1098.000    0.000    0.000 
#
# Total GULP energy -358747.567685 kJ/mol
# GULP energy per Si atom -5605.430745 kJ/mol
# Density = 2.918727 g / cm^3
# Si number density = 29.253854 Si / 1000 Ang^3
#
#
#
# Elastic Constant Matrix: (Units=GPa)
#
#
# Indices 1 2 3 4 5 6 
#
# 1 183.7888 46.8310 -4.2475 0.0000 0.0000 0.0000
# 2 46.8310 305.6909 57.8789 0.0000 0.0000 0.0000
# 3 -4.2475 57.8789 38.4523 0.0000 0.0000 0.0000
# 4 0.0000 0.0000 0.0000 84.9184 0.0000 0.0000
# 5 0.0000 0.0000 0.0000 0.0000 35.2712 0.0000
# 6 0.0000 0.0000 0.0000 0.0000 0.0000 57.7899
#
#
#
# Elastic Compliance Matrix: (Units=1/GPa)
#
#
# Indices 1 2 3 4 5 6 
#
# 1 0.005870 -0.001429 0.002800 0.000000 0.000000 0.000000
# 2 -0.001429 0.004923 -0.007568 0.000000 0.000000 0.000000
# 3 0.002800 -0.007568 0.037708 0.000000 0.000000 0.000000
# 4 0.000000 0.000000 0.000000 0.011776 0.000000 0.000000
# 5 0.000000 0.000000 0.000000 0.000000 0.028352 0.000000
# 6 0.000000 0.000000 0.000000 0.000000 0.000000 0.017304
#
#
# Mechanical properties :
#
#
# Convention : Reuss Voigt Hill
#
# Bulk Modulus (GPa) = 27.69698 80.98409 54.34054
# Shear Modulus (GPa) = 38.35435 64.09387 51.22411
#
# Velocity S-wave (km/s) = 3.62482 4.68584 4.18906
# Velocity P-wave (km/s) = 5.19687 7.55112 6.48178
#
# Compressibility (1/GPa) = 0.03610502
#
# Stress axis : x y z
#
# Youngs Moduli (GPa) = 170.35892 203.11809 26.51989
#
# Poissons Ratio (x) = 0.29034 -0.07425
# Poissons Ratio (y) = 0.24351 0.20071
# Poissons Ratio (z) = -0.47700 1.53728
#
# Static dielectric constant tensor:
#      x y z
#    x 2.202530 0.000000 0.000000 
#    y 0.000000 2.315220 0.000000 
#    z 0.000000 0.000000 -4.886120 
# 
# From -- ./inp_files/21291.got.cif
#   From: 2010.05.17/outbox.cif.g08.bks.cpg/sg60_11_cif.got.tgz:21291.got - 2010.06.03 14:59:27.
