data_PCOD9453731
_publ_section_title
;
Structure prediction by ZEFSAII (Michael W. Deem and Ramdas Pophale) SiO2 
 PCOD9453731
Probable space group: P B C N
;
_chemical_formula_sum "Si O2"
_cell_formula_units_Z 48
_cell_length_a 24.498062
_cell_length_b 20.334707
_cell_length_c 5.132702
_cell_angle_alpha 90.000000
_cell_angle_beta 90.000000
_cell_angle_gamma 90.000000
_cell_volume 2556.911514
_symmetry_space_group_name_H-M "P B C N"
_symmetry_group_IT_number 60
_symmetry_cell_setting 'orthorhombic'
loop_
_space_group_symop_operation_xyz
x,y,z
1/2-x,1/2-y,1/2+z
1/2+x,1/2-y,-z
-x,y,1/2-z
-x,-y,-z
1/2+x,1/2+y,1/2-z
1/2-x,1/2+y,z
x,-y,1/2+z
loop_
_atom_site_type_symbol
_atom_site_label
_atom_site_fract_x
_atom_site_fract_y
_atom_site_fract_z
Si Si1 0.533911 0.828871 0.995994
Si Si2 0.648099 0.338083 0.227708
Si Si3 0.937623 0.472121 0.965206
Si Si4 0.259476 0.207518 0.883417
Si Si5 0.630250 0.747071 0.226295
Si Si6 0.062630 0.045032 0.732876
O O1 0.500000 0.851350 0.250000
O O2 0.561017 0.896013 0.892401
O O3 0.574947 0.776923 0.117484
O O4 0.500000 0.802256 0.750000
O O5 0.712357 0.346403 0.156956
O O6 0.645619 0.309896 0.520401
O O7 0.607897 0.399747 0.215012
O O8 0.628717 0.283271 0.015015
O O9 0.911004 0.484790 0.241747
O O10 0.000000 0.500000 0.000000
O O11 0.242595 0.265831 0.679087
O O12 0.322138 0.198005 0.801961
O O13 0.000000 0.071141 0.750000
O O14 0.068333 0.011744 0.450367
#
# Coordination Sequence:
#
# PCOD9453731 Si02
#       6
#     8   8   8   8   8   8
#     4  12  21  31  47  72 104 133 170 213 252 301
#     4  10  19  36  57  75 103 140 170 215 270 318
#     4  10  16  30  47  62  81 128 181 198 220 285
#     4   8  16  32  53  73  96 130 170 201 248 315
#     4  10  21  33  50  80 107 135 173 216 269 314
#     4  10  21  36  55  80 105 139 181 217 259 328
#
# _framework density 18.772649000000001
#
# number of rings (size 3 to 8) (size 9 to 14) (size 15 to 20)
#    0.000    2.000    3.333    2.000    0.000    2.000 
#    0.000    0.000    0.000    2.000    0.000    0.000 
#    0.000    0.000    0.000    0.000    0.000    0.000 
#
# Total GULP energy -267222.859173 kJ/mol
# GULP energy per Si atom -5567.142899 kJ/mol
# Density = 1.872992 g / cm^3
# Si number density = 18.772649 Si / 1000 Ang^3
#
#
#
# Elastic Constant Matrix: (Units=GPa)
#
#
# Indices 1 2 3 4 5 6 
#
# 1 70.3537 30.5976 7.2599 0.0000 0.0000 0.0000
# 2 30.5976 27.8074 -4.8676 0.0000 0.0000 0.0000
# 3 7.2599 -4.8676 93.0345 0.0000 0.0000 0.0000
# 4 0.0000 0.0000 0.0000 17.1252 0.0000 0.0000
# 5 0.0000 0.0000 0.0000 0.0000 20.9493 0.0000
# 6 0.0000 0.0000 0.0000 0.0000 0.0000 23.5903
#
#
#
# Elastic Compliance Matrix: (Units=1/GPa)
#
#
# Indices 1 2 3 4 5 6 
#
# 1 0.028605 -0.032160 -0.003915 0.000000 0.000000 0.000000
# 2 -0.032160 0.072451 0.006300 0.000000 0.000000 0.000000
# 3 -0.003915 0.006300 0.011384 0.000000 0.000000 0.000000
# 4 0.000000 0.000000 0.000000 0.058393 0.000000 0.000000
# 5 0.000000 0.000000 0.000000 0.000000 0.047734 0.000000
# 6 0.000000 0.000000 0.000000 0.000000 0.000000 0.042390
#
#
# Mechanical properties :
#
#
# Convention : Reuss Voigt Hill
#
# Bulk Modulus (GPa) = 18.90691 28.57506 23.74099
# Shear Modulus (GPa) = 14.78690 22.88001 18.83345
#
# Velocity S-wave (km/s) = 2.80961 3.49491 3.17083
# Velocity P-wave (km/s) = 4.54077 5.61610 5.10682
#
# Compressibility (1/GPa) = 0.05289071
#
# Stress axis : x y z
#
# Youngs Moduli (GPa) = 34.95938 13.80236 87.84402
#
# Poissons Ratio (x) = 0.44388 0.34389
# Poissons Ratio (y) = 1.12430 -0.55344
# Poissons Ratio (z) = 0.13686 -0.08696
#
# Static dielectric constant tensor:
#      x y z
#    x 1.789790 0.000000 0.000000 
#    y 0.000000 1.619360 0.000000 
#    z 0.000000 0.000000 3.413080 
# 
# From -- ./inp_files/2060.got.cif
#   From: 2010.05.17/outbox.cif.g08.bks.cpg/sg60_2_cif.got.tgz:2060.got - 2010.06.03 14:59:27.
