data_PCOD9453103
_publ_section_title
;
Structure prediction by ZEFSAII (Michael W. Deem and Ramdas Pophale) SiO2 
 PCOD9453103
Probable space group: P M M N
;
_chemical_formula_sum "Si O2"
_cell_formula_units_Z 64
_cell_length_a 7.762912
_cell_length_b 29.823954
_cell_length_c 12.928707
_cell_angle_alpha 90.000000
_cell_angle_beta 90.000000
_cell_angle_gamma 90.000000
_cell_volume 2993.263688
_symmetry_space_group_name_H-M "P M M N"
_symmetry_group_IT_number 59
_space_group.IT_coordinate_system_code '2'
_symmetry_cell_setting 'orthorhombic'
loop_
_space_group_symop_operation_xyz
x,y,z
1/2-x,1/2-y,z
1/2+x,-y,-z
-x,1/2+y,-z
-x,-y,-z
1/2+x,1/2+y,-z
1/2-x,y,z
x,1/2-y,z
loop_
_atom_site_type_symbol
_atom_site_label
_atom_site_fract_x
_atom_site_fract_y
_atom_site_fract_z
Si Si1 0.458099 0.827864 0.354436
Si Si2 0.545318 0.602176 0.640253
Si Si3 0.449506 0.027910 0.779474
Si Si4 0.541713 0.201556 0.420946
Si Si5 0.449047 0.895483 0.070071
Si Si6 0.550766 0.935177 0.855541
Si Si7 0.045984 0.072566 0.579906
Si Si8 0.460163 0.798833 0.126975
O O1 0.250000 0.829424 0.353272
O O2 0.509669 0.802074 0.458329
O O3 0.523129 0.878394 0.369185
O O4 0.511684 0.806176 0.246754
O O5 0.750000 0.593180 0.640549
O O6 0.520672 0.655575 0.629938
O O7 0.476053 0.584657 0.748861
O O8 0.473884 0.578111 0.536338
O O9 0.250000 0.014890 0.769430
O O10 0.458508 0.073011 0.847024
O O11 0.523494 0.037600 0.664609
O O12 0.541793 0.988522 0.841123
O O13 0.750000 0.200561 0.416641
O O14 0.484205 0.250000 0.379244
O O15 0.250000 0.894109 0.104191
O O16 0.514401 0.844265 0.069366
O O17 0.460649 0.917731 0.958020
O O18 0.750000 0.921410 0.865278
O O19 0.250000 0.063738 0.571382
O O20 0.250000 0.797656 0.123148
O O21 0.520910 0.750000 0.090335
#
# Coordination Sequence:
#
# PCOD9453103 Si02
#       8
#     8   8   8   8   8   8   8   8
#     4   9  15  27  49  78 112 145 176 214 264 322
#     4   9  20  38  56  77 109 149 186 225 274 330
#     4  11  22  37  60  87 114 141 177 227 283 336
#     4   9  17  29  50  81 112 143 182 228 272 319
#     4  11  22  38  60  84 113 146 186 228 273 325
#     4  11  24  41  59  78 106 145 191 235 277 325
#     4   9  18  33  54  81 114 144 172 216 272 326
#     4   9  17  30  52  82 112 142 177 218 267 323
#
# _framework density 21.381343000000001
#
# number of rings (size 3 to 8) (size 9 to 14) (size 15 to 20)
#    0.000    2.250    1.250    1.875    0.000    3.750 
#    0.000    0.625    0.000    6.375    0.000    0.000 
#    0.000    0.000    0.000    0.000    0.000    0.000 
#
# Total GULP energy -357208.553205 kJ/mol
# GULP energy per Si atom -5581.383644 kJ/mol
# Density = 2.133268 g / cm^3
# Si number density = 21.381343 Si / 1000 Ang^3
#
#
#
# Elastic Constant Matrix: (Units=GPa)
#
#
# Indices 1 2 3 4 5 6 
#
# 1 32.2011 -2.3506 -1.1050 0.0000 0.0000 0.0000
# 2 -2.3506 68.9725 29.3604 0.0000 0.0000 0.0000
# 3 -1.1050 29.3604 76.2732 0.0000 0.0000 0.0000
# 4 0.0000 0.0000 0.0000 26.7215 0.0000 0.0000
# 5 0.0000 0.0000 0.0000 0.0000 -1.4606 0.0000
# 6 0.0000 0.0000 0.0000 0.0000 0.0000 30.6027
#
#
#
# Elastic Compliance Matrix: (Units=1/GPa)
#
#
# Indices 1 2 3 4 5 6 
#
# 1 0.031132 0.001039 0.000051 0.000000 0.000000 0.000000
# 2 0.001039 0.017375 -0.006673 0.000000 0.000000 0.000000
# 3 0.000051 -0.006673 0.015680 0.000000 0.000000 0.000000
# 4 0.000000 0.000000 0.000000 0.037423 0.000000 0.000000
# 5 0.000000 0.000000 0.000000 0.000000 -0.684641 0.000000
# 6 0.000000 0.000000 0.000000 0.000000 0.000000 0.032677
#
#
# Mechanical properties :
#
#
# Convention : Reuss Voigt Hill
#
# Bulk Modulus (GPa) = 18.86021 25.47292 22.16657
# Shear Modulus (GPa) = -9.58747 21.27553 5.84403
#
# Velocity S-wave (km/s) = -2.11985 3.15786 1.65504
# Velocity P-wave (km/s) = 1.68770 5.02351 3.74726
#
# Compressibility (1/GPa) = 0.05302167
#
# Stress axis : x y z
#
# Youngs Moduli (GPa) = 32.12085 57.55541 63.77469
#
# Poissons Ratio (x) = -0.05982 -0.00325
# Poissons Ratio (y) = -0.03338 0.42557
# Poissons Ratio (z) = -0.00164 0.38407
#
# Static dielectric constant tensor:
#      x y z
#    x 1.784920 0.000000 0.000000 
#    y 0.000000 1.782870 0.000000 
#    z 0.000000 0.000000 1.770710 
# 
# From -- ./inp_files/15029.got.cif
#   From: 2010.05.17/outbox.cif.g08.bks.cpg/sg59_8_cif.got.tgz:15029.got - 2010.06.03 14:40:33.
