data_PCOD9453813
_publ_section_title
;
Structure prediction by ZEFSAII (Michael W. Deem and Ramdas Pophale) SiO2 
 PCOD9453813
Probable space group: P B C N
;
_chemical_formula_sum "Si O2"
_cell_formula_units_Z 52
_cell_length_a 17.303215
_cell_length_b 14.234114
_cell_length_c 10.219188
_cell_angle_alpha 90.000000
_cell_angle_beta 90.000000
_cell_angle_gamma 90.000000
_cell_volume 2516.944462
_symmetry_space_group_name_H-M "P B C N"
_symmetry_group_IT_number 60
_symmetry_cell_setting 'orthorhombic'
loop_
_space_group_symop_operation_xyz
x,y,z
1/2-x,1/2-y,1/2+z
1/2+x,1/2-y,-z
-x,y,1/2-z
-x,-y,-z
1/2+x,1/2+y,1/2-z
1/2-x,1/2+y,z
x,-y,1/2+z
loop_
_atom_site_type_symbol
_atom_site_label
_atom_site_fract_x
_atom_site_fract_y
_atom_site_fract_z
Si Si1 0.855947 0.831005 0.393490
Si Si2 0.762912 0.362898 0.183772
Si Si3 0.000000 0.762771 0.250000
Si Si4 0.408687 0.964318 0.194198
Si Si5 0.762550 0.859767 0.633015
Si Si6 0.916635 0.394878 0.578057
Si Si7 0.793308 0.614853 0.402469
O O1 0.806299 0.881245 0.281763
O O2 0.942668 0.821640 0.342337
O O3 0.831032 0.877002 0.530839
O O4 0.823492 0.722654 0.400677
O O5 0.842347 0.396762 0.247724
O O6 0.764271 0.251655 0.159592
O O7 0.755346 0.407155 0.040636
O O8 0.950655 0.695141 0.153509
O O9 0.438481 0.017026 0.326960
O O10 0.368011 0.050669 0.118653
O O11 0.444364 0.906354 0.071557
O O12 0.677045 0.884523 0.576758
O O13 0.761292 0.902726 0.778030
#
# Coordination Sequence:
#
# PCOD9453813 Si02
#       7
#     8   8   4   8   8   8   8
#     4  10  19  34  55  79 109 150 197 235 284 340
#     4  10  17  30  57  78 102 143 202 244 270 320
#     4  12  22  36  54  86 126 162 182 238 308 358
#     4  11  19  33  52  84 111 152 193 235 283 347
#     4   9  18  34  52  76 105 148 196 246 259 338
#     4  11  22  35  53  79 123 153 197 231 292 354
#     4   9  18  32  52  80 108 137 189 243 278 330
#
# _framework density 20.659970999999999
#
# number of rings (size 3 to 8) (size 9 to 14) (size 15 to 20)
#    0.000    1.846    7.692    0.000    0.000    0.615 
#    0.000    0.000    0.000    6.462    0.000    9.692 
#    0.000    0.000    0.000    0.000    0.000    0.000 
#
# Total GULP energy -289887.554156 kJ/mol
# GULP energy per Si atom -5574.760657 kJ/mol
# Density = 2.061295 g / cm^3
# Si number density = 20.659971 Si / 1000 Ang^3
#
#
#
# Elastic Constant Matrix: (Units=GPa)
#
#
# Indices 1 2 3 4 5 6 
#
# 1 47.3382 -1.1315 34.9212 0.0000 0.0000 0.0000
# 2 -1.1315 32.2671 -6.8059 0.0000 0.0000 0.0000
# 3 34.9212 -6.8059 142.2177 0.0000 0.0000 0.0000
# 4 0.0000 0.0000 0.0000 17.1416 0.0000 0.0000
# 5 0.0000 0.0000 0.0000 0.0000 28.5711 0.0000
# 6 0.0000 0.0000 0.0000 0.0000 0.0000 30.3201
#
#
#
# Elastic Compliance Matrix: (Units=1/GPa)
#
#
# Indices 1 2 3 4 5 6 
#
# 1 0.025804 -0.000436 -0.006357 0.000000 0.000000 0.000000
# 2 -0.000436 0.031315 0.001606 0.000000 0.000000 0.000000
# 3 -0.006357 0.001606 0.008669 0.000000 0.000000 0.000000
# 4 0.000000 0.000000 0.000000 0.058337 0.000000 0.000000
# 5 0.000000 0.000000 0.000000 0.000000 0.035000 0.000000
# 6 0.000000 0.000000 0.000000 0.000000 0.000000 0.032981
#
#
# Mechanical properties :
#
#
# Convention : Reuss Voigt Hill
#
# Bulk Modulus (GPa) = 18.04629 30.64340 24.34485
# Shear Modulus (GPa) = 22.62933 28.19586 25.41259
#
# Velocity S-wave (km/s) = 3.31316 3.69827 3.51100
# Velocity P-wave (km/s) = 4.83631 5.75332 5.31463
#
# Compressibility (1/GPa) = 0.05541305
#
# Stress axis : x y z
#
# Youngs Moduli (GPa) = 38.75425 31.93393 115.35056
#
# Poissons Ratio (x) = 0.01392 0.73327
# Poissons Ratio (y) = 0.01690 -0.18521
# Poissons Ratio (z) = 0.24636 -0.05127
#
# Static dielectric constant tensor:
#      x y z
#    x 1.826350 0.000000 0.000000 
#    y 0.000000 1.754860 0.000000 
#    z 0.000000 0.000000 1.801320 
# 
# From -- ./inp_files/12074.got.cif
#   From: 2010.05.17/outbox.cif.g08.bks.cpg/sg60_7_cif.got.tgz:12074.got - 2010.06.03 14:59:27.
