data_PCOD9453216
_publ_section_title
;
Structure prediction by ZEFSAII (Michael W. Deem and Ramdas Pophale) SiO2 
 PCOD9453216
Probable space group: P M M N
;
_chemical_formula_sum "Si O2"
_cell_formula_units_Z 64
_cell_length_a 7.368063
_cell_length_b 24.036635
_cell_length_c 14.108827
_cell_angle_alpha 90.000000
_cell_angle_beta 90.000000
_cell_angle_gamma 90.000000
_cell_volume 2498.721810
_symmetry_space_group_name_H-M "P M M N"
_symmetry_group_IT_number 59
_space_group.IT_coordinate_system_code '2'
_symmetry_cell_setting 'orthorhombic'
loop_
_space_group_symop_operation_xyz
x,y,z
1/2-x,1/2-y,z
1/2+x,-y,-z
-x,1/2+y,-z
-x,-y,-z
1/2+x,1/2+y,-z
1/2-x,y,z
x,1/2-y,z
loop_
_atom_site_type_symbol
_atom_site_label
_atom_site_fract_x
_atom_site_fract_y
_atom_site_fract_z
Si Si1 0.029491 0.950496 0.595486
Si Si2 0.025734 0.160451 0.173323
Si Si3 0.955153 0.541048 0.859132
Si Si4 0.472295 0.311602 0.586686
Si Si5 0.543776 0.932980 0.374054
Si Si6 0.457872 0.326415 0.371853
Si Si7 0.532250 0.690180 0.039946
Si Si8 0.035775 0.569042 0.073447
O O1 0.250000 0.950941 0.592903
O O2 0.957610 0.944548 0.487861
O O3 0.961893 0.892885 0.636065
O O4 0.966566 0.005887 0.651382
O O5 0.250000 0.160689 0.173328
O O6 0.954892 0.096913 0.177790
O O7 0.966841 0.190580 0.269591
O O8 0.972756 0.183573 0.070221
O O9 0.750000 0.539785 0.823799
O O10 0.034352 0.478927 0.856674
O O11 0.949089 0.556632 0.971779
O O12 0.250000 0.314721 0.586486
O O13 0.520523 0.250000 0.625062
O O14 0.533846 0.370158 0.634747
O O15 0.534396 0.313039 0.475901
O O16 0.750000 0.930150 0.339237
O O17 0.250000 0.308124 0.376241
O O18 0.750000 0.691232 0.038643
O O19 0.468272 0.750000 0.076782
O O20 0.485270 0.633888 0.095593
O O21 0.250000 0.558936 0.063678
#
# Coordination Sequence:
#
# PCOD9453216 Si02
#       8
#     8   8   8   8   8   8   8   8
#     4   9  15  23  36  52  70  91 116 149 186 221
#     4   8  14  25  39  53  71  97 128 155 175 205
#     4   8  14  25  39  54  72  95 123 155 191 227
#     4   8  13  21  34  52  71  90 116 149 177 201
#     4   8  14  24  37  52  68  89 118 150 184 219
#     4   9  16  25  37  53  73  97 124 151 178 211
#     4   9  17  28  40  54  75 103 131 156 183 219
#     4   9  15  23  38  57  74  93 120 157 196 228
#
# _framework density 25.613094
#
# number of rings (size 3 to 8) (size 9 to 14) (size 15 to 20)
#    0.000    3.500    0.000    2.250    0.000    1.750 
#    0.000    5.000    0.000    6.000    0.000    0.000 
#    0.000    1.000    0.000    7.000    0.000    2.250 
#
# Total GULP energy -356517.808113 kJ/mol
# GULP energy per Si atom -5570.590752 kJ/mol
# Density = 2.555480 g / cm^3
# Si number density = 25.613094 Si / 1000 Ang^3
#
#
#
# Elastic Constant Matrix: (Units=GPa)
#
#
# Indices 1 2 3 4 5 6 
#
# 1 117.0676 15.7824 4.6145 0.0000 0.0000 0.0000
# 2 15.7824 281.5600 -2.5300 0.0000 0.0000 0.0000
# 3 4.6145 -2.5300 33.9860 0.0000 0.0000 0.0000
# 4 0.0000 0.0000 0.0000 -16.4050 0.0000 0.0000
# 5 0.0000 0.0000 0.0000 0.0000 -3.8221 0.0000
# 6 0.0000 0.0000 0.0000 0.0000 0.0000 -27.7404
#
#
#
# Elastic Compliance Matrix: (Units=1/GPa)
#
#
# Indices 1 2 3 4 5 6 
#
# 1 0.008657 -0.000496 -0.001212 0.000000 0.000000 0.000000
# 2 -0.000496 0.003582 0.000334 0.000000 0.000000 0.000000
# 3 -0.001212 0.000334 0.029613 0.000000 0.000000 0.000000
# 4 0.000000 0.000000 0.000000 -0.060957 0.000000 0.000000
# 5 0.000000 0.000000 0.000000 0.000000 -0.261637 0.000000
# 6 0.000000 0.000000 0.000000 0.000000 0.000000 -0.036049
#
#
# Mechanical properties :
#
#
# Convention : Reuss Voigt Hill
#
# Bulk Modulus (GPa) = 25.57300 52.03861 38.80580
# Shear Modulus (GPa) = -16.61095 18.05629 0.72267
#
# Velocity S-wave (km/s) = -2.54939 2.65799 0.53175
# Velocity P-wave (km/s) = 1.15764 5.45722 3.94470
#
# Compressibility (1/GPa) = 0.03910375
#
# Stress axis : x y z
#
# Youngs Moduli (GPa) = 115.51683 279.13842 33.76856
#
# Poissons Ratio (x) = 0.13849 0.04094
# Poissons Ratio (y) = 0.05731 -0.01128
# Poissons Ratio (z) = 0.14004 -0.09324
#
# Static dielectric constant tensor:
#      x y z
#    x 1.990650 0.000000 0.000000 
#    y 0.000000 2.121380 0.000000 
#    z 0.000000 0.000000 2.031910 
# 
# From -- ./inp_files/29831.got.cif
#   From: 2010.05.17/outbox.cif.g08.bks.cpg/sg59_15_cif.got.tgz:29831.got - 2010.06.03 14:40:33.
