data_PCOD9453482
_publ_section_title
;
Structure prediction by ZEFSAII (Michael W. Deem and Ramdas Pophale) SiO2 
 PCOD9453482
Probable space group: P M M N
;
_chemical_formula_sum "Si O2"
_cell_formula_units_Z 64
_cell_length_a 9.000000
_cell_length_b 24.000000
_cell_length_c 15.000000
_cell_angle_alpha 90.000000
_cell_angle_beta 90.000000
_cell_angle_gamma 90.000000
_cell_volume 3240.000000
_symmetry_space_group_name_H-M "P M M N"
_symmetry_group_IT_number 59
_space_group.IT_coordinate_system_code '2'
_symmetry_cell_setting 'orthorhombic'
loop_
_space_group_symop_operation_xyz
x,y,z
1/2-x,1/2-y,z
1/2+x,-y,-z
-x,1/2+y,-z
-x,-y,-z
1/2+x,1/2+y,-z
1/2-x,y,z
x,1/2-y,z
loop_
_atom_site_type_symbol
_atom_site_label
_atom_site_fract_x
_atom_site_fract_y
_atom_site_fract_z
Si Si1 0.426233 0.812983 0.703724
Si Si2 0.569186 0.685314 0.164884
Si Si3 0.574869 0.314367 0.507240
Si Si4 0.920386 0.580189 0.722794
Si Si5 0.426473 0.997704 0.595868
Si Si6 0.928528 0.883217 0.338888
Si Si7 0.417631 0.527087 0.873887
Si Si8 0.422433 0.089870 0.971878
O O1 0.250000 0.822614 0.714565
O O2 0.458603 0.750000 0.732150
O O3 0.460207 0.817148 0.597791
O O4 0.522226 0.859416 0.751580
O O5 0.750000 0.686530 0.168456
O O6 0.519301 0.750000 0.161146
O O7 0.517207 0.652349 0.253798
O O8 0.533448 0.645846 0.080461
O O9 0.750000 0.327013 0.516793
O O10 0.551191 0.250000 0.534676
O O11 0.481901 0.353936 0.570624
O O12 0.750000 0.580930 0.697824
O O13 0.020314 0.558400 0.642315
O O14 0.957835 0.537866 0.801227
O O15 0.250000 0.998466 0.587874
O O16 0.500000 0.000000 0.500000
O O17 0.473183 0.052016 0.653522
O O18 0.750000 0.882465 0.334894
O O19 0.250000 0.539205 0.840676
O O20 0.418867 0.463175 0.905083
O O21 0.463192 0.568676 0.953655
O O22 0.250000 0.095690 0.004694
#
# Coordination Sequence:
#
# PCOD9453482 Si02
#       8
#     8   8   8   8   8   8   8   8
#     4   9  19  37  58  77 102 139 179 222 275 327
#     4   9  17  31  53  80 110 143 177 219 275 334
#     4   9  18  32  50  73 102 138 179 222 268 317
#     4  12  24  37  56  83 112 143 182 225 271 328
#     4  11  23  38  55  79 113 151 191 238 290 338
#     4  10  20  33  51  76 106 143 187 229 269 322
#     4  10  20  36  59  83 109 142 178 223 276 328
#     4   9  18  35  58  83 108 136 177 225 273 331
#
# _framework density 19.753086
#
# number of rings (size 3 to 8) (size 9 to 14) (size 15 to 20)
#    0.000    2.125    0.000    4.500    0.000    7.000 
#    0.000    2.500    0.000    3.375    0.000    0.000 
#    0.000    0.000    0.000    0.000    0.000    0.000 
#
# Total GULP energy -357096.243157 kJ/mol
# GULP energy per Si atom -5579.628799 kJ/mol
# Density = 1.970813 g / cm^3
# Si number density = 19.753086 Si / 1000 Ang^3
#
#
#
# Elastic Constant Matrix: (Units=GPa)
#
#
# Indices 1 2 3 4 5 6 
#
# 1 25.2436 32.4752 6.9613 0.0000 0.0000 0.0000
# 2 32.4752 110.1421 20.4121 0.0000 0.0000 0.0000
# 3 6.9613 20.4121 23.8691 0.0000 0.0000 0.0000
# 4 0.0000 0.0000 0.0000 24.3670 0.0000 0.0000
# 5 0.0000 0.0000 0.0000 0.0000 22.3797 0.0000
# 6 0.0000 0.0000 0.0000 0.0000 0.0000 20.3983
#
#
#
# Elastic Compliance Matrix: (Units=1/GPa)
#
#
# Indices 1 2 3 4 5 6 
#
# 1 0.064004 -0.018315 -0.003004 0.000000 0.000000 0.000000
# 2 -0.018315 0.016030 -0.008367 0.000000 0.000000 0.000000
# 3 -0.003004 -0.008367 0.049926 0.000000 0.000000 0.000000
# 4 0.000000 0.000000 0.000000 0.041039 0.000000 0.000000
# 5 0.000000 0.000000 0.000000 0.000000 0.044683 0.000000
# 6 0.000000 0.000000 0.000000 0.000000 0.000000 0.049024
#
#
# Mechanical properties :
#
#
# Convention : Reuss Voigt Hill
#
# Bulk Modulus (GPa) = 14.16659 30.99465 22.58062
# Shear Modulus (GPa) = 14.38408 20.05609 17.22008
#
# Velocity S-wave (km/s) = 2.70143 3.18990 2.95577
# Velocity P-wave (km/s) = 4.11312 5.41224 4.80677
#
# Compressibility (1/GPa) = 0.07058861
#
# Stress axis : x y z
#
# Youngs Moduli (GPa) = 15.62412 62.38385 20.02948
#
# Poissons Ratio (x) = 1.14253 0.06017
# Poissons Ratio (y) = 0.28615 0.16758
# Poissons Ratio (z) = 0.04694 0.52196
#
# Static dielectric constant tensor:
#      x y z
#    x 1.658920 0.000000 0.000000 
#    y 0.000000 1.732440 0.000000 
#    z 0.000000 0.000000 1.752820 
# 
# From -- ./inp_files/21605.got.cif
#   From: 2010.05.17/outbox.ucp.g08.bks.cvg/sg59_11_cif.got.tgz:21605.got - 2010.06.11 16:43:56.
