data_PCOD9453915
_publ_section_title
;
Structure prediction by ZEFSAII (Michael W. Deem and Ramdas Pophale) SiO2 
 PCOD9453915
Probable space group: P B C N
;
_chemical_formula_sum "Si O2"
_cell_formula_units_Z 44
_cell_length_a 14.989757
_cell_length_b 26.377768
_cell_length_c 5.386628
_cell_angle_alpha 90.000000
_cell_angle_beta 90.000000
_cell_angle_gamma 90.000000
_cell_volume 2129.852956
_symmetry_space_group_name_H-M "P B C N"
_symmetry_group_IT_number 60
_symmetry_cell_setting 'orthorhombic'
loop_
_space_group_symop_operation_xyz
x,y,z
1/2-x,1/2-y,1/2+z
1/2+x,1/2-y,-z
-x,y,1/2-z
-x,-y,-z
1/2+x,1/2+y,1/2-z
1/2-x,1/2+y,z
x,-y,1/2+z
loop_
_atom_site_type_symbol
_atom_site_label
_atom_site_fract_x
_atom_site_fract_y
_atom_site_fract_z
Si Si1 0.544685 0.175290 0.502739
Si Si2 0.739342 0.218802 0.423156
Si Si3 0.265018 0.610517 0.150249
Si Si4 0.364576 0.485452 0.634502
Si Si5 0.500000 0.073870 0.750000
Si Si6 0.695069 0.061518 0.862956
O O1 0.500000 0.191827 0.250000
O O2 0.645303 0.192787 0.489028
O O3 0.529473 0.114735 0.538655
O O4 0.500000 0.197533 0.750000
O O5 0.767872 0.248581 0.670897
O O6 0.795113 0.168406 0.360395
O O7 0.346992 0.572792 0.188576
O O8 0.203434 0.597184 0.391447
O O9 0.224072 0.592095 0.885398
O O10 0.408761 0.490640 0.371350
O O11 0.267556 0.515981 0.610460
O O12 0.591166 0.045679 0.828190
#
# Coordination Sequence:
#
# PCOD9453915 Si02
#       6
#     8   8   8   8   4   8
#     4  10  20  35  52  70  97 139 166 214 271 304
#     4  12  23  34  52  77  96 128 181 226 259 307
#     4  10  18  34  44  61  96 123 155 217 251 282
#     4   8  16  28  44  61  85 122 160 192 245 287
#     4  10  20  28  52  66  96 132 168 216 238 298
#     4  10  18  29  48  68  89 128 168 198 247 290
#
# _framework density 20.658705000000001
#
# number of rings (size 3 to 8) (size 9 to 14) (size 15 to 20)
#    0.545    1.455    1.818    3.273    0.000    0.000 
#    0.000    8.182    0.000    0.000    0.000    0.000 
#    0.000    0.000    0.000    0.000    0.000  572.727 
#
# Total GULP energy -245003.851792 kJ/mol
# GULP energy per Si atom -5568.269359 kJ/mol
# Density = 2.061168 g / cm^3
# Si number density = 20.658705 Si / 1000 Ang^3
#
#
#
# Elastic Constant Matrix: (Units=GPa)
#
#
# Indices 1 2 3 4 5 6 
#
# 1 49.1576 4.9286 3.6031 0.0000 0.0000 0.0000
# 2 4.9286 94.5160 24.0359 0.0000 0.0000 0.0000
# 3 3.6031 24.0359 154.0794 0.0000 0.0000 0.0000
# 4 0.0000 0.0000 0.0000 42.3689 0.0000 0.0000
# 5 0.0000 0.0000 0.0000 0.0000 28.0871 0.0000
# 6 0.0000 0.0000 0.0000 0.0000 0.0000 10.9474
#
#
#
# Elastic Compliance Matrix: (Units=1/GPa)
#
#
# Indices 1 2 3 4 5 6 
#
# 1 0.020465 -0.000985 -0.000325 0.000000 0.000000 0.000000
# 2 -0.000985 0.011065 -0.001703 0.000000 0.000000 0.000000
# 3 -0.000325 -0.001703 0.006763 0.000000 0.000000 0.000000
# 4 0.000000 0.000000 0.000000 0.023602 0.000000 0.000000
# 5 0.000000 0.000000 0.000000 0.000000 0.035604 0.000000
# 6 0.000000 0.000000 0.000000 0.000000 0.000000 0.091346
#
#
# Mechanical properties :
#
#
# Convention : Reuss Voigt Hill
#
# Bulk Modulus (GPa) = 30.99021 40.32090 35.65555
# Shear Modulus (GPa) = 24.31600 33.95972 29.13786
#
# Velocity S-wave (km/s) = 3.43451 4.05883 3.75966
# Velocity P-wave (km/s) = 5.54630 6.44403 6.01195
#
# Compressibility (1/GPa) = 0.03226826
#
# Stress axis : x y z
#
# Youngs Moduli (GPa) = 48.86329 90.37797 147.85403
#
# Poissons Ratio (x) = 0.08898 0.04805
# Poissons Ratio (y) = 0.04811 0.25180
# Poissons Ratio (z) = 0.01588 0.15392
#
# Static dielectric constant tensor:
#      x y z
#    x 1.809370 0.000000 0.000000 
#    y 0.000000 1.778420 0.000000 
#    z 0.000000 0.000000 1.787720 
# 
# From -- ./inp_files/1735.got.cif
#   From: 2010.05.17/outbox.cif.g08.bks.cpg/sg60_1_cif.got.tgz:1735.got - 2010.06.03 14:59:27.
