data_PCOD9453140
_publ_section_title
;
Structure prediction by ZEFSAII (Michael W. Deem and Ramdas Pophale) SiO2 
 PCOD9453140
Probable space group: P M M N
;
_chemical_formula_sum "Si O2"
_cell_formula_units_Z 64
_cell_length_a 25.756042
_cell_length_b 8.366618
_cell_length_c 15.378391
_cell_angle_alpha 90.000000
_cell_angle_beta 90.000000
_cell_angle_gamma 90.000000
_cell_volume 3313.904311
_symmetry_space_group_name_H-M "P M M N"
_symmetry_group_IT_number 59
_space_group.IT_coordinate_system_code '2'
_symmetry_cell_setting 'orthorhombic'
loop_
_space_group_symop_operation_xyz
x,y,z
1/2-x,1/2-y,z
1/2+x,-y,-z
-x,1/2+y,-z
-x,-y,-z
1/2+x,1/2+y,-z
1/2-x,y,z
x,1/2-y,z
loop_
_atom_site_type_symbol
_atom_site_label
_atom_site_fract_x
_atom_site_fract_y
_atom_site_fract_z
Si Si1 0.609002 0.939973 0.220917
Si Si2 0.506624 0.566788 0.747573
Si Si3 0.189763 0.557020 0.439892
Si Si4 0.117791 0.059491 0.286324
Si Si5 0.462767 0.564985 0.073610
Si Si6 0.865810 0.559411 0.022398
Si Si7 0.191847 0.559053 0.130933
Si Si8 0.191072 0.942673 0.638552
O O1 0.609757 0.750000 0.219501
O O2 0.550595 0.990963 0.247794
O O3 0.649895 0.000286 0.291489
O O4 0.627030 0.990750 0.123183
O O5 0.499358 0.750000 0.720818
O O6 0.558220 0.498029 0.700169
O O7 0.527505 0.548903 0.845560
O O8 0.250000 0.516061 0.422213
O O9 0.185621 0.750000 0.434312
O O10 0.151877 0.481265 0.370078
O O11 0.178277 0.508438 0.539489
O O12 0.113975 0.250000 0.274352
O O13 0.148766 0.992164 0.202329
O O14 0.473137 0.750000 0.096637
O O15 0.406926 0.542446 0.032479
O O16 0.500000 0.500000 0.000000
O O17 0.876831 0.750000 0.018063
O O18 0.815545 0.523223 0.963698
O O19 0.250000 0.520396 0.164224
O O20 0.188541 0.750000 0.120542
O O21 0.250000 0.997405 0.658340
O O22 0.191681 0.750000 0.638956
#
# Coordination Sequence:
#
# PCOD9453140 Si02
#       8
#     8   8   8   8   8   8   8   8
#     4  11  24  39  60  89 120 154 197 247 297 351
#     4  11  23  38  57  83 119 159 199 243 291 350
#     4   9  19  38  64  91 117 150 194 241 293 355
#     4  11  23  37  58  88 120 154 194 241 296 355
#     4  12  22  34  56  82 111 151 198 245 290 339
#     4  11  23  38  55  80 114 152 196 245 294 344
#     4  11  24  39  56  81 115 157 202 246 296 357
#     4   9  20  41  67  91 117 151 192 241 296 354
#
# _framework density 19.312567999999999
#
# number of rings (size 3 to 8) (size 9 to 14) (size 15 to 20)
#    0.000    1.375    2.500    4.125    0.000    7.000 
#    0.000    4.375    0.000    0.000    0.000    0.000 
#    0.000    0.000    0.000    0.000    0.000    0.000 
#
# Total GULP energy -356945.512156 kJ/mol
# GULP energy per Si atom -5577.273627 kJ/mol
# Density = 1.926861 g / cm^3
# Si number density = 19.312568 Si / 1000 Ang^3
#
#
#
# Elastic Constant Matrix: (Units=GPa)
#
#
# Indices 1 2 3 4 5 6 
#
# 1 126.0540 23.2523 83.3709 0.0000 0.0000 0.0000
# 2 23.2523 38.7004 17.9676 0.0000 0.0000 0.0000
# 3 83.3709 17.9676 113.2546 0.0000 0.0000 0.0000
# 4 0.0000 0.0000 0.0000 30.0526 0.0000 0.0000
# 5 0.0000 0.0000 0.0000 0.0000 36.1057 0.0000
# 6 0.0000 0.0000 0.0000 0.0000 0.0000 30.0010
#
#
#
# Elastic Compliance Matrix: (Units=1/GPa)
#
#
# Indices 1 2 3 4 5 6 
#
# 1 0.016161 -0.004520 -0.011180 0.000000 0.000000 0.000000
# 2 -0.004520 0.029158 -0.001299 0.000000 0.000000 0.000000
# 3 -0.011180 -0.001299 0.017265 0.000000 0.000000 0.000000
# 4 0.000000 0.000000 0.000000 0.033275 0.000000 0.000000
# 5 0.000000 0.000000 0.000000 0.000000 0.027696 0.000000
# 6 0.000000 0.000000 0.000000 0.000000 0.000000 0.033332
#
#
# Mechanical properties :
#
#
# Convention : Reuss Voigt Hill
#
# Bulk Modulus (GPa) = 34.97929 58.57675 46.77802
# Shear Modulus (GPa) = 24.94841 29.45974 27.20408
#
# Velocity S-wave (km/s) = 3.59809 3.90990 3.75723
# Velocity P-wave (km/s) = 5.95090 7.12599 6.56479
#
# Compressibility (1/GPa) = 0.02858835
#
# Stress axis : x y z
#
# Youngs Moduli (GPa) = 61.87778 34.29588 57.91905
#
# Poissons Ratio (x) = 0.15500 0.64751
# Poissons Ratio (y) = 0.27966 0.07523
# Poissons Ratio (z) = 0.69177 0.04455
#
# Static dielectric constant tensor:
#      x y z
#    x -0.408700 0.000000 0.000000 
#    y 0.000000 1.685430 0.000000 
#    z 0.000000 0.000000 1.664660 
# 
# From -- ./inp_files/24762.got.cif
#   From: 2010.05.17/outbox.cif.g08.bks.cpg/sg59_13_cif.got.tgz:24762.got - 2010.06.03 14:40:33.
