data_PCOD9453660
_publ_section_title
;
Structure prediction by ZEFSAII (Michael W. Deem and Ramdas Pophale) SiO2 
 PCOD9453660
Probable space group: P M M N
;
_chemical_formula_sum "Si O2"
_cell_formula_units_Z 56
_cell_length_a 21.000000
_cell_length_b 9.000000
_cell_length_c 15.000000
_cell_angle_alpha 90.000000
_cell_angle_beta 90.000000
_cell_angle_gamma 90.000000
_cell_volume 2835.000000
_symmetry_space_group_name_H-M "P M M N"
_symmetry_group_IT_number 59
_space_group.IT_coordinate_system_code '2'
_symmetry_cell_setting 'orthorhombic'
loop_
_space_group_symop_operation_xyz
x,y,z
1/2-x,1/2-y,z
1/2+x,-y,-z
-x,1/2+y,-z
-x,-y,-z
1/2+x,1/2+y,-z
1/2-x,y,z
x,1/2-y,z
loop_
_atom_site_type_symbol
_atom_site_label
_atom_site_fract_x
_atom_site_fract_y
_atom_site_fract_z
Si Si1 0.136181 0.927300 0.378728
Si Si2 0.528567 0.072722 0.756859
Si Si3 0.674471 0.572473 0.440269
Si Si4 0.881538 0.930743 0.250756
Si Si5 0.337782 0.081605 0.942007
Si Si6 0.250000 0.427991 0.265487
Si Si7 0.456694 0.410597 0.066283
Si Si8 0.250000 0.580228 0.073828
O O1 0.147236 0.750000 0.378212
O O2 0.068863 0.957907 0.331382
O O3 0.140924 0.989577 0.478303
O O4 0.189262 0.006462 0.317651
O O5 0.529444 0.250000 0.771598
O O6 0.455364 0.024310 0.750176
O O7 0.558636 0.995336 0.842975
O O8 0.750000 0.548700 0.448893
O O9 0.662746 0.750000 0.447740
O O10 0.651660 0.522787 0.342417
O O11 0.880323 0.750000 0.249631
O O12 0.848963 0.975922 0.157966
O O13 0.311010 0.250000 0.934092
O O14 0.399197 0.107743 0.000067
O O15 0.305317 0.962819 0.005901
O O16 0.250000 0.250000 0.269846
O O17 0.250000 0.480520 0.162711
O O18 0.484103 0.250000 0.090756
O O19 0.500000 0.500000 0.000000
O O20 0.250000 0.750000 0.102298
#
# Coordination Sequence:
#
# PCOD9453660 Si02
#       8
#     8   8   8   8   8   4   8   4
#     4  11  23  39  64  92 122 154 191 248 314 362
#     4  10  21  39  60  88 122 160 199 243 298 356
#     4  10  21  38  63  90 115 155 204 247 293 354
#     4   9  19  38  62  87 119 159 206 248 286 347
#     4  10  21  39  62  86 117 162 208 245 289 351
#     4  12  24  42  65  88 117 154 205 250 294 362
#     4  11  21  35  59  88 120 159 200 242 292 351
#     4  12  26  40  57  88 127 158 193 248 308 350
#
# _framework density 19.753086
#
# number of rings (size 3 to 8) (size 9 to 14) (size 15 to 20)
#    0.000    1.571    2.143    3.000    1.000    5.143 
#    0.000    1.429    0.000    0.000    0.000    0.000 
#    0.000    0.000    0.000    0.000    0.000    0.000 
#
# Total GULP energy -311916.519923 kJ/mol
# GULP energy per Si atom -5569.937856 kJ/mol
# Density = 1.970813 g / cm^3
# Si number density = 19.753086 Si / 1000 Ang^3
#
#
#
# Elastic Constant Matrix: (Units=GPa)
#
#
# Indices 1 2 3 4 5 6 
#
# 1 47.8157 18.5656 22.2046 0.0000 0.0000 0.0000
# 2 18.5656 35.0086 21.5365 0.0000 0.0000 0.0000
# 3 22.2046 21.5365 156.6790 0.0000 0.0000 0.0000
# 4 0.0000 0.0000 0.0000 42.9519 0.0000 0.0000
# 5 0.0000 0.0000 0.0000 0.0000 68.7359 0.0000
# 6 0.0000 0.0000 0.0000 0.0000 0.0000 11.6548
#
#
#
# Elastic Compliance Matrix: (Units=1/GPa)
#
#
# Indices 1 2 3 4 5 6 
#
# 1 0.026911 -0.013027 -0.002023 0.000000 0.000000 0.000000
# 2 -0.013027 0.037509 -0.003310 0.000000 0.000000 0.000000
# 3 -0.002023 -0.003310 0.007124 0.000000 0.000000 0.000000
# 4 0.000000 0.000000 0.000000 0.023282 0.000000 0.000000
# 5 0.000000 0.000000 0.000000 0.000000 0.014548 0.000000
# 6 0.000000 0.000000 0.000000 0.000000 0.000000 0.085801
#
#
# Mechanical properties :
#
#
# Convention : Reuss Voigt Hill
#
# Bulk Modulus (GPa) = 28.71524 40.45742 34.58633
# Shear Modulus (GPa) = 20.53360 36.48164 28.50762
#
# Velocity S-wave (km/s) = 3.22765 4.30220 3.80307
# Velocity P-wave (km/s) = 5.33469 6.72344 6.06892
#
# Compressibility (1/GPa) = 0.03482472
#
# Stress axis : x y z
#
# Youngs Moduli (GPa) = 37.15931 26.66045 140.36776
#
# Poissons Ratio (x) = 0.34730 0.28400
# Poissons Ratio (y) = 0.48407 0.46457
# Poissons Ratio (z) = 0.07518 0.08824
#
# Static dielectric constant tensor:
#      x y z
#    x 1.751760 0.000000 0.000000 
#    y 0.000000 0.983400 0.000000 
#    z 0.000000 0.000000 1.621770 
# 
# From -- ./inp_files/24392.got.cif
#   From: 2010.05.17/outbox.ucp.g08.bks.cvg/sg59_13_cif.got.tgz:24392.got - 2010.06.11 16:43:56.
