data_PCOD9453496
_publ_section_title
;
Structure prediction by ZEFSAII (Michael W. Deem and Ramdas Pophale) SiO2 
 PCOD9453496
Probable space group: P M M N
;
_chemical_formula_sum "Si O2"
_cell_formula_units_Z 64
_cell_length_a 24.000000
_cell_length_b 9.000000
_cell_length_c 15.000000
_cell_angle_alpha 90.000000
_cell_angle_beta 90.000000
_cell_angle_gamma 90.000000
_cell_volume 3240.000000
_symmetry_space_group_name_H-M "P M M N"
_symmetry_group_IT_number 59
_space_group.IT_coordinate_system_code '2'
_symmetry_cell_setting 'orthorhombic'
loop_
_space_group_symop_operation_xyz
x,y,z
1/2-x,1/2-y,z
1/2+x,-y,-z
-x,1/2+y,-z
-x,-y,-z
1/2+x,1/2+y,-z
1/2-x,y,z
x,1/2-y,z
loop_
_atom_site_type_symbol
_atom_site_label
_atom_site_fract_x
_atom_site_fract_y
_atom_site_fract_z
Si Si1 0.017906 0.579764 0.090180
Si Si2 0.647517 0.419737 0.947548
Si Si3 0.362500 0.069434 0.688438
Si Si4 0.184471 0.428236 0.878533
Si Si5 0.597955 0.570288 0.639794
Si Si6 0.688014 0.568797 0.495055
Si Si7 0.810028 0.571879 0.779879
Si Si8 0.011149 0.070024 0.711517
O O1 0.998134 0.750000 0.084721
O O2 0.084723 0.577565 0.089028
O O3 0.996856 0.519788 0.185245
O O4 0.000000 0.500000 0.000000
O O5 0.666439 0.250000 0.951938
O O6 0.684317 0.511668 0.878877
O O7 0.650662 0.493351 0.043711
O O8 0.361300 0.250000 0.688549
O O9 0.337442 0.021919 0.782505
O O10 0.325493 0.021534 0.605323
O O11 0.427149 0.027035 0.680269
O O12 0.250000 0.460626 0.888265
O O13 0.177420 0.250000 0.885047
O O14 0.592232 0.750000 0.639557
O O15 0.635683 0.525211 0.555719
O O16 0.637322 0.523489 0.722323
O O17 0.538021 0.497605 0.652255
O O18 0.750000 0.519282 0.522463
O O19 0.689059 0.750000 0.498776
O O20 0.750000 0.526025 0.741670
O O21 0.811237 0.750000 0.780473
O O22 0.006652 0.250000 0.710591
#
# Coordination Sequence:
#
# PCOD9453496 Si02
#       8
#     8   8   8   8   8   8   8   8
#     4  10  21  35  52  74 104 143 186 227 268 317
#     4  11  22  35  51  76 108 143 180 220 274 331
#     4   9  18  33  56  82 109 143 181 225 276 326
#     4  10  20  35  56  81 108 141 184 230 275 326
#     4  10  20  34  55  82 111 142 179 225 272 318
#     4   9  17  32  56  86 114 139 177 229 279 324
#     4  10  20  34  52  75 104 140 180 221 266 317
#     4  10  20  36  54  77 112 148 182 221 270 330
#
# _framework density 19.753086
#
# number of rings (size 3 to 8) (size 9 to 14) (size 15 to 20)
#    0.000    2.125    1.250    2.250    0.000    8.000 
#    0.000    0.625    0.000    1.875    0.000    0.000 
#    0.000    0.000    0.000    0.000    0.000    0.000 
#
# Total GULP energy -357066.790305 kJ/mol
# GULP energy per Si atom -5579.168599 kJ/mol
# Density = 1.970813 g / cm^3
# Si number density = 19.753086 Si / 1000 Ang^3
#
#
#
# Elastic Constant Matrix: (Units=GPa)
#
#
# Indices 1 2 3 4 5 6 
#
# 1 44.0526 7.1891 4.2911 0.0000 0.0000 0.0000
# 2 7.1891 -17.6856 -1.6610 0.0000 0.0000 0.0000
# 3 4.2911 -1.6610 82.8356 0.0000 0.0000 0.0000
# 4 0.0000 0.0000 0.0000 5.1066 0.0000 0.0000
# 5 0.0000 0.0000 0.0000 0.0000 -13.4552 0.0000
# 6 0.0000 0.0000 0.0000 0.0000 0.0000 23.7159
#
#
#
# Elastic Compliance Matrix: (Units=1/GPa)
#
#
# Indices 1 2 3 4 5 6 
#
# 1 0.021360 0.008770 -0.000931 0.000000 0.000000 0.000000
# 2 0.008770 -0.052836 -0.001514 0.000000 0.000000 0.000000
# 3 -0.000931 -0.001514 0.012090 0.000000 0.000000 0.000000
# 4 0.000000 0.000000 0.000000 0.195824 0.000000 0.000000
# 5 0.000000 0.000000 0.000000 0.000000 -0.074321 0.000000
# 6 0.000000 0.000000 0.000000 0.000000 0.000000 0.042166
#
#
# Mechanical properties :
#
#
# Convention : Reuss Voigt Hill
#
# Bulk Modulus (GPa) = -148.46960 14.31566 -67.07697
# Shear Modulus (GPa) = 38.64383 9.69902 24.17142
#
# Velocity S-wave (km/s) = 4.42786 2.21828 3.50191
# Velocity P-wave (km/s) = 7.01318 3.71808 4.20480
#
# Compressibility (1/GPa) = -0.00673539
#
# Stress axis : x y z
#
# Youngs Moduli (GPa) = 46.81740 -18.92649 82.71332
#
# Poissons Ratio (x) = 0.16598 0.07698
# Poissons Ratio (y) = -0.41059 0.12521
# Poissons Ratio (z) = 0.04357 -0.02865
#
# Static dielectric constant tensor:
#      x y z
#    x 1.660590 0.000000 0.000000 
#    y 0.000000 1.674110 0.000000 
#    z 0.000000 0.000000 1.708820 
# 
# From -- ./inp_files/24755.got.cif
#   From: 2010.05.17/outbox.ucp.g08.bks.cvg/sg59_13_cif.got.tgz:24755.got - 2010.06.11 16:43:56.
