data_PCOD9453518
_publ_section_title
;
Structure prediction by ZEFSAII (Michael W. Deem and Ramdas Pophale) SiO2 
 PCOD9453518
Probable space group: P M M N
;
_chemical_formula_sum "Si O2"
_cell_formula_units_Z 56
_cell_length_a 15.000000
_cell_length_b 9.000000
_cell_length_c 21.000000
_cell_angle_alpha 90.000000
_cell_angle_beta 90.000000
_cell_angle_gamma 90.000000
_cell_volume 2835.000000
_symmetry_space_group_name_H-M "P M M N"
_symmetry_group_IT_number 59
_space_group.IT_coordinate_system_code '2'
_symmetry_cell_setting 'orthorhombic'
loop_
_space_group_symop_operation_xyz
x,y,z
1/2-x,1/2-y,z
1/2+x,-y,-z
-x,1/2+y,-z
-x,-y,-z
1/2+x,1/2+y,-z
1/2-x,y,z
x,1/2-y,z
loop_
_atom_site_type_symbol
_atom_site_label
_atom_site_fract_x
_atom_site_fract_y
_atom_site_fract_z
Si Si1 0.848936 0.073320 0.797268
Si Si2 0.023645 0.070771 0.589729
Si Si3 0.020741 0.426750 0.727701
Si Si4 0.646141 0.929356 0.528819
Si Si5 0.152244 0.582198 0.818015
Si Si6 0.582197 0.924449 0.921778
Si Si7 0.107486 0.421803 0.937222
O O1 0.750000 0.052264 0.772682
O O2 0.861317 0.250000 0.810912
O O3 0.921921 0.024924 0.746403
O O4 0.864104 0.981962 0.861587
O O5 0.015120 0.250000 0.587725
O O6 0.050982 0.017642 0.659453
O O7 0.099890 0.031688 0.538948
O O8 0.926372 0.002925 0.575411
O O9 0.020714 0.250000 0.724679
O O10 0.084488 0.476726 0.783269
O O11 0.750000 0.975502 0.534045
O O12 0.643918 0.750000 0.535496
O O13 0.250000 0.570887 0.788993
O O14 0.120306 0.750000 0.813277
O O15 0.156763 0.531774 0.890570
O O16 0.557064 0.750000 0.914810
O O17 0.495512 0.028821 0.928874
O O18 0.632025 0.936916 0.989049
O O19 0.119526 0.250000 0.918603
#
# Coordination Sequence:
#
# PCOD9453518 Si02
#       7
#     8   8   8   8   8   8   8
#     4  10  21  36  54  78 109 145 185 230 281 336
#     4   9  19  35  57  85 114 147 188 231 273 319
#     4  10  21  38  59  82 111 149 190 230 274 326
#     4   9  18  34  56  84 118 151 184 225 273 323
#     4  11  24  39  56  81 112 146 185 231 283 335
#     4  10  20  34  55  81 107 138 180 232 287 341
#     4  10  20  35  56  80 106 139 181 230 286 341
#
# _framework density 19.753086
#
# number of rings (size 3 to 8) (size 9 to 14) (size 15 to 20)
#    0.000    2.143    1.429    1.286    0.000    5.714 
#    0.000    5.714    0.000    0.000    0.000    0.000 
#    0.000    0.000    0.000    0.000    0.000    0.000 
#
# Total GULP energy -312056.606052 kJ/mol
# GULP energy per Si atom -5572.439394 kJ/mol
# Density = 1.970813 g / cm^3
# Si number density = 19.753086 Si / 1000 Ang^3
#
#
#
# Elastic Constant Matrix: (Units=GPa)
#
#
# Indices 1 2 3 4 5 6 
#
# 1 44.0314 -17.0052 -3.4718 0.0000 0.0000 0.0000
# 2 -17.0052 -34.9120 3.7347 0.0000 0.0000 0.0000
# 3 -3.4718 3.7347 35.2034 0.0000 0.0000 0.0000
# 4 0.0000 0.0000 0.0000 16.0654 0.0000 0.0000
# 5 0.0000 0.0000 0.0000 0.0000 61.7577 0.0000
# 6 0.0000 0.0000 0.0000 0.0000 0.0000 20.0576
#
#
#
# Elastic Compliance Matrix: (Units=1/GPa)
#
#
# Indices 1 2 3 4 5 6 
#
# 1 0.019407 -0.009144 0.002884 0.000000 0.000000 0.000000
# 2 -0.009144 -0.024013 0.001646 0.000000 0.000000 0.000000
# 3 0.002884 0.001646 0.028516 0.000000 0.000000 0.000000
# 4 0.000000 0.000000 0.000000 0.062245 0.000000 0.000000
# 5 0.000000 0.000000 0.000000 0.000000 0.016192 0.000000
# 6 0.000000 0.000000 0.000000 0.000000 0.000000 0.049856
#
#
# Mechanical properties :
#
#
# Convention : Reuss Voigt Hill
#
# Bulk Modulus (GPa) = 68.11677 1.20426 34.66051
# Shear Modulus (GPa) = 30.06136 23.64716 26.85426
#
# Velocity S-wave (km/s) = 3.90533 3.46372 3.69114
# Velocity P-wave (km/s) = 7.40908 4.07523 5.97921
#
# Compressibility (1/GPa) = 0.01468067
#
# Stress axis : x y z
#
# Youngs Moduli (GPa) = 51.52806 -41.64351 35.06781
#
# Poissons Ratio (x) = -0.38080 -0.10114
# Poissons Ratio (y) = 0.47119 -0.05771
# Poissons Ratio (z) = -0.14861 0.06853
#
# Static dielectric constant tensor:
#      x y z
#    x 1.725920 0.000000 0.000000 
#    y 0.000000 -6.023260 0.000000 
#    z 0.000000 0.000000 1.700530 
# 
# From -- ./inp_files/29175.got.cif
#   From: 2010.05.17/outbox.ucp.g08.bks.cvg/sg59_15_cif.got.tgz:29175.got - 2010.06.11 16:43:56.
