data_PCOD9453643
_publ_section_title
;
Structure prediction by ZEFSAII (Michael W. Deem and Ramdas Pophale) SiO2 
 PCOD9453643
Probable space group: P M M N
;
_chemical_formula_sum "Si O2"
_cell_formula_units_Z 56
_cell_length_a 15.000000
_cell_length_b 15.000000
_cell_length_c 12.000000
_cell_angle_alpha 90.000000
_cell_angle_beta 90.000000
_cell_angle_gamma 90.000000
_cell_volume 2700.000000
_symmetry_space_group_name_H-M "P M M N"
_symmetry_group_IT_number 59
_space_group.IT_coordinate_system_code '2'
_symmetry_cell_setting 'orthorhombic'
loop_
_space_group_symop_operation_xyz
x,y,z
1/2-x,1/2-y,z
1/2+x,-y,-z
-x,1/2+y,-z
-x,-y,-z
1/2+x,1/2+y,-z
1/2-x,y,z
x,1/2-y,z
loop_
_atom_site_type_symbol
_atom_site_label
_atom_site_fract_x
_atom_site_fract_y
_atom_site_fract_z
Si Si1 0.854283 0.152284 0.409121
Si Si2 0.850556 0.039603 0.195841
Si Si3 0.460668 0.981021 0.171042
Si Si4 0.856158 0.855234 0.755371
Si Si5 0.018967 0.919935 0.414304
Si Si6 0.153576 0.144332 0.504674
Si Si7 0.647610 0.350513 0.982065
O O1 0.750000 0.146211 0.436436
O O2 0.871795 0.250000 0.359760
O O3 0.873272 0.077305 0.317690
O O4 0.913310 0.141150 0.517765
O O5 0.750000 0.001945 0.194484
O O6 0.850301 0.122963 0.111498
O O7 0.932956 0.980682 0.156839
O O8 0.443692 0.944239 0.295138
O O9 0.412387 0.920363 0.082252
O O10 0.418781 0.080337 0.173180
O O11 0.750000 0.870345 0.775778
O O12 0.873791 0.750000 0.771593
O O13 0.871516 0.876755 0.623743
O O14 0.921313 0.877847 0.407061
O O15 0.000000 0.000000 0.500000
O O16 0.250000 0.102380 0.528393
O O17 0.162260 0.250000 0.503724
O O18 0.750000 0.357830 0.941815
O O19 0.616658 0.250000 0.965951
#
# Coordination Sequence:
#
# PCOD9453643 Si02
#       7
#     8   8   8   8   8   8   8
#     4  10  21  37  59  86 116 155 203 253 302 353
#     4  10  21  40  64  88 115 152 206 263 308 351
#     4  12  23  37  60  91 122 161 197 244 305 369
#     4   9  18  33  54  82 115 150 190 238 290 346
#     4  12  22  34  50  84 122 155 186 233 294 357
#     4   9  18  33  52  72 102 149 198 236 275 337
#     4  10  23  43  65  89 119 157 203 255 310 368
#
# _framework density 20.740741
#
# number of rings (size 3 to 8) (size 9 to 14) (size 15 to 20)
#    0.000    1.714    2.857    2.571    0.000    7.429 
#    0.000    1.429    0.000    0.429    0.000    0.000 
#    0.000    0.000    0.000    0.000    0.000    0.000 
#
# Total GULP energy -312453.425562 kJ/mol
# GULP energy per Si atom -5579.525456 kJ/mol
# Density = 2.069353 g / cm^3
# Si number density = 20.740741 Si / 1000 Ang^3
#
#
#
# Elastic Constant Matrix: (Units=GPa)
#
#
# Indices 1 2 3 4 5 6 
#
# 1 65.1161 40.0787 31.4091 0.0000 0.0000 0.0000
# 2 40.0787 56.7657 27.3984 0.0000 0.0000 0.0000
# 3 31.4091 27.3984 61.4037 0.0000 0.0000 0.0000
# 4 0.0000 0.0000 0.0000 22.2773 0.0000 0.0000
# 5 0.0000 0.0000 0.0000 0.0000 157.3120 0.0000
# 6 0.0000 0.0000 0.0000 0.0000 0.0000 26.3571
#
#
#
# Elastic Compliance Matrix: (Units=1/GPa)
#
#
# Indices 1 2 3 4 5 6 
#
# 1 0.029588 -0.017314 -0.007409 0.000000 0.000000 0.000000
# 2 -0.017314 0.032583 -0.005682 0.000000 0.000000 0.000000
# 3 -0.007409 -0.005682 0.022611 0.000000 0.000000 0.000000
# 4 0.000000 0.000000 0.000000 0.044889 0.000000 0.000000
# 5 0.000000 0.000000 0.000000 0.000000 0.006357 0.000000
# 6 0.000000 0.000000 0.000000 0.000000 0.000000 0.037941
#
#
# Mechanical properties :
#
#
# Convention : Reuss Voigt Hill
#
# Bulk Modulus (GPa) = 41.71677 42.33979 42.02828
# Shear Modulus (GPa) = 20.59572 46.81589 33.70581
#
# Velocity S-wave (km/s) = 3.15462 4.75615 4.03563
# Velocity P-wave (km/s) = 5.78152 7.11473 6.48249
#
# Compressibility (1/GPa) = 0.02397117
#
# Stress axis : x y z
#
# Youngs Moduli (GPa) = 33.79785 30.69073 44.22628
#
# Poissons Ratio (x) = 0.53138 0.32768
# Poissons Ratio (y) = 0.58517 0.25130
# Poissons Ratio (z) = 0.25041 0.17439
#
# Static dielectric constant tensor:
#      x y z
#    x 1.913360 0.000000 0.000000 
#    y 0.000000 1.762070 0.000000 
#    z 0.000000 0.000000 1.709420 
# 
# From -- ./inp_files/16909.got.cif
#   From: 2010.05.17/outbox.ucp.g08.bks.cvg/sg59_9_cif.got.tgz:16909.got - 2010.06.11 16:43:56.
