data_PCOD9453329
_publ_section_title
;
Structure prediction by ZEFSAII (Michael W. Deem and Ramdas Pophale) SiO2 
 PCOD9453329
Probable space group: P M M N
;
_chemical_formula_sum "Si O2"
_cell_formula_units_Z 64
_cell_length_a 18.000000
_cell_length_b 9.000000
_cell_length_c 24.000000
_cell_angle_alpha 90.000000
_cell_angle_beta 90.000000
_cell_angle_gamma 90.000000
_cell_volume 3888.000000
_symmetry_space_group_name_H-M "P M M N"
_symmetry_group_IT_number 59
_space_group.IT_coordinate_system_code '2'
_symmetry_cell_setting 'orthorhombic'
loop_
_space_group_symop_operation_xyz
x,y,z
1/2-x,1/2-y,z
1/2+x,-y,-z
-x,1/2+y,-z
-x,-y,-z
1/2+x,1/2+y,-z
1/2-x,y,z
x,1/2-y,z
loop_
_atom_site_type_symbol
_atom_site_label
_atom_site_fract_x
_atom_site_fract_y
_atom_site_fract_z
Si Si1 0.067396 0.930720 0.036109
Si Si2 0.910926 0.573066 0.436152
Si Si3 0.028600 0.571995 0.739479
Si Si4 0.333055 0.426397 0.680011
Si Si5 0.526120 0.431183 0.129496
Si Si6 0.661610 0.427787 0.545617
Si Si7 0.838361 0.570053 0.057110
Si Si8 0.050983 0.429197 0.373572
O O1 0.067632 0.750000 0.035724
O O2 0.043819 0.996047 0.096362
O O3 0.138237 0.996663 0.002590
O O4 0.000000 0.000000 0.000000
O O5 0.923986 0.750000 0.444038
O O6 0.852952 0.553981 0.385155
O O7 0.879071 0.500641 0.492136
O O8 0.984892 0.493481 0.412827
O O9 0.031946 0.750000 0.737819
O O10 0.105762 0.506554 0.717001
O O11 0.018877 0.532209 0.804601
O O12 0.969147 0.529100 0.690773
O O13 0.250000 0.479609 0.691370
O O14 0.336931 0.250000 0.690902
O O15 0.526824 0.250000 0.122537
O O16 0.602598 0.498512 0.101767
O O17 0.750000 0.455815 0.542685
O O18 0.649598 0.250000 0.545293
O O19 0.624977 0.499401 0.600713
O O20 0.750000 0.543608 0.068662
O O21 0.849712 0.750000 0.055560
O O22 0.052932 0.250000 0.377592
#
# Coordination Sequence:
#
# PCOD9453329 Si02
#       8
#     8   8   8   8   8   8   8   8
#     4  10  18  30  50  74 100 130 165 201 239 283
#     4  10  19  33  53  75 100 130 165 202 246 302
#     4   9  20  35  51  72  96 129 170 207 243 287
#     4   9  18  31  47  69  98 131 165 202 244 291
#     4  10  19  33  52  73 100 132 169 208 244 288
#     4  11  23  36  51  74 101 127 159 203 256 308
#     4  10  20  33  50  75 107 138 166 199 242 289
#     4  10  20  36  55  74  99 130 167 207 248 296
#
# _framework density 16.460905
#
# number of rings (size 3 to 8) (size 9 to 14) (size 15 to 20)
#    0.000    2.125    0.000    5.250    0.000    5.250 
#    0.000    2.500    0.000    0.750    0.000    1.750 
#    0.000    0.000    0.000    0.000    0.000    0.000 
#
# Total GULP energy -356775.366351 kJ/mol
# GULP energy per Si atom -5574.615099 kJ/mol
# Density = 1.642344 g / cm^3
# Si number density = 16.460905 Si / 1000 Ang^3
#
#
#
# Elastic Constant Matrix: (Units=GPa)
#
#
# Indices 1 2 3 4 5 6 
#
# 1 61.7233 32.3613 45.8215 0.0000 0.0000 0.0000
# 2 32.3613 92.6542 49.2700 0.0000 0.0000 0.0000
# 3 45.8215 49.2700 142.2345 0.0000 0.0000 0.0000
# 4 0.0000 0.0000 0.0000 29.5174 0.0000 0.0000
# 5 0.0000 0.0000 0.0000 0.0000 15.2823 0.0000
# 6 0.0000 0.0000 0.0000 0.0000 0.0000 28.0835
#
#
#
# Elastic Compliance Matrix: (Units=1/GPa)
#
#
# Indices 1 2 3 4 5 6 
#
# 1 0.023060 -0.005030 -0.005686 0.000000 0.000000 0.000000
# 2 -0.005030 0.014327 -0.003342 0.000000 0.000000 0.000000
# 3 -0.005686 -0.003342 0.010020 0.000000 0.000000 0.000000
# 4 0.000000 0.000000 0.000000 0.033878 0.000000 0.000000
# 5 0.000000 0.000000 0.000000 0.000000 0.065435 0.000000
# 6 0.000000 0.000000 0.000000 0.000000 0.000000 0.035608
#
#
# Mechanical properties :
#
#
# Convention : Reuss Voigt Hill
#
# Bulk Modulus (GPa) = 51.84217 61.27975 56.56096
# Shear Modulus (GPa) = 23.05453 25.85392 24.45423
#
# Velocity S-wave (km/s) = 3.74647 3.96741 3.85852
# Velocity P-wave (km/s) = 7.09064 7.63514 7.36792
#
# Compressibility (1/GPa) = 0.01928932
#
# Stress axis : x y z
#
# Youngs Moduli (GPa) = 43.36483 69.79777 99.79703
#
# Poissons Ratio (x) = 0.35111 0.56749
# Poissons Ratio (y) = 0.21814 0.33356
# Poissons Ratio (z) = 0.24659 0.23329
#
# Static dielectric constant tensor:
#      x y z
#    x 1.561340 0.000000 0.000000 
#    y 0.000000 1.552360 0.000000 
#    z 0.000000 0.000000 1.577550 
# 
# From -- ./inp_files/32301.got.cif
#   From: 2010.05.17/outbox.ucp.g08.bks.cvg/sg59_17_cif.got.tgz:32301.got - 2010.06.11 16:43:56.
