data_PCOD9453138
_publ_section_title
;
Structure prediction by ZEFSAII (Michael W. Deem and Ramdas Pophale) SiO2 
 PCOD9453138
Probable space group: P M M N
;
_chemical_formula_sum "Si O2"
_cell_formula_units_Z 48
_cell_length_a 8.825215
_cell_length_b 25.542699
_cell_length_c 11.969328
_cell_angle_alpha 90.000000
_cell_angle_beta 90.000000
_cell_angle_gamma 90.000000
_cell_volume 2698.123648
_symmetry_space_group_name_H-M "P M M N"
_symmetry_group_IT_number 59
_space_group.IT_coordinate_system_code '2'
_symmetry_cell_setting 'orthorhombic'
loop_
_space_group_symop_operation_xyz
x,y,z
1/2-x,1/2-y,z
1/2+x,-y,-z
-x,1/2+y,-z
-x,-y,-z
1/2+x,1/2+y,-z
1/2-x,y,z
x,1/2-y,z
loop_
_atom_site_type_symbol
_atom_site_label
_atom_site_fract_x
_atom_site_fract_y
_atom_site_fract_z
Si Si1 0.930179 0.495291 0.377343
Si Si2 0.930679 0.441587 0.000216
Si Si3 0.567947 0.311148 0.626738
Si Si4 0.070951 0.401730 0.773268
Si Si5 0.430151 0.402932 0.228544
Si Si6 0.930892 0.311682 0.368135
O O1 0.750000 0.485561 0.384312
O O2 0.954147 0.548917 0.309006
O O3 0.000000 0.500000 0.500000
O O4 0.008343 0.448620 0.309473
O O5 0.750000 0.445412 0.006167
O O6 0.982457 0.413057 0.887293
O O7 0.000000 0.500000 0.000000
O O8 0.993888 0.411949 0.108525
O O9 0.750000 0.316714 0.637317
O O10 0.531202 0.250000 0.645940
O O11 0.485961 0.350063 0.710537
O O12 0.529193 0.323746 0.497464
O O13 0.250000 0.398717 0.796736
O O14 0.250000 0.406627 0.218574
O O15 0.479752 0.348548 0.284412
O O16 0.750000 0.320547 0.355937
O O17 0.958757 0.250000 0.350276
#
# Coordination Sequence:
#
# PCOD9453138 Si02
#       6
#     8   8   8   8   8   8
#     4  11  23  37  56  84 120 154 192 242 296 354
#     4  12  24  41  63  85 114 155 199 244 294 353
#     4   9  19  37  61  88 119 157 198 241 293 350
#     4  11  23  38  58  86 118 154 196 242 293 349
#     4  12  24  38  59  87 120 156 196 242 295 354
#     4   9  19  38  63  89 120 158 199 244 295 350
#
# _framework density 17.790143
#
# number of rings (size 3 to 8) (size 9 to 14) (size 15 to 20)
#    0.000    1.333    1.667    6.000    0.000    6.000 
#    0.000    2.500    0.000    5.000    0.000    0.000 
#    0.000    0.000    0.000    0.000    0.000    0.000 
#
# Total GULP energy -268396.527751 kJ/mol
# GULP energy per Si atom -5591.594328 kJ/mol
# Density = 1.774965 g / cm^3
# Si number density = 17.790143 Si / 1000 Ang^3
#
#
#
# Elastic Constant Matrix: (Units=GPa)
#
#
# Indices 1 2 3 4 5 6 
#
# 1 132.4579 69.4288 97.5210 0.0000 0.0000 0.0000
# 2 69.4288 85.0538 71.4670 0.0000 0.0000 0.0000
# 3 97.5210 71.4670 156.7118 0.0000 0.0000 0.0000
# 4 0.0000 0.0000 0.0000 4.5570 0.0000 0.0000
# 5 0.0000 0.0000 0.0000 0.0000 32.5567 0.0000
# 6 0.0000 0.0000 0.0000 0.0000 0.0000 34.9361
#
#
#
# Elastic Compliance Matrix: (Units=1/GPa)
#
#
# Indices 1 2 3 4 5 6 
#
# 1 0.016694 -0.007941 -0.006767 0.000000 0.000000 0.000000
# 2 -0.007941 0.022839 -0.005474 0.000000 0.000000 0.000000
# 3 -0.006767 -0.005474 0.013089 0.000000 0.000000 0.000000
# 4 0.000000 0.000000 0.000000 0.219440 0.000000 0.000000
# 5 0.000000 0.000000 0.000000 0.000000 0.030716 0.000000
# 6 0.000000 0.000000 0.000000 0.000000 0.000000 0.028624
#
#
# Mechanical properties :
#
#
# Convention : Reuss Voigt Hill
#
# Bulk Modulus (GPa) = 81.58283 94.56191 88.07237
# Shear Modulus (GPa) = 13.30310 23.46375 18.38343
#
# Velocity S-wave (km/s) = 2.73752 3.63563 3.21806
# Velocity P-wave (km/s) = 7.47998 8.41981 7.96377
#
# Compressibility (1/GPa) = 0.01225748
#
# Stress axis : x y z
#
# Youngs Moduli (GPa) = 59.90019 43.78481 76.40216
#
# Poissons Ratio (x) = 0.34771 0.51704
# Poissons Ratio (y) = 0.47568 0.41820
# Poissons Ratio (z) = 0.40536 0.23966
#
# Static dielectric constant tensor:
#      x y z
#    x 1.594360 0.000000 0.000000 
#    y 0.000000 1.586800 0.000000 
#    z 0.000000 0.000000 1.579860 
# 
# From -- ./inp_files/14313.got.cif
#   From: 2010.05.17/outbox.cif.g08.bks.cpg/sg59_8_cif.got.tgz:14313.got - 2010.06.03 14:40:33.
