data_PCOD9453134
_publ_section_title
;
Structure prediction by ZEFSAII (Michael W. Deem and Ramdas Pophale) SiO2 
 PCOD9453134
Probable space group: P M M N
;
_chemical_formula_sum "Si O2"
_cell_formula_units_Z 56
_cell_length_a 28.516671
_cell_length_b 14.405306
_cell_length_c 6.472492
_cell_angle_alpha 90.000000
_cell_angle_beta 90.000000
_cell_angle_gamma 90.000000
_cell_volume 2658.843868
_symmetry_space_group_name_H-M "P M M N"
_symmetry_group_IT_number 59
_space_group.IT_coordinate_system_code '2'
_symmetry_cell_setting 'orthorhombic'
loop_
_space_group_symop_operation_xyz
x,y,z
1/2-x,1/2-y,z
1/2+x,-y,-z
-x,1/2+y,-z
-x,-y,-z
1/2+x,1/2+y,-z
1/2-x,y,z
x,1/2-y,z
loop_
_atom_site_type_symbol
_atom_site_label
_atom_site_fract_x
_atom_site_fract_y
_atom_site_fract_z
Si Si1 0.978467 0.145836 0.951243
Si Si2 0.196167 0.442566 0.291755
Si Si3 0.109840 0.355433 0.527539
Si Si4 0.803344 0.350355 0.757762
Si Si5 0.049900 0.034404 0.233352
Si Si6 0.874706 0.348947 0.140853
Si Si7 0.864338 0.954699 0.086454
O O1 0.991371 0.250000 0.883368
O O2 0.972076 0.068709 0.771422
O O3 0.928306 0.151466 0.065475
O O4 0.014439 0.103015 0.116176
O O5 0.250000 0.415468 0.325066
O O6 0.158280 0.381419 0.411251
O O7 0.190590 0.551513 0.354658
O O8 0.182312 0.439997 0.047898
O O9 0.096755 0.250000 0.481107
O O10 0.069237 0.423935 0.445164
O O11 0.120292 0.371947 0.767183
O O12 0.750000 0.354714 0.842559
O O13 0.806754 0.250000 0.647926
O O14 0.841143 0.348139 0.939803
O O15 0.095614 0.030630 0.085657
O O16 0.866947 0.250000 0.252247
O O17 0.864061 0.451466 0.225386
#
# Coordination Sequence:
#
# PCOD9453134 Si02
#       7
#     8   8   8   8   8   8   8
#     4   9  16  30  55  81 106 139 175 214 261 308
#     4   9  19  36  56  79 107 135 168 215 263 307
#     4  11  23  37  53  74 102 137 177 220 264 311
#     4   8  13  25  50  79 104 134 166 196 244 309
#     4   9  19  36  55  76 105 139 175 215 259 310
#     4   8  14  27  48  75 106 135 166 209 258 304
#     4   9  19  35  54  76 102 137 176 211 255 313
#
# _framework density 21.061786000000001
#
# number of rings (size 3 to 8) (size 9 to 14) (size 15 to 20)
#    0.000    3.000    0.000    1.286    0.000    3.714 
#    0.000    7.857    0.000    3.429    0.000    4.000 
#    0.000    0.000    0.000    0.000    0.000    0.000 
#
# Total GULP energy -311860.691473 kJ/mol
# GULP energy per Si atom -5568.940919 kJ/mol
# Density = 2.101385 g / cm^3
# Si number density = 21.061786 Si / 1000 Ang^3
#
#
#
# Elastic Constant Matrix: (Units=GPa)
#
#
# Indices 1 2 3 4 5 6 
#
# 1 72.8154 -4.1052 9.8238 0.0000 0.0000 0.0000
# 2 -4.1052 93.5689 11.0328 0.0000 0.0000 0.0000
# 3 9.8238 11.0328 26.7843 0.0000 0.0000 0.0000
# 4 0.0000 0.0000 0.0000 7.3072 0.0000 0.0000
# 5 0.0000 0.0000 0.0000 0.0000 8.9817 0.0000
# 6 0.0000 0.0000 0.0000 0.0000 0.0000 -43.3552
#
#
#
# Elastic Compliance Matrix: (Units=1/GPa)
#
#
# Indices 1 2 3 4 5 6 
#
# 1 0.014606 0.001337 -0.005908 0.000000 0.000000 0.000000
# 2 0.001337 0.011355 -0.005168 0.000000 0.000000 0.000000
# 3 -0.005908 -0.005168 0.041631 0.000000 0.000000 0.000000
# 4 0.000000 0.000000 0.000000 0.136850 0.000000 0.000000
# 5 0.000000 0.000000 0.000000 0.000000 0.111338 0.000000
# 6 0.000000 0.000000 0.000000 0.000000 0.000000 -0.023065
#
#
# Mechanical properties :
#
#
# Convention : Reuss Voigt Hill
#
# Bulk Modulus (GPa) = 20.78347 25.18571 22.98459
# Shear Modulus (GPa) = 15.23320 6.34790 10.79055
#
# Velocity S-wave (km/s) = 2.69227 1.73795 2.26592
# Velocity P-wave (km/s) = 4.42196 4.00141 4.21693
#
# Compressibility (1/GPa) = 0.04811517
#
# Stress axis : x y z
#
# Youngs Moduli (GPa) = 68.46584 88.06424 24.02059
#
# Poissons Ratio (x) = -0.11778 0.14191
# Poissons Ratio (y) = -0.09157 0.12414
# Poissons Ratio (z) = 0.40449 0.45511
#
# Static dielectric constant tensor:
#      x y z
#    x 1.737360 0.000000 0.000000 
#    y 0.000000 1.851820 0.000000 
#    z 0.000000 0.000000 1.751260 
# 
# From -- ./inp_files/4575.got.cif
#   From: 2010.05.17/outbox.cif.g08.bks.cpg/sg59_3_cif.got.tgz:4575.got - 2010.06.03 14:40:33.
