data_PCOD9453734
_publ_section_title
;
Structure prediction by ZEFSAII (Michael W. Deem and Ramdas Pophale) SiO2 
 PCOD9453734
Probable space group: P B C N
;
_chemical_formula_sum "Si O2"
_cell_formula_units_Z 64
_cell_length_a 19.957097
_cell_length_b 5.545155
_cell_length_c 27.074479
_cell_angle_alpha 90.000000
_cell_angle_beta 90.000000
_cell_angle_gamma 90.000000
_cell_volume 2996.202531
_symmetry_space_group_name_H-M "P B C N"
_symmetry_group_IT_number 60
_symmetry_cell_setting 'orthorhombic'
loop_
_space_group_symop_operation_xyz
x,y,z
1/2-x,1/2-y,1/2+z
1/2+x,1/2-y,-z
-x,y,1/2-z
-x,-y,-z
1/2+x,1/2+y,1/2-z
1/2-x,1/2+y,z
x,-y,1/2+z
loop_
_atom_site_type_symbol
_atom_site_label
_atom_site_fract_x
_atom_site_fract_y
_atom_site_fract_z
Si Si1 0.837674 0.611180 0.322471
Si Si2 0.180726 0.435150 0.286544
Si Si3 0.207219 0.990068 0.040865
Si Si4 0.834219 0.064551 0.675710
Si Si5 0.498100 0.151984 0.190335
Si Si6 0.503417 0.652409 0.309990
Si Si7 0.792286 0.992740 0.070591
Si Si8 0.850900 0.887745 0.859964
O O1 0.813390 0.509706 0.270219
O O2 0.918443 0.643831 0.320880
O O3 0.823877 0.387463 0.359061
O O4 0.814462 0.885207 0.332986
O O5 0.253356 0.416423 0.312053
O O6 0.146699 0.172751 0.292554
O O7 0.143639 0.668296 0.308761
O O8 0.256364 0.226965 0.045722
O O9 0.151953 0.024331 0.083519
O O10 0.179432 0.002473 0.984951
O O11 0.840020 0.009622 0.617954
O O12 0.500000 0.151387 0.250000
O O13 0.527635 0.403181 0.172399
O O14 0.524917 0.901350 0.170505
O O15 0.500000 0.655823 0.250000
O O16 0.579237 0.639230 0.330640
O O17 0.751203 0.739746 0.074706
#
# Coordination Sequence:
#
# PCOD9453734 Si02
#       8
#     8   8   8   8   8   8   8   8
#     4  10  19  30  43  60  89 119 142 176 208 251
#     4  10  18  28  41  61  79 108 145 176 212 250
#     4  10  21  33  45  62  82 118 159 180 212 255
#     4  10  17  30  43  59  77 103 144 187 219 248
#     4   8  14  25  41  59  78 108 139 167 205 246
#     4   8  14  25  44  61  77 108 140 171 217 250
#     4  10  16  30  49  60  74 101 148 191 224 249
#     4  10  19  33  42  60  92 119 145 185 207 251
#
# _framework density 21.36037
#
# number of rings (size 3 to 8) (size 9 to 14) (size 15 to 20)
#    0.000    2.500    2.500    1.500    0.000    0.000 
#   13.500    0.000    0.000    0.000    0.000    0.000 
#    0.000    0.000    0.000  108.000    0.000    0.000 
#
# Total GULP energy -356521.807063 kJ/mol
# GULP energy per Si atom -5570.653235 kJ/mol
# Density = 2.131175 g / cm^3
# Si number density = 21.360370 Si / 1000 Ang^3
#
#
#
# Elastic Constant Matrix: (Units=GPa)
#
#
# Indices 1 2 3 4 5 6 
#
# 1 41.3528 12.7884 -0.5419 0.0000 0.0000 0.0000
# 2 12.7884 234.7555 17.1052 0.0000 0.0000 0.0000
# 3 -0.5419 17.1052 123.3308 0.0000 0.0000 0.0000
# 4 0.0000 0.0000 0.0000 35.5282 0.0000 0.0000
# 5 0.0000 0.0000 0.0000 0.0000 15.8112 0.0000
# 6 0.0000 0.0000 0.0000 0.0000 0.0000 212.6574
#
#
#
# Elastic Compliance Matrix: (Units=1/GPa)
#
#
# Indices 1 2 3 4 5 6 
#
# 1 0.024607 -0.001362 0.000297 0.000000 0.000000 0.000000
# 2 -0.001362 0.004379 -0.000613 0.000000 0.000000 0.000000
# 3 0.000297 -0.000613 0.008195 0.000000 0.000000 0.000000
# 4 0.000000 0.000000 0.000000 0.028147 0.000000 0.000000
# 5 0.000000 0.000000 0.000000 0.000000 0.063246 0.000000
# 6 0.000000 0.000000 0.000000 0.000000 0.000000 0.004702
#
#
# Mechanical properties :
#
#
# Convention : Reuss Voigt Hill
#
# Bulk Modulus (GPa) = 29.56495 50.90473 40.23484
# Shear Modulus (GPa) = 33.80499 77.47184 55.63842
#
# Velocity S-wave (km/s) = 3.98251 6.02891 5.10921
# Velocity P-wave (km/s) = 5.91762 8.50569 7.32683
#
# Compressibility (1/GPa) = 0.03382383
#
# Stress axis : x y z
#
# Youngs Moduli (GPa) = 40.63837 228.38146 122.03103
#
# Poissons Ratio (x) = 0.31109 -0.03625
# Poissons Ratio (y) = 0.05535 0.07484
# Poissons Ratio (z) = -0.01207 0.14006
#
# Static dielectric constant tensor:
#      x y z
#    x 1.867150 0.000000 0.000000 
#    y 0.000000 1.898520 0.000000 
#    z 0.000000 0.000000 1.721650 
# 
# From -- ./inp_files/23341.got.cif
#   From: 2010.05.17/outbox.cif.g08.bks.cpg/sg60_12_cif.got.tgz:23341.got - 2010.06.03 14:59:27.
