data_PCOD9453984
_publ_section_title
;
Structure prediction by ZEFSAII (Michael W. Deem and Ramdas Pophale) SiO2 
 PCOD9453984
Probable space group: P B C N
;
_chemical_formula_sum "Si O2"
_cell_formula_units_Z 36
_cell_length_a 13.879554
_cell_length_b 6.878178
_cell_length_c 16.715024
_cell_angle_alpha 90.000000
_cell_angle_beta 90.000000
_cell_angle_gamma 90.000000
_cell_volume 1595.717199
_symmetry_space_group_name_H-M "P B C N"
_symmetry_group_IT_number 60
_symmetry_cell_setting 'orthorhombic'
loop_
_space_group_symop_operation_xyz
x,y,z
1/2-x,1/2-y,1/2+z
1/2+x,1/2-y,-z
-x,y,1/2-z
-x,-y,-z
1/2+x,1/2+y,1/2-z
1/2-x,1/2+y,z
x,-y,1/2+z
loop_
_atom_site_type_symbol
_atom_site_label
_atom_site_fract_x
_atom_site_fract_y
_atom_site_fract_z
Si Si1 0.096793 0.092285 0.705364
Si Si2 0.000000 0.288784 0.250000
Si Si3 0.113984 0.663738 0.894864
Si Si4 0.012615 0.205574 0.545211
Si Si5 0.830064 0.890738 0.133808
O O1 0.089985 0.176194 0.616906
O O2 0.176768 0.149688 0.770568
O O3 0.000000 0.162817 0.750000
O O4 0.076007 0.858416 0.705316
O O5 0.054110 0.408244 0.318216
O O6 0.223879 0.598565 0.901156
O O7 0.125180 0.894194 0.872413
O O8 0.056259 0.658052 0.977102
O O9 0.907124 0.240696 0.585278
O O10 0.000000 0.000000 0.500000
#
# Coordination Sequence:
#
# PCOD9453984 Si02
#       5
#     8   4   8   8   8
#     4   7  12  27  47  69  85 124 161 193 225 284
#     4   8  14  28  50  62  94 124 160 192 234 286
#     4  10  18  32  51  72  96 126 165 201 237 289
#     4   9  14  29  52  71  93 128 168 196 233 293
#     4   9  18  31  50  73  97 127 163 200 243 289
#
# _framework density 22.560388
#
# number of rings (size 3 to 8) (size 9 to 14) (size 15 to 20)
#    0.667    2.667    4.444    0.000    0.000    0.000 
#    4.000    1.111    7.333    0.000    0.000    0.000 
#    0.000    0.000    0.000    0.000    0.000    0.000 
#
# Total GULP energy -200429.424867 kJ/mol
# GULP energy per Si atom -5567.484024 kJ/mol
# Density = 2.250904 g / cm^3
# Si number density = 22.560388 Si / 1000 Ang^3
#
#
#
# Elastic Constant Matrix: (Units=GPa)
#
#
# Indices 1 2 3 4 5 6 
#
# 1 111.4277 21.8889 69.1471 0.0000 0.0000 0.0000
# 2 21.8889 45.3590 26.5597 0.0000 0.0000 0.0000
# 3 69.1471 26.5597 171.5498 0.0000 0.0000 0.0000
# 4 0.0000 0.0000 0.0000 13.3353 0.0000 0.0000
# 5 0.0000 0.0000 0.0000 0.0000 33.4026 0.0000
# 6 0.0000 0.0000 0.0000 0.0000 0.0000 24.1839
#
#
#
# Elastic Compliance Matrix: (Units=1/GPa)
#
#
# Indices 1 2 3 4 5 6 
#
# 1 0.012419 -0.003367 -0.004484 0.000000 0.000000 0.000000
# 2 -0.003367 0.025157 -0.002538 0.000000 0.000000 0.000000
# 3 -0.004484 -0.002538 0.008030 0.000000 0.000000 0.000000
# 4 0.000000 0.000000 0.000000 0.074989 0.000000 0.000000
# 5 0.000000 0.000000 0.000000 0.000000 0.029938 0.000000
# 6 0.000000 0.000000 0.000000 0.000000 0.000000 0.041350
#
#
# Mechanical properties :
#
#
# Convention : Reuss Voigt Hill
#
# Bulk Modulus (GPa) = 40.27848 62.61422 51.44635
# Shear Modulus (GPa) = 22.63100 28.23376 25.43238
#
# Velocity S-wave (km/s) = 3.17066 3.54146 3.36117
# Velocity P-wave (km/s) = 5.59433 6.67359 6.15765
#
# Compressibility (1/GPa) = 0.02482716
#
# Stress axis : x y z
#
# Youngs Moduli (GPa) = 80.52419 39.75021 124.53910
#
# Poissons Ratio (x) = 0.13384 0.55847
# Poissons Ratio (y) = 0.27113 0.31604
# Poissons Ratio (z) = 0.36110 0.10087
#
# Static dielectric constant tensor:
#      x y z
#    x 1.882630 0.000000 0.000000 
#    y 0.000000 1.955150 0.000000 
#    z 0.000000 0.000000 1.866870 
# 
# From -- ./inp_files/15767.got.cif
#   From: 2010.05.17/outbox.cif.g08.bks.cpg/sg60_8_cif.got.tgz:15767.got - 2010.06.03 14:59:27.
