data_PCOD9453507
_publ_section_title
;
Structure prediction by ZEFSAII (Michael W. Deem and Ramdas Pophale) SiO2 
 PCOD9453507
Probable space group: P M M N
;
_chemical_formula_sum "Si O2"
_cell_formula_units_Z 64
_cell_length_a 9.000000
_cell_length_b 24.000000
_cell_length_c 15.000000
_cell_angle_alpha 90.000000
_cell_angle_beta 90.000000
_cell_angle_gamma 90.000000
_cell_volume 3240.000000
_symmetry_space_group_name_H-M "P M M N"
_symmetry_group_IT_number 59
_space_group.IT_coordinate_system_code '2'
_symmetry_cell_setting 'orthorhombic'
loop_
_space_group_symop_operation_xyz
x,y,z
1/2-x,1/2-y,z
1/2+x,-y,-z
-x,1/2+y,-z
-x,-y,-z
1/2+x,1/2+y,-z
1/2-x,y,z
x,1/2-y,z
loop_
_atom_site_type_symbol
_atom_site_label
_atom_site_fract_x
_atom_site_fract_y
_atom_site_fract_z
Si Si1 0.572630 0.311031 0.460630
Si Si2 0.925511 0.888703 0.897737
Si Si3 0.924551 0.135439 0.924931
Si Si4 0.427611 0.871829 0.710441
Si Si5 0.424358 0.512935 0.152447
Si Si6 0.571351 0.812929 0.245361
Si Si7 0.429350 0.394216 0.594605
Si Si8 0.427168 0.992620 0.662122
O O1 0.750000 0.314797 0.474900
O O2 0.520487 0.250000 0.488688
O O3 0.546716 0.321333 0.356231
O O4 0.493688 0.359111 0.514546
O O5 0.750000 0.880735 0.903534
O O6 0.987613 0.869241 0.802882
O O7 0.954677 0.955735 0.900415
O O8 0.005827 0.858117 0.978200
O O9 0.750000 0.146843 0.925646
O O10 0.946546 0.070334 0.898900
O O11 0.002643 0.171844 0.849488
O O12 0.250000 0.876630 0.727130
O O13 0.477716 0.928762 0.659705
O O14 0.250000 0.510414 0.180118
O O15 0.528760 0.511922 0.238567
O O16 0.750000 0.814920 0.239501
O O17 0.528655 0.750000 0.272557
O O18 0.525041 0.859595 0.316935
O O19 0.250000 0.394311 0.591380
O O20 0.484646 0.457986 0.599176
O O21 0.250000 0.991614 0.651848
#
# Coordination Sequence:
#
# PCOD9453507 Si02
#       8
#     8   8   8   8   8   8   8   8
#     4  10  22  39  58  80 107 142 183 225 271 323
#     4  10  20  34  54  80 110 143 181 224 273 324
#     4  11  21  33  52  79 110 145 184 223 267 319
#     4   9  19  37  57  79 109 143 182 229 277 327
#     4   9  18  31  49  78 112 144 178 218 264 319
#     4  10  21  37  55  76 107 146 184 225 271 322
#     4  10  20  35  57  84 111 140 177 222 274 331
#     4   9  17  31  54  81 110 143 177 217 274 332
#
# _framework density 19.753086
#
# number of rings (size 3 to 8) (size 9 to 14) (size 15 to 20)
#    0.000    2.250    1.250    1.500    0.000    4.000 
#    0.000    0.625    0.000    2.250    0.000    0.000 
#    0.000    0.000    0.000    0.000    0.000    0.000 
#
# Total GULP energy -357004.781312 kJ/mol
# GULP energy per Si atom -5578.199708 kJ/mol
# Density = 1.970813 g / cm^3
# Si number density = 19.753086 Si / 1000 Ang^3
#
#
#
# Elastic Constant Matrix: (Units=GPa)
#
#
# Indices 1 2 3 4 5 6 
#
# 1 -20.6666 11.4034 4.7100 0.0000 0.0000 0.0000
# 2 11.4034 22.5412 32.8942 0.0000 0.0000 0.0000
# 3 4.7100 32.8942 59.3136 0.0000 0.0000 0.0000
# 4 0.0000 0.0000 0.0000 7.3920 0.0000 0.0000
# 5 0.0000 0.0000 0.0000 0.0000 27.4994 0.0000
# 6 0.0000 0.0000 0.0000 0.0000 0.0000 13.1673
#
#
#
# Elastic Compliance Matrix: (Units=1/GPa)
#
#
# Indices 1 2 3 4 5 6 
#
# 1 -0.025628 0.052412 -0.027032 0.000000 0.000000 0.000000
# 2 0.052412 0.125441 -0.073729 0.000000 0.000000 0.000000
# 3 -0.027032 -0.073729 0.059895 0.000000 0.000000 0.000000
# 4 0.000000 0.000000 0.000000 0.135281 0.000000 0.000000
# 5 0.000000 0.000000 0.000000 0.000000 0.036364 0.000000
# 6 0.000000 0.000000 0.000000 0.000000 0.000000 0.075945
#
#
# Mechanical properties :
#
#
# Convention : Reuss Voigt Hill
#
# Bulk Modulus (GPa) = 15.87034 17.68928 16.77981
# Shear Modulus (GPa) = 9.52382 10.42378 9.97380
#
# Velocity S-wave (km/s) = 2.19816 2.29967 2.24949
# Velocity P-wave (km/s) = 3.80714 4.00324 3.90642
#
# Compressibility (1/GPa) = 0.06301063
#
# Stress axis : x y z
#
# Youngs Moduli (GPa) = -39.02018 7.97190 16.69592
#
# Poissons Ratio (x) = -0.41783 0.45132
# Poissons Ratio (y) = 2.04514 1.23097
# Poissons Ratio (z) = -1.05479 0.58776
#
# Static dielectric constant tensor:
#      x y z
#    x 1.654910 0.000000 0.000000 
#    y 0.000000 1.710300 0.000000 
#    z 0.000000 0.000000 1.684020 
# 
# From -- ./inp_files/21497.got.cif
#   From: 2010.05.17/outbox.ucp.g08.bks.cvg/sg59_11_cif.got.tgz:21497.got - 2010.06.11 16:43:56.
