data_PCOD9453541
_publ_section_title
;
Structure prediction by ZEFSAII (Michael W. Deem and Ramdas Pophale) SiO2 
 PCOD9453541
Probable space group: P M M N
;
_chemical_formula_sum "Si O2"
_cell_formula_units_Z 56
_cell_length_a 15.000000
_cell_length_b 9.000000
_cell_length_c 21.000000
_cell_angle_alpha 90.000000
_cell_angle_beta 90.000000
_cell_angle_gamma 90.000000
_cell_volume 2835.000000
_symmetry_space_group_name_H-M "P M M N"
_symmetry_group_IT_number 59
_space_group.IT_coordinate_system_code '2'
_symmetry_cell_setting 'orthorhombic'
loop_
_space_group_symop_operation_xyz
x,y,z
1/2-x,1/2-y,z
1/2+x,-y,-z
-x,1/2+y,-z
-x,-y,-z
1/2+x,1/2+y,-z
1/2-x,y,z
x,1/2-y,z
loop_
_atom_site_type_symbol
_atom_site_label
_atom_site_fract_x
_atom_site_fract_y
_atom_site_fract_z
Si Si1 0.645670 0.074013 0.738852
Si Si2 0.045360 0.428165 0.146392
Si Si3 0.407812 0.572914 0.022389
Si Si4 0.845000 0.071254 0.114726
Si Si5 0.351607 0.576001 0.474784
Si Si6 0.847109 0.074234 0.372066
Si Si7 0.044114 0.428214 0.371582
O O1 0.750000 0.048364 0.750371
O O2 0.629136 0.250000 0.743196
O O3 0.586407 0.984579 0.788763
O O4 0.616358 0.010944 0.671177
O O5 0.045705 0.250000 0.140938
O O6 0.106164 0.497106 0.090127
O O7 0.941610 0.480260 0.139847
O O8 0.415421 0.750000 0.030348
O O9 0.500000 0.500000 0.000000
O O10 0.346073 0.545687 0.961539
O O11 0.750000 0.014170 0.140845
O O12 0.845518 0.250000 0.124063
O O13 0.250000 0.537816 0.454226
O O14 0.367283 0.750000 0.459216
O O15 0.351318 0.563985 0.551212
O O16 0.425820 0.474557 0.442251
O O17 0.750000 0.011942 0.351404
O O18 0.845401 0.250000 0.355858
O O19 0.944576 0.018661 0.351529
O O20 0.047108 0.250000 0.364892
#
# Coordination Sequence:
#
# PCOD9453541 Si02
#       7
#     8   8   8   8   8   8   8
#     4  11  25  43  59  73  96 136 178 214 261 323
#     4  10  20  35  56  80 106 137 175 224 272 310
#     4   9  16  28  49  76 108 145 181 217 256 301
#     4   8  15  29  51  80 111 141 172 204 246 307
#     4   9  17  31  52  77 108 145 177 206 250 311
#     4   8  16  32  53  78 108 141 175 208 250 311
#     4  11  21  33  54  81 106 134 172 221 265 299
#
# _framework density 19.753086
#
# number of rings (size 3 to 8) (size 9 to 14) (size 15 to 20)
#    0.000    2.571    0.000    4.286    0.000    3.714 
#    0.000    2.857    0.000   22.714    0.000    0.000 
#    0.000    0.000    0.000    0.000    0.000    0.000 
#
# Total GULP energy -311887.149850 kJ/mol
# GULP energy per Si atom -5569.413390 kJ/mol
# Density = 1.970813 g / cm^3
# Si number density = 19.753086 Si / 1000 Ang^3
#
#
#
# Elastic Constant Matrix: (Units=GPa)
#
#
# Indices 1 2 3 4 5 6 
#
# 1 103.7341 34.5547 2.9731 0.0000 0.0000 0.0000
# 2 34.5547 43.1120 10.8644 0.0000 0.0000 0.0000
# 3 2.9731 10.8644 26.2925 0.0000 0.0000 0.0000
# 4 0.0000 0.0000 0.0000 20.6958 0.0000 0.0000
# 5 0.0000 0.0000 0.0000 0.0000 -19.8777 0.0000
# 6 0.0000 0.0000 0.0000 0.0000 0.0000 18.8675
#
#
#
# Elastic Compliance Matrix: (Units=1/GPa)
#
#
# Indices 1 2 3 4 5 6 
#
# 1 0.013397 -0.011560 0.003262 0.000000 0.000000 0.000000
# 2 -0.011560 0.035866 -0.013513 0.000000 0.000000 0.000000
# 3 0.003262 -0.013513 0.043249 0.000000 0.000000 0.000000
# 4 0.000000 0.000000 0.000000 0.048319 0.000000 0.000000
# 5 0.000000 0.000000 0.000000 0.000000 -0.050308 0.000000
# 6 0.000000 0.000000 0.000000 0.000000 0.000000 0.053001
#
#
# Mechanical properties :
#
#
# Convention : Reuss Voigt Hill
#
# Bulk Modulus (GPa) = 20.45434 29.99145 25.22290
# Shear Modulus (GPa) = 24.57675 12.25354 18.41515
#
# Velocity S-wave (km/s) = 3.53115 2.49336 3.05662
# Velocity P-wave (km/s) = 5.19642 4.84822 5.02534
#
# Compressibility (1/GPa) = 0.04888937
#
# Stress axis : x y z
#
# Youngs Moduli (GPa) = 74.64182 27.88130 23.12206
#
# Poissons Ratio (x) = 0.32231 -0.07542
# Poissons Ratio (y) = 0.86287 0.31245
# Poissons Ratio (z) = -0.24347 0.37677
#
# Static dielectric constant tensor:
#      x y z
#    x 1.742560 0.000000 0.000000 
#    y 0.000000 1.653320 0.000000 
#    z 0.000000 0.000000 1.828990 
# 
# From -- ./inp_files/30315.got.cif
#   From: 2010.05.17/outbox.ucp.g08.bks.cvg/sg59_16_cif.got.tgz:30315.got - 2010.06.11 16:43:56.
