data_PCOD9453294
_publ_section_title
;
Structure prediction by ZEFSAII (Michael W. Deem and Ramdas Pophale) SiO2 
 PCOD9453294
Probable space group: P M M N
;
_chemical_formula_sum "Si O2"
_cell_formula_units_Z 40
_cell_length_a 20.203081
_cell_length_b 7.718034
_cell_length_c 13.434118
_cell_angle_alpha 90.000000
_cell_angle_beta 90.000000
_cell_angle_gamma 90.000000
_cell_volume 2094.756039
_symmetry_space_group_name_H-M "P M M N"
_symmetry_group_IT_number 59
_space_group.IT_coordinate_system_code '2'
_symmetry_cell_setting 'orthorhombic'
loop_
_space_group_symop_operation_xyz
x,y,z
1/2-x,1/2-y,z
1/2+x,-y,-z
-x,1/2+y,-z
-x,-y,-z
1/2+x,1/2+y,-z
1/2-x,y,z
x,1/2-y,z
loop_
_atom_site_type_symbol
_atom_site_label
_atom_site_fract_x
_atom_site_fract_y
_atom_site_fract_z
Si Si1 0.674920 0.958629 0.384172
Si Si2 0.926613 0.953930 0.774661
Si Si3 0.076205 0.542669 0.792584
Si Si4 0.578080 0.044014 0.992622
Si Si5 0.674043 0.537964 0.608987
O O1 0.750000 0.019602 0.363617
O O2 0.676670 0.750000 0.386316
O O3 0.656462 0.015667 0.496160
O O4 0.623997 0.009724 0.299155
O O5 0.932955 0.750000 0.753081
O O6 0.877257 0.026005 0.691648
O O7 0.001627 0.026990 0.774214
O O8 0.899022 0.970555 0.887019
O O9 0.069510 0.750000 0.804201
O O10 0.103853 0.480023 0.899930
O O11 0.586805 0.250000 0.985862
O O12 0.500000 0.000000 0.000000
O O13 0.750000 0.485415 0.628580
O O14 0.673772 0.750000 0.610719
#
# Coordination Sequence:
#
# PCOD9453294 Si02
#       5
#     8   8   8   8   8
#     4   9  18  32  49  68  90 120 159 196 227 267
#     4   9  17  30  49  72  96 121 152 189 228 274
#     4   9  18  30  45  68  96 123 150 185 232 278
#     4   9  17  30  47  68  95 124 153 187 229 274
#     4   8  15  30  50  69  92 123 155 189 231 273
#
# _framework density 19.095302
#
# number of rings (size 3 to 8) (size 9 to 14) (size 15 to 20)
#    0.000    3.200    0.000    3.000    0.000    5.200 
#    0.000    2.000    0.000    5.400    0.000    0.000 
#    0.000    0.000    0.000    0.000    0.000    0.000 
#
# Total GULP energy -222718.253260 kJ/mol
# GULP energy per Si atom -5567.956331 kJ/mol
# Density = 1.905184 g / cm^3
# Si number density = 19.095302 Si / 1000 Ang^3
#
#
#
# Elastic Constant Matrix: (Units=GPa)
#
#
# Indices 1 2 3 4 5 6 
#
# 1 82.0511 -0.0240 101.9397 0.0000 0.0000 0.0000
# 2 -0.0240 19.9864 -10.4884 0.0000 0.0000 0.0000
# 3 101.9397 -10.4884 190.1756 0.0000 0.0000 0.0000
# 4 0.0000 0.0000 0.0000 21.4279 0.0000 0.0000
# 5 0.0000 0.0000 0.0000 0.0000 -32.7220 0.0000
# 6 0.0000 0.0000 0.0000 0.0000 0.0000 14.4916
#
#
#
# Elastic Compliance Matrix: (Units=1/GPa)
#
#
# Indices 1 2 3 4 5 6 
#
# 1 0.038769 -0.011183 -0.021398 0.000000 0.000000 0.000000
# 2 -0.011183 0.054751 0.009014 0.000000 0.000000 0.000000
# 3 -0.021398 0.009014 0.017225 0.000000 0.000000 0.000000
# 4 0.000000 0.000000 0.000000 0.046668 0.000000 0.000000
# 5 0.000000 0.000000 0.000000 0.000000 -0.030560 0.000000
# 6 0.000000 0.000000 0.000000 0.000000 0.000000 0.069005
#
#
# Mechanical properties :
#
#
# Convention : Reuss Voigt Hill
#
# Bulk Modulus (GPa) = 15.72047 52.78530 34.25288
# Shear Modulus (GPa) = 18.92535 14.02523 16.47529
#
# Velocity S-wave (km/s) = 3.15159 2.71308 2.94052
# Velocity P-wave (km/s) = 4.63615 6.12515 5.43191
#
# Compressibility (1/GPa) = 0.06361133
#
# Stress axis : x y z
#
# Youngs Moduli (GPa) = 25.79371 18.26462 58.05369
#
# Poissons Ratio (x) = 0.20425 1.24224
# Poissons Ratio (y) = 0.28844 -0.52328
# Poissons Ratio (z) = 0.55194 -0.16463
#
# Static dielectric constant tensor:
#      x y z
#    x 1.646310 0.000000 0.000000 
#    y 0.000000 1.705120 0.000000 
#    z 0.000000 0.000000 1.693680 
# 
# From -- ./inp_files/14047.got.cif
#   From: 2010.05.17/outbox.cif.g08.bks.cpg/sg59_8_cif.got.tgz:14047.got - 2010.06.03 14:40:33.
