data_PCOD9453980
_publ_section_title
;
Structure prediction by ZEFSAII (Michael W. Deem and Ramdas Pophale) SiO2 
 PCOD9453980
Probable space group: P B C N
;
_chemical_formula_sum "Si O2"
_cell_formula_units_Z 48
_cell_length_a 14.097795
_cell_length_b 15.081892
_cell_length_c 9.121609
_cell_angle_alpha 90.000000
_cell_angle_beta 90.000000
_cell_angle_gamma 90.000000
_cell_volume 1939.449473
_symmetry_space_group_name_H-M "P B C N"
_symmetry_group_IT_number 60
_symmetry_cell_setting 'orthorhombic'
loop_
_space_group_symop_operation_xyz
x,y,z
1/2-x,1/2-y,1/2+z
1/2+x,1/2-y,-z
-x,y,1/2-z
-x,-y,-z
1/2+x,1/2+y,1/2-z
1/2-x,1/2+y,z
x,-y,1/2+z
loop_
_atom_site_type_symbol
_atom_site_label
_atom_site_fract_x
_atom_site_fract_y
_atom_site_fract_z
Si Si1 0.500000 0.153319 0.750000
Si Si2 0.364752 0.892460 0.990260
Si Si3 0.500000 0.911916 0.750000
Si Si4 0.003210 0.907591 0.580688
Si Si5 0.664797 0.681964 0.577345
Si Si6 0.365994 0.184427 0.008154
Si Si7 0.670152 0.362325 0.390543
O O1 0.568512 0.103587 0.865580
O O2 0.430740 0.202689 0.864004
O O3 0.260007 0.916134 0.050310
O O4 0.417061 0.947551 0.861042
O O5 0.352485 0.789904 0.927658
O O6 0.435912 0.860599 0.626668
O O7 0.097307 0.853151 0.548162
O O8 0.000000 0.921813 0.750000
O O9 0.912273 0.863500 0.508236
O O10 0.000000 0.000000 0.500000
O O11 0.771329 0.643623 0.562865
O O12 0.631453 0.632037 0.726791
O O13 0.307319 0.257713 0.102177
#
# Coordination Sequence:
#
# PCOD9453980 Si02
#       7
#     4   8   4   8   8   8   8
#     4  10  18  32  48  82 118 154 186 222 294 372
#     4  10  21  32  55  88 125 160 190 238 311 356
#     4  10  18  32  50  80 122 150 190 230 286 368
#     4  12  28  44  65  85 114 162 211 252 299 354
#     4  11  22  37  56  83 123 157 203 248 297 358
#     4  10  21  32  55  88 125 160 190 238 311 356
#     4  11  22  37  56  83 123 157 203 248 297 358
#
# _framework density 24.749292000000001
#
# number of rings (size 3 to 8) (size 9 to 14) (size 15 to 20)
#    0.000    1.333    3.333    3.500    7.000    0.000 
#    0.000    0.000    0.000    0.000    0.000    7.000 
#    0.000    0.000    0.000    0.000    0.000    0.000 
#
# Total GULP energy -267220.601149 kJ/mol
# GULP energy per Si atom -5567.095857 kJ/mol
# Density = 2.469296 g / cm^3
# Si number density = 24.749292 Si / 1000 Ang^3
#
#
#
# Elastic Constant Matrix: (Units=GPa)
#
#
# Indices 1 2 3 4 5 6 
#
# 1 136.7154 -0.3315 37.5797 0.0000 0.0000 0.0000
# 2 -0.3315 27.3512 10.6835 0.0000 0.0000 0.0000
# 3 37.5797 10.6835 202.1141 0.0000 0.0000 0.0000
# 4 0.0000 0.0000 0.0000 45.4567 0.0000 0.0000
# 5 0.0000 0.0000 0.0000 0.0000 40.4347 0.0000
# 6 0.0000 0.0000 0.0000 0.0000 0.0000 0.0399
#
#
#
# Elastic Compliance Matrix: (Units=1/GPa)
#
#
# Indices 1 2 3 4 5 6 
#
# 1 0.007720 0.000668 -0.001471 0.000000 0.000000 0.000000
# 2 0.000668 0.037390 -0.002101 0.000000 0.000000 0.000000
# 3 -0.001471 -0.002101 0.005332 0.000000 0.000000 0.000000
# 4 0.000000 0.000000 0.000000 0.021999 0.000000 0.000000
# 5 0.000000 0.000000 0.000000 0.000000 0.024731 0.000000
# 6 0.000000 0.000000 0.000000 0.000000 0.000000 25.059045
#
#
# Mechanical properties :
#
#
# Convention : Reuss Voigt Hill
#
# Bulk Modulus (GPa) = 22.40348 51.33823 36.87086
# Shear Modulus (GPa) = 0.19859 38.40286 19.30073
#
# Velocity S-wave (km/s) = 0.28358 3.94340 2.79561
# Velocity P-wave (km/s) = 3.02969 6.44378 5.03494
#
# Compressibility (1/GPa) = 0.04463593
#
# Stress axis : x y z
#
# Youngs Moduli (GPa) = 129.52754 26.74511 187.53981
#
# Poissons Ratio (x) = -0.01787 0.27583
# Poissons Ratio (y) = -0.08653 0.39395
# Poissons Ratio (z) = 0.19051 0.05618
#
# Static dielectric constant tensor:
#      x y z
#    x 2.014960 0.000000 0.000000 
#    y 0.000000 1.907210 0.000000 
#    z 0.000000 0.000000 2.007300 
# 
# From -- ./inp_files/5960.got.cif
#   From: 2010.05.17/outbox.cif.g08.bks.cpg/sg60_3_cif.got.tgz:5960.got - 2010.06.03 14:59:27.
