data_PCOD9453800
_publ_section_title
;
Structure prediction by ZEFSAII (Michael W. Deem and Ramdas Pophale) SiO2 
 PCOD9453800
Probable space group: P B C N
;
_chemical_formula_sum "Si O2"
_cell_formula_units_Z 52
_cell_length_a 16.784809
_cell_length_b 6.698954
_cell_length_c 20.388018
_cell_angle_alpha 90.000000
_cell_angle_beta 90.000000
_cell_angle_gamma 90.000000
_cell_volume 2292.442269
_symmetry_space_group_name_H-M "P B C N"
_symmetry_group_IT_number 60
_symmetry_cell_setting 'orthorhombic'
loop_
_space_group_symop_operation_xyz
x,y,z
1/2-x,1/2-y,1/2+z
1/2+x,1/2-y,-z
-x,y,1/2-z
-x,-y,-z
1/2+x,1/2+y,1/2-z
1/2-x,1/2+y,z
x,-y,1/2+z
loop_
_atom_site_type_symbol
_atom_site_label
_atom_site_fract_x
_atom_site_fract_y
_atom_site_fract_z
Si Si1 0.320942 0.903241 0.791010
Si Si2 0.149713 0.742966 0.432148
Si Si3 0.021668 0.691331 0.045031
Si Si4 0.672043 0.779684 0.036091
Si Si5 0.853888 0.860242 0.676369
Si Si6 0.941685 0.563107 0.307856
Si Si7 0.000000 0.825261 0.750000
O O1 0.338343 0.754923 0.852420
O O2 0.226562 0.924270 0.788256
O O3 0.357226 0.863696 0.719786
O O4 0.357631 0.118806 0.810370
O O5 0.231617 0.796294 0.470981
O O6 0.148952 0.503390 0.443903
O O7 0.061802 0.813230 0.454295
O O8 0.036024 0.629996 0.120325
O O9 0.106602 0.774363 0.018739
O O10 0.000000 0.500000 0.000000
O O11 0.658460 0.631962 0.098117
O O12 0.934310 0.939104 0.708264
O O13 0.954581 0.323071 0.301279
O O14 0.000000 0.637622 0.250000
#
# Coordination Sequence:
#
# PCOD9453800 Si02
#       7
#     8   8   8   8   8   8   4
#     4   9  16  28  49  69  90 120 161 199 230 288
#     4   9  16  31  48  69  91 125 158 197 237 284
#     4  10  17  29  49  72  95 128 162 205 239 286
#     4   9  18  29  48  69  94 121 160 191 238 291
#     4   9  16  29  48  68  90 123 159 191 236 283
#     4   9  15  28  48  71  91 119 168 199 232 278
#     4   8  14  26  46  64  88 120 156 194 224 288
#
# _framework density 22.683232
#
# number of rings (size 3 to 8) (size 9 to 14) (size 15 to 20)
#    0.462    2.462    1.538    1.846    0.000    0.000 
#    0.000    8.462    1.692    0.000    0.000    0.000 
#    0.000    0.000    0.000    0.000    0.000    0.000 
#
# Total GULP energy -289634.952836 kJ/mol
# GULP energy per Si atom -5569.902939 kJ/mol
# Density = 2.263160 g / cm^3
# Si number density = 22.683232 Si / 1000 Ang^3
#
#
#
# Elastic Constant Matrix: (Units=GPa)
#
#
# Indices 1 2 3 4 5 6 
#
# 1 217.6075 4.5896 84.8655 0.0000 0.0000 0.0000
# 2 4.5896 25.4376 14.1110 0.0000 0.0000 0.0000
# 3 84.8655 14.1110 126.0501 0.0000 0.0000 0.0000
# 4 0.0000 0.0000 0.0000 20.1255 0.0000 0.0000
# 5 0.0000 0.0000 0.0000 0.0000 39.9108 0.0000
# 6 0.0000 0.0000 0.0000 0.0000 0.0000 35.8706
#
#
#
# Elastic Compliance Matrix: (Units=1/GPa)
#
#
# Indices 1 2 3 4 5 6 
#
# 1 0.006271 0.001291 -0.004367 0.000000 0.000000 0.000000
# 2 0.001291 0.042181 -0.005591 0.000000 0.000000 0.000000
# 3 -0.004367 -0.005591 0.011499 0.000000 0.000000 0.000000
# 4 0.000000 0.000000 0.000000 0.049688 0.000000 0.000000
# 5 0.000000 0.000000 0.000000 0.000000 0.025056 0.000000
# 6 0.000000 0.000000 0.000000 0.000000 0.000000 0.027878
#
#
# Mechanical properties :
#
#
# Convention : Reuss Voigt Hill
#
# Bulk Modulus (GPa) = 23.46477 64.02527 43.74502
# Shear Modulus (GPa) = 25.75823 36.88330 31.32076
#
# Velocity S-wave (km/s) = 3.37347 4.03676 3.71993
# Velocity P-wave (km/s) = 5.05378 7.07208 6.14634
#
# Compressibility (1/GPa) = 0.04261707
#
# Stress axis : x y z
#
# Youngs Moduli (GPa) = 159.45934 23.70761 86.96237
#
# Poissons Ratio (x) = -0.03060 0.37974
# Poissons Ratio (y) = -0.20584 0.48622
# Poissons Ratio (z) = 0.69631 0.13255
#
# Static dielectric constant tensor:
#      x y z
#    x 1.888200 0.000000 0.000000 
#    y 0.000000 2.012750 0.000000 
#    z 0.000000 0.000000 1.837000 
# 
# From -- ./inp_files/22969.got.cif
#   From: 2010.05.17/outbox.cif.g08.bks.cpg/sg60_12_cif.got.tgz:22969.got - 2010.06.03 14:59:27.
