data_PCOD9453673
_publ_section_title
;
Structure prediction by ZEFSAII (Michael W. Deem and Ramdas Pophale) SiO2 
 PCOD9453673
Probable space group: P M M N
;
_chemical_formula_sum "Si O2"
_cell_formula_units_Z 64
_cell_length_a 24.000000
_cell_length_b 15.000000
_cell_length_c 9.000000
_cell_angle_alpha 90.000000
_cell_angle_beta 90.000000
_cell_angle_gamma 90.000000
_cell_volume 3240.000000
_symmetry_space_group_name_H-M "P M M N"
_symmetry_group_IT_number 59
_space_group.IT_coordinate_system_code '2'
_symmetry_cell_setting 'orthorhombic'
loop_
_space_group_symop_operation_xyz
x,y,z
1/2-x,1/2-y,z
1/2+x,-y,-z
-x,1/2+y,-z
-x,-y,-z
1/2+x,1/2+y,-z
1/2-x,y,z
x,1/2-y,z
loop_
_atom_site_type_symbol
_atom_site_label
_atom_site_fract_x
_atom_site_fract_y
_atom_site_fract_z
Si Si1 0.314315 0.650703 0.302248
Si Si2 0.967423 0.355982 0.082484
Si Si3 0.399460 0.942213 0.499886
Si Si4 0.493008 0.344977 0.472953
Si Si5 0.186803 0.477528 0.095212
Si Si6 0.034770 0.351392 0.814805
Si Si7 0.377992 0.506343 0.814760
Si Si8 0.078847 0.083948 0.247766
O O1 0.250000 0.646680 0.356408
O O2 0.323911 0.750000 0.240722
O O3 0.358277 0.631575 0.433174
O O4 0.319112 0.572244 0.180880
O O5 0.967701 0.250000 0.118335
O O6 0.912156 0.405869 0.133265
O O7 0.023606 0.403835 0.146741
O O8 0.978058 0.365294 0.906622
O O9 0.458947 0.913705 0.567827
O O10 0.368927 0.989721 0.637776
O O11 0.416523 0.998650 0.355272
O O12 0.521409 0.250000 0.458958
O O13 0.477142 0.358217 0.641891
O O14 0.437782 0.345807 0.374799
O O15 0.250000 0.445291 0.119959
O O16 0.137034 0.415447 0.160736
O O17 0.174272 0.493806 0.922053
O O18 0.053317 0.250000 0.850602
O O19 0.080756 0.424292 0.848316
#
# Coordination Sequence:
#
# PCOD9453673 Si02
#       8
#     8   8   8   8   8   8   8   8
#     4   9  20  40  60  81 114 156 203 250 296 358
#     4  11  23  35  56  92 125 160 198 241 306 369
#     4  11  22  33  56  89 117 160 198 239 301 365
#     4  11  21  34  54  86 124 152 188 238 297 367
#     4  10  24  41  62  86 110 158 211 251 300 356
#     4  10  22  37  56  85 122 163 199 237 304 370
#     4  12  22  38  59  83 128 155 201 256 301 354
#     4  11  20  37  60  79 122 152 197 243 297 355
#
# _framework density 19.753086
#
# number of rings (size 3 to 8) (size 9 to 14) (size 15 to 20)
#    0.000    1.375    3.750    2.250    3.500    1.500 
#    0.000    0.000    0.000    4.875    0.000    1.750 
#    0.000    0.000    0.000    0.000    0.000    0.000 
#
# Total GULP energy -356423.697807 kJ/mol
# GULP energy per Si atom -5569.120278 kJ/mol
# Density = 1.970813 g / cm^3
# Si number density = 19.753086 Si / 1000 Ang^3
#
#
#
# Elastic Constant Matrix: (Units=GPa)
#
#
# Indices 1 2 3 4 5 6 
#
# 1 56.1323 15.4136 10.3894 0.0000 0.0000 0.0000
# 2 15.4136 52.5022 10.0220 0.0000 0.0000 0.0000
# 3 10.3894 10.0220 80.8423 0.0000 0.0000 0.0000
# 4 0.0000 0.0000 0.0000 11.9580 0.0000 0.0000
# 5 0.0000 0.0000 0.0000 0.0000 21.8364 0.0000
# 6 0.0000 0.0000 0.0000 0.0000 0.0000 21.6404
#
#
#
# Elastic Compliance Matrix: (Units=1/GPa)
#
#
# Indices 1 2 3 4 5 6 
#
# 1 0.019645 -0.005413 -0.001854 0.000000 0.000000 0.000000
# 2 -0.005413 0.021000 -0.001908 0.000000 0.000000 0.000000
# 3 -0.001854 -0.001908 0.012844 0.000000 0.000000 0.000000
# 4 0.000000 0.000000 0.000000 0.083626 0.000000 0.000000
# 5 0.000000 0.000000 0.000000 0.000000 0.045795 0.000000
# 6 0.000000 0.000000 0.000000 0.000000 0.000000 0.046210
#
#
# Mechanical properties :
#
#
# Convention : Reuss Voigt Hill
#
# Bulk Modulus (GPa) = 28.45760 29.01410 28.73585
# Shear Modulus (GPa) = 19.29139 21.33041 20.31090
#
# Velocity S-wave (km/s) = 3.12849 3.28967 3.21010
# Velocity P-wave (km/s) = 5.24289 5.39903 5.32153
#
# Compressibility (1/GPa) = 0.03514000
#
# Stress axis : x y z
#
# Youngs Moduli (GPa) = 50.90449 47.61847 77.85452
#
# Poissons Ratio (x) = 0.25778 0.14431
# Poissons Ratio (y) = 0.27557 0.14852
# Poissons Ratio (z) = 0.09435 0.09084
#
# Static dielectric constant tensor:
#      x y z
#    x 1.669310 0.000000 0.000000 
#    y 0.000000 1.734460 0.000000 
#    z 0.000000 0.000000 1.785450 
# 
# From -- ./inp_files/12243.got.cif
#   From: 2010.05.17/outbox.ucp.g08.bks.cvg/sg59_7_cif.got.tgz:12243.got - 2010.06.11 16:43:56.
