data_PCOD9453996
_publ_section_title
;
Structure prediction by ZEFSAII (Michael W. Deem and Ramdas Pophale) SiO2 
 PCOD9453996
Probable space group: P B C N
;
_chemical_formula_sum "Si O2"
_cell_formula_units_Z 32
_cell_length_a 4.977651
_cell_length_b 13.727560
_cell_length_c 17.644652
_cell_angle_alpha 90.000000
_cell_angle_beta 90.000000
_cell_angle_gamma 90.000000
_cell_volume 1205.676765
_symmetry_space_group_name_H-M "P B C N"
_symmetry_group_IT_number 60
_symmetry_cell_setting 'orthorhombic'
loop_
_space_group_symop_operation_xyz
x,y,z
1/2-x,1/2-y,1/2+z
1/2+x,1/2-y,-z
-x,y,1/2-z
-x,-y,-z
1/2+x,1/2+y,1/2-z
1/2-x,1/2+y,z
x,-y,1/2+z
loop_
_atom_site_type_symbol
_atom_site_label
_atom_site_fract_x
_atom_site_fract_y
_atom_site_fract_z
Si Si1 0.620870 0.014523 0.329088
Si Si2 0.735186 0.242007 0.300184
Si Si3 0.619430 0.524820 0.081444
Si Si4 0.965396 0.760982 0.950914
O O1 0.500000 0.976511 0.250000
O O2 0.633214 0.132900 0.320939
O O3 0.416685 0.993412 0.397445
O O4 0.920315 0.987897 0.353000
O O5 0.500000 0.288062 0.250000
O O6 0.826109 0.290365 0.379181
O O7 0.000000 0.232504 0.250000
O O8 0.602411 0.641968 0.081925
O O9 0.500000 0.500000 0.000000
O O10 0.713770 0.787847 0.005361
#
# Coordination Sequence:
#
# PCOD9453996 Si02
#       4
#     8   8   8   8
#     4  10  18  33  56  82 105 137 184 230 261 303
#     4  10  18  32  54  81 105 135 182 230 263 303
#     4  11  22  36  56  83 111 142 177 222 271 320
#     4  11  21  35  56  82 110 142 177 220 269 320
#
# _framework density 26.541111000000001
#
# number of rings (size 3 to 8) (size 9 to 14) (size 15 to 20)
#    0.000    1.500    0.000   12.000    0.000    0.000 
#    0.000    0.000    0.000   15.000    0.000    0.000 
#    0.000    0.000    0.000    0.000    0.000    0.000 
#
# Total GULP energy -179231.221776 kJ/mol
# GULP energy per Si atom -5600.975681 kJ/mol
# Density = 2.648070 g / cm^3
# Si number density = 26.541111 Si / 1000 Ang^3
#
#
#
# Elastic Constant Matrix: (Units=GPa)
#
#
# Indices 1 2 3 4 5 6 
#
# 1 177.2012 6.2586 51.9420 0.0000 0.0000 0.0000
# 2 6.2586 75.5675 -0.0125 0.0000 0.0000 0.0000
# 3 51.9420 -0.0125 121.0344 0.0000 0.0000 0.0000
# 4 0.0000 0.0000 0.0000 9.6980 0.0000 0.0000
# 5 0.0000 0.0000 0.0000 0.0000 76.2773 0.0000
# 6 0.0000 0.0000 0.0000 0.0000 0.0000 0.3161
#
#
#
# Elastic Compliance Matrix: (Units=1/GPa)
#
#
# Indices 1 2 3 4 5 6 
#
# 1 0.006477 -0.000537 -0.002780 0.000000 0.000000 0.000000
# 2 -0.000537 0.013278 0.000232 0.000000 0.000000 0.000000
# 3 -0.002780 0.000232 0.009455 0.000000 0.000000 0.000000
# 4 0.000000 0.000000 0.000000 0.103114 0.000000 0.000000
# 5 0.000000 0.000000 0.000000 0.000000 0.013110 0.000000
# 6 0.000000 0.000000 0.000000 0.000000 0.000000 3.163932
#
#
# Mechanical properties :
#
#
# Convention : Reuss Voigt Hill
#
# Bulk Modulus (GPa) = 43.40241 54.46435 48.93338
# Shear Modulus (GPa) = 1.50457 38.29928 19.90192
#
# Velocity S-wave (km/s) = 0.75373 3.80283 2.74131
# Velocity P-wave (km/s) = 4.14076 6.31247 5.33822
#
# Compressibility (1/GPa) = 0.02304020
#
# Stress axis : x y z
#
# Youngs Moduli (GPa) = 154.39101 75.31426 105.76370
#
# Poissons Ratio (x) = 0.04044 0.29399
# Poissons Ratio (y) = 0.08289 -0.02451
# Poissons Ratio (z) = 0.42916 -0.01746
#
# Static dielectric constant tensor:
#      x y z
#    x 1.975200 0.000000 0.000000 
#    y 0.000000 2.157880 0.000000 
#    z 0.000000 0.000000 2.104500 
# 
# From -- ./inp_files/13679.got.cif
#   From: 2010.05.17/outbox.cif.g08.bks.cpg/sg60_7_cif.got.tgz:13679.got - 2010.06.03 14:59:27.
