data_PCOD9453118
_publ_section_title
;
Structure prediction by ZEFSAII (Michael W. Deem and Ramdas Pophale) SiO2 
 PCOD9453118
Probable space group: P M M N
;
_chemical_formula_sum "Si O2"
_cell_formula_units_Z 48
_cell_length_a 10.029868
_cell_length_b 8.834953
_cell_length_c 29.137235
_cell_angle_alpha 90.000000
_cell_angle_beta 90.000000
_cell_angle_gamma 90.000000
_cell_volume 2581.949821
_symmetry_space_group_name_H-M "P M M N"
_symmetry_group_IT_number 59
_space_group.IT_coordinate_system_code '2'
_symmetry_cell_setting 'orthorhombic'
loop_
_space_group_symop_operation_xyz
x,y,z
1/2-x,1/2-y,z
1/2+x,-y,-z
-x,1/2+y,-z
-x,-y,-z
1/2+x,1/2+y,-z
1/2-x,y,z
x,1/2-y,z
loop_
_atom_site_type_symbol
_atom_site_label
_atom_site_fract_x
_atom_site_fract_y
_atom_site_fract_z
Si Si1 0.403615 0.427714 0.702186
Si Si2 0.592623 0.931890 0.040232
Si Si3 0.596613 0.569276 0.776196
Si Si4 0.018592 0.931334 0.605628
Si Si5 0.903928 0.932121 0.884191
Si Si6 0.250000 0.566360 0.536690
Si Si7 0.750000 0.068538 0.568880
O O1 0.250000 0.451327 0.715392
O O2 0.424589 0.250000 0.693418
O O3 0.498219 0.483621 0.742685
O O4 0.431772 0.516855 0.655304
O O5 0.750000 0.977907 0.037958
O O6 0.589875 0.750000 0.037275
O O7 0.516891 0.987249 0.086060
O O8 0.500000 0.000000 0.000000
O O9 0.750000 0.533424 0.764493
O O10 0.578814 0.750000 0.770761
O O11 0.578276 0.535192 0.830144
O O12 0.008886 0.750000 0.604631
O O13 0.121925 0.981014 0.566065
O O14 0.878743 0.005897 0.594234
O O15 0.750000 0.974303 0.896919
O O16 0.913455 0.750000 0.890472
O O17 0.250000 0.750000 0.535843
O O18 0.250000 0.514590 0.484253
O O19 0.750000 0.250000 0.569095
#
# Coordination Sequence:
#
# PCOD9453118 Si02
#       7
#     8   8   8   8   8   4   4
#     4  11  24  40  58  84 117 153 192 240 296 347
#     4  11  24  39  57  85 120 158 201 248 296 348
#     4   9  20  39  63  89 117 152 194 240 290 348
#     4  11  22  40  62  86 114 152 195 236 284 345
#     4   9  19  38  62  88 118 152 194 243 293 348
#     4   9  20  39  63  87 115 149 193 237 282 341
#     4  11  23  39  59  89 121 149 185 237 290 343
#
# _framework density 18.590602000000001
#
# number of rings (size 3 to 8) (size 9 to 14) (size 15 to 20)
#    0.000    1.833    0.833    3.750    1.167    6.333 
#    0.000    7.500    0.000    0.000    0.000    0.000 
#    0.000    0.000    0.000    0.000    0.000    0.000 
#
# Total GULP energy -268105.896157 kJ/mol
# GULP energy per Si atom -5585.539503 kJ/mol
# Density = 1.854829 g / cm^3
# Si number density = 18.590602 Si / 1000 Ang^3
#
#
#
# Elastic Constant Matrix: (Units=GPa)
#
#
# Indices 1 2 3 4 5 6 
#
# 1 120.3874 56.1936 44.9148 0.0000 0.0000 0.0000
# 2 56.1936 59.4144 39.9269 0.0000 0.0000 0.0000
# 3 44.9148 39.9269 64.3496 0.0000 0.0000 0.0000
# 4 0.0000 0.0000 0.0000 26.9743 0.0000 0.0000
# 5 0.0000 0.0000 0.0000 0.0000 40.1847 0.0000
# 6 0.0000 0.0000 0.0000 0.0000 0.0000 15.8492
#
#
#
# Elastic Compliance Matrix: (Units=1/GPa)
#
#
# Indices 1 2 3 4 5 6 
#
# 1 0.015180 -0.012412 -0.002894 0.000000 0.000000 0.000000
# 2 -0.012412 0.039017 -0.015545 0.000000 0.000000 0.000000
# 3 -0.002894 -0.015545 0.027205 0.000000 0.000000 0.000000
# 4 0.000000 0.000000 0.000000 0.037072 0.000000 0.000000
# 5 0.000000 0.000000 0.000000 0.000000 0.024885 0.000000
# 6 0.000000 0.000000 0.000000 0.000000 0.000000 0.063095
#
#
# Mechanical properties :
#
#
# Convention : Reuss Voigt Hill
#
# Bulk Modulus (GPa) = 50.76307 58.46911 54.61609
# Shear Modulus (GPa) = 18.20014 23.47604 20.83809
#
# Velocity S-wave (km/s) = 3.13229 3.55743 3.35161
# Velocity P-wave (km/s) = 6.35977 6.95650 6.66482
#
# Compressibility (1/GPa) = 0.01969936
#
# Stress axis : x y z
#
# Youngs Moduli (GPa) = 65.87664 25.62997 36.75764
#
# Poissons Ratio (x) = 0.31813 0.10637
# Poissons Ratio (y) = 0.81768 0.57140
# Poissons Ratio (z) = 0.19064 0.39842
#
# Static dielectric constant tensor:
#      x y z
#    x 1.693920 0.000000 0.000000 
#    y 0.000000 1.625670 0.000000 
#    z 0.000000 0.000000 1.625870 
# 
# From -- ./inp_files/32967.got.cif
#   From: 2010.05.17/outbox.cif.g08.bks.cpg/sg59_17_cif.got.tgz:32967.got - 2010.06.03 14:40:33.
