data_PCOD9453898
_publ_section_title
;
Structure prediction by ZEFSAII (Michael W. Deem and Ramdas Pophale) SiO2 
 PCOD9453898
Probable space group: P B C N
;
_chemical_formula_sum "Si O2"
_cell_formula_units_Z 44
_cell_length_a 27.453417
_cell_length_b 8.991772
_cell_length_c 7.771404
_cell_angle_alpha 90.000000
_cell_angle_beta 90.000000
_cell_angle_gamma 90.000000
_cell_volume 1918.408895
_symmetry_space_group_name_H-M "P B C N"
_symmetry_group_IT_number 60
_symmetry_cell_setting 'orthorhombic'
loop_
_space_group_symop_operation_xyz
x,y,z
1/2-x,1/2-y,1/2+z
1/2+x,1/2-y,-z
-x,y,1/2-z
-x,-y,-z
1/2+x,1/2+y,1/2-z
1/2-x,1/2+y,z
x,-y,1/2+z
loop_
_atom_site_type_symbol
_atom_site_label
_atom_site_fract_x
_atom_site_fract_y
_atom_site_fract_z
Si Si1 0.681459 0.216162 0.074302
Si Si2 0.149713 0.951869 0.181116
Si Si3 0.714023 0.786451 0.937997
Si Si4 0.938663 0.840214 0.553403
Si Si5 0.500000 0.415284 0.250000
Si Si6 0.140194 0.701205 0.762799
O O1 0.730324 0.283003 0.990361
O O2 0.651807 0.133424 0.924206
O O3 0.647975 0.348910 0.148427
O O4 0.700583 0.142635 0.252843
O O5 0.198905 0.886897 0.095293
O O6 0.106168 0.899956 0.059917
O O7 0.149047 0.122891 0.224676
O O8 0.679339 0.840450 0.091624
O O9 0.914706 0.704977 0.661337
O O10 0.959323 0.969981 0.676580
O O11 0.980435 0.819108 0.409869
#
# Coordination Sequence:
#
# PCOD9453898 Si02
#       6
#     8   8   8   8   4   8
#     4  10  18  28  41  56  82  98 128 184 211 251
#     4   9  19  27  43  58  75 104 147 176 206 241
#     4   9  19  27  39  59  77 103 125 177 222 236
#     4  10  19  27  38  56  75 109 134 179 227 229
#     4  10  20  28  36  52  90  98 136 188 226 242
#     4  11  17  30  43  58  76 104 151 171 211 236
#
# _framework density 22.935673000000001
#
# number of rings (size 3 to 8) (size 9 to 14) (size 15 to 20)
#    1.091    1.091    3.636    2.182    0.000    0.000 
#    0.000    0.000    0.000    0.000    0.000    0.000 
#    0.000    0.000    0.000    0.000    0.000    0.000 
#
# Total GULP energy -245163.634320 kJ/mol
# GULP energy per Si atom -5571.900780 kJ/mol
# Density = 2.288347 g / cm^3
# Si number density = 22.935673 Si / 1000 Ang^3
#
#
#
# Elastic Constant Matrix: (Units=GPa)
#
#
# Indices 1 2 3 4 5 6 
#
# 1 91.7925 0.6885 42.2246 0.0000 0.0000 0.0000
# 2 0.6885 46.3261 7.5570 0.0000 0.0000 0.0000
# 3 42.2246 7.5570 164.7044 0.0000 0.0000 0.0000
# 4 0.0000 0.0000 0.0000 18.5596 0.0000 0.0000
# 5 0.0000 0.0000 0.0000 0.0000 63.7787 0.0000
# 6 0.0000 0.0000 0.0000 0.0000 0.0000 2.8981
#
#
#
# Elastic Compliance Matrix: (Units=1/GPa)
#
#
# Indices 1 2 3 4 5 6 
#
# 1 0.012356 0.000336 -0.003183 0.000000 0.000000 0.000000
# 2 0.000336 0.021758 -0.001084 0.000000 0.000000 0.000000
# 3 -0.003183 -0.001084 0.006937 0.000000 0.000000 0.000000
# 4 0.000000 0.000000 0.000000 0.053880 0.000000 0.000000
# 5 0.000000 0.000000 0.000000 0.000000 0.015679 0.000000
# 6 0.000000 0.000000 0.000000 0.000000 0.000000 0.345052
#
#
# Mechanical properties :
#
#
# Convention : Reuss Voigt Hill
#
# Bulk Modulus (GPa) = 30.13179 44.86261 37.49720
# Shear Modulus (GPa) = 10.53544 33.87080 22.20312
#
# Velocity S-wave (km/s) = 2.14556 3.84705 3.11474
# Velocity P-wave (km/s) = 4.39363 6.27182 5.41478
#
# Compressibility (1/GPa) = 0.03318754
#
# Stress axis : x y z
#
# Youngs Moduli (GPa) = 80.93362 45.96009 144.14931
#
# Poissons Ratio (x) = -0.01542 0.45883
# Poissons Ratio (y) = -0.02716 0.15631
# Poissons Ratio (z) = 0.25761 0.04984
#
# Static dielectric constant tensor:
#      x y z
#    x 1.880070 0.000000 0.000000 
#    y 0.000000 1.864960 0.000000 
#    z 0.000000 0.000000 2.011740 
# 
# From -- ./inp_files/8209.got.cif
#   From: 2010.05.17/outbox.cif.g08.bks.cpg/sg60_5_cif.got.tgz:8209.got - 2010.06.03 14:59:27.
