data_PCOD9453961
_publ_section_title
;
Structure prediction by ZEFSAII (Michael W. Deem and Ramdas Pophale) SiO2 
 PCOD9453961
Probable space group: P B C N
;
_chemical_formula_sum "Si O2"
_cell_formula_units_Z 56
_cell_length_a 10.421595
_cell_length_b 13.096483
_cell_length_c 23.328628
_cell_angle_alpha 90.000000
_cell_angle_beta 90.000000
_cell_angle_gamma 90.000000
_cell_volume 3184.036761
_symmetry_space_group_name_H-M "P B C N"
_symmetry_group_IT_number 60
_symmetry_cell_setting 'orthorhombic'
loop_
_space_group_symop_operation_xyz
x,y,z
1/2-x,1/2-y,1/2+z
1/2+x,1/2-y,-z
-x,y,1/2-z
-x,-y,-z
1/2+x,1/2+y,1/2-z
1/2-x,1/2+y,z
x,-y,1/2+z
loop_
_atom_site_type_symbol
_atom_site_label
_atom_site_fract_x
_atom_site_fract_y
_atom_site_fract_z
Si Si1 0.562624 0.382622 0.461414
Si Si2 0.147366 0.963216 0.922949
Si Si3 0.686362 0.184190 0.437417
Si Si4 0.255044 0.506309 0.625281
Si Si5 0.912008 0.692071 0.880699
Si Si6 0.487892 0.392573 0.682292
Si Si7 0.900371 0.439563 0.041031
O O1 0.431742 0.436183 0.443049
O O2 0.593858 0.383599 0.529091
O O3 0.578255 0.270637 0.435784
O O4 0.673020 0.453118 0.432195
O O5 0.101863 0.931591 0.859653
O O6 0.297708 0.984789 0.929856
O O7 0.819175 0.242283 0.423128
O O8 0.679855 0.134512 0.499480
O O9 0.671073 0.091044 0.393216
O O10 0.176027 0.603079 0.646935
O O11 0.366161 0.462378 0.664942
O O12 0.963020 0.775746 0.836692
O O13 0.019548 0.630154 0.915272
O O14 0.500000 0.399789 0.750000
O O15 0.000000 0.500000 0.000000
#
# Coordination Sequence:
#
# PCOD9453961 Si02
#       7
#     8   8   8   8   8   8   8
#     4   9  17  32  55  81 115 150 180 225 289 348
#     4  10  20  35  53  83 117 150 191 236 286 347
#     4  10  18  31  53  81 118 152 179 220 281 361
#     4   9  17  36  58  83 112 145 189 233 288 344
#     4  10  21  36  56  87 114 152 189 235 290 346
#     4  10  22  41  62  79 106 156 208 244 286 337
#     4  12  21  32  53  89 128 149 179 227 300 368
#
# _framework density 17.587737000000001
#
# number of rings (size 3 to 8) (size 9 to 14) (size 15 to 20)
#    0.000    2.000    2.857    1.714    4.000    0.000 
#    2.571    0.000    0.000    0.000    0.000    0.000 
#    0.000    0.000    0.000    0.000    0.000    0.000 
#
# Total GULP energy -312134.022837 kJ/mol
# GULP energy per Si atom -5573.821836 kJ/mol
# Density = 1.754771 g / cm^3
# Si number density = 17.587737 Si / 1000 Ang^3
#
#
#
# Elastic Constant Matrix: (Units=GPa)
#
#
# Indices 1 2 3 4 5 6 
#
# 1 73.4205 45.8942 39.0739 0.0000 0.0000 0.0000
# 2 45.8942 111.3109 43.2914 0.0000 0.0000 0.0000
# 3 39.0739 43.2914 118.1642 0.0000 0.0000 0.0000
# 4 0.0000 0.0000 0.0000 15.4063 0.0000 0.0000
# 5 0.0000 0.0000 0.0000 0.0000 11.8798 0.0000
# 6 0.0000 0.0000 0.0000 0.0000 0.0000 24.4519
#
#
#
# Elastic Compliance Matrix: (Units=1/GPa)
#
#
# Indices 1 2 3 4 5 6 
#
# 1 0.019979 -0.006610 -0.004185 0.000000 0.000000 0.000000
# 2 -0.006610 0.012663 -0.002454 0.000000 0.000000 0.000000
# 3 -0.004185 -0.002454 0.010746 0.000000 0.000000 0.000000
# 4 0.000000 0.000000 0.000000 0.064909 0.000000 0.000000
# 5 0.000000 0.000000 0.000000 0.000000 0.084177 0.000000
# 6 0.000000 0.000000 0.000000 0.000000 0.000000 0.040897
#
#
# Mechanical properties :
#
#
# Convention : Reuss Voigt Hill
#
# Bulk Modulus (GPa) = 59.20295 62.15715 60.68005
# Shear Modulus (GPa) = 18.83256 21.99000 20.41128
#
# Velocity S-wave (km/s) = 3.27582 3.53980 3.41037
# Velocity P-wave (km/s) = 6.93128 7.21975 7.07698
#
# Compressibility (1/GPa) = 0.01689105
#
# Stress axis : x y z
#
# Youngs Moduli (GPa) = 50.05225 78.96730 93.06109
#
# Poissons Ratio (x) = 0.52197 0.38946
# Poissons Ratio (y) = 0.33084 0.22835
# Poissons Ratio (z) = 0.20947 0.19377
#
# Static dielectric constant tensor:
#      x y z
#    x 1.635010 0.000000 0.000000 
#    y 0.000000 1.632860 0.000000 
#    z 0.000000 0.000000 1.574390 
# 
# From -- ./inp_files/24280.got.cif
#   From: 2010.05.17/outbox.cif.g08.bks.cpg/sg60_13_cif.got.tgz:24280.got - 2010.06.03 14:59:27.
