data_PCOD9453267
_publ_section_title
;
Structure prediction by ZEFSAII (Michael W. Deem and Ramdas Pophale) SiO2 
 PCOD9453267
Probable space group: P M M N
;
_chemical_formula_sum "Si O2"
_cell_formula_units_Z 64
_cell_length_a 9.100512
_cell_length_b 13.864326
_cell_length_c 23.947845
_cell_angle_alpha 90.000000
_cell_angle_beta 90.000000
_cell_angle_gamma 90.000000
_cell_volume 3021.558638
_symmetry_space_group_name_H-M "P M M N"
_symmetry_group_IT_number 59
_space_group.IT_coordinate_system_code '2'
_symmetry_cell_setting 'orthorhombic'
loop_
_space_group_symop_operation_xyz
x,y,z
1/2-x,1/2-y,z
1/2+x,-y,-z
-x,1/2+y,-z
-x,-y,-z
1/2+x,1/2+y,-z
1/2-x,y,z
x,1/2-y,z
loop_
_atom_site_type_symbol
_atom_site_label
_atom_site_fract_x
_atom_site_fract_y
_atom_site_fract_z
Si Si1 0.582979 0.132599 0.910601
Si Si2 0.078207 0.401404 0.482626
Si Si3 0.418006 0.131881 0.022559
Si Si4 0.071958 0.573116 0.626351
Si Si5 0.428411 0.944504 0.747110
Si Si6 0.076811 0.351863 0.608303
Si Si7 0.926752 0.859245 0.204771
Si Si8 0.919131 0.366075 0.134371
O O1 0.750000 0.098941 0.904273
O O2 0.585966 0.250000 0.912627
O O3 0.487606 0.110410 0.855888
O O4 0.512921 0.101611 0.969135
O O5 0.250000 0.414632 0.470836
O O6 0.067500 0.346021 0.540967
O O7 0.000000 0.500000 0.500000
O O8 0.999047 0.371099 0.425524
O O9 0.250000 0.101189 0.016188
O O10 0.419039 0.250000 0.022776
O O11 0.485911 0.101266 0.081669
O O12 0.250000 0.576616 0.620675
O O13 0.027201 0.603169 0.688781
O O14 0.024382 0.459547 0.622867
O O15 0.250000 0.939910 0.747118
O O16 0.476892 0.896805 0.804952
O O17 0.469045 0.057647 0.751773
O O18 0.250000 0.353084 0.623890
O O19 0.014397 0.250000 0.630933
O O20 0.750000 0.857522 0.202066
O O21 0.976889 0.750000 0.217268
O O22 0.750000 0.400373 0.128301
O O23 0.915528 0.250000 0.133127
#
# Coordination Sequence:
#
# PCOD9453267 Si02
#       8
#     8   8   8   8   8   8   8   8
#     4   9  16  27  45  69  96 125 156 190 234 292
#     4   9  16  28  47  68  91 119 149 183 223 266
#     4   9  16  27  46  71  95 118 150 197 248 292
#     4   9  17  30  48  68  93 125 158 192 228 270
#     4   9  18  32  49  70  95 124 161 199 232 273
#     4   8  14  25  44  70  95 119 150 187 225 266
#     4   9  17  30  48  69  94 124 157 195 237 278
#     4   9  17  31  50  68  89 121 158 195 237 285
#
# _framework density 21.18112
#
# number of rings (size 3 to 8) (size 9 to 14) (size 15 to 20)
#    0.000    3.125    0.000    1.875    0.000    3.500 
#    0.000    5.625    0.000   10.125    0.000    0.000 
#    0.000    0.000    0.000    0.000    0.000    0.000 
#
# Total GULP energy -356740.991621 kJ/mol
# GULP energy per Si atom -5574.077994 kJ/mol
# Density = 2.113291 g / cm^3
# Si number density = 21.181120 Si / 1000 Ang^3
#
#
#
# Elastic Constant Matrix: (Units=GPa)
#
#
# Indices 1 2 3 4 5 6 
#
# 1 43.4489 3.7144 30.8137 0.0000 0.0000 0.0000
# 2 3.7144 34.3619 -8.5711 0.0000 0.0000 0.0000
# 3 30.8137 -8.5711 123.2954 0.0000 0.0000 0.0000
# 4 0.0000 0.0000 0.0000 46.3068 0.0000 0.0000
# 5 0.0000 0.0000 0.0000 0.0000 24.2686 0.0000
# 6 0.0000 0.0000 0.0000 0.0000 0.0000 5.2381
#
#
#
# Elastic Compliance Matrix: (Units=1/GPa)
#
#
# Indices 1 2 3 4 5 6 
#
# 1 0.028792 -0.004994 -0.007543 0.000000 0.000000 0.000000
# 2 -0.004994 0.030482 0.003367 0.000000 0.000000 0.000000
# 3 -0.007543 0.003367 0.010230 0.000000 0.000000 0.000000
# 4 0.000000 0.000000 0.000000 0.021595 0.000000 0.000000
# 5 0.000000 0.000000 0.000000 0.000000 0.041206 0.000000
# 6 0.000000 0.000000 0.000000 0.000000 0.000000 0.190908
#
#
# Mechanical properties :
#
#
# Convention : Reuss Voigt Hill
#
# Bulk Modulus (GPa) = 19.54489 28.11336 23.82913
# Shear Modulus (GPa) = 13.94289 26.83931 20.39110
#
# Velocity S-wave (km/s) = 2.56846 3.56354 3.10611
# Velocity P-wave (km/s) = 4.24777 5.49850 4.91309
#
# Compressibility (1/GPa) = 0.05116426
#
# Stress axis : x y z
#
# Youngs Moduli (GPa) = 34.73225 32.80660 97.75437
#
# Poissons Ratio (x) = 0.16383 0.73733
# Poissons Ratio (y) = 0.17344 -0.32914
# Poissons Ratio (z) = 0.26198 -0.11046
#
# Static dielectric constant tensor:
#      x y z
#    x 1.722230 0.000000 0.000000 
#    y 0.000000 1.855370 0.000000 
#    z 0.000000 0.000000 1.774380 
# 
# From -- ./inp_files/31763.got.cif
#   From: 2010.05.17/outbox.cif.g08.bks.cpg/sg59_16_cif.got.tgz:31763.got - 2010.06.03 14:40:33.
