data_PCOD9453090
_publ_section_title
;
Structure prediction by ZEFSAII (Michael W. Deem and Ramdas Pophale) SiO2 
 PCOD9453090
Probable space group: P M M N
;
_chemical_formula_sum "Si O2"
_cell_formula_units_Z 64
_cell_length_a 14.256331
_cell_length_b 9.030484
_cell_length_c 24.710522
_cell_angle_alpha 90.000000
_cell_angle_beta 90.000000
_cell_angle_gamma 90.000000
_cell_volume 3181.271373
_symmetry_space_group_name_H-M "P M M N"
_symmetry_group_IT_number 59
_space_group.IT_coordinate_system_code '2'
_symmetry_cell_setting 'orthorhombic'
loop_
_space_group_symop_operation_xyz
x,y,z
1/2-x,1/2-y,z
1/2+x,-y,-z
-x,1/2+y,-z
-x,-y,-z
1/2+x,1/2+y,-z
1/2-x,y,z
x,1/2-y,z
loop_
_atom_site_type_symbol
_atom_site_label
_atom_site_fract_x
_atom_site_fract_y
_atom_site_fract_z
Si Si1 0.966595 0.426009 0.250121
Si Si2 0.360161 0.928634 0.300368
Si Si3 0.642164 0.570184 0.034667
Si Si4 0.527255 0.572911 0.140095
Si Si5 0.863120 0.575005 0.349963
Si Si6 0.135960 0.423413 0.530364
Si Si7 0.364310 0.580360 0.421846
Si Si8 0.638224 0.925762 0.912880
O O1 0.964637 0.250000 0.247401
O O2 0.933406 0.497810 0.193954
O O3 0.907327 0.485795 0.300894
O O4 0.071548 0.486955 0.260426
O O5 0.250000 0.958825 0.292147
O O6 0.372628 0.750000 0.296802
O O7 0.387446 0.975683 0.361838
O O8 0.750000 0.524660 0.042048
O O9 0.640327 0.750000 0.033490
O O10 0.582394 0.523233 0.086095
O O11 0.612716 0.523865 0.974260
O O12 0.532094 0.750000 0.144926
O O13 0.421624 0.518305 0.129360
O O14 0.750000 0.564730 0.348078
O O15 0.887277 0.750000 0.344966
O O16 0.894594 0.523129 0.410083
O O17 0.250000 0.437845 0.530338
O O18 0.115132 0.250000 0.527391
O O19 0.101839 0.499528 0.475588
O O20 0.250000 0.579150 0.422954
O O21 0.394931 0.750000 0.424761
O O22 0.750000 0.943424 0.907076
O O23 0.617550 0.750000 0.907551
#
# Coordination Sequence:
#
# PCOD9453090 Si02
#       8
#     8   8   8   8   8   8   8   8
#     4  12  26  40  55  79 111 146 189 237 281 327
#     4   9  19  38  61  81 105 141 184 230 280 334
#     4   8  16  33  58  87 115 144 179 217 263 321
#     4  11  22  36  57  82 110 147 188 228 269 318
#     4   9  19  38  61  81 106 144 186 228 276 329
#     4   8  14  26  48  78 107 135 170 214 267 328
#     4   8  14  26  48  78 107 134 167 213 272 333
#     4   9  18  35  59  86 117 148 177 217 269 320
#
# _framework density 20.117743999999998
#
# number of rings (size 3 to 8) (size 9 to 14) (size 15 to 20)
#    0.000    2.750    0.000    4.125    0.000    2.750 
#    0.000    5.000    0.000    2.625    0.000    0.000 
#    0.000    0.000    0.000    0.000    0.000    0.000 
#
# Total GULP energy -357231.125316 kJ/mol
# GULP energy per Si atom -5581.736333 kJ/mol
# Density = 2.007196 g / cm^3
# Si number density = 20.117744 Si / 1000 Ang^3
#
#
#
# Elastic Constant Matrix: (Units=GPa)
#
#
# Indices 1 2 3 4 5 6 
#
# 1 38.2777 10.8516 16.8340 0.0000 0.0000 0.0000
# 2 10.8516 45.1690 36.1065 0.0000 0.0000 0.0000
# 3 16.8340 36.1065 107.6762 0.0000 0.0000 0.0000
# 4 0.0000 0.0000 0.0000 33.3542 0.0000 0.0000
# 5 0.0000 0.0000 0.0000 0.0000 26.5517 0.0000
# 6 0.0000 0.0000 0.0000 0.0000 0.0000 20.8097
#
#
#
# Elastic Compliance Matrix: (Units=1/GPa)
#
#
# Indices 1 2 3 4 5 6 
#
# 1 0.028714 -0.004522 -0.002973 0.000000 0.000000 0.000000
# 2 -0.004522 0.030959 -0.009674 0.000000 0.000000 0.000000
# 3 -0.002973 -0.009674 0.012996 0.000000 0.000000 0.000000
# 4 0.000000 0.000000 0.000000 0.029981 0.000000 0.000000
# 5 0.000000 0.000000 0.000000 0.000000 0.037662 0.000000
# 6 0.000000 0.000000 0.000000 0.000000 0.000000 0.048055
#
#
# Mechanical properties :
#
#
# Convention : Reuss Voigt Hill
#
# Bulk Modulus (GPa) = 26.08884 35.41193 30.75039
# Shear Modulus (GPa) = 21.23303 24.63184 22.93243
#
# Velocity S-wave (km/s) = 3.25227 3.50292 3.37992
# Velocity P-wave (km/s) = 5.20570 5.83105 5.52722
#
# Compressibility (1/GPa) = 0.03833056
#
# Stress axis : x y z
#
# Youngs Moduli (GPa) = 34.82591 32.30104 76.94741
#
# Poissons Ratio (x) = 0.14607 0.22875
# Poissons Ratio (y) = 0.15749 0.74441
# Poissons Ratio (z) = 0.10353 0.31249
#
# Static dielectric constant tensor:
#      x y z
#    x 1.751440 0.000000 0.000000 
#    y 0.000000 1.665130 0.000000 
#    z 0.000000 0.000000 1.721870 
# 
# From -- ./inp_files/32188.got.cif
#   From: 2010.05.17/outbox.cif.g08.bks.cpg/sg59_17_cif.got.tgz:32188.got - 2010.06.03 14:40:33.
