data_PCOD9453032
_publ_section_title
;
Structure prediction by ZEFSAII (Michael W. Deem and Ramdas Pophale) SiO2 
 PCOD9453032
Probable space group: P M M N
;
_chemical_formula_sum "Si O2"
_cell_formula_units_Z 48
_cell_length_a 7.907564
_cell_length_b 19.902989
_cell_length_c 15.599665
_cell_angle_alpha 90.000000
_cell_angle_beta 90.000000
_cell_angle_gamma 90.000000
_cell_volume 2455.140162
_symmetry_space_group_name_H-M "P M M N"
_symmetry_group_IT_number 59
_space_group.IT_coordinate_system_code '2'
_symmetry_cell_setting 'orthorhombic'
loop_
_space_group_symop_operation_xyz
x,y,z
1/2-x,1/2-y,z
1/2+x,-y,-z
-x,1/2+y,-z
-x,-y,-z
1/2+x,1/2+y,-z
1/2-x,y,z
x,1/2-y,z
loop_
_atom_site_type_symbol
_atom_site_label
_atom_site_fract_x
_atom_site_fract_y
_atom_site_fract_z
Si Si1 0.542987 0.827118 0.606779
Si Si2 0.543729 0.672596 0.935829
Si Si3 0.957329 0.912158 0.773702
Si Si4 0.451367 0.427815 0.538761
Si Si5 0.049789 0.561901 0.264935
Si Si6 0.453102 0.174199 0.871082
O O1 0.750000 0.826620 0.606054
O O2 0.487024 0.750000 0.606569
O O3 0.492386 0.866690 0.692614
O O4 0.484199 0.869374 0.524320
O O5 0.750000 0.671150 0.935238
O O6 0.495461 0.750000 0.917393
O O7 0.486024 0.622286 0.861970
O O8 0.487487 0.656000 0.032626
O O9 0.750000 0.912837 0.774364
O O10 0.018944 0.988244 0.760566
O O11 0.500000 0.500000 0.500000
O O12 0.250000 0.423816 0.537563
O O13 0.507017 0.422396 0.636748
O O14 0.250000 0.556595 0.259184
O O15 0.996073 0.619903 0.200023
O O16 0.250000 0.177549 0.875486
O O17 0.514457 0.250000 0.851209
#
# Coordination Sequence:
#
# PCOD9453032 Si02
#       6
#     8   8   8   8   8   8
#     4   9  17  30  51  79 106 133 172 220 265 312
#     4   8  14  27  50  77 105 138 176 221 269 313
#     4   9  16  28  48  78 110 136 170 217 266 321
#     4  11  21  36  56  79 108 145 183 222 270 322
#     4  11  22  35  53  80 109 142 180 220 272 329
#     4   9  19  36  55  77 105 139 182 226 267 318
#
# _framework density 19.550816999999999
#
# number of rings (size 3 to 8) (size 9 to 14) (size 15 to 20)
#    0.000    2.500    1.667    2.500    0.000    3.667 
#    0.000    1.667    0.000    2.500    0.000    0.000 
#    0.000    0.000    0.000    0.000    0.000    0.000 
#
# Total GULP energy -267868.847319 kJ/mol
# GULP energy per Si atom -5580.600986 kJ/mol
# Density = 1.950632 g / cm^3
# Si number density = 19.550817 Si / 1000 Ang^3
#
#
#
# Elastic Constant Matrix: (Units=GPa)
#
#
# Indices 1 2 3 4 5 6 
#
# 1 15.5402 11.0201 9.0469 0.0000 0.0000 0.0000
# 2 11.0201 194.7935 148.9137 0.0000 0.0000 0.0000
# 3 9.0469 148.9137 215.0647 0.0000 0.0000 0.0000
# 4 0.0000 0.0000 0.0000 42.7169 0.0000 0.0000
# 5 0.0000 0.0000 0.0000 0.0000 13.1796 0.0000
# 6 0.0000 0.0000 0.0000 0.0000 0.0000 20.3262
#
#
#
# Elastic Compliance Matrix: (Units=1/GPa)
#
#
# Indices 1 2 3 4 5 6 
#
# 1 0.067056 -0.003478 -0.000412 0.000000 0.000000 0.000000
# 2 -0.003478 0.011088 -0.007531 0.000000 0.000000 0.000000
# 3 -0.000412 -0.007531 0.009882 0.000000 0.000000 0.000000
# 4 0.000000 0.000000 0.000000 0.023410 0.000000 0.000000
# 5 0.000000 0.000000 0.000000 0.000000 0.075875 0.000000
# 6 0.000000 0.000000 0.000000 0.000000 0.000000 0.049198
#
#
# Mechanical properties :
#
#
# Convention : Reuss Voigt Hill
#
# Bulk Modulus (GPa) = 15.34170 84.81774 50.07972
# Shear Modulus (GPa) = 17.78868 32.33905 25.06386
#
# Velocity S-wave (km/s) = 3.01968 4.07148 3.58437
# Velocity P-wave (km/s) = 4.47460 8.09815 6.54225
#
# Compressibility (1/GPa) = 0.06518183
#
# Stress axis : x y z
#
# Youngs Moduli (GPa) = 14.91297 90.19164 101.19875
#
# Poissons Ratio (x) = 0.31372 0.04172
# Poissons Ratio (y) = 0.05187 0.76211
# Poissons Ratio (z) = 0.00615 0.67922
#
# Static dielectric constant tensor:
#      x y z
#    x 1.733760 0.000000 0.000000 
#    y 0.000000 1.673570 0.000000 
#    z 0.000000 0.000000 1.653620 
# 
# From -- ./inp_files/20317.got.cif
#   From: 2010.05.17/outbox.cif.g08.bks.cpg/sg59_11_cif.got.tgz:20317.got - 2010.06.03 14:40:33.
