data_PCOD9453404
_publ_section_title
;
Structure prediction by ZEFSAII (Michael W. Deem and Ramdas Pophale) SiO2 
 PCOD9453404
Probable space group: P M M N
;
_chemical_formula_sum "Si O2"
_cell_formula_units_Z 56
_cell_length_a 21.000000
_cell_length_b 9.000000
_cell_length_c 18.000000
_cell_angle_alpha 90.000000
_cell_angle_beta 90.000000
_cell_angle_gamma 90.000000
_cell_volume 3402.000000
_symmetry_space_group_name_H-M "P M M N"
_symmetry_group_IT_number 59
_space_group.IT_coordinate_system_code '2'
_symmetry_cell_setting 'orthorhombic'
loop_
_space_group_symop_operation_xyz
x,y,z
1/2-x,1/2-y,z
1/2+x,-y,-z
-x,1/2+y,-z
-x,-y,-z
1/2+x,1/2+y,-z
1/2-x,y,z
x,1/2-y,z
loop_
_atom_site_type_symbol
_atom_site_label
_atom_site_fract_x
_atom_site_fract_y
_atom_site_fract_z
Si Si1 0.549513 0.571899 0.892215
Si Si2 0.825653 0.930135 0.626128
Si Si3 0.674861 0.929620 0.173233
Si Si4 0.593116 0.427456 0.044077
Si Si5 0.413681 0.430210 0.684983
Si Si6 0.560187 0.069111 0.727675
Si Si7 0.823390 0.569533 0.451614
O O1 0.560222 0.750000 0.887345
O O2 0.475307 0.547621 0.915142
O O3 0.563007 0.495312 0.812335
O O4 0.588196 0.502908 0.962409
O O5 0.750000 0.966090 0.643012
O O6 0.831216 0.750000 0.632554
O O7 0.836062 0.970316 0.538357
O O8 0.880522 0.004994 0.678002
O O9 0.750000 0.966075 0.184356
O O10 0.670518 0.750000 0.166724
O O11 0.630062 0.973608 0.243666
O O12 0.646041 0.003185 0.098767
O O13 0.601757 0.250000 0.035996
O O14 0.413841 0.250000 0.683388
O O15 0.488680 0.472719 0.695850
O O16 0.375959 0.479710 0.609657
O O17 0.563716 0.250000 0.729187
O O18 0.750000 0.523415 0.433277
O O19 0.823379 0.750000 0.449460
#
# Coordination Sequence:
#
# PCOD9453404 Si02
#       7
#     8   8   8   8   8   8   8
#     4  10  20  35  56  78 103 137 177 217 260 314
#     4   9  19  36  56  76 101 137 181 226 270 320
#     4  10  19  32  52  78 111 149 184 219 259 311
#     4  10  20  34  54  78 105 138 175 218 265 311
#     4   9  17  29  48  78 111 140 178 221 261 308
#     4  11  21  33  53  81 112 140 171 220 274 321
#     4   8  14  28  51  76 103 140 184 223 259 306
#
# _framework density 16.460905
#
# number of rings (size 3 to 8) (size 9 to 14) (size 15 to 20)
#    0.000    2.429    1.429    2.571    0.000    4.000 
#    0.000    0.714    0.000    6.000    0.000    2.000 
#    0.000    0.000    0.000    0.000    0.000    0.000 
#
# Total GULP energy -312047.650789 kJ/mol
# GULP energy per Si atom -5572.279478 kJ/mol
# Density = 1.642344 g / cm^3
# Si number density = 16.460905 Si / 1000 Ang^3
#
#
#
# Elastic Constant Matrix: (Units=GPa)
#
#
# Indices 1 2 3 4 5 6 
#
# 1 145.5901 39.6171 87.9678 0.0000 0.0000 0.0000
# 2 39.6171 53.1640 42.6275 0.0000 0.0000 0.0000
# 3 87.9678 42.6275 159.0297 0.0000 0.0000 0.0000
# 4 0.0000 0.0000 0.0000 25.9121 0.0000 0.0000
# 5 0.0000 0.0000 0.0000 0.0000 39.7175 0.0000
# 6 0.0000 0.0000 0.0000 0.0000 0.0000 28.5758
#
#
#
# Elastic Compliance Matrix: (Units=1/GPa)
#
#
# Indices 1 2 3 4 5 6 
#
# 1 0.011017 -0.004233 -0.004959 0.000000 0.000000 0.000000
# 2 -0.004233 0.025586 -0.004517 0.000000 0.000000 0.000000
# 3 -0.004959 -0.004517 0.010242 0.000000 0.000000 0.000000
# 4 0.000000 0.000000 0.000000 0.038592 0.000000 0.000000
# 5 0.000000 0.000000 0.000000 0.000000 0.025178 0.000000
# 6 0.000000 0.000000 0.000000 0.000000 0.000000 0.034995
#
#
# Mechanical properties :
#
#
# Convention : Reuss Voigt Hill
#
# Bulk Modulus (GPa) = 51.47626 77.57872 64.52749
# Shear Modulus (GPa) = 27.85464 31.34583 29.60023
#
# Velocity S-wave (km/s) = 4.11806 4.36852 4.24514
# Velocity P-wave (km/s) = 7.34513 8.52506 7.95700
#
# Compressibility (1/GPa) = 0.01942643
#
# Stress axis : x y z
#
# Youngs Moduli (GPa) = 90.76808 39.08436 97.63619
#
# Poissons Ratio (x) = 0.16545 0.48422
# Poissons Ratio (y) = 0.38424 0.44098
# Poissons Ratio (z) = 0.45016 0.17653
#
# Static dielectric constant tensor:
#      x y z
#    x 1.558330 0.000000 0.000000 
#    y 0.000000 1.551060 0.000000 
#    z 0.000000 0.000000 1.553990 
# 
# From -- ./inp_files/28054.got.cif
#   From: 2010.05.17/outbox.ucp.g08.bks.cvg/sg59_15_cif.got.tgz:28054.got - 2010.06.11 16:43:56.
