data_PCOD9453621
_publ_section_title
;
Structure prediction by ZEFSAII (Michael W. Deem and Ramdas Pophale) SiO2 
 PCOD9453621
Probable space group: P M M N
;
_chemical_formula_sum "Si O2"
_cell_formula_units_Z 64
_cell_length_a 18.000000
_cell_length_b 9.000000
_cell_length_c 21.000000
_cell_angle_alpha 90.000000
_cell_angle_beta 90.000000
_cell_angle_gamma 90.000000
_cell_volume 3402.000000
_symmetry_space_group_name_H-M "P M M N"
_symmetry_group_IT_number 59
_space_group.IT_coordinate_system_code '2'
_symmetry_cell_setting 'orthorhombic'
loop_
_space_group_symop_operation_xyz
x,y,z
1/2-x,1/2-y,z
1/2+x,-y,-z
-x,1/2+y,-z
-x,-y,-z
1/2+x,1/2+y,-z
1/2-x,y,z
x,1/2-y,z
loop_
_atom_site_type_symbol
_atom_site_label
_atom_site_fract_x
_atom_site_fract_y
_atom_site_fract_z
Si Si1 0.336951 0.585600 0.258931
Si Si2 0.336462 0.073327 0.612620
Si Si3 0.464389 0.578838 0.941240
Si Si4 0.338589 0.419749 0.385799
Si Si5 0.332692 0.568388 0.861851
Si Si6 0.090461 0.574796 0.731204
Si Si7 0.080290 0.575022 0.496443
Si Si8 0.943986 0.916686 0.811424
O O1 0.250000 0.583626 0.246087
O O2 0.357174 0.750000 0.282057
O O3 0.352143 0.464910 0.313220
O O4 0.382753 0.540056 0.197769
O O5 0.250000 0.035380 0.624862
O O6 0.341650 0.250000 0.604077
O O7 0.387388 0.019752 0.670692
O O8 0.366389 0.992782 0.550147
O O9 0.451968 0.750000 0.958343
O O10 0.387744 0.511827 0.915678
O O11 0.516231 0.575132 0.879053
O O12 0.500000 0.500000 0.000000
O O13 0.250000 0.432676 0.397293
O O14 0.360870 0.250000 0.398673
O O15 0.382713 0.531478 0.429925
O O16 0.250000 0.520185 0.873096
O O17 0.336747 0.750000 0.862644
O O18 0.359451 0.527977 0.791363
O O19 0.103428 0.750000 0.717805
O O20 0.007055 0.560861 0.757509
O O21 0.073370 0.750000 0.504575
O O22 0.000000 0.500000 0.500000
O O23 0.913461 0.750000 0.804396
#
# Coordination Sequence:
#
# PCOD9453621 Si02
#       8
#     8   8   8   8   8   8   8   8
#     4  10  21  36  56  83 111 142 185 233 279 329
#     4  11  24  40  57  81 115 149 180 220 274 332
#     4   9  18  33  53  78 108 144 182 221 268 323
#     4  10  21  39  62  84 109 143 181 226 281 336
#     4   8  14  28  52  79 105 136 178 223 265 314
#     4   9  18  33  56  83 108 139 180 224 269 326
#     4  12  26  42  60  81 108 144 186 232 278 328
#     4   9  19  35  55  80 111 145 182 225 275 330
#
# _framework density 18.812463000000001
#
# number of rings (size 3 to 8) (size 9 to 14) (size 15 to 20)
#    0.000    2.250    0.000    4.500    1.750    5.500 
#    0.000    2.500    0.000    3.375    0.000    0.000 
#    0.000    0.000    0.000    0.000    0.000    0.000 
#
# Total GULP energy -356930.562864 kJ/mol
# GULP energy per Si atom -5577.040045 kJ/mol
# Density = 1.876965 g / cm^3
# Si number density = 18.812463 Si / 1000 Ang^3
#
#
#
# Elastic Constant Matrix: (Units=GPa)
#
#
# Indices 1 2 3 4 5 6 
#
# 1 9.3319 28.7224 61.3731 0.0000 0.0000 0.0000
# 2 28.7224 58.6282 18.3797 0.0000 0.0000 0.0000
# 3 61.3731 18.3797 -52.3298 0.0000 0.0000 0.0000
# 4 0.0000 0.0000 0.0000 23.0884 0.0000 0.0000
# 5 0.0000 0.0000 0.0000 0.0000 2.4288 0.0000
# 6 0.0000 0.0000 0.0000 0.0000 0.0000 23.0846
#
#
#
# Elastic Compliance Matrix: (Units=1/GPa)
#
#
# Indices 1 2 3 4 5 6 
#
# 1 0.023546 -0.018190 0.021226 0.000000 0.000000 0.000000
# 2 -0.018190 0.029417 -0.011001 0.000000 0.000000 0.000000
# 3 0.021226 -0.011001 0.001921 0.000000 0.000000 0.000000
# 4 0.000000 0.000000 0.000000 0.043312 0.000000 0.000000
# 5 0.000000 0.000000 0.000000 0.000000 0.411728 0.000000
# 6 0.000000 0.000000 0.000000 0.000000 0.000000 0.043319
#
#
# Mechanical properties :
#
#
# Convention : Reuss Voigt Hill
#
# Bulk Modulus (GPa) = 25.67094 25.84229 25.75662
# Shear Modulus (GPa) = 8.58876 3.53069 6.05972
#
# Velocity S-wave (km/s) = 2.13901 1.37144 1.79670
# Velocity P-wave (km/s) = 4.44700 4.03416 4.24560
#
# Compressibility (1/GPa) = 0.03895455
#
# Stress axis : x y z
#
# Youngs Moduli (GPa) = 42.47027 33.99433 520.56564
#
# Poissons Ratio (x) = 0.61834 -11.04966
# Poissons Ratio (y) = 0.77252 5.72680
# Poissons Ratio (z) = -0.90148 0.37398
#
# Static dielectric constant tensor:
#      x y z
#    x 1.667730 0.000000 0.000000 
#    y 0.000000 1.649650 0.000000 
#    z 0.000000 0.000000 1.615890 
# 
# From -- ./inp_files/30696.got.cif
#   From: 2010.05.17/outbox.ucp.g08.bks.cvg/sg59_16_cif.got.tgz:30696.got - 2010.06.11 16:43:56.
