data_PCOD9453287
_publ_section_title
;
Structure prediction by ZEFSAII (Michael W. Deem and Ramdas Pophale) SiO2 
 PCOD9453287
Probable space group: P M M N
;
_chemical_formula_sum "Si O2"
_cell_formula_units_Z 56
_cell_length_a 7.593729
_cell_length_b 14.627092
_cell_length_c 26.861962
_cell_angle_alpha 90.000000
_cell_angle_beta 90.000000
_cell_angle_gamma 90.000000
_cell_volume 2983.670206
_symmetry_space_group_name_H-M "P M M N"
_symmetry_group_IT_number 59
_space_group.IT_coordinate_system_code '2'
_symmetry_cell_setting 'orthorhombic'
loop_
_space_group_symop_operation_xyz
x,y,z
1/2-x,1/2-y,z
1/2+x,-y,-z
-x,1/2+y,-z
-x,-y,-z
1/2+x,1/2+y,-z
1/2-x,y,z
x,1/2-y,z
loop_
_atom_site_type_symbol
_atom_site_label
_atom_site_fract_x
_atom_site_fract_y
_atom_site_fract_z
Si Si1 0.545830 0.653737 0.406821
Si Si2 0.533558 0.451717 0.381373
Si Si3 0.539270 0.854050 0.021494
Si Si4 0.958910 0.395363 0.486123
Si Si5 0.962102 0.965266 0.924525
Si Si6 0.038642 0.645936 0.718165
Si Si7 0.039052 0.145142 0.170464
O O1 0.750000 0.652895 0.391381
O O2 0.465960 0.750000 0.389269
O O3 0.471150 0.556061 0.389771
O O4 0.540590 0.654738 0.466954
O O5 0.750000 0.453340 0.383097
O O6 0.480932 0.389076 0.428826
O O7 0.475490 0.412386 0.328653
O O8 0.750000 0.847512 0.016679
O O9 0.472969 0.750000 0.028261
O O10 0.505123 0.929074 0.064303
O O11 0.472627 0.902787 0.970765
O O12 0.750000 0.377580 0.487468
O O13 0.000000 0.500000 0.500000
O O14 0.750000 0.959602 0.924761
O O15 0.026684 0.921243 0.873054
O O16 0.250000 0.649314 0.713915
O O17 0.971120 0.750000 0.715028
O O18 0.998050 0.611897 0.773619
O O19 0.250000 0.150189 0.165252
O O20 0.971507 0.250000 0.165620
#
# Coordination Sequence:
#
# PCOD9453287 Si02
#       7
#     8   8   8   8   8   8   8
#     4   9  17  29  44  62  85 113 144 177 214 257
#     4   8  15  28  44  61  83 111 140 173 215 261
#     4   9  17  29  45  67  95 123 151 184 219 255
#     4   9  16  27  43  62  85 112 141 172 210 257
#     4   9  17  29  46  67  91 122 154 181 216 262
#     4   9  17  29  45  64  84 108 142 183 223 260
#     4   9  17  30  47  66  89 116 146 180 220 266
#
# _framework density 18.768830000000001
#
# number of rings (size 3 to 8) (size 9 to 14) (size 15 to 20)
#    0.000    3.143    0.000    1.714    0.000    3.429 
#    0.000    5.000    0.000    5.143    0.000    2.000 
#    0.000    0.000    0.000    0.000    0.000    0.000 
#
# Total GULP energy -311797.754434 kJ/mol
# GULP energy per Si atom -5567.817043 kJ/mol
# Density = 1.872611 g / cm^3
# Si number density = 18.768830 Si / 1000 Ang^3
#
#
#
# Elastic Constant Matrix: (Units=GPa)
#
#
# Indices 1 2 3 4 5 6 
#
# 1 42.0668 0.3688 -1.7535 0.0000 0.0000 0.0000
# 2 0.3688 119.5628 74.6919 0.0000 0.0000 0.0000
# 3 -1.7535 74.6919 147.9456 0.0000 0.0000 0.0000
# 4 0.0000 0.0000 0.0000 16.2846 0.0000 0.0000
# 5 0.0000 0.0000 0.0000 0.0000 19.0194 0.0000
# 6 0.0000 0.0000 0.0000 0.0000 0.0000 10.1377
#
#
#
# Elastic Compliance Matrix: (Units=1/GPa)
#
#
# Indices 1 2 3 4 5 6 
#
# 1 0.023794 -0.000365 0.000466 0.000000 0.000000 0.000000
# 2 -0.000365 0.012222 -0.006175 0.000000 0.000000 0.000000
# 3 0.000466 -0.006175 0.009882 0.000000 0.000000 0.000000
# 4 0.000000 0.000000 0.000000 0.061408 0.000000 0.000000
# 5 0.000000 0.000000 0.000000 0.000000 0.052578 0.000000
# 6 0.000000 0.000000 0.000000 0.000000 0.000000 0.098641
#
#
# Mechanical properties :
#
#
# Convention : Reuss Voigt Hill
#
# Bulk Modulus (GPa) = 29.62771 50.68774 40.15772
# Shear Modulus (GPa) = 17.73529 24.83955 21.28742
#
# Velocity S-wave (km/s) = 3.07731 3.64187 3.37143
# Velocity P-wave (km/s) = 5.33351 6.68949 6.04961
#
# Compressibility (1/GPa) = 0.03375219
#
# Stress axis : x y z
#
# Youngs Moduli (GPa) = 42.02676 81.81648 101.19147
#
# Poissons Ratio (x) = 0.02983 -0.04716
# Poissons Ratio (y) = 0.01532 0.62485
# Poissons Ratio (z) = -0.01959 0.50521
#
# Static dielectric constant tensor:
#      x y z
#    x 1.714820 0.000000 0.000000 
#    y 0.000000 1.679990 0.000000 
#    z 0.000000 0.000000 1.647530 
# 
# From -- ./inp_files/33178.got.cif
#   From: 2010.05.17/outbox.cif.g08.bks.cpg/sg59_17_cif.got.tgz:33178.got - 2010.06.03 14:40:33.
