data_PCOD9453037
_publ_section_title
;
Structure prediction by ZEFSAII (Michael W. Deem and Ramdas Pophale) SiO2 
 PCOD9453037
Probable space group: P M M N
;
_chemical_formula_sum "Si O2"
_cell_formula_units_Z 64
_cell_length_a 28.322692
_cell_length_b 14.512089
_cell_length_c 7.664314
_cell_angle_alpha 90.000000
_cell_angle_beta 90.000000
_cell_angle_gamma 90.000000
_cell_volume 3150.197277
_symmetry_space_group_name_H-M "P M M N"
_symmetry_group_IT_number 59
_space_group.IT_coordinate_system_code '2'
_symmetry_cell_setting 'orthorhombic'
loop_
_space_group_symop_operation_xyz
x,y,z
1/2-x,1/2-y,z
1/2+x,-y,-z
-x,1/2+y,-z
-x,-y,-z
1/2+x,1/2+y,-z
1/2-x,y,z
x,1/2-y,z
loop_
_atom_site_type_symbol
_atom_site_label
_atom_site_fract_x
_atom_site_fract_y
_atom_site_fract_z
Si Si1 0.693763 0.043232 0.167892
Si Si2 0.135861 0.856213 0.121280
Si Si3 0.004739 0.851793 0.374348
Si Si4 0.900694 0.851089 0.535173
Si Si5 0.694326 0.142925 0.521844
Si Si6 0.066111 0.997118 0.250817
Si Si7 0.143301 0.147195 0.846617
Si Si8 0.538996 0.852678 0.990537
O O1 0.750000 0.047970 0.154980
O O2 0.680688 0.075423 0.364045
O O3 0.675760 0.940731 0.122646
O O4 0.669945 0.113339 0.033569
O O5 0.121534 0.750000 0.104242
O O6 0.163209 0.867782 0.305149
O O7 0.091516 0.924482 0.125524
O O8 0.025856 0.750000 0.403597
O O9 0.956033 0.855909 0.480080
O O10 0.989458 0.859236 0.170784
O O11 0.040394 0.935599 0.397529
O O12 0.891638 0.750000 0.613676
O O13 0.871714 0.857015 0.357173
O O14 0.895017 0.935494 0.664475
O O15 0.750000 0.128337 0.562606
O O16 0.689586 0.250000 0.463805
O O17 0.031547 0.065467 0.145468
O O18 0.163268 0.250000 0.879561
O O19 0.094085 0.140822 0.952374
O O20 0.530271 0.750000 0.917419
#
# Coordination Sequence:
#
# PCOD9453037 Si02
#       8
#     8   8   8   8   8   8   8   8
#     4  11  21  36  59  83 107 143 186 224 271 334
#     4  11  23  36  53  82 115 144 179 228 277 325
#     4   9  19  34  50  73 105 144 180 220 270 321
#     4   9  19  34  55  78 104 140 185 226 269 328
#     4   9  19  36  56  77 104 140 180 220 265 323
#     4  12  19  31  52  80 106 139 180 225 274 318
#     4   9  18  36  54  75 105 137 174 222 272 322
#     4   9  18  33  52  71 100 137 178 217 261 323
#
# _framework density 20.316189000000001
#
# number of rings (size 3 to 8) (size 9 to 14) (size 15 to 20)
#    0.000    2.125    1.250    4.500    0.000    1.500 
#    0.000    0.000    0.000    0.000    0.000    1.750 
#    0.000    0.000    0.000    0.000    0.000    0.000 
#
# Total GULP energy -357291.752863 kJ/mol
# GULP energy per Si atom -5582.683638 kJ/mol
# Density = 2.026995 g / cm^3
# Si number density = 20.316189 Si / 1000 Ang^3
#
#
#
# Elastic Constant Matrix: (Units=GPa)
#
#
# Indices 1 2 3 4 5 6 
#
# 1 26.2471 14.4312 -0.9141 0.0000 0.0000 0.0000
# 2 14.4312 142.9838 19.8353 0.0000 0.0000 0.0000
# 3 -0.9141 19.8353 40.7638 0.0000 0.0000 0.0000
# 4 0.0000 0.0000 0.0000 27.6841 0.0000 0.0000
# 5 0.0000 0.0000 0.0000 0.0000 19.7460 0.0000
# 6 0.0000 0.0000 0.0000 0.0000 0.0000 15.6090
#
#
#
# Elastic Compliance Matrix: (Units=1/GPa)
#
#
# Indices 1 2 3 4 5 6 
#
# 1 0.040705 -0.004542 0.003123 0.000000 0.000000 0.000000
# 2 -0.004542 0.008007 -0.003998 0.000000 0.000000 0.000000
# 3 0.003123 -0.003998 0.026547 0.000000 0.000000 0.000000
# 4 0.000000 0.000000 0.000000 0.036122 0.000000 0.000000
# 5 0.000000 0.000000 0.000000 0.000000 0.050643 0.000000
# 6 0.000000 0.000000 0.000000 0.000000 0.000000 0.064066
#
#
# Mechanical properties :
#
#
# Convention : Reuss Voigt Hill
#
# Bulk Modulus (GPa) = 15.52181 30.74439 23.13310
# Shear Modulus (GPa) = 19.34998 24.38397 21.86698
#
# Velocity S-wave (km/s) = 3.08951 3.46818 3.28431
# Velocity P-wave (km/s) = 4.51481 5.58601 5.07873
#
# Compressibility (1/GPa) = 0.06442550
#
# Stress axis : x y z
#
# Youngs Moduli (GPa) = 24.56684 124.89435 37.66916
#
# Poissons Ratio (x) = 0.56721 -0.11763
# Poissons Ratio (y) = 0.11157 0.15060
# Poissons Ratio (z) = -0.07671 0.49931
#
# Static dielectric constant tensor:
#      x y z
#    x 1.708290 0.000000 0.000000 
#    y 0.000000 1.755280 0.000000 
#    z 0.000000 0.000000 1.728360 
# 
# From -- ./inp_files/8037.got.cif
#   From: 2010.05.17/outbox.cif.g08.bks.cpg/sg59_5_cif.got.tgz:8037.got - 2010.06.03 14:40:33.
