data_PCOD9453981
_publ_section_title
;
Structure prediction by ZEFSAII (Michael W. Deem and Ramdas Pophale) SiO2 
 PCOD9453981
Probable space group: P B C N
;
_chemical_formula_sum "Si O2"
_cell_formula_units_Z 48
_cell_length_a 11.674301
_cell_length_b 26.652883
_cell_length_c 7.379821
_cell_angle_alpha 90.000000
_cell_angle_beta 90.000000
_cell_angle_gamma 90.000000
_cell_volume 2296.259190
_symmetry_space_group_name_H-M "P B C N"
_symmetry_group_IT_number 60
_symmetry_cell_setting 'orthorhombic'
loop_
_space_group_symop_operation_xyz
x,y,z
1/2-x,1/2-y,1/2+z
1/2+x,1/2-y,-z
-x,y,1/2-z
-x,-y,-z
1/2+x,1/2+y,1/2-z
1/2-x,1/2+y,z
x,-y,1/2+z
loop_
_atom_site_type_symbol
_atom_site_label
_atom_site_fract_x
_atom_site_fract_y
_atom_site_fract_z
Si Si1 0.147974 0.552151 0.422204
Si Si2 0.000000 0.195595 0.250000
Si Si3 0.290997 0.353020 0.915034
Si Si4 0.321506 0.752105 0.993760
Si Si5 0.608280 0.058571 0.508320
Si Si6 0.330221 0.839285 0.523636
Si Si7 0.500000 0.791924 0.750000
O O1 0.245434 0.592368 0.476264
O O2 0.169589 0.492553 0.433490
O O3 0.121680 0.561427 0.210065
O O4 0.029275 0.557701 0.535724
O O5 0.924619 0.160781 0.114020
O O6 0.910168 0.230529 0.358500
O O7 0.233330 0.306862 0.023484
O O8 0.239695 0.348273 0.710444
O O9 0.395598 0.758822 0.812242
O O10 0.225974 0.710842 0.950555
O O11 0.664611 0.109199 0.584186
O O12 0.459465 0.826466 0.585304
#
# Coordination Sequence:
#
# PCOD9453981 Si02
#       7
#     8   4   8   8   8   8   4
#     4   9  17  30  49  70  94 125 162 207 257 305
#     4  10  20  34  52  74 104 138 174 212 256 312
#     4   9  18  32  50  72 100 135 169 204 254 311
#     4  10  19  32  51  75 100 132 169 206 252 306
#     4   9  16  30  49  70  94 123 162 207 257 303
#     4   9  17  30  50  70  96 133 163 196 248 307
#     4  10  18  32  50  70 100 132 164 202 248 304
#
# _framework density 20.903563999999999
#
# number of rings (size 3 to 8) (size 9 to 14) (size 15 to 20)
#    0.000    2.667    0.000    4.000    0.000    0.000 
#    0.000   11.667    0.000   10.000    0.000    0.000 
#    0.000    0.000    0.000    0.000    0.000    0.000 
#
# Total GULP energy -267506.586826 kJ/mol
# GULP energy per Si atom -5573.053892 kJ/mol
# Density = 2.085599 g / cm^3
# Si number density = 20.903564 Si / 1000 Ang^3
#
#
#
# Elastic Constant Matrix: (Units=GPa)
#
#
# Indices 1 2 3 4 5 6 
#
# 1 92.8888 75.0512 9.4611 0.0000 0.0000 0.0000
# 2 75.0512 200.9052 9.5218 0.0000 0.0000 0.0000
# 3 9.4611 9.5218 29.5553 0.0000 0.0000 0.0000
# 4 0.0000 0.0000 0.0000 26.3302 0.0000 0.0000
# 5 0.0000 0.0000 0.0000 0.0000 27.8003 0.0000
# 6 0.0000 0.0000 0.0000 0.0000 0.0000 28.9871
#
#
#
# Elastic Compliance Matrix: (Units=1/GPa)
#
#
# Indices 1 2 3 4 5 6 
#
# 1 0.015710 -0.005718 -0.003187 0.000000 0.000000 0.000000
# 2 -0.005718 0.007136 -0.000469 0.000000 0.000000 0.000000
# 3 -0.003187 -0.000469 0.035006 0.000000 0.000000 0.000000
# 4 0.000000 0.000000 0.000000 0.037979 0.000000 0.000000
# 5 0.000000 0.000000 0.000000 0.000000 0.035971 0.000000
# 6 0.000000 0.000000 0.000000 0.000000 0.000000 0.034498
#
#
# Mechanical properties :
#
#
# Convention : Reuss Voigt Hill
#
# Bulk Modulus (GPa) = 25.57206 56.82418 41.19812
# Shear Modulus (GPa) = 25.24224 31.91121 28.57672
#
# Velocity S-wave (km/s) = 3.47876 3.91140 3.70141
# Velocity P-wave (km/s) = 5.32875 6.90230 6.16593
#
# Compressibility (1/GPa) = 0.03910518
#
# Stress axis : x y z
#
# Youngs Moduli (GPa) = 63.65455 140.14299 28.56654
#
# Poissons Ratio (x) = 0.80128 0.09104
# Poissons Ratio (y) = 0.36395 0.01339
# Poissons Ratio (z) = 0.20286 0.06567
#
# Static dielectric constant tensor:
#      x y z
#    x 1.808020 0.000000 0.000000 
#    y 0.000000 1.819340 0.000000 
#    z 0.000000 0.000000 1.869780 
# 
# From -- ./inp_files/11157.got.cif
#   From: 2010.05.17/outbox.cif.g08.bks.cpg/sg60_6_cif.got.tgz:11157.got - 2010.06.03 14:59:27.
