data_PCOD9453812
_publ_section_title
;
Structure prediction by ZEFSAII (Michael W. Deem and Ramdas Pophale) SiO2 
 PCOD9453812
Probable space group: P B C N
;
_chemical_formula_sum "Si O2"
_cell_formula_units_Z 64
_cell_length_a 9.814574
_cell_length_b 28.957024
_cell_length_c 14.146482
_cell_angle_alpha 90.000000
_cell_angle_beta 90.000000
_cell_angle_gamma 90.000000
_cell_volume 4020.442278
_symmetry_space_group_name_H-M "P B C N"
_symmetry_group_IT_number 60
_symmetry_cell_setting 'orthorhombic'
loop_
_space_group_symop_operation_xyz
x,y,z
1/2-x,1/2-y,1/2+z
1/2+x,1/2-y,-z
-x,y,1/2-z
-x,-y,-z
1/2+x,1/2+y,1/2-z
1/2-x,1/2+y,z
x,-y,1/2+z
loop_
_atom_site_type_symbol
_atom_site_label
_atom_site_fract_x
_atom_site_fract_y
_atom_site_fract_z
Si Si1 0.618398 0.434183 0.001323
Si Si2 0.320837 0.925240 0.160613
Si Si3 0.619639 0.086042 0.620862
Si Si4 0.563199 0.508762 0.855009
Si Si5 0.751214 0.182129 0.860610
Si Si6 0.988560 0.754916 0.862974
Si Si7 0.722581 0.187769 0.640430
Si Si8 0.017052 0.168896 0.985748
O O1 0.604662 0.460066 0.901604
O O2 0.772160 0.426320 0.039574
O O3 0.549996 0.467339 0.079166
O O4 0.535804 0.386010 0.000521
O O5 0.335288 0.929881 0.274289
O O6 0.466974 0.933395 0.110950
O O7 0.195687 0.958299 0.136607
O O8 0.291772 0.871660 0.137470
O O9 0.628538 0.141842 0.631165
O O10 0.500000 0.505801 0.750000
O O11 0.634032 0.219127 0.886796
O O12 0.772860 0.191489 0.748723
O O13 0.883482 0.183564 0.926754
O O14 0.000000 0.760417 0.750000
O O15 0.129491 0.730138 0.889716
O O16 0.975688 0.802646 0.917569
O O17 0.852583 0.182560 0.575865
#
# Coordination Sequence:
#
# PCOD9453812 Si02
#       8
#     8   8   8   8   8   8   8   8
#     4  10  22  34  51  78 104 133 175 211 255 313
#     4  10  17  30  55  76 101 134 161 215 268 300
#     4   9  17  31  52  79 102 127 168 209 262 311
#     4  11  21  36  53  76 105 133 168 220 262 301
#     4  10  18  31  51  78 103 130 165 213 261 295
#     4  10  20  34  49  73 107 139 170 206 248 302
#     4   9  18  31  50  77 105 129 164 216 252 295
#     4  11  20  32  52  76 103 136 174 204 253 307
#
# _framework density 15.918647999999999
#
# number of rings (size 3 to 8) (size 9 to 14) (size 15 to 20)
#    0.000    2.000    3.750    1.125    0.000    1.000 
#    0.000    0.000    0.000    0.000    0.000    0.000 
#    0.000    0.000    0.000    0.000    0.000    0.000 
#
# Total GULP energy -356405.161963 kJ/mol
# GULP energy per Si atom -5568.830656 kJ/mol
# Density = 1.588242 g / cm^3
# Si number density = 15.918648 Si / 1000 Ang^3
#
#
#
# Elastic Constant Matrix: (Units=GPa)
#
#
# Indices 1 2 3 4 5 6 
#
# 1 82.1383 23.7544 34.1186 0.0000 0.0000 0.0000
# 2 23.7544 63.0425 38.5387 0.0000 0.0000 0.0000
# 3 34.1186 38.5387 54.0654 0.0000 0.0000 0.0000
# 4 0.0000 0.0000 0.0000 27.6214 0.0000 0.0000
# 5 0.0000 0.0000 0.0000 0.0000 -19.5501 0.0000
# 6 0.0000 0.0000 0.0000 0.0000 0.0000 17.4187
#
#
#
# Elastic Compliance Matrix: (Units=1/GPa)
#
#
# Indices 1 2 3 4 5 6 
#
# 1 0.016502 0.000263 -0.010601 0.000000 0.000000 0.000000
# 2 0.000263 0.028117 -0.020208 0.000000 0.000000 0.000000
# 3 -0.010601 -0.020208 0.039590 0.000000 0.000000 0.000000
# 4 0.000000 0.000000 0.000000 0.036204 0.000000 0.000000
# 5 0.000000 0.000000 0.000000 0.000000 -0.051151 0.000000
# 6 0.000000 0.000000 0.000000 0.000000 0.000000 0.057410
#
#
# Mechanical properties :
#
#
# Convention : Reuss Voigt Hill
#
# Bulk Modulus (GPa) = 43.25852 43.56330 43.41091
# Shear Modulus (GPa) = 25.57942 11.95364 18.76653
#
# Velocity S-wave (km/s) = 4.01294 2.74327 3.43724
# Velocity P-wave (km/s) = 6.97892 6.12043 6.56373
#
# Compressibility (1/GPa) = 0.02311683
#
# Stress axis : x y z
#
# Youngs Moduli (GPa) = 60.59834 35.56614 25.25868
#
# Poissons Ratio (x) = -0.00934 0.26777
# Poissons Ratio (y) = -0.01591 0.51042
# Poissons Ratio (z) = 0.64240 0.71871
#
# Static dielectric constant tensor:
#      x y z
#    x 1.541470 0.000000 0.000000 
#    y 0.000000 1.527260 0.000000 
#    z 0.000000 0.000000 1.513730 
# 
# From -- ./inp_files/15459.got.cif
#   From: 2010.05.17/outbox.cif.g08.bks.cpg/sg60_8_cif.got.tgz:15459.got - 2010.06.03 14:59:27.
