data_PCOD9453678
_publ_section_title
;
Structure prediction by ZEFSAII (Michael W. Deem and Ramdas Pophale) SiO2 
 PCOD9453678
Probable space group: P M M N
;
_chemical_formula_sum "Si O2"
_cell_formula_units_Z 48
_cell_length_a 18.000000
_cell_length_b 9.000000
_cell_length_c 15.000000
_cell_angle_alpha 90.000000
_cell_angle_beta 90.000000
_cell_angle_gamma 90.000000
_cell_volume 2430.000000
_symmetry_space_group_name_H-M "P M M N"
_symmetry_group_IT_number 59
_space_group.IT_coordinate_system_code '2'
_symmetry_cell_setting 'orthorhombic'
loop_
_space_group_symop_operation_xyz
x,y,z
1/2-x,1/2-y,z
1/2+x,-y,-z
-x,1/2+y,-z
-x,-y,-z
1/2+x,1/2+y,-z
1/2-x,y,z
x,1/2-y,z
loop_
_atom_site_type_symbol
_atom_site_label
_atom_site_fract_x
_atom_site_fract_y
_atom_site_fract_z
Si Si1 0.069729 0.577684 0.745963
Si Si2 0.835058 0.574439 0.606942
Si Si3 0.074694 0.925456 0.536972
Si Si4 0.660720 0.078045 0.949316
Si Si5 0.080325 0.574451 0.232328
Si Si6 0.838430 0.915145 0.122844
O O1 0.051100 0.750000 0.757486
O O2 0.079967 0.548537 0.641782
O O3 0.140751 0.531260 0.801633
O O4 0.003257 0.476969 0.781551
O O5 0.750000 0.544586 0.631291
O O6 0.846121 0.750000 0.598384
O O7 0.857035 0.496025 0.515496
O O8 0.888179 0.510805 0.682614
O O9 0.071192 0.750000 0.520341
O O10 0.000000 0.000000 0.500000
O O11 0.750000 0.069724 0.944837
O O12 0.640976 0.250000 0.968018
O O13 0.627794 0.036260 0.854394
O O14 0.632661 0.974299 0.028382
O O15 0.085397 0.750000 0.248100
O O16 0.750000 0.908550 0.115377
O O17 0.866095 0.750000 0.143576
#
# Coordination Sequence:
#
# PCOD9453678 Si02
#       6
#     8   8   8   8   8   8
#     4  11  24  40  61  88 119 157 198 244 300 359
#     4  11  24  40  60  89 124 160 200 247 298 355
#     4  11  23  40  63  87 117 157 200 247 299 356
#     4   9  19  37  60  86 118 156 197 243 298 355
#     4  11  22  37  61  90 121 158 199 247 299 355
#     4  10  22  40  62  88 117 153 199 248 298 353
#
# _framework density 19.753086
#
# number of rings (size 3 to 8) (size 9 to 14) (size 15 to 20)
#    0.000    1.500    1.667    3.000    0.000    7.667 
#    0.000    5.000    0.000    0.000    0.000    0.000 
#    0.000    0.000    0.000    0.000    0.000    0.000 
#
# Total GULP energy -268050.688039 kJ/mol
# GULP energy per Si atom -5584.389334 kJ/mol
# Density = 1.970813 g / cm^3
# Si number density = 19.753086 Si / 1000 Ang^3
#
#
#
# Elastic Constant Matrix: (Units=GPa)
#
#
# Indices 1 2 3 4 5 6 
#
# 1 15.8947 20.5746 25.0609 0.0000 0.0000 0.0000
# 2 20.5746 -11.0839 30.1946 0.0000 0.0000 0.0000
# 3 25.0609 30.1946 24.3750 0.0000 0.0000 0.0000
# 4 0.0000 0.0000 0.0000 26.8196 0.0000 0.0000
# 5 0.0000 0.0000 0.0000 0.0000 30.2925 0.0000
# 6 0.0000 0.0000 0.0000 0.0000 0.0000 21.8466
#
#
#
# Elastic Compliance Matrix: (Units=1/GPa)
#
#
# Indices 1 2 3 4 5 6 
#
# 1 -0.131395 0.028371 0.099947 0.000000 0.000000 0.000000
# 2 0.028371 -0.026750 0.003967 0.000000 0.000000 0.000000
# 3 0.099947 0.003967 -0.066648 0.000000 0.000000 0.000000
# 4 0.000000 0.000000 0.000000 0.037286 0.000000 0.000000
# 5 0.000000 0.000000 0.000000 0.000000 0.033011 0.000000
# 6 0.000000 0.000000 0.000000 0.000000 0.000000 0.045774
#
#
# Mechanical properties :
#
#
# Convention : Reuss Voigt Hill
#
# Bulk Modulus (GPa) = 25.13958 20.09402 22.61680
# Shear Modulus (GPa) = -13.88762 12.68212 -0.60275
#
# Velocity S-wave (km/s) = -2.65441 2.53658 -0.55299
# Velocity P-wave (km/s) = 1.83304 4.33286 3.32669
#
# Compressibility (1/GPa) = 0.03977791
#
# Stress axis : x y z
#
# Youngs Moduli (GPa) = -7.61063 -37.38345 -15.00423
#
# Poissons Ratio (x) = 1.06061 1.49963
# Poissons Ratio (y) = 0.21592 0.05952
# Poissons Ratio (z) = 0.76066 0.14830
#
# Static dielectric constant tensor:
#      x y z
#    x 1.714380 0.000000 0.000000 
#    y 0.000000 1.669210 0.000000 
#    z 0.000000 0.000000 1.663010 
# 
# From -- ./inp_files/20403.got.cif
#   From: 2010.05.17/outbox.ucp.g08.bks.cvg/sg59_11_cif.got.tgz:20403.got - 2010.06.11 16:43:56.
