data_PCOD9453453
_publ_section_title
;
Structure prediction by ZEFSAII (Michael W. Deem and Ramdas Pophale) SiO2 
 PCOD9453453
Probable space group: P M M N
;
_chemical_formula_sum "Si O2"
_cell_formula_units_Z 64
_cell_length_a 15.000000
_cell_length_b 18.000000
_cell_length_c 12.000000
_cell_angle_alpha 90.000000
_cell_angle_beta 90.000000
_cell_angle_gamma 90.000000
_cell_volume 3240.000000
_symmetry_space_group_name_H-M "P M M N"
_symmetry_group_IT_number 59
_space_group.IT_coordinate_system_code '2'
_symmetry_cell_setting 'orthorhombic'
loop_
_space_group_symop_operation_xyz
x,y,z
1/2-x,1/2-y,z
1/2+x,-y,-z
-x,1/2+y,-z
-x,-y,-z
1/2+x,1/2+y,-z
1/2-x,y,z
x,1/2-y,z
loop_
_atom_site_type_symbol
_atom_site_label
_atom_site_fract_x
_atom_site_fract_y
_atom_site_fract_z
Si Si1 0.854416 0.838592 0.922792
Si Si2 0.949282 0.164398 0.599075
Si Si3 0.078893 0.053769 0.540229
Si Si4 0.649442 0.419055 0.775592
Si Si5 0.352780 0.089093 0.305425
Si Si6 0.985057 0.413468 0.975429
Si Si7 0.149783 0.902273 0.605079
Si Si8 0.145281 0.838314 0.847505
O O1 0.750000 0.861663 0.934416
O O2 0.858263 0.750000 0.926395
O O3 0.889172 0.867055 0.801579
O O4 0.919157 0.874043 0.014379
O O5 0.969589 0.250000 0.608252
O O6 0.869283 0.139506 0.678850
O O7 0.916178 0.141170 0.476533
O O8 0.035119 0.112719 0.623003
O O9 0.110881 0.096148 0.429727
O O10 0.144550 0.991539 0.588577
O O11 0.000000 0.000000 0.500000
O O12 0.750000 0.412179 0.821215
O O13 0.641423 0.501633 0.724095
O O14 0.570978 0.407982 0.862899
O O15 0.250000 0.111282 0.310951
O O16 0.920854 0.374172 0.064614
O O17 0.000000 0.500000 0.000000
O O18 0.250000 0.877999 0.578355
O O19 0.130064 0.879161 0.730508
O O20 0.250000 0.848491 0.877620
O O21 0.129827 0.750000 0.836912
#
# Coordination Sequence:
#
# PCOD9453453 Si02
#       8
#     8   8   8   8   8   8   8   8
#     4  10  23  42  64  92 123 158 209 266 318 371
#     4  11  24  37  57  90 127 165 204 249 307 365
#     4  10  20  33  57  87 126 156 202 247 296 362
#     4  11  23  41  63  91 125 164 211 259 308 372
#     4  10  19  37  63  91 122 160 204 255 310 365
#     4  12  25  38  66  92 124 162 207 256 314 371
#     4  10  20  37  63  90 119 160 202 247 304 366
#     4  10  23  41  61  93 131 161 200 256 319 378
#
# _framework density 19.753086
#
# number of rings (size 3 to 8) (size 9 to 14) (size 15 to 20)
#    0.000    1.500    3.750    1.875    5.250    3.500 
#    0.000    0.000    0.000    1.125    0.000    0.000 
#    0.000    0.000    0.000    0.000    0.000    0.000 
#
# Total GULP energy -356980.602633 kJ/mol
# GULP energy per Si atom -5577.821916 kJ/mol
# Density = 1.970813 g / cm^3
# Si number density = 19.753086 Si / 1000 Ang^3
#
#
#
# Elastic Constant Matrix: (Units=GPa)
#
#
# Indices 1 2 3 4 5 6 
#
# 1 59.5912 7.9949 34.4775 0.0000 0.0000 0.0000
# 2 7.9949 66.2556 7.6820 0.0000 0.0000 0.0000
# 3 34.4775 7.6820 43.6401 0.0000 0.0000 0.0000
# 4 0.0000 0.0000 0.0000 24.6781 0.0000 0.0000
# 5 0.0000 0.0000 0.0000 0.0000 14.1820 0.0000
# 6 0.0000 0.0000 0.0000 0.0000 0.0000 26.2753
#
#
#
# Elastic Compliance Matrix: (Units=1/GPa)
#
#
# Indices 1 2 3 4 5 6 
#
# 1 0.030964 -0.000919 -0.024301 0.000000 0.000000 0.000000
# 2 -0.000919 0.015435 -0.001991 0.000000 0.000000 0.000000
# 3 -0.024301 -0.001991 0.042464 0.000000 0.000000 0.000000
# 4 0.000000 0.000000 0.000000 0.040522 0.000000 0.000000
# 5 0.000000 0.000000 0.000000 0.000000 0.070512 0.000000
# 6 0.000000 0.000000 0.000000 0.000000 0.000000 0.038059
#
#
# Mechanical properties :
#
#
# Convention : Reuss Voigt Hill
#
# Bulk Modulus (GPa) = 29.03530 29.97731 29.50631
# Shear Modulus (GPa) = 16.45506 20.98259 18.71882
#
# Velocity S-wave (km/s) = 2.88937 3.26274 3.08172
# Velocity P-wave (km/s) = 5.08550 5.42245 5.25668
#
# Compressibility (1/GPa) = 0.03444084
#
# Stress axis : x y z
#
# Youngs Moduli (GPa) = 32.29536 64.78874 23.54922
#
# Poissons Ratio (x) = 0.05952 0.57228
# Poissons Ratio (y) = 0.02967 0.04689
# Poissons Ratio (z) = 0.78482 0.12900
#
# Static dielectric constant tensor:
#      x y z
#    x 1.686930 0.000000 0.000000 
#    y 0.000000 1.668510 0.000000 
#    z 0.000000 0.000000 1.556340 
# 
# From -- ./inp_files/17199.got.cif
#   From: 2010.05.17/outbox.ucp.g08.bks.cvg/sg59_9_cif.got.tgz:17199.got - 2010.06.11 16:43:56.
