data_PCOD9453163
_publ_section_title
;
Structure prediction by ZEFSAII (Michael W. Deem and Ramdas Pophale) SiO2 
 PCOD9453163
Probable space group: P M M N
;
_chemical_formula_sum "Si O2"
_cell_formula_units_Z 34
_cell_length_a 20.357613
_cell_length_b 10.073675
_cell_length_c 7.524423
_cell_angle_alpha 90.000000
_cell_angle_beta 90.000000
_cell_angle_gamma 90.000000
_cell_volume 1543.078399
_symmetry_space_group_name_H-M "P M M N"
_symmetry_group_IT_number 59
_space_group.IT_coordinate_system_code '2'
_symmetry_cell_setting 'orthorhombic'
loop_
_space_group_symop_operation_xyz
x,y,z
1/2-x,1/2-y,z
1/2+x,-y,-z
-x,1/2+y,-z
-x,-y,-z
1/2+x,1/2+y,-z
1/2-x,y,z
x,1/2-y,z
loop_
_atom_site_type_symbol
_atom_site_label
_atom_site_fract_x
_atom_site_fract_y
_atom_site_fract_z
Si Si1 0.250000 0.750000 0.420795
Si Si2 0.363347 0.951910 0.524865
Si Si3 0.400349 0.982554 0.893958
Si Si4 0.967259 0.397726 0.761846
Si Si5 0.328201 0.250000 0.014193
Si Si6 0.172679 0.250000 0.440377
O O1 0.307248 0.867108 0.429540
O O2 0.430803 0.923321 0.421933
O O3 0.362792 0.912971 0.732563
O O4 0.354372 0.111206 0.514113
O O5 0.472712 0.007764 0.811465
O O6 0.362995 0.119009 0.938902
O O7 0.413599 0.911127 0.080250
O O8 0.994730 0.250000 0.762699
O O9 0.250000 0.250000 0.976600
O O10 0.337427 0.250000 0.227535
O O11 0.250000 0.250000 0.476883
#
# Coordination Sequence:
#
# PCOD9453163 Si02
#       6
#     2   8   8   8   4   4
#     4  12  28  44  70 104 142 178 234 274 344 422
#     4  12  25  46  69 101 139 184 227 280 343 405
#     4  11  25  44  69 100 134 180 228 289 336 410
#     4  11  24  45  68  99 139 180 230 286 344 402
#     4  11  23  42  69 103 131 174 236 274 347 403
#     4  11  23  43  71  97 138 184 223 280 333 409
#
# _framework density 22.033875999999999
#
# number of rings (size 3 to 8) (size 9 to 14) (size 15 to 20)
#    0.000    0.706    5.882    1.412    3.294    0.941 
#    0.000    1.176    0.000    0.000    0.000    0.000 
#    0.000    0.000    0.000    0.000    0.000    0.000 
#
# Total GULP energy -189564.699910 kJ/mol
# GULP energy per Si atom -5575.432350 kJ/mol
# Density = 2.198373 g / cm^3
# Si number density = 22.033876 Si / 1000 Ang^3
#
#
#
# Elastic Constant Matrix: (Units=GPa)
#
#
# Indices 1 2 3 4 5 6 
#
# 1 64.1362 3.3589 7.9938 0.0000 0.0000 0.0000
# 2 3.3589 94.1980 2.1492 0.0000 0.0000 0.0000
# 3 7.9938 2.1492 94.5037 0.0000 0.0000 0.0000
# 4 0.0000 0.0000 0.0000 -3.1916 0.0000 0.0000
# 5 0.0000 0.0000 0.0000 0.0000 -9.7043 0.0000
# 6 0.0000 0.0000 0.0000 0.0000 0.0000 64.9863
#
#
#
# Elastic Compliance Matrix: (Units=1/GPa)
#
#
# Indices 1 2 3 4 5 6 
#
# 1 0.015785 -0.000533 -0.001323 0.000000 0.000000 0.000000
# 2 -0.000533 0.010639 -0.000197 0.000000 0.000000 0.000000
# 3 -0.001323 -0.000197 0.010698 0.000000 0.000000 0.000000
# 4 0.000000 0.000000 0.000000 -0.313325 0.000000 0.000000
# 5 0.000000 0.000000 0.000000 0.000000 -0.103047 0.000000
# 6 0.000000 0.000000 0.000000 0.000000 0.000000 0.015388
#
#
# Mechanical properties :
#
#
# Convention : Reuss Voigt Hill
#
# Bulk Modulus (GPa) = 30.28765 31.09354 30.69059
# Shear Modulus (GPa) = -14.33687 26.37381 6.01847
#
# Velocity S-wave (km/s) = -2.55360 3.46347 1.65451
# Velocity P-wave (km/s) = 2.25417 5.48968 4.19630
#
# Compressibility (1/GPa) = 0.03301676
#
# Stress axis : x y z
#
# Youngs Moduli (GPa) = 63.35287 93.99008 93.47556
#
# Poissons Ratio (x) = 0.05007 0.12367
# Poissons Ratio (y) = 0.03375 0.01841
# Poissons Ratio (z) = 0.08382 0.01851
#
# Static dielectric constant tensor:
#      x y z
#    x 1.793530 0.000000 0.000000 
#    y 0.000000 1.914020 0.000000 
#    z 0.000000 0.000000 1.844520 
# 
# From -- ./inp_files/10995.got.cif
#   From: 2010.05.17/outbox.cif.g08.bks.cpg/sg59_6_cif.got.tgz:10995.got - 2010.06.03 14:40:33.
