data_PCOD9453749
_publ_section_title
;
Structure prediction by ZEFSAII (Michael W. Deem and Ramdas Pophale) SiO2 
 PCOD9453749
Probable space group: P B C N
;
_chemical_formula_sum "Si O2"
_cell_formula_units_Z 64
_cell_length_a 13.548874
_cell_length_b 12.224730
_cell_length_c 17.606032
_cell_angle_alpha 90.000000
_cell_angle_beta 90.000000
_cell_angle_gamma 90.000000
_cell_volume 2916.110434
_symmetry_space_group_name_H-M "P B C N"
_symmetry_group_IT_number 60
_symmetry_cell_setting 'orthorhombic'
loop_
_space_group_symop_operation_xyz
x,y,z
1/2-x,1/2-y,1/2+z
1/2+x,1/2-y,-z
-x,y,1/2-z
-x,-y,-z
1/2+x,1/2+y,1/2-z
1/2-x,1/2+y,z
x,-y,1/2+z
loop_
_atom_site_type_symbol
_atom_site_label
_atom_site_fract_x
_atom_site_fract_y
_atom_site_fract_z
Si Si1 0.213331 0.843110 0.182914
Si Si2 0.654768 0.945786 0.596837
Si Si3 0.520312 0.842370 0.090431
Si Si4 0.673883 0.036623 0.932841
Si Si5 0.858960 0.772485 0.704255
Si Si6 0.850039 0.293895 0.957407
Si Si7 0.840048 0.020161 0.680593
Si Si8 0.685711 0.712342 0.582013
O O1 0.256017 0.946460 0.137477
O O2 0.301832 0.770291 0.220710
O O3 0.156990 0.778466 0.117143
O O4 0.150645 0.895527 0.250349
O O5 0.717039 0.950589 0.517719
O O6 0.620094 0.820441 0.596952
O O7 0.573775 0.038963 0.588753
O O8 0.725472 0.983484 0.664824
O O9 0.408149 0.869826 0.075075
O O10 0.546051 0.790601 0.171485
O O11 0.568785 0.771088 0.022574
O O12 0.629630 0.916672 0.930357
O O13 0.776694 0.739318 0.640057
O O14 0.884019 0.901319 0.698481
O O15 0.743621 0.294742 0.001819
O O16 0.862753 0.098262 0.608118
#
# Coordination Sequence:
#
# PCOD9453749 Si02
#       8
#     8   8   8   8   8   8   8   8
#     4  11  20  33  53  90 116 148 199 250 293 337
#     4  10  16  32  51  79 115 145 189 232 292 355
#     4  10  20  36  55  84 118 157 187 239 313 358
#     4  11  21  32  58  88 115 151 192 251 307 346
#     4   9  19  34  50  78 117 153 192 236 293 359
#     4  10  18  32  51  86 119 141 191 250 288 337
#     4  10  18  34  56  80 115 153 193 244 292 349
#     4   9  16  29  54  77 107 147 191 235 291 338
#
# _framework density 21.947042
#
# number of rings (size 3 to 8) (size 9 to 14) (size 15 to 20)
#    0.000    2.000    6.250    2.250    0.000    0.500 
#    0.000    0.000    0.000    0.750   13.000    0.000 
#    0.000    0.000    0.000    0.000    0.000    0.000 
#
# Total GULP energy -356346.166827 kJ/mol
# GULP energy per Si atom -5567.908857 kJ/mol
# Density = 2.189709 g / cm^3
# Si number density = 21.947042 Si / 1000 Ang^3
#
#
#
# Elastic Constant Matrix: (Units=GPa)
#
#
# Indices 1 2 3 4 5 6 
#
# 1 16.5524 1.2971 20.5379 0.0000 0.0000 0.0000
# 2 1.2971 126.2011 30.6611 0.0000 0.0000 0.0000
# 3 20.5379 30.6611 94.9691 0.0000 0.0000 0.0000
# 4 0.0000 0.0000 0.0000 38.8476 0.0000 0.0000
# 5 0.0000 0.0000 0.0000 0.0000 18.0704 0.0000
# 6 0.0000 0.0000 0.0000 0.0000 0.0000 10.5870
#
#
#
# Elastic Compliance Matrix: (Units=1/GPa)
#
#
# Indices 1 2 3 4 5 6 
#
# 1 0.084272 0.003865 -0.019472 0.000000 0.000000 0.000000
# 2 0.003865 0.008776 -0.003669 0.000000 0.000000 0.000000
# 3 -0.019472 -0.003669 0.015925 0.000000 0.000000 0.000000
# 4 0.000000 0.000000 0.000000 0.025742 0.000000 0.000000
# 5 0.000000 0.000000 0.000000 0.000000 0.055339 0.000000
# 6 0.000000 0.000000 0.000000 0.000000 0.000000 0.094456
#
#
# Mechanical properties :
#
#
# Convention : Reuss Voigt Hill
#
# Bulk Modulus (GPa) = 14.20055 38.07941 26.13998
# Shear Modulus (GPa) = 14.42852 25.84941 20.13897
#
# Velocity S-wave (km/s) = 2.56681 3.43564 3.03250
# Velocity P-wave (km/s) = 3.90757 5.75556 4.91912
#
# Compressibility (1/GPa) = 0.07041981
#
# Stress axis : x y z
#
# Youngs Moduli (GPa) = 11.86633 113.95315 62.79303
#
# Poissons Ratio (x) = -0.44040 1.22272
# Poissons Ratio (y) = -0.04586 0.23039
# Poissons Ratio (z) = 0.23106 0.41809
#
# Static dielectric constant tensor:
#      x y z
#    x 1.858880 0.000000 0.000000 
#    y 0.000000 1.868480 0.000000 
#    z 0.000000 0.000000 1.845440 
# 
# From -- ./inp_files/20973.got.cif
#   From: 2010.05.17/outbox.cif.g08.bks.cpg/sg60_11_cif.got.tgz:20973.got - 2010.06.03 14:59:27.
