data_PCOD9453268
_publ_section_title
;
Structure prediction by ZEFSAII (Michael W. Deem and Ramdas Pophale) SiO2 
 PCOD9453268
Probable space group: P M M N
;
_chemical_formula_sum "Si O2"
_cell_formula_units_Z 40
_cell_length_a 7.371865
_cell_length_b 13.469016
_cell_length_c 15.996887
_cell_angle_alpha 90.000000
_cell_angle_beta 90.000000
_cell_angle_gamma 90.000000
_cell_volume 1588.359187
_symmetry_space_group_name_H-M "P M M N"
_symmetry_group_IT_number 59
_space_group.IT_coordinate_system_code '2'
_symmetry_cell_setting 'orthorhombic'
loop_
_space_group_symop_operation_xyz
x,y,z
1/2-x,1/2-y,z
1/2+x,-y,-z
-x,1/2+y,-z
-x,-y,-z
1/2+x,1/2+y,-z
1/2-x,y,z
x,1/2-y,z
loop_
_atom_site_type_symbol
_atom_site_label
_atom_site_fract_x
_atom_site_fract_y
_atom_site_fract_z
Si Si1 0.538225 0.585032 0.800403
Si Si2 0.465190 0.114181 0.018789
Si Si3 0.038002 0.076809 0.378953
Si Si4 0.530125 0.860122 0.438757
Si Si5 0.029780 0.144739 0.834172
O O1 0.750000 0.613067 0.799713
O O2 0.462228 0.629332 0.887249
O O3 0.459633 0.610905 0.709784
O O4 0.531787 0.464084 0.805516
O O5 0.250000 0.134869 0.022099
O O6 0.530914 0.154909 0.930724
O O7 0.500000 0.000000 0.000000
O O8 0.250000 0.103675 0.378076
O O9 0.026104 0.956932 0.386971
O O10 0.965630 0.120275 0.465826
O O11 0.750000 0.861590 0.438017
O O12 0.472847 0.750000 0.412065
O O13 0.250000 0.139948 0.831599
O O14 0.978058 0.250000 0.791869
#
# Coordination Sequence:
#
# PCOD9453268 Si02
#       5
#     8   8   8   8   8
#     4   9  17  29  45  64  86 113 145 180 218 260
#     4   8  14  26  42  58  79 109 141 170 203 245
#     4   9  18  32  49  70  94 119 150 188 230 275
#     4   9  18  33  51  69  91 120 152 186 227 276
#     4   9  17  28  42  62  88 116 146 180 217 257
#
# _framework density 25.183221
#
# number of rings (size 3 to 8) (size 9 to 14) (size 15 to 20)
#    0.000    3.200    0.000    0.000    0.000    2.400 
#    0.000    5.000    0.000    6.000    0.000    0.000 
#    0.000   14.400    0.000    0.000    0.000    0.000 
#
# Total GULP energy -222923.310856 kJ/mol
# GULP energy per Si atom -5573.082771 kJ/mol
# Density = 2.512590 g / cm^3
# Si number density = 25.183221 Si / 1000 Ang^3
#
#
#
# Elastic Constant Matrix: (Units=GPa)
#
#
# Indices 1 2 3 4 5 6 
#
# 1 95.5353 -11.9727 2.3758 0.0000 0.0000 0.0000
# 2 -11.9727 85.8258 -16.4321 0.0000 0.0000 0.0000
# 3 2.3758 -16.4321 171.7350 0.0000 0.0000 0.0000
# 4 0.0000 0.0000 0.0000 -11.5944 0.0000 0.0000
# 5 0.0000 0.0000 0.0000 0.0000 4.0545 0.0000
# 6 0.0000 0.0000 0.0000 0.0000 0.0000 -16.8755
#
#
#
# Elastic Compliance Matrix: (Units=1/GPa)
#
#
# Indices 1 2 3 4 5 6 
#
# 1 0.010654 0.001485 -0.000005 0.000000 0.000000 0.000000
# 2 0.001485 0.012076 0.001135 0.000000 0.000000 0.000000
# 3 -0.000005 0.001135 0.005932 0.000000 0.000000 0.000000
# 4 0.000000 0.000000 0.000000 -0.086249 0.000000 0.000000
# 5 0.000000 0.000000 0.000000 0.000000 0.246643 0.000000
# 6 0.000000 0.000000 0.000000 0.000000 0.000000 -0.059257
#
#
# Mechanical properties :
#
#
# Convention : Reuss Voigt Hill
#
# Bulk Modulus (GPa) = 29.50658 33.44869 31.47764
# Shear Modulus (GPa) = 36.80125 20.39192 28.59658
#
# Velocity S-wave (km/s) = 3.82689 2.84868 3.37343
# Velocity P-wave (km/s) = 5.59187 4.91233 5.26308
#
# Compressibility (1/GPa) = 0.03389075
#
# Stress axis : x y z
#
# Youngs Moduli (GPa) = 93.86510 82.80906 168.58891
#
# Poissons Ratio (x) = -0.12298 0.00089
# Poissons Ratio (y) = -0.13940 -0.19133
# Poissons Ratio (z) = 0.00050 -0.09398
#
# Static dielectric constant tensor:
#      x y z
#    x 1.973590 0.000000 0.000000 
#    y 0.000000 1.950090 0.000000 
#    z 0.000000 0.000000 2.024870 
# 
# From -- ./inp_files/22165.got.cif
#   From: 2010.05.17/outbox.cif.g08.bks.cpg/sg59_12_cif.got.tgz:22165.got - 2010.06.03 14:40:33.
