data_PCOD9453679
_publ_section_title
;
Structure prediction by ZEFSAII (Michael W. Deem and Ramdas Pophale) SiO2 
 PCOD9453679
Probable space group: P M M N
;
_chemical_formula_sum "Si O2"
_cell_formula_units_Z 48
_cell_length_a 18.000000
_cell_length_b 15.000000
_cell_length_c 9.000000
_cell_angle_alpha 90.000000
_cell_angle_beta 90.000000
_cell_angle_gamma 90.000000
_cell_volume 2430.000000
_symmetry_space_group_name_H-M "P M M N"
_symmetry_group_IT_number 59
_space_group.IT_coordinate_system_code '2'
_symmetry_cell_setting 'orthorhombic'
loop_
_space_group_symop_operation_xyz
x,y,z
1/2-x,1/2-y,z
1/2+x,-y,-z
-x,1/2+y,-z
-x,-y,-z
1/2+x,1/2+y,-z
1/2-x,y,z
x,1/2-y,z
loop_
_atom_site_type_symbol
_atom_site_label
_atom_site_fract_x
_atom_site_fract_y
_atom_site_fract_z
Si Si1 0.468274 0.414259 0.589160
Si Si2 0.930697 0.492340 0.112613
Si Si3 0.334358 0.642945 0.712540
Si Si4 0.123306 0.848817 0.383807
Si Si5 0.662846 0.997795 0.839653
Si Si6 0.335494 0.353781 0.394290
O O1 0.500000 0.500000 0.500000
O O2 0.450359 0.442397 0.755260
O O3 0.535893 0.346262 0.583842
O O4 0.393230 0.377823 0.520499
O O5 0.900628 0.402821 0.194796
O O6 0.862903 0.514650 0.005916
O O7 0.000000 0.500000 0.000000
O O8 0.250000 0.620327 0.763470
O O9 0.341902 0.750000 0.718088
O O10 0.340798 0.616853 0.537850
O O11 0.152443 0.750000 0.351764
O O12 0.133007 0.915619 0.247009
O O13 0.750000 0.005676 0.833299
O O14 0.639589 0.912463 0.744841
O O15 0.250000 0.376837 0.432369
O O16 0.338140 0.250000 0.359625
#
# Coordination Sequence:
#
# PCOD9453679 Si02
#       6
#     8   8   8   8   8   8
#     4  12  21  41  65  90 120 161 212 263 309 364
#     4  12  23  40  61  87 129 169 208 249 315 380
#     4  10  22  40  63  92 124 163 214 267 315 371
#     4  11  22  39  66  96 126 164 209 259 314 374
#     4  11  23  40  63  93 128 165 203 251 311 380
#     4  10  22  42  67  92 121 163 212 260 310 367
#
# _framework density 19.753086
#
# number of rings (size 3 to 8) (size 9 to 14) (size 15 to 20)
#    0.000    1.000    5.000    1.500    0.000    4.333 
#    0.000    1.667    0.000    2.000    0.000    0.000 
#    0.000    0.000    0.000    0.000    0.000    0.000 
#
# Total GULP energy -267645.452298 kJ/mol
# GULP energy per Si atom -5575.946923 kJ/mol
# Density = 1.970813 g / cm^3
# Si number density = 19.753086 Si / 1000 Ang^3
#
#
#
# Elastic Constant Matrix: (Units=GPa)
#
#
# Indices 1 2 3 4 5 6 
#
# 1 34.1305 36.1778 31.5758 0.0000 0.0000 0.0000
# 2 36.1778 62.6762 31.3780 0.0000 0.0000 0.0000
# 3 31.5758 31.3780 99.6174 0.0000 0.0000 0.0000
# 4 0.0000 0.0000 0.0000 -6.4474 0.0000 0.0000
# 5 0.0000 0.0000 0.0000 0.0000 41.5024 0.0000
# 6 0.0000 0.0000 0.0000 0.0000 0.0000 26.7103
#
#
#
# Elastic Compliance Matrix: (Units=1/GPa)
#
#
# Indices 1 2 3 4 5 6 
#
# 1 0.090190 -0.044814 -0.014472 0.000000 0.000000 0.000000
# 2 -0.044814 0.041209 0.001224 0.000000 0.000000 0.000000
# 3 -0.014472 0.001224 0.014240 0.000000 0.000000 0.000000
# 4 0.000000 0.000000 0.000000 -0.155100 0.000000 0.000000
# 5 0.000000 0.000000 0.000000 0.000000 0.024095 0.000000
# 6 0.000000 0.000000 0.000000 0.000000 0.000000 0.037439
#
#
# Mechanical properties :
#
#
# Convention : Reuss Voigt Hill
#
# Bulk Modulus (GPa) = 33.87955 43.85415 38.86685
# Shear Modulus (GPa) = 28.08450 18.83924 23.46187
#
# Velocity S-wave (km/s) = 3.77474 3.09161 3.45012
# Velocity P-wave (km/s) = 6.01556 5.91553 5.96575
#
# Compressibility (1/GPa) = 0.02951633
#
# Stress axis : x y z
#
# Youngs Moduli (GPa) = 11.08773 24.26630 70.22531
#
# Poissons Ratio (x) = 1.08747 1.01629
# Poissons Ratio (y) = 0.49688 -0.08598
# Poissons Ratio (z) = 0.16046 -0.02971
#
# Static dielectric constant tensor:
#      x y z
#    x 1.757280 0.000000 0.000000 
#    y 0.000000 1.715300 0.000000 
#    z 0.000000 0.000000 1.747690 
# 
# From -- ./inp_files/9007.got.cif
#   From: 2010.05.17/outbox.ucp.g08.bks.cvg/sg59_5_cif.got.tgz:9007.got - 2010.06.11 16:43:56.
