data_PCOD9453019
_publ_section_title
;
Structure prediction by ZEFSAII (Michael W. Deem and Ramdas Pophale) SiO2 
 PCOD9453019
Probable space group: P M M N
;
_chemical_formula_sum "Si O2"
_cell_formula_units_Z 64
_cell_length_a 8.595450
_cell_length_b 20.577449
_cell_length_c 20.695859
_cell_angle_alpha 90.000000
_cell_angle_beta 90.000000
_cell_angle_gamma 90.000000
_cell_volume 3660.526955
_symmetry_space_group_name_H-M "P M M N"
_symmetry_group_IT_number 59
_space_group.IT_coordinate_system_code '2'
_symmetry_cell_setting 'orthorhombic'
loop_
_space_group_symop_operation_xyz
x,y,z
1/2-x,1/2-y,z
1/2+x,-y,-z
-x,1/2+y,-z
-x,-y,-z
1/2+x,1/2+y,-z
1/2-x,y,z
x,1/2-y,z
loop_
_atom_site_type_symbol
_atom_site_label
_atom_site_fract_x
_atom_site_fract_y
_atom_site_fract_z
Si Si1 0.561756 0.583023 0.331319
Si Si2 0.436401 0.568599 0.974145
Si Si3 0.062048 0.961304 0.832052
Si Si4 0.560892 0.065404 0.310953
Si Si5 0.938122 0.324366 0.409508
Si Si6 0.936142 0.676344 0.070682
Si Si7 0.435008 0.604624 0.191815
Si Si8 0.937784 0.675153 0.448099
O O1 0.750000 0.584086 0.328764
O O2 0.513397 0.507074 0.333602
O O3 0.499100 0.611925 0.264282
O O4 0.510983 0.625293 0.392662
O O5 0.250000 0.567670 0.978633
O O6 0.480584 0.573945 0.898494
O O7 0.500000 0.500000 0.000000
O O8 0.500454 0.626032 0.018142
O O9 0.250000 0.968425 0.831038
O O10 0.015215 0.928309 0.764348
O O11 0.990823 0.033345 0.831520
O O12 0.750000 0.066527 0.312682
O O13 0.505866 0.122881 0.357445
O O14 0.750000 0.325172 0.409504
O O15 0.987704 0.250000 0.395158
O O16 0.995623 0.340788 0.481423
O O17 0.750000 0.672294 0.071578
O O18 0.983343 0.750000 0.055736
O O19 0.998171 0.655492 0.140821
O O20 0.250000 0.607176 0.192009
O O21 0.750000 0.672733 0.451363
O O22 0.982083 0.750000 0.432891
#
# Coordination Sequence:
#
# PCOD9453019 Si02
#       8
#     8   8   8   8   8   8   8   8
#     4   9  18  33  51  70  99 136 170 207 252 309
#     4  11  21  34  58  85 109 141 181 225 270 322
#     4   9  18  34  55  77 104 137 173 211 258 317
#     4   8  15  30  50  72  98 130 167 206 249 302
#     4   9  17  30  49  71  96 128 166 209 256 303
#     4  11  24  40  56  76 108 148 185 223 270 322
#     4  11  21  33  53  79 106 135 170 217 265 315
#     4   9  18  32  49  69  94 128 169 207 249 308
#
# _framework density 17.483822
#
# number of rings (size 3 to 8) (size 9 to 14) (size 15 to 20)
#    0.000    2.375    1.250    2.625    0.000    3.000 
#    0.000    4.375    0.000    2.250    0.000    1.750 
#    0.000    0.000    0.000    0.000    0.000    0.000 
#
# Total GULP energy -356982.835761 kJ/mol
# GULP energy per Si atom -5577.856809 kJ/mol
# Density = 1.744403 g / cm^3
# Si number density = 17.483822 Si / 1000 Ang^3
#
#
#
# Elastic Constant Matrix: (Units=GPa)
#
#
# Indices 1 2 3 4 5 6 
#
# 1 20.2523 29.7914 32.6562 0.0000 0.0000 0.0000
# 2 29.7914 127.4877 113.4227 0.0000 0.0000 0.0000
# 3 32.6562 113.4227 163.0153 0.0000 0.0000 0.0000
# 4 0.0000 0.0000 0.0000 31.6676 0.0000 0.0000
# 5 0.0000 0.0000 0.0000 0.0000 28.2455 0.0000
# 6 0.0000 0.0000 0.0000 0.0000 0.0000 15.4936
#
#
#
# Elastic Compliance Matrix: (Units=1/GPa)
#
#
# Indices 1 2 3 4 5 6 
#
# 1 0.078856 -0.011478 -0.007811 0.000000 0.000000 0.000000
# 2 -0.011478 0.022259 -0.013188 0.000000 0.000000 0.000000
# 3 -0.007811 -0.013188 0.016875 0.000000 0.000000 0.000000
# 4 0.000000 0.000000 0.000000 0.031578 0.000000 0.000000
# 5 0.000000 0.000000 0.000000 0.000000 0.035404 0.000000
# 6 0.000000 0.000000 0.000000 0.000000 0.000000 0.064543
#
#
# Mechanical properties :
#
#
# Convention : Reuss Voigt Hill
#
# Bulk Modulus (GPa) = 18.85498 73.61065 46.23281
# Shear Modulus (GPa) = 15.05353 24.07368 19.56361
#
# Velocity S-wave (km/s) = 2.93746 3.71470 3.34871
# Velocity P-wave (km/s) = 4.72362 7.78410 6.43835
#
# Compressibility (1/GPa) = 0.05303639
#
# Stress axis : x y z
#
# Youngs Moduli (GPa) = 12.68137 44.92492 59.25874
#
# Poissons Ratio (x) = 0.51566 0.46284
# Poissons Ratio (y) = 0.14556 0.78152
# Poissons Ratio (z) = 0.09905 0.59248
#
# Static dielectric constant tensor:
#      x y z
#    x 1.591480 0.000000 0.000000 
#    y 0.000000 1.515600 0.000000 
#    z 0.000000 0.000000 1.592880 
# 
# From -- ./inp_files/29369.got.cif
#   From: 2010.05.17/outbox.cif.g08.bks.cpg/sg59_15_cif.got.tgz:29369.got - 2010.06.03 14:40:33.
