data_PCOD9453991
_publ_section_title
;
Structure prediction by ZEFSAII (Michael W. Deem and Ramdas Pophale) SiO2 
 PCOD9453991
Probable space group: P B C N
;
_chemical_formula_sum "Si O2"
_cell_formula_units_Z 48
_cell_length_a 7.004764
_cell_length_b 9.852743
_cell_length_c 28.414501
_cell_angle_alpha 90.000000
_cell_angle_beta 90.000000
_cell_angle_gamma 90.000000
_cell_volume 1961.059164
_symmetry_space_group_name_H-M "P B C N"
_symmetry_group_IT_number 60
_symmetry_cell_setting 'orthorhombic'
loop_
_space_group_symop_operation_xyz
x,y,z
1/2-x,1/2-y,1/2+z
1/2+x,1/2-y,-z
-x,y,1/2-z
-x,-y,-z
1/2+x,1/2+y,1/2-z
1/2-x,1/2+y,z
x,-y,1/2+z
loop_
_atom_site_type_symbol
_atom_site_label
_atom_site_fract_x
_atom_site_fract_y
_atom_site_fract_z
Si Si1 0.473522 0.501370 0.303561
Si Si2 0.975006 0.446024 0.698979
Si Si3 0.000339 0.334226 0.442676
Si Si4 0.570835 0.272418 0.128260
Si Si5 0.313323 0.121337 0.458451
Si Si6 0.527157 0.782360 0.341474
O O1 0.500000 0.451389 0.250000
O O2 0.248397 0.526839 0.305628
O O3 0.512805 0.406353 0.348255
O O4 0.570965 0.645471 0.313691
O O5 0.025999 0.348161 0.657081
O O6 0.070440 0.591915 0.692542
O O7 0.000000 0.384271 0.750000
O O8 0.106295 0.190540 0.452747
O O9 0.144664 0.467067 0.440418
O O10 0.892471 0.313346 0.393384
O O11 0.871669 0.369240 0.487403
O O12 0.564660 0.224852 0.074488
O O13 0.798145 0.275441 0.143921
#
# Coordination Sequence:
#
# PCOD9453991 Si02
#       6
#     8   8   8   8   8   8
#     4  10  20  34  51  78 106 136 179 224 263 318
#     4  10  18  32  53  74 100 138 177 214 267 320
#     4  10  21  38  59  85 113 145 186 231 278 333
#     4   9  18  33  54  76 102 141 179 216 263 327
#     4  10  21  38  59  85 113 145 186 231 278 333
#     4   9  18  33  54  76 102 141 179 216 263 327
#
# _framework density 24.476569999999999
#
# number of rings (size 3 to 8) (size 9 to 14) (size 15 to 20)
#    0.000    2.333    1.667    1.000    7.000    0.667 
#    0.000    3.333    0.000    0.000    0.000    0.000 
#    0.000    0.000    0.000    0.000    0.000    0.000 
#
# Total GULP energy -267920.273158 kJ/mol
# GULP energy per Si atom -5581.672357 kJ/mol
# Density = 2.442086 g / cm^3
# Si number density = 24.476570 Si / 1000 Ang^3
#
#
#
# Elastic Constant Matrix: (Units=GPa)
#
#
# Indices 1 2 3 4 5 6 
#
# 1 50.5325 -19.2198 -11.9646 0.0000 0.0000 0.0000
# 2 -19.2198 90.9413 23.7169 0.0000 0.0000 0.0000
# 3 -11.9646 23.7169 131.0600 0.0000 0.0000 0.0000
# 4 0.0000 0.0000 0.0000 40.0646 0.0000 0.0000
# 5 0.0000 0.0000 0.0000 0.0000 27.8476 0.0000
# 6 0.0000 0.0000 0.0000 0.0000 0.0000 12.2369
#
#
#
# Elastic Compliance Matrix: (Units=1/GPa)
#
#
# Indices 1 2 3 4 5 6 
#
# 1 0.021700 0.004271 0.001208 0.000000 0.000000 0.000000
# 2 0.004271 0.012381 -0.001851 0.000000 0.000000 0.000000
# 3 0.001208 -0.001851 0.008075 0.000000 0.000000 0.000000
# 4 0.000000 0.000000 0.000000 0.024960 0.000000 0.000000
# 5 0.000000 0.000000 0.000000 0.000000 0.035910 0.000000
# 6 0.000000 0.000000 0.000000 0.000000 0.000000 0.081720
#
#
# Mechanical properties :
#
#
# Convention : Reuss Voigt Hill
#
# Bulk Modulus (GPa) = 20.23742 28.62208 24.42975
# Shear Modulus (GPa) = 25.77848 34.69656 30.23752
#
# Velocity S-wave (km/s) = 3.24881 3.76911 3.51859
# Velocity P-wave (km/s) = 4.72854 5.53720 5.14877
#
# Compressibility (1/GPa) = 0.04941341
#
# Stress axis : x y z
#
# Youngs Moduli (GPa) = 46.08343 80.76627 123.83471
#
# Poissons Ratio (x) = -0.34496 -0.14960
# Poissons Ratio (y) = -0.19682 0.22918
# Poissons Ratio (z) = -0.05567 0.14947
#
# Static dielectric constant tensor:
#      x y z
#    x 2.054840 0.000000 0.000000 
#    y 0.000000 1.958490 0.000000 
#    z 0.000000 0.000000 1.868540 
# 
# From -- ./inp_files/24213.got.cif
#   From: 2010.05.17/outbox.cif.g08.bks.cpg/sg60_13_cif.got.tgz:24213.got - 2010.06.03 14:59:27.
