data_PCOD9453152
_publ_section_title
;
Structure prediction by ZEFSAII (Michael W. Deem and Ramdas Pophale) SiO2 
 PCOD9453152
Probable space group: P M M N
;
_chemical_formula_sum "Si O2"
_cell_formula_units_Z 48
_cell_length_a 17.058783
_cell_length_b 7.742394
_cell_length_c 17.226180
_cell_angle_alpha 90.000000
_cell_angle_beta 90.000000
_cell_angle_gamma 90.000000
_cell_volume 2275.161834
_symmetry_space_group_name_H-M "P M M N"
_symmetry_group_IT_number 59
_space_group.IT_coordinate_system_code '2'
_symmetry_cell_setting 'orthorhombic'
loop_
_space_group_symop_operation_xyz
x,y,z
1/2-x,1/2-y,z
1/2+x,-y,-z
-x,1/2+y,-z
-x,-y,-z
1/2+x,1/2+y,-z
1/2-x,y,z
x,1/2-y,z
loop_
_atom_site_type_symbol
_atom_site_label
_atom_site_fract_x
_atom_site_fract_y
_atom_site_fract_z
Si Si1 0.750000 0.961352 0.703421
Si Si2 0.659111 0.542615 0.965931
Si Si3 0.661846 0.042525 0.133985
Si Si4 0.750000 0.955248 0.527355
Si Si5 0.559918 0.037984 0.277413
Si Si6 0.919822 0.044893 0.452974
Si Si7 0.600239 0.539018 0.802287
O O1 0.750000 0.750000 0.701591
O O2 0.750000 0.024901 0.615391
O O3 0.825593 0.014455 0.751642
O O4 0.750000 0.479072 0.961195
O O5 0.662636 0.750000 0.961168
O O6 0.611479 0.480428 0.890950
O O7 0.624873 0.497742 0.050239
O O8 0.750000 0.973260 0.130383
O O9 0.664446 0.250000 0.139046
O O10 0.621144 0.980529 0.212054
O O11 0.750000 0.750000 0.531864
O O12 0.834035 0.000231 0.488219
O O13 0.561400 0.250000 0.279527
O O14 0.574187 0.975861 0.364712
O O15 0.476786 0.983628 0.242707
O O16 0.920773 0.250000 0.448279
O O17 0.000000 0.000000 0.500000
O O18 0.598611 0.750000 0.804058
#
# Coordination Sequence:
#
# PCOD9453152 Si02
#       7
#     4   8   8   4   8   8   8
#     4   9  16  29  53  80 105 134 178 227 275 337
#     4   9  16  28  48  75 104 133 169 219 276 324
#     4   9  18  32  50  70  99 140 184 223 263 322
#     4  11  23  39  63  92 119 156 202 247 301 363
#     4   9  19  33  53  78 104 141 189 231 271 331
#     4  11  23  41  64  90 122 157 198 251 306 361
#     4   9  15  27  49  78 104 133 176 226 271 325
#
# _framework density 21.097398999999999
#
# number of rings (size 3 to 8) (size 9 to 14) (size 15 to 20)
#    0.000    2.500    0.833    1.750    1.167    3.333 
#    0.000    1.667    0.000    6.000    0.000    0.000 
#    0.000    0.000    0.000    0.000    0.000    0.000 
#
# Total GULP energy -267715.704074 kJ/mol
# GULP energy per Si atom -5577.410502 kJ/mol
# Density = 2.104938 g / cm^3
# Si number density = 21.097399 Si / 1000 Ang^3
#
#
#
# Elastic Constant Matrix: (Units=GPa)
#
#
# Indices 1 2 3 4 5 6 
#
# 1 128.7697 6.5296 108.6155 0.0000 0.0000 0.0000
# 2 6.5296 36.5774 8.4494 0.0000 0.0000 0.0000
# 3 108.6155 8.4494 248.2215 0.0000 0.0000 0.0000
# 4 0.0000 0.0000 0.0000 22.8993 0.0000 0.0000
# 5 0.0000 0.0000 0.0000 0.0000 32.3822 0.0000
# 6 0.0000 0.0000 0.0000 0.0000 0.0000 15.5316
#
#
#
# Elastic Compliance Matrix: (Units=1/GPa)
#
#
# Indices 1 2 3 4 5 6 
#
# 1 0.012342 -0.000963 -0.005368 0.000000 0.000000 0.000000
# 2 -0.000963 0.027631 -0.000519 0.000000 0.000000 0.000000
# 3 -0.005368 -0.000519 0.006395 0.000000 0.000000 0.000000
# 4 0.000000 0.000000 0.000000 0.043669 0.000000 0.000000
# 5 0.000000 0.000000 0.000000 0.000000 0.030881 0.000000
# 6 0.000000 0.000000 0.000000 0.000000 0.000000 0.064385
#
#
# Mechanical properties :
#
#
# Convention : Reuss Voigt Hill
#
# Bulk Modulus (GPa) = 30.61080 73.41751 52.01416
# Shear Modulus (GPa) = 23.82152 33.49423 28.65787
#
# Velocity S-wave (km/s) = 3.36388 3.98879 3.68959
# Velocity P-wave (km/s) = 5.44320 7.48925 6.54665
#
# Compressibility (1/GPa) = 0.03266821
#
# Stress axis : x y z
#
# Youngs Moduli (GPa) = 81.02127 36.19104 156.36709
#
# Poissons Ratio (x) = 0.03486 0.83937
# Poissons Ratio (y) = 0.07805 0.08116
# Poissons Ratio (z) = 0.43492 0.01878
#
# Static dielectric constant tensor:
#      x y z
#    x 1.911150 0.000000 0.000000 
#    y 0.000000 1.786580 0.000000 
#    z 0.000000 0.000000 1.765610 
# 
# From -- ./inp_files/27487.got.cif
#   From: 2010.05.17/outbox.cif.g08.bks.cpg/sg59_14_cif.got.tgz:27487.got - 2010.06.03 14:40:33.
