data_PCOD9453545
_publ_section_title
;
Structure prediction by ZEFSAII (Michael W. Deem and Ramdas Pophale) SiO2 
 PCOD9453545
Probable space group: P M M N
;
_chemical_formula_sum "Si O2"
_cell_formula_units_Z 48
_cell_length_a 18.000000
_cell_length_b 9.000000
_cell_length_c 15.000000
_cell_angle_alpha 90.000000
_cell_angle_beta 90.000000
_cell_angle_gamma 90.000000
_cell_volume 2430.000000
_symmetry_space_group_name_H-M "P M M N"
_symmetry_group_IT_number 59
_space_group.IT_coordinate_system_code '2'
_symmetry_cell_setting 'orthorhombic'
loop_
_space_group_symop_operation_xyz
x,y,z
1/2-x,1/2-y,z
1/2+x,-y,-z
-x,1/2+y,-z
-x,-y,-z
1/2+x,1/2+y,-z
1/2-x,y,z
x,1/2-y,z
loop_
_atom_site_type_symbol
_atom_site_label
_atom_site_fract_x
_atom_site_fract_y
_atom_site_fract_z
Si Si1 0.395772 0.925052 0.365143
Si Si2 0.250000 0.420285 0.285784
Si Si3 0.750000 0.413149 0.883943
Si Si4 0.467210 0.574974 0.865809
Si Si5 0.088922 0.580041 0.053841
Si Si6 0.440087 0.077300 0.696816
Si Si7 0.162034 0.422004 0.529991
O O1 0.390217 0.750000 0.348385
O O2 0.479016 0.972949 0.339287
O O3 0.325864 0.004463 0.319201
O O4 0.381698 0.965734 0.467403
O O5 0.250000 0.250000 0.312040
O O6 0.250000 0.449417 0.181486
O O7 0.750000 0.250000 0.835738
O O8 0.676201 0.418135 0.939968
O O9 0.468626 0.750000 0.867102
O O10 0.550622 0.511136 0.867550
O O11 0.422853 0.516392 0.783091
O O12 0.433255 0.517829 0.958105
O O13 0.062151 0.750000 0.062035
O O14 0.448424 0.250000 0.721250
O O15 0.375274 0.065729 0.625670
O O16 0.250000 0.451058 0.528894
O O17 0.150870 0.250000 0.500089
#
# Coordination Sequence:
#
# PCOD9453545 Si02
#       7
#     8   4   4   8   8   8   8
#     4  11  22  37  58  83 112 147 189 230 277 333
#     4  12  24  36  54  83 118 147 180 233 286 333
#     4  10  20  36  56  79 108 143 182 223 274 333
#     4  10  20  35  56  83 110 143 186 230 273 324
#     4   9  19  36  57  79 109 146 181 226 281 330
#     4  10  22  38  57  83 114 150 188 228 275 333
#     4  10  21  39  60  82 113 150 186 229 282 329
#
# _framework density 19.753086
#
# number of rings (size 3 to 8) (size 9 to 14) (size 15 to 20)
#    0.000    1.833    0.833    3.250    0.000    7.333 
#    1.500    0.000    0.000    0.000    0.000    0.000 
#    0.000    0.000    0.000    0.000    0.000    0.000 
#
# Total GULP energy -267515.311123 kJ/mol
# GULP energy per Si atom -5573.235648 kJ/mol
# Density = 1.970813 g / cm^3
# Si number density = 19.753086 Si / 1000 Ang^3
#
#
#
# Elastic Constant Matrix: (Units=GPa)
#
#
# Indices 1 2 3 4 5 6 
#
# 1 -25.3586 -11.1036 18.6200 0.0000 0.0000 0.0000
# 2 -11.1036 4.5513 36.1324 0.0000 0.0000 0.0000
# 3 18.6200 36.1324 51.0513 0.0000 0.0000 0.0000
# 4 0.0000 0.0000 0.0000 23.2406 0.0000 0.0000
# 5 0.0000 0.0000 0.0000 0.0000 14.9479 0.0000
# 6 0.0000 0.0000 0.0000 0.0000 0.0000 -0.9363
#
#
#
# Elastic Compliance Matrix: (Units=1/GPa)
#
#
# Indices 1 2 3 4 5 6 
#
# 1 -0.243799 0.281609 -0.110392 0.000000 0.000000 0.000000
# 2 0.281609 -0.372852 0.161180 0.000000 0.000000 0.000000
# 3 -0.110392 0.161180 -0.054226 0.000000 0.000000 0.000000
# 4 0.000000 0.000000 0.000000 0.043028 0.000000 0.000000
# 5 0.000000 0.000000 0.000000 0.000000 0.066899 0.000000
# 6 0.000000 0.000000 0.000000 0.000000 0.000000 -1.068082
#
#
# Mechanical properties :
#
#
# Convention : Reuss Voigt Hill
#
# Bulk Modulus (GPa) = -164.39374 13.06018 -75.66678
# Shear Modulus (GPa) = -2.17784 6.55682 2.18949
#
# Velocity S-wave (km/s) = -1.05115 1.82390 1.05396
# Velocity P-wave (km/s) = 9.21294 3.32589 6.07522
#
# Compressibility (1/GPa) = -0.00608296
#
# Stress axis : x y z
#
# Youngs Moduli (GPa) = -4.10174 -2.68203 -18.44120
#
# Poissons Ratio (x) = 0.75528 -2.03576
# Poissons Ratio (y) = 1.15509 2.97236
# Poissons Ratio (z) = -0.45280 0.43229
#
# Static dielectric constant tensor:
#      x y z
#    x 1.807470 0.000000 0.000000 
#    y 0.000000 1.706730 0.000000 
#    z 0.000000 0.000000 1.742280 
# 
# From -- ./inp_files/23695.got.cif
#   From: 2010.05.17/outbox.ucp.g08.bks.cvg/sg59_12_cif.got.tgz:23695.got - 2010.06.11 16:43:56.
