data_PCOD9453172
_publ_section_title
;
Structure prediction by ZEFSAII (Michael W. Deem and Ramdas Pophale) SiO2 
 PCOD9453172
Probable space group: P M M N
;
_chemical_formula_sum "Si O2"
_cell_formula_units_Z 48
_cell_length_a 9.531681
_cell_length_b 8.210644
_cell_length_c 32.176368
_cell_angle_alpha 90.000000
_cell_angle_beta 90.000000
_cell_angle_gamma 90.000000
_cell_volume 2518.162439
_symmetry_space_group_name_H-M "P M M N"
_symmetry_group_IT_number 59
_space_group.IT_coordinate_system_code '2'
_symmetry_cell_setting 'orthorhombic'
loop_
_space_group_symop_operation_xyz
x,y,z
1/2-x,1/2-y,z
1/2+x,-y,-z
-x,1/2+y,-z
-x,-y,-z
1/2+x,1/2+y,-z
1/2-x,y,z
x,1/2-y,z
loop_
_atom_site_type_symbol
_atom_site_label
_atom_site_fract_x
_atom_site_fract_y
_atom_site_fract_z
Si Si1 0.411472 0.053770 0.039318
Si Si2 0.089484 0.944227 0.539599
Si Si3 0.913235 0.447010 0.302806
Si Si4 0.589390 0.444231 0.618560
Si Si5 0.086429 0.051468 0.130816
Si Si6 0.412341 0.948580 0.790402
O O1 0.250000 0.998900 0.035177
O O2 0.410679 0.250000 0.040105
O O3 0.464416 0.998873 0.084959
O O4 0.500000 0.000000 0.000000
O O5 0.250000 0.008723 0.539153
O O6 0.097971 0.750000 0.538176
O O7 0.000000 0.000000 0.500000
O O8 0.006558 0.992103 0.581110
O O9 0.750000 0.495920 0.309776
O O10 0.915596 0.250000 0.303919
O O11 0.955453 0.499559 0.256106
O O12 0.015205 0.510575 0.338235
O O13 0.750000 0.506659 0.616279
O O14 0.594665 0.250000 0.614980
O O15 0.250000 0.008277 0.134154
O O16 0.079061 0.250000 0.131346
O O17 0.002256 0.991532 0.170763
O O18 0.250000 0.993456 0.795908
O O19 0.418694 0.750000 0.790485
#
# Coordination Sequence:
#
# PCOD9453172 Si02
#       6
#     8   8   8   8   8   8
#     4   9  18  31  46  67  95 125 160 203 248 297
#     4  11  24  41  62  88 115 143 178 218 259 306
#     4   9  18  33  53  78 106 134 167 209 256 305
#     4  11  24  39  55  79 110 143 181 220 256 300
#     4   8  14  25  41  63  92 123 155 195 244 296
#     4   8  14  25  43  69  98 124 155 199 247 296
#
# _framework density 19.061516999999998
#
# number of rings (size 3 to 8) (size 9 to 14) (size 15 to 20)
#    0.000    2.667    0.000    4.000    0.000    8.667 
#    0.000    3.333    0.000    1.000    0.000    0.000 
#    0.000    0.000    0.000    0.000    0.000    0.000 
#
# Total GULP energy -267705.777415 kJ/mol
# GULP energy per Si atom -5577.203696 kJ/mol
# Density = 1.901813 g / cm^3
# Si number density = 19.061517 Si / 1000 Ang^3
#
#
#
# Elastic Constant Matrix: (Units=GPa)
#
#
# Indices 1 2 3 4 5 6 
#
# 1 129.9883 18.9389 120.7087 0.0000 0.0000 0.0000
# 2 18.9389 16.7466 19.7442 0.0000 0.0000 0.0000
# 3 120.7087 19.7442 216.3268 0.0000 0.0000 0.0000
# 4 0.0000 0.0000 0.0000 24.2352 0.0000 0.0000
# 5 0.0000 0.0000 0.0000 0.0000 42.4097 0.0000
# 6 0.0000 0.0000 0.0000 0.0000 0.0000 20.8860
#
#
#
# Elastic Compliance Matrix: (Units=1/GPa)
#
#
# Indices 1 2 3 4 5 6 
#
# 1 0.017113 -0.009071 -0.008721 0.000000 0.000000 0.000000
# 2 -0.009071 0.071723 -0.001484 0.000000 0.000000 0.000000
# 3 -0.008721 -0.001484 0.009624 0.000000 0.000000 0.000000
# 4 0.000000 0.000000 0.000000 0.041262 0.000000 0.000000
# 5 0.000000 0.000000 0.000000 0.000000 0.023580 0.000000
# 6 0.000000 0.000000 0.000000 0.000000 0.000000 0.047879
#
#
# Mechanical properties :
#
#
# Convention : Reuss Voigt Hill
#
# Bulk Modulus (GPa) = 16.69269 75.76059 46.22664
# Shear Modulus (GPa) = 18.53889 31.08417 24.81153
#
# Velocity S-wave (km/s) = 3.12201 4.04261 3.61176
# Velocity P-wave (km/s) = 4.66607 7.84996 6.45732
#
# Compressibility (1/GPa) = 0.05990648
#
# Stress axis : x y z
#
# Youngs Moduli (GPa) = 58.43457 13.94262 103.90255
#
# Poissons Ratio (x) = 0.12648 0.90614
# Poissons Ratio (y) = 0.53008 0.15423
# Poissons Ratio (z) = 0.50961 0.02070
#
# Static dielectric constant tensor:
#      x y z
#    x 1.651520 0.000000 0.000000 
#    y 0.000000 1.685770 0.000000 
#    z 0.000000 0.000000 1.663870 
# 
# From -- ./inp_files/32873.got.cif
#   From: 2010.05.17/outbox.cif.g08.bks.cpg/sg59_17_cif.got.tgz:32873.got - 2010.06.03 14:40:33.
