data_PCOD9453405
_publ_section_title
;
Structure prediction by ZEFSAII (Michael W. Deem and Ramdas Pophale) SiO2 
 PCOD9453405
Probable space group: P M M N
;
_chemical_formula_sum "Si O2"
_cell_formula_units_Z 64
_cell_length_a 21.000000
_cell_length_b 9.000000
_cell_length_c 18.000000
_cell_angle_alpha 90.000000
_cell_angle_beta 90.000000
_cell_angle_gamma 90.000000
_cell_volume 3402.000000
_symmetry_space_group_name_H-M "P M M N"
_symmetry_group_IT_number 59
_space_group.IT_coordinate_system_code '2'
_symmetry_cell_setting 'orthorhombic'
loop_
_space_group_symop_operation_xyz
x,y,z
1/2-x,1/2-y,z
1/2+x,-y,-z
-x,1/2+y,-z
-x,-y,-z
1/2+x,1/2+y,-z
1/2-x,y,z
x,1/2-y,z
loop_
_atom_site_type_symbol
_atom_site_label
_atom_site_fract_x
_atom_site_fract_y
_atom_site_fract_z
Si Si1 0.566742 0.570957 0.916722
Si Si2 0.639401 0.929404 0.643946
Si Si3 0.382375 0.074567 0.653998
Si Si4 0.422963 0.572583 0.921648
Si Si5 0.514927 0.075443 0.580453
Si Si6 0.321613 0.082382 0.512122
Si Si7 0.320915 0.431285 0.193437
Si Si8 0.675279 0.570191 0.190745
O O1 0.570653 0.750000 0.926617
O O2 0.494346 0.538086 0.891213
O O3 0.621324 0.523363 0.859545
O O4 0.577663 0.492318 0.995307
O O5 0.641002 0.750000 0.649040
O O6 0.677730 0.977759 0.570701
O O7 0.665474 0.982840 0.722543
O O8 0.570577 0.988004 0.621698
O O9 0.362975 0.250000 0.653257
O O10 0.456787 0.069356 0.638586
O O11 0.356093 0.000627 0.578637
O O12 0.354388 0.017236 0.730637
O O13 0.415771 0.750000 0.922990
O O14 0.367743 0.499406 0.873363
O O15 0.529543 0.250000 0.567501
O O16 0.500000 0.000000 0.500000
O O17 0.250000 0.097032 0.537244
O O18 0.350625 0.250000 0.505398
O O19 0.250000 0.478214 0.169676
O O20 0.320960 0.250000 0.193549
O O21 0.750000 0.532171 0.185870
O O22 0.670334 0.750000 0.186837
#
# Coordination Sequence:
#
# PCOD9453405 Si02
#       8
#     8   8   8   8   8   8   8   8
#     4   9  19  37  59  84 115 150 189 228 270 327
#     4  10  19  32  52  80 110 139 177 224 274 326
#     4   9  18  32  50  77 106 135 179 229 270 317
#     4  10  21  37  58  85 116 148 182 226 280 336
#     4  11  21  35  53  77 106 141 184 230 279 329
#     4   9  15  26  48  74 100 134 177 223 264 304
#     4   9  18  33  56  86 114 142 184 233 274 321
#     4  10  21  37  58  83 110 143 186 234 281 333
#
# _framework density 18.812463000000001
#
# number of rings (size 3 to 8) (size 9 to 14) (size 15 to 20)
#    0.000    2.375    1.250    1.500    1.750    4.250 
#    0.000    2.500    0.000    2.250    0.000    0.000 
#    0.000    0.000    0.000    0.000    0.000    0.000 
#
# Total GULP energy -356289.770562 kJ/mol
# GULP energy per Si atom -5567.027665 kJ/mol
# Density = 1.876965 g / cm^3
# Si number density = 18.812463 Si / 1000 Ang^3
#
#
#
# Elastic Constant Matrix: (Units=GPa)
#
#
# Indices 1 2 3 4 5 6 
#
# 1 99.9780 10.8764 54.4126 0.0000 0.0000 0.0000
# 2 10.8764 1.3185 4.8088 0.0000 0.0000 0.0000
# 3 54.4126 4.8088 68.6853 0.0000 0.0000 0.0000
# 4 0.0000 0.0000 0.0000 13.3764 0.0000 0.0000
# 5 0.0000 0.0000 0.0000 0.0000 64.6689 0.0000
# 6 0.0000 0.0000 0.0000 0.0000 0.0000 21.9128
#
#
#
# Elastic Compliance Matrix: (Units=1/GPa)
#
#
# Indices 1 2 3 4 5 6 
#
# 1 0.166516 -1.198581 -0.047999 0.000000 0.000000 0.000000
# 2 -1.198581 9.645946 0.274182 0.000000 0.000000 0.000000
# 3 -0.047999 0.274182 0.033388 0.000000 0.000000 0.000000
# 4 0.000000 0.000000 0.000000 0.074758 0.000000 0.000000
# 5 0.000000 0.000000 0.000000 0.000000 0.015463 0.000000
# 6 0.000000 0.000000 0.000000 0.000000 0.000000 0.045635
#
#
# Mechanical properties :
#
#
# Convention : Reuss Voigt Hill
#
# Bulk Modulus (GPa) = 0.12657 34.46415 17.29536
# Shear Modulus (GPa) = 0.34340 26.65056 13.49698
#
# Velocity S-wave (km/s) = 0.42771 3.76792 2.68143
# Velocity P-wave (km/s) = 0.55798 6.10649 4.33593
#
# Compressibility (1/GPa) = 7.90105292
#
# Stress axis : x y z
#
# Youngs Moduli (GPa) = 6.00543 0.10367 29.95121
#
# Poissons Ratio (x) = 0.12426 1.43762
# Poissons Ratio (y) = 7.19799 -8.21207
# Poissons Ratio (z) = 0.28825 -0.02842
#
# Static dielectric constant tensor:
#      x y z
#    x 1.761880 0.000000 0.000000 
#    y 0.000000 1.648430 0.000000 
#    z 0.000000 0.000000 1.667450 
# 
# From -- ./inp_files/28280.got.cif
#   From: 2010.05.17/outbox.ucp.g08.bks.cvg/sg59_15_cif.got.tgz:28280.got - 2010.06.11 16:43:56.
