data_PCOD9453011
_publ_section_title
;
Structure prediction by ZEFSAII (Michael W. Deem and Ramdas Pophale) SiO2 
 PCOD9453011
Probable space group: P M M N
;
_chemical_formula_sum "Si O2"
_cell_formula_units_Z 48
_cell_length_a 8.204398
_cell_length_b 26.661464
_cell_length_c 12.276865
_cell_angle_alpha 90.000000
_cell_angle_beta 90.000000
_cell_angle_gamma 90.000000
_cell_volume 2685.456943
_symmetry_space_group_name_H-M "P M M N"
_symmetry_group_IT_number 59
_space_group.IT_coordinate_system_code '2'
_symmetry_cell_setting 'orthorhombic'
loop_
_space_group_symop_operation_xyz
x,y,z
1/2-x,1/2-y,z
1/2+x,-y,-z
-x,1/2+y,-z
-x,-y,-z
1/2+x,1/2+y,-z
1/2-x,y,z
x,1/2-y,z
loop_
_atom_site_type_symbol
_atom_site_label
_atom_site_fract_x
_atom_site_fract_y
_atom_site_fract_z
Si Si1 0.938918 0.607903 0.812433
Si Si2 0.947237 0.307713 0.337048
Si Si3 0.939681 0.032313 0.361375
Si Si4 0.947371 0.114717 0.523920
Si Si5 0.442437 0.942722 0.022751
Si Si6 0.554956 0.929007 0.266260
O O1 0.750000 0.597671 0.788677
O O2 0.983297 0.662609 0.767017
O O3 0.046154 0.569770 0.740691
O O4 0.974227 0.594711 0.936913
O O5 0.750000 0.309483 0.330972
O O6 0.998384 0.250000 0.342021
O O7 0.994898 0.339288 0.445171
O O8 0.750000 0.023392 0.386513
O O9 0.010161 0.064387 0.461345
O O10 0.013050 0.980180 0.321849
O O11 0.750000 0.113276 0.525822
O O12 0.011337 0.113824 0.646651
O O13 0.250000 0.941389 0.005277
O O14 0.483231 0.926871 0.145817
O O15 0.500000 0.000000 0.000000
O O16 0.750000 0.932916 0.255650
#
# Coordination Sequence:
#
# PCOD9453011 Si02
#       6
#     8   8   8   8   8   8
#     4  11  21  33  53  81 110 141 179 225 272 316
#     4   9  19  38  62  83 106 139 178 223 274 325
#     4   9  18  32  49  70 104 145 182 217 255 311
#     4   9  18  32  50  76 106 138 177 220 266 317
#     4  12  23  36  53  75 107 147 187 224 264 319
#     4  11  21  32  49  74 107 147 183 217 261 315
#
# _framework density 17.874053
#
# number of rings (size 3 to 8) (size 9 to 14) (size 15 to 20)
#    0.000    1.833    1.667    5.000    0.000    3.667 
#    0.000    0.000    0.000    1.000    0.000    2.333 
#    0.000    0.000    0.000    0.000    0.000    0.000 
#
# Total GULP energy -267809.022459 kJ/mol
# GULP energy per Si atom -5579.354635 kJ/mol
# Density = 1.783337 g / cm^3
# Si number density = 17.874053 Si / 1000 Ang^3
#
#
#
# Elastic Constant Matrix: (Units=GPa)
#
#
# Indices 1 2 3 4 5 6 
#
# 1 32.5853 2.9402 -2.0674 0.0000 0.0000 0.0000
# 2 2.9402 75.7152 45.1078 0.0000 0.0000 0.0000
# 3 -2.0674 45.1078 131.8288 0.0000 0.0000 0.0000
# 4 0.0000 0.0000 0.0000 7.1834 0.0000 0.0000
# 5 0.0000 0.0000 0.0000 0.0000 25.8994 0.0000
# 6 0.0000 0.0000 0.0000 0.0000 0.0000 15.2766
#
#
#
# Elastic Compliance Matrix: (Units=1/GPa)
#
#
# Indices 1 2 3 4 5 6 
#
# 1 0.030929 -0.001871 0.001125 0.000000 0.000000 0.000000
# 2 -0.001871 0.016702 -0.005744 0.000000 0.000000 0.000000
# 3 0.001125 -0.005744 0.009569 0.000000 0.000000 0.000000
# 4 0.000000 0.000000 0.000000 0.139209 0.000000 0.000000
# 5 0.000000 0.000000 0.000000 0.000000 0.038611 0.000000
# 6 0.000000 0.000000 0.000000 0.000000 0.000000 0.065460
#
#
# Mechanical properties :
#
#
# Convention : Reuss Voigt Hill
#
# Bulk Modulus (GPa) = 22.61462 36.89894 29.75678
# Shear Modulus (GPa) = 15.23460 22.61514 18.92487
#
# Velocity S-wave (km/s) = 2.92264 3.56089 3.25744
# Velocity P-wave (km/s) = 4.90599 6.13150 5.55266
#
# Compressibility (1/GPa) = 0.04421918
#
# Stress axis : x y z
#
# Youngs Moduli (GPa) = 32.33212 59.87198 104.50639
#
# Poissons Ratio (x) = 0.11205 -0.11761
# Poissons Ratio (y) = 0.06051 0.60032
# Poissons Ratio (z) = -0.03639 0.34393
#
# Static dielectric constant tensor:
#      x y z
#    x 1.627240 0.000000 0.000000 
#    y 0.000000 1.611970 0.000000 
#    z 0.000000 0.000000 1.634080 
# 
# From -- ./inp_files/14527.got.cif
#   From: 2010.05.17/outbox.cif.g08.bks.cpg/sg59_8_cif.got.tgz:14527.got - 2010.06.03 14:40:33.
