data_PCOD9453521
_publ_section_title
;
Structure prediction by ZEFSAII (Michael W. Deem and Ramdas Pophale) SiO2 
 PCOD9453521
Probable space group: P M M N
;
_chemical_formula_sum "Si O2"
_cell_formula_units_Z 64
_cell_length_a 9.000000
_cell_length_b 15.000000
_cell_length_c 24.000000
_cell_angle_alpha 90.000000
_cell_angle_beta 90.000000
_cell_angle_gamma 90.000000
_cell_volume 3240.000000
_symmetry_space_group_name_H-M "P M M N"
_symmetry_group_IT_number 59
_space_group.IT_coordinate_system_code '2'
_symmetry_cell_setting 'orthorhombic'
loop_
_space_group_symop_operation_xyz
x,y,z
1/2-x,1/2-y,z
1/2+x,-y,-z
-x,1/2+y,-z
-x,-y,-z
1/2+x,1/2+y,-z
1/2-x,y,z
x,1/2-y,z
loop_
_atom_site_type_symbol
_atom_site_label
_atom_site_fract_x
_atom_site_fract_y
_atom_site_fract_z
Si Si1 0.573928 0.452061 0.737424
Si Si2 0.070906 0.847185 0.594250
Si Si3 0.425236 0.510146 0.058998
Si Si4 0.921701 0.349666 0.116100
Si Si5 0.421043 0.646151 0.462629
Si Si6 0.925725 0.963465 0.371057
Si Si7 0.568560 0.352276 0.849529
Si Si8 0.924554 0.846641 0.767386
O O1 0.750000 0.438075 0.733248
O O2 0.496238 0.416836 0.682345
O O3 0.521715 0.405276 0.794121
O O4 0.546444 0.558279 0.739943
O O5 0.250000 0.844656 0.602457
O O6 0.011184 0.750000 0.610323
O O7 0.048244 0.859083 0.528241
O O8 0.013627 0.935577 0.623279
O O9 0.250000 0.519650 0.052476
O O10 0.466770 0.420568 0.091223
O O11 0.480170 0.592898 0.096272
O O12 0.500000 0.500000 0.000000
O O13 0.750000 0.376383 0.108357
O O14 0.939868 0.250000 0.092288
O O15 0.964845 0.344549 0.180613
O O16 0.250000 0.617637 0.453306
O O17 0.432427 0.750000 0.446890
O O18 0.529957 0.587490 0.426637
O O19 0.750000 0.967199 0.364820
O O20 0.750000 0.353208 0.849607
O O21 0.520300 0.250000 0.849191
O O22 0.750000 0.850080 0.785389
O O23 0.942713 0.750000 0.738100
#
# Coordination Sequence:
#
# PCOD9453521 Si02
#       8
#     8   8   8   8   8   8   8   8
#     4  10  20  36  55  78 108 148 193 229 271 331
#     4   8  16  33  55  78 107 145 186 225 274 339
#     4  11  22  38  60  88 117 148 185 232 287 338
#     4  10  20  34  55  83 113 145 181 223 273 332
#     4   9  18  35  58  78 100 140 190 233 276 335
#     4  11  22  33  51  82 115 145 179 231 288 329
#     4   9  19  38  62  83 106 144 192 233 271 321
#     4   9  17  32  55  80 105 136 178 228 278 326
#
# _framework density 19.753086
#
# number of rings (size 3 to 8) (size 9 to 14) (size 15 to 20)
#    0.000    2.375    1.250    2.250    0.000    3.000 
#    0.000    3.125    0.000    5.250    0.000    0.000 
#    0.000    0.000    0.000    0.000    0.000    0.000 
#
# Total GULP energy -356624.520799 kJ/mol
# GULP energy per Si atom -5572.258137 kJ/mol
# Density = 1.970813 g / cm^3
# Si number density = 19.753086 Si / 1000 Ang^3
#
#
#
# Elastic Constant Matrix: (Units=GPa)
#
#
# Indices 1 2 3 4 5 6 
#
# 1 -2.5005 24.9757 23.2996 0.0000 0.0000 0.0000
# 2 24.9757 85.2491 47.6125 0.0000 0.0000 0.0000
# 3 23.2996 47.6125 61.7321 0.0000 0.0000 0.0000
# 4 0.0000 0.0000 0.0000 -57.8110 0.0000 0.0000
# 5 0.0000 0.0000 0.0000 0.0000 17.9594 0.0000
# 6 0.0000 0.0000 0.0000 0.0000 0.0000 19.3371
#
#
#
# Elastic Compliance Matrix: (Units=1/GPa)
#
#
# Indices 1 2 3 4 5 6 
#
# 1 -0.081263 0.011731 0.021623 0.000000 0.000000 0.000000
# 2 0.011731 0.018914 -0.019015 0.000000 0.000000 0.000000
# 3 0.021623 -0.019015 0.022704 0.000000 0.000000 0.000000
# 4 0.000000 0.000000 0.000000 -0.017298 0.000000 0.000000
# 5 0.000000 0.000000 0.000000 0.000000 0.055681 0.000000
# 6 0.000000 0.000000 0.000000 0.000000 0.000000 0.051714
#
#
# Mechanical properties :
#
#
# Convention : Reuss Voigt Hill
#
# Bulk Modulus (GPa) = -91.17997 37.36182 -26.90907
# Shear Modulus (GPa) = 275.95426 -0.86337 137.54545
#
# Velocity S-wave (km/s) = 11.83238 -0.66184 8.35365
# Velocity P-wave (km/s) = 11.84962 4.28619 8.91024
#
# Compressibility (1/GPa) = -0.01096732
#
# Stress axis : x y z
#
# Youngs Moduli (GPa) = -12.30579 52.87169 44.04528
#
# Poissons Ratio (x) = -0.62024 -0.95240
# Poissons Ratio (y) = 0.14436 0.83754
# Poissons Ratio (z) = 0.26609 1.00537
#
# Static dielectric constant tensor:
#      x y z
#    x 1.654370 0.000000 0.000000 
#    y 0.000000 1.675160 0.000000 
#    z 0.000000 0.000000 2.103150 
# 
# From -- ./inp_files/31677.got.cif
#   From: 2010.05.17/outbox.ucp.g08.bks.cvg/sg59_16_cif.got.tgz:31677.got - 2010.06.11 16:43:56.
