data_PCOD9453261
_publ_section_title
;
Structure prediction by ZEFSAII (Michael W. Deem and Ramdas Pophale) SiO2 
 PCOD9453261
Probable space group: P M M N
;
_chemical_formula_sum "Si O2"
_cell_formula_units_Z 40
_cell_length_a 13.578057
_cell_length_b 7.498327
_cell_length_c 15.938851
_cell_angle_alpha 90.000000
_cell_angle_beta 90.000000
_cell_angle_gamma 90.000000
_cell_volume 1622.777637
_symmetry_space_group_name_H-M "P M M N"
_symmetry_group_IT_number 59
_space_group.IT_coordinate_system_code '2'
_symmetry_cell_setting 'orthorhombic'
loop_
_space_group_symop_operation_xyz
x,y,z
1/2-x,1/2-y,z
1/2+x,-y,-z
-x,1/2+y,-z
-x,-y,-z
1/2+x,1/2+y,-z
1/2-x,y,z
x,1/2-y,z
loop_
_atom_site_type_symbol
_atom_site_label
_atom_site_fract_x
_atom_site_fract_y
_atom_site_fract_z
Si Si1 0.922585 0.042359 0.118184
Si Si2 0.360581 0.533311 0.064873
Si Si3 0.612700 0.541269 0.479425
Si Si4 0.428199 0.537788 0.703926
Si Si5 0.852859 0.968626 0.662861
O O1 0.894244 0.250000 0.115651
O O2 0.880716 0.968955 0.031008
O O3 0.888172 0.967145 0.207680
O O4 0.042343 0.029701 0.114606
O O5 0.250000 0.477743 0.090382
O O6 0.363580 0.750000 0.067010
O O7 0.500000 0.500000 0.500000
O O8 0.632221 0.750000 0.479483
O O9 0.629272 0.484906 0.383624
O O10 0.655861 0.471007 0.566036
O O11 0.436404 0.750000 0.714316
O O12 0.540509 0.467996 0.693190
O O13 0.750000 0.021839 0.706220
O O14 0.856605 0.750000 0.664190
#
# Coordination Sequence:
#
# PCOD9453261 Si02
#       5
#     8   8   8   8   8
#     4   9  18  32  50  72  96 124 161 201 241 291
#     4   9  18  33  51  70  96 129 160 195 244 295
#     4   9  16  27  44  62  84 117 151 183 221 266
#     4   9  17  29  46  67  90 117 150 189 232 277
#     4   8  14  25  41  61  85 114 148 184 222 264
#
# _framework density 24.649096
#
# number of rings (size 3 to 8) (size 9 to 14) (size 15 to 20)
#    0.000    3.200    0.000    1.800    0.000    2.000 
#    0.000    3.000    0.000   16.200    0.000    0.000 
#    0.000    0.000    0.000    0.000    0.000    0.000 
#
# Total GULP energy -222805.076593 kJ/mol
# GULP energy per Si atom -5570.126915 kJ/mol
# Density = 2.459299 g / cm^3
# Si number density = 24.649096 Si / 1000 Ang^3
#
#
#
# Elastic Constant Matrix: (Units=GPa)
#
#
# Indices 1 2 3 4 5 6 
#
# 1 76.7025 -11.3976 -17.6559 0.0000 0.0000 0.0000
# 2 -11.3976 65.9745 0.2155 0.0000 0.0000 0.0000
# 3 -17.6559 0.2155 160.6623 0.0000 0.0000 0.0000
# 4 0.0000 0.0000 0.0000 11.8429 0.0000 0.0000
# 5 0.0000 0.0000 0.0000 0.0000 -10.5478 0.0000
# 6 0.0000 0.0000 0.0000 0.0000 0.0000 -13.1985
#
#
#
# Elastic Compliance Matrix: (Units=1/GPa)
#
#
# Indices 1 2 3 4 5 6 
#
# 1 0.013736 0.002368 0.001506 0.000000 0.000000 0.000000
# 2 0.002368 0.015566 0.000239 0.000000 0.000000 0.000000
# 3 0.001506 0.000239 0.006389 0.000000 0.000000 0.000000
# 4 0.000000 0.000000 0.000000 0.084439 0.000000 0.000000
# 5 0.000000 0.000000 0.000000 0.000000 -0.094806 0.000000
# 6 0.000000 0.000000 0.000000 0.000000 0.000000 -0.075766
#
#
# Mechanical properties :
#
#
# Convention : Reuss Voigt Hill
#
# Bulk Modulus (GPa) = 22.76935 27.29593 25.03264
# Shear Modulus (GPa) = -113.55753 19.76447 -46.89653
#
# Velocity S-wave (km/s) = -6.79483 2.83474 -4.36657
# Velocity P-wave (km/s) = 7.23202 4.67035 3.90448
#
# Compressibility (1/GPa) = 0.04391868
#
# Stress axis : x y z
#
# Youngs Moduli (GPa) = 72.80140 64.24383 156.50797
#
# Poissons Ratio (x) = -0.15213 -0.23575
# Poissons Ratio (y) = -0.17240 -0.03746
# Poissons Ratio (z) = -0.10966 -0.01538
#
# Static dielectric constant tensor:
#      x y z
#    x 1.960660 0.000000 0.000000 
#    y 0.000000 1.916570 0.000000 
#    z 0.000000 0.000000 2.011030 
# 
# From -- ./inp_files/22254.got.cif
#   From: 2010.05.17/outbox.cif.g08.bks.cpg/sg59_12_cif.got.tgz:22254.got - 2010.06.03 14:40:33.
