data_PCOD9453651
_publ_section_title
;
Structure prediction by ZEFSAII (Michael W. Deem and Ramdas Pophale) SiO2 
 PCOD9453651
Probable space group: P M M N
;
_chemical_formula_sum "Si O2"
_cell_formula_units_Z 40
_cell_length_a 9.000000
_cell_length_b 15.000000
_cell_length_c 15.000000
_cell_angle_alpha 90.000000
_cell_angle_beta 90.000000
_cell_angle_gamma 90.000000
_cell_volume 2025.000000
_symmetry_space_group_name_H-M "P M M N"
_symmetry_group_IT_number 59
_space_group.IT_coordinate_system_code '2'
_symmetry_cell_setting 'orthorhombic'
loop_
_space_group_symop_operation_xyz
x,y,z
1/2-x,1/2-y,z
1/2+x,-y,-z
-x,1/2+y,-z
-x,-y,-z
1/2+x,1/2+y,-z
1/2-x,y,z
x,1/2-y,z
loop_
_atom_site_type_symbol
_atom_site_label
_atom_site_fract_x
_atom_site_fract_y
_atom_site_fract_z
Si Si1 0.078816 0.416968 0.263432
Si Si2 0.576389 0.854214 0.546312
Si Si3 0.920391 0.395421 0.634349
Si Si4 0.074448 0.750000 0.048600
Si Si5 0.926061 0.750000 0.243725
Si Si6 0.571722 0.073256 0.066731
O O1 0.250000 0.388785 0.245123
O O2 0.021521 0.361920 0.350558
O O3 0.081139 0.513375 0.310249
O O4 0.994603 0.421043 0.167970
O O5 0.750000 0.884546 0.546301
O O6 0.573834 0.750000 0.522487
O O7 0.488153 0.901010 0.465446
O O8 0.750000 0.363697 0.626635
O O9 0.016585 0.331941 0.697187
O O10 0.250000 0.750000 0.070265
O O11 0.991078 0.750000 0.143350
O O12 0.043792 0.835124 0.986666
O O13 0.750000 0.750000 0.237855
O O14 0.750000 0.058870 0.073293
O O15 0.500000 0.000000 0.000000
#
# Coordination Sequence:
#
# PCOD9453651 Si02
#       6
#     8   8   8   4   4   8
#     4  10  23  40  61  90 125 162 200 247 306 363
#     4  10  21  38  60  89 125 161 200 248 297 354
#     4  11  22  38  60  88 123 162 201 247 303 362
#     4  10  24  44  63  88 125 162 201 256 318 372
#     4  12  24  38  61  90 117 154 207 256 304 360
#     4  11  24  43  66  93 125 163 209 260 312 371
#
# _framework density 19.753086
#
# number of rings (size 3 to 8) (size 9 to 14) (size 15 to 20)
#    0.000    1.400    1.000    3.900    1.400    8.800 
#    0.000    0.000    0.000    0.000    0.000    0.000 
#    0.000    0.000    0.000    0.000    0.000    0.000 
#
# Total GULP energy -223168.000951 kJ/mol
# GULP energy per Si atom -5579.200024 kJ/mol
# Density = 1.970813 g / cm^3
# Si number density = 19.753086 Si / 1000 Ang^3
#
#
#
# Elastic Constant Matrix: (Units=GPa)
#
#
# Indices 1 2 3 4 5 6 
#
# 1 114.5885 44.0697 100.7701 0.0000 0.0000 0.0000
# 2 44.0697 93.4369 46.7170 0.0000 0.0000 0.0000
# 3 100.7701 46.7170 237.5356 0.0000 0.0000 0.0000
# 4 0.0000 0.0000 0.0000 23.0389 0.0000 0.0000
# 5 0.0000 0.0000 0.0000 0.0000 50.4002 0.0000
# 6 0.0000 0.0000 0.0000 0.0000 0.0000 13.6352
#
#
#
# Elastic Compliance Matrix: (Units=1/GPa)
#
#
# Indices 1 2 3 4 5 6 
#
# 1 0.015418 -0.004438 -0.005668 0.000000 0.000000 0.000000
# 2 -0.004438 0.013147 -0.000703 0.000000 0.000000 0.000000
# 3 -0.005668 -0.000703 0.006753 0.000000 0.000000 0.000000
# 4 0.000000 0.000000 0.000000 0.043405 0.000000 0.000000
# 5 0.000000 0.000000 0.000000 0.000000 0.019841 0.000000
# 6 0.000000 0.000000 0.000000 0.000000 0.000000 0.073339
#
#
# Mechanical properties :
#
#
# Convention : Reuss Voigt Hill
#
# Bulk Modulus (GPa) = 72.99309 92.07496 82.53402
# Shear Modulus (GPa) = 25.24127 34.34848 29.79488
#
# Velocity S-wave (km/s) = 3.57857 4.17453 3.88798
# Velocity P-wave (km/s) = 7.35580 8.36359 7.87583
#
# Compressibility (1/GPa) = 0.01369993
#
# Stress axis : x y z
#
# Youngs Moduli (GPa) = 64.85806 76.06247 148.08876
#
# Poissons Ratio (x) = 0.33757 0.83938
# Poissons Ratio (y) = 0.28785 0.10409
# Poissons Ratio (z) = 0.36762 0.05346
#
# Static dielectric constant tensor:
#      x y z
#    x 1.694210 0.000000 0.000000 
#    y 0.000000 1.815280 0.000000 
#    z 0.000000 0.000000 1.647550 
# 
# From -- ./inp_files/19986.got.cif
#   From: 2010.05.17/outbox.ucp.g08.bks.cvg/sg59_10_cif.got.tgz:19986.got - 2010.06.11 16:43:56.
