data_PCOD9453896
_publ_section_title
;
Structure prediction by ZEFSAII (Michael W. Deem and Ramdas Pophale) SiO2 
 PCOD9453896
Probable space group: P B C N
;
_chemical_formula_sum "Si O2"
_cell_formula_units_Z 64
_cell_length_a 19.621918
_cell_length_b 24.035893
_cell_length_c 7.195185
_cell_angle_alpha 90.000000
_cell_angle_beta 90.000000
_cell_angle_gamma 90.000000
_cell_volume 3393.467415
_symmetry_space_group_name_H-M "P B C N"
_symmetry_group_IT_number 60
_symmetry_cell_setting 'orthorhombic'
loop_
_space_group_symop_operation_xyz
x,y,z
1/2-x,1/2-y,1/2+z
1/2+x,1/2-y,-z
-x,y,1/2-z
-x,-y,-z
1/2+x,1/2+y,1/2-z
1/2-x,1/2+y,z
x,-y,1/2+z
loop_
_atom_site_type_symbol
_atom_site_label
_atom_site_fract_x
_atom_site_fract_y
_atom_site_fract_z
Si Si1 0.009238 0.401967 0.537351
Si Si2 0.347172 0.945865 0.568342
Si Si3 0.771950 0.670203 0.060041
Si Si4 0.007864 0.729309 0.973312
Si Si5 0.863069 0.772280 0.007507
Si Si6 0.750458 0.353537 0.980832
Si Si7 0.343107 0.252269 0.937060
Si Si8 0.860086 0.427477 0.492037
O O1 0.939000 0.418718 0.438407
O O2 0.000000 0.421182 0.750000
O O3 0.080923 0.428100 0.474761
O O4 0.009782 0.335003 0.534680
O O5 0.284336 0.912894 0.476397
O O6 0.355860 0.926871 0.782328
O O7 0.337682 0.011687 0.568699
O O8 0.746520 0.646547 0.256016
O O9 0.707057 0.701756 0.976535
O O10 0.810980 0.623863 0.941236
O O11 0.825284 0.719821 0.101034
O O12 0.081511 0.753944 0.018018
O O13 0.000000 0.727553 0.750000
O O14 0.943045 0.764144 0.043293
O O15 0.821856 0.829007 0.049955
O O16 0.850482 0.761913 0.785292
O O17 0.806483 0.306848 0.034477
#
# Coordination Sequence:
#
# PCOD9453896 Si02
#       8
#     8   8   8   8   8   8   8   8
#     4  10  19  31  43  60  88 119 149 175 207 251
#     4  10  20  31  44  61  84 116 150 182 212 248
#     4   9  17  30  45  62  85 113 144 178 215 254
#     4  10  18  27  43  68  92 115 141 173 212 257
#     4   9  17  28  44  65  88 112 140 175 215 257
#     4   9  17  30  45  62  85 113 144 178 215 254
#     4   9  17  28  44  65  88 112 140 175 215 257
#     4  10  20  31  44  61  84 116 150 182 212 248
#
# _framework density 18.859764999999999
#
# number of rings (size 3 to 8) (size 9 to 14) (size 15 to 20)
#    0.000    2.500    2.500    0.375    0.000    2.000 
#    0.000    0.000    0.000    0.000    0.000    0.875 
#    0.000    0.000    0.000    0.000    0.000    0.000 
#
# Total GULP energy -356999.990028 kJ/mol
# GULP energy per Si atom -5578.124844 kJ/mol
# Density = 1.881684 g / cm^3
# Si number density = 18.859765 Si / 1000 Ang^3
#
#
#
# Elastic Constant Matrix: (Units=GPa)
#
#
# Indices 1 2 3 4 5 6 
#
# 1 115.5715 61.4903 -21.2948 0.0000 0.0000 0.0000
# 2 61.4903 110.1601 -19.9220 0.0000 0.0000 0.0000
# 3 -21.2948 -19.9220 46.9917 0.0000 0.0000 0.0000
# 4 0.0000 0.0000 0.0000 13.5292 0.0000 0.0000
# 5 0.0000 0.0000 0.0000 0.0000 -1.1960 0.0000
# 6 0.0000 0.0000 0.0000 0.0000 0.0000 11.0813
#
#
#
# Elastic Compliance Matrix: (Units=1/GPa)
#
#
# Indices 1 2 3 4 5 6 
#
# 1 0.012680 -0.006540 0.002973 0.000000 0.000000 0.000000
# 2 -0.006540 0.013205 0.002634 0.000000 0.000000 0.000000
# 3 0.002973 0.002634 0.023745 0.000000 0.000000 0.000000
# 4 0.000000 0.000000 0.000000 0.073914 0.000000 0.000000
# 5 0.000000 0.000000 0.000000 0.000000 -0.836095 0.000000
# 6 0.000000 0.000000 0.000000 0.000000 0.000000 0.090242
#
#
# Mechanical properties :
#
#
# Convention : Reuss Voigt Hill
#
# Bulk Modulus (GPa) = 20.93589 34.80783 27.87186
# Shear Modulus (GPa) = -8.27101 21.51286 6.62093
#
# Velocity S-wave (km/s) = -2.09644 3.38105 1.87569
# Velocity P-wave (km/s) = 2.29453 5.80846 4.41605
#
# Compressibility (1/GPa) = 0.04776487
#
# Stress axis : x y z
#
# Youngs Moduli (GPa) = 78.86240 75.72992 42.11476
#
# Poissons Ratio (x) = 0.49529 -0.12523
# Poissons Ratio (y) = 0.51578 -0.11094
# Poissons Ratio (z) = -0.23450 -0.19950
#
# Static dielectric constant tensor:
#      x y z
#    x 1.683970 0.000000 0.000000 
#    y 0.000000 1.642680 0.000000 
#    z 0.000000 0.000000 1.731800 
# 
# From -- ./inp_files/7648.got.cif
#   From: 2010.05.17/outbox.cif.g08.bks.cpg/sg60_4_cif.got.tgz:7648.got - 2010.06.03 14:59:27.
