data_PCOD9453654
_publ_section_title
;
Structure prediction by ZEFSAII (Michael W. Deem and Ramdas Pophale) SiO2 
 PCOD9453654
Probable space group: P M M N
;
_chemical_formula_sum "Si O2"
_cell_formula_units_Z 56
_cell_length_a 15.000000
_cell_length_b 9.000000
_cell_length_c 21.000000
_cell_angle_alpha 90.000000
_cell_angle_beta 90.000000
_cell_angle_gamma 90.000000
_cell_volume 2835.000000
_symmetry_space_group_name_H-M "P M M N"
_symmetry_group_IT_number 59
_space_group.IT_coordinate_system_code '2'
_symmetry_cell_setting 'orthorhombic'
loop_
_space_group_symop_operation_xyz
x,y,z
1/2-x,1/2-y,z
1/2+x,-y,-z
-x,1/2+y,-z
-x,-y,-z
1/2+x,1/2+y,-z
1/2-x,y,z
x,1/2-y,z
loop_
_atom_site_type_symbol
_atom_site_label
_atom_site_fract_x
_atom_site_fract_y
_atom_site_fract_z
Si Si1 0.853248 0.427065 0.597237
Si Si2 0.024698 0.927475 0.647144
Si Si3 0.530102 0.425978 0.209592
Si Si4 0.848178 0.920098 0.107047
Si Si5 0.855032 0.575995 0.460278
Si Si6 0.651213 0.926446 0.852757
Si Si7 0.405185 0.573665 0.015566
O O1 0.750000 0.459070 0.613254
O O2 0.866921 0.250000 0.600075
O O3 0.868797 0.485612 0.525390
O O4 0.924502 0.512514 0.639655
O O5 0.026465 0.750000 0.638008
O O6 0.056710 0.961119 0.718575
O O7 0.084971 0.007820 0.594913
O O8 0.545107 0.250000 0.198641
O O9 0.582285 0.517538 0.157046
O O10 0.425747 0.455861 0.197962
O O11 0.750000 0.923714 0.136382
O O12 0.869186 0.750000 0.089305
O O13 0.847958 0.018581 0.043924
O O14 0.750000 0.564930 0.444136
O O15 0.876316 0.750000 0.470462
O O16 0.750000 0.963511 0.829807
O O17 0.648027 0.750000 0.867389
O O18 0.630514 0.012514 0.917768
O O19 0.411673 0.750000 0.017312
O O20 0.500000 0.500000 0.000000
#
# Coordination Sequence:
#
# PCOD9453654 Si02
#       7
#     8   8   8   8   8   8   8
#     4  10  21  38  61  89 120 154 194 243 295 346
#     4  11  23  38  59  87 120 158 200 242 290 349
#     4  10  23  41  60  84 116 159 201 240 286 341
#     4  11  24  41  62  88 118 154 194 241 297 351
#     4  10  21  38  61  88 118 154 196 243 296 351
#     4  10  21  39  62  87 116 151 193 241 293 348
#     4  12  23  37  61  90 119 151 191 241 296 350
#
# _framework density 19.753086
#
# number of rings (size 3 to 8) (size 9 to 14) (size 15 to 20)
#    0.000    1.429    1.429    3.857    0.000    7.143 
#    0.000    4.286    0.000    0.000    0.000    0.000 
#    0.000    0.000    0.000    0.000    0.000    0.000 
#
# Total GULP energy -312914.421218 kJ/mol
# GULP energy per Si atom -5587.757522 kJ/mol
# Density = 1.970813 g / cm^3
# Si number density = 19.753086 Si / 1000 Ang^3
#
#
#
# Elastic Constant Matrix: (Units=GPa)
#
#
# Indices 1 2 3 4 5 6 
#
# 1 61.6272 16.3280 9.1036 0.0000 0.0000 0.0000
# 2 16.3280 22.0029 4.4775 0.0000 0.0000 0.0000
# 3 9.1036 4.4775 31.0677 0.0000 0.0000 0.0000
# 4 0.0000 0.0000 0.0000 25.5216 0.0000 0.0000
# 5 0.0000 0.0000 0.0000 0.0000 -24.8146 0.0000
# 6 0.0000 0.0000 0.0000 0.0000 0.0000 26.6834
#
#
#
# Elastic Compliance Matrix: (Units=1/GPa)
#
#
# Indices 1 2 3 4 5 6 
#
# 1 0.020660 -0.014526 -0.003961 0.000000 0.000000 0.000000
# 2 -0.014526 0.057034 -0.003963 0.000000 0.000000 0.000000
# 3 -0.003961 -0.003963 0.033919 0.000000 0.000000 0.000000
# 4 0.000000 0.000000 0.000000 0.039182 0.000000 0.000000
# 5 0.000000 0.000000 0.000000 0.000000 -0.040299 0.000000
# 6 0.000000 0.000000 0.000000 0.000000 0.000000 0.037476
#
#
# Mechanical properties :
#
#
# Convention : Reuss Voigt Hill
#
# Bulk Modulus (GPa) = 14.98917 19.39068 17.18992
# Shear Modulus (GPa) = 23.24373 11.13066 17.18720
#
# Velocity S-wave (km/s) = 3.43405 2.37637 2.95295
# Velocity P-wave (km/s) = 4.82994 4.16742 4.51086
#
# Compressibility (1/GPa) = 0.06671485
#
# Stress axis : x y z
#
# Youngs Moduli (GPa) = 48.40221 17.53327 29.48160
#
# Poissons Ratio (x) = 0.25468 0.11676
# Poissons Ratio (y) = 0.70308 0.11685
# Poissons Ratio (z) = 0.19170 0.06949
#
# Static dielectric constant tensor:
#      x y z
#    x 1.698660 0.000000 0.000000 
#    y 0.000000 1.663030 0.000000 
#    z 0.000000 0.000000 1.663740 
# 
# From -- ./inp_files/28991.got.cif
#   From: 2010.05.17/outbox.ucp.g08.bks.cvg/sg59_15_cif.got.tgz:28991.got - 2010.06.11 16:43:56.
