data_PCOD9453471
_publ_section_title
;
Structure prediction by ZEFSAII (Michael W. Deem and Ramdas Pophale) SiO2 
 PCOD9453471
Probable space group: P M M N
;
_chemical_formula_sum "Si O2"
_cell_formula_units_Z 64
_cell_length_a 9.000000
_cell_length_b 24.000000
_cell_length_c 15.000000
_cell_angle_alpha 90.000000
_cell_angle_beta 90.000000
_cell_angle_gamma 90.000000
_cell_volume 3240.000000
_symmetry_space_group_name_H-M "P M M N"
_symmetry_group_IT_number 59
_space_group.IT_coordinate_system_code '2'
_symmetry_cell_setting 'orthorhombic'
loop_
_space_group_symop_operation_xyz
x,y,z
1/2-x,1/2-y,z
1/2+x,-y,-z
-x,1/2+y,-z
-x,-y,-z
1/2+x,1/2+y,-z
1/2-x,y,z
x,1/2-y,z
loop_
_atom_site_type_symbol
_atom_site_label
_atom_site_fract_x
_atom_site_fract_y
_atom_site_fract_z
Si Si1 0.922888 0.003412 0.094776
Si Si2 0.920344 0.684098 0.948983
Si Si3 0.073463 0.887897 0.804235
Si Si4 0.570482 0.184886 0.366102
Si Si5 0.078859 0.088016 0.446189
Si Si6 0.917261 0.184960 0.867840
Si Si7 0.922490 0.984723 0.373701
Si Si8 0.576580 0.904091 0.225140
O O1 0.750000 0.017328 0.080498
O O2 0.980532 0.050688 0.164311
O O3 0.930509 0.942610 0.138065
O O4 0.000000 0.000000 0.000000
O O5 0.750000 0.666025 0.935636
O O6 0.930101 0.750000 0.929052
O O7 0.032089 0.650358 0.888010
O O8 0.970584 0.676533 0.050424
O O9 0.250000 0.892475 0.790315
O O10 0.017844 0.851106 0.720178
O O11 0.750000 0.184625 0.368285
O O12 0.523943 0.250000 0.364276
O O13 0.506483 0.146602 0.445526
O O14 0.250000 0.097709 0.423608
O O15 0.072912 0.052528 0.537321
O O16 0.002086 0.043569 0.380674
O O17 0.750000 0.167657 0.892803
O O18 0.914955 0.250000 0.847790
O O19 0.979711 0.149958 0.786868
O O20 0.750000 0.996387 0.352162
O O21 0.986151 0.944363 0.300130
O O22 0.750000 0.891304 0.243857
#
# Coordination Sequence:
#
# PCOD9453471 Si02
#       8
#     8   8   8   8   8   8   8   8
#     4  10  21  34  50  75 106 139 173 216 267 314
#     4  10  20  33  50  73 101 135 177 222 264 307
#     4  10  20  35  54  75 102 140 185 226 266 317
#     4  10  21  37  57  80 110 151 192 230 279 339
#     4  10  20  35  58  86 112 140 177 224 275 325
#     4  10  21  36  53  74 102 135 171 214 262 311
#     4   9  19  37  60  84 110 141 178 222 272 327
#     4  10  20  36  57  78 102 135 176 218 261 312
#
# _framework density 19.753086
#
# number of rings (size 3 to 8) (size 9 to 14) (size 15 to 20)
#    0.000    2.125    0.000    3.000    0.000    8.750 
#    0.000    1.875    0.000    3.750    0.000    0.000 
#    0.000    0.000    0.000    0.000    0.000    0.000 
#
# Total GULP energy -356706.487085 kJ/mol
# GULP energy per Si atom -5573.538861 kJ/mol
# Density = 1.970813 g / cm^3
# Si number density = 19.753086 Si / 1000 Ang^3
#
#
#
# Elastic Constant Matrix: (Units=GPa)
#
#
# Indices 1 2 3 4 5 6 
#
# 1 5.0309 21.6959 13.5616 0.0000 0.0000 0.0000
# 2 21.6959 85.5835 17.9185 0.0000 0.0000 0.0000
# 3 13.5616 17.9185 19.5804 0.0000 0.0000 0.0000
# 4 0.0000 0.0000 0.0000 22.9205 0.0000 0.0000
# 5 0.0000 0.0000 0.0000 0.0000 17.0239 0.0000
# 6 0.0000 0.0000 0.0000 0.0000 0.0000 30.1991
#
#
#
# Elastic Compliance Matrix: (Units=1/GPa)
#
#
# Indices 1 2 3 4 5 6 
#
# 1 -0.178309 0.023931 0.101599 0.000000 0.000000 0.000000
# 2 0.023931 0.011242 -0.026862 0.000000 0.000000 0.000000
# 3 0.101599 -0.026862 0.005285 0.000000 0.000000 0.000000
# 4 0.000000 0.000000 0.000000 0.043629 0.000000 0.000000
# 5 0.000000 0.000000 0.000000 0.000000 0.058741 0.000000
# 6 0.000000 0.000000 0.000000 0.000000 0.000000 0.033114
#
#
# Mechanical properties :
#
#
# Convention : Reuss Voigt Hill
#
# Bulk Modulus (GPa) = 28.12699 24.06075 26.09387
# Shear Modulus (GPa) = -23.60927 17.82994 -2.88966
#
# Velocity S-wave (km/s) = -3.46094 3.00766 -1.21081
# Velocity P-wave (km/s) = 1.30409 4.92631 3.35916
#
# Compressibility (1/GPa) = 0.03555304
#
# Stress axis : x y z
#
# Youngs Moduli (GPa) = -5.60825 88.95129 189.20958
#
# Poissons Ratio (x) = -2.12866 -19.22353
# Poissons Ratio (y) = 0.13421 5.08264
# Poissons Ratio (z) = 0.56979 2.38945
#
# Static dielectric constant tensor:
#      x y z
#    x 1.678440 0.000000 0.000000 
#    y 0.000000 1.700400 0.000000 
#    z 0.000000 0.000000 1.702310 
# 
# From -- ./inp_files/21572.got.cif
#   From: 2010.05.17/outbox.ucp.g08.bks.cvg/sg59_11_cif.got.tgz:21572.got - 2010.06.11 16:43:56.
