data_PCOD9453839
_publ_section_title
;
Structure prediction by ZEFSAII (Michael W. Deem and Ramdas Pophale) SiO2 
 PCOD9453839
Probable space group: P B C N
;
_chemical_formula_sum "Si O2"
_cell_formula_units_Z 32
_cell_length_a 7.238635
_cell_length_b 20.336002
_cell_length_c 10.162784
_cell_angle_alpha 90.000000
_cell_angle_beta 90.000000
_cell_angle_gamma 90.000000
_cell_volume 1496.011560
_symmetry_space_group_name_H-M "P B C N"
_symmetry_group_IT_number 60
_symmetry_cell_setting 'orthorhombic'
loop_
_space_group_symop_operation_xyz
x,y,z
1/2-x,1/2-y,1/2+z
1/2+x,1/2-y,-z
-x,y,1/2-z
-x,-y,-z
1/2+x,1/2+y,1/2-z
1/2-x,1/2+y,z
x,-y,1/2+z
loop_
_atom_site_type_symbol
_atom_site_label
_atom_site_fract_x
_atom_site_fract_y
_atom_site_fract_z
Si Si1 0.347019 0.294280 0.859142
Si Si2 0.793188 0.971155 0.021155
Si Si3 0.093217 0.830345 0.392370
Si Si4 0.272884 0.570572 0.261794
O O1 0.500000 0.275479 0.750000
O O2 0.229407 0.231463 0.898838
O O3 0.230060 0.353700 0.793987
O O4 0.447899 0.323110 0.988221
O O5 0.808156 0.900199 0.089019
O O6 0.710037 0.024053 0.120186
O O7 0.710397 0.957827 0.877729
O O8 0.000000 0.000000 0.000000
O O9 0.000000 0.829301 0.250000
O O10 0.500000 0.570439 0.250000
#
# Coordination Sequence:
#
# PCOD9453839 Si02
#       4
#     8   8   8   8
#     4  11  22  41  55  88 125 154 198 252 300 359
#     4  10  17  33  57  87 110 147 206 249 282 342
#     4  12  23  35  63  88 116 162 198 247 304 357
#     4   9  17  32  54  80 117 140 192 254 281 339
#
# _framework density 21.390208999999999
#
# number of rings (size 3 to 8) (size 9 to 14) (size 15 to 20)
#    0.000    1.500    7.500    3.750    0.000    0.000 
#    0.000    0.000    0.000    3.000    0.000    0.000 
#    0.000    0.000    0.000    0.000    0.000    0.000 
#
# Total GULP energy -178801.350804 kJ/mol
# GULP energy per Si atom -5587.542213 kJ/mol
# Density = 2.134152 g / cm^3
# Si number density = 21.390209 Si / 1000 Ang^3
#
#
#
# Elastic Constant Matrix: (Units=GPa)
#
#
# Indices 1 2 3 4 5 6 
#
# 1 50.6964 24.2463 18.7816 0.0000 0.0000 0.0000
# 2 24.2463 154.2726 13.4483 0.0000 0.0000 0.0000
# 3 18.7816 13.4483 100.7205 0.0000 0.0000 0.0000
# 4 0.0000 0.0000 0.0000 39.3390 0.0000 0.0000
# 5 0.0000 0.0000 0.0000 0.0000 -18.7573 0.0000
# 6 0.0000 0.0000 0.0000 0.0000 0.0000 15.8965
#
#
#
# Elastic Compliance Matrix: (Units=1/GPa)
#
#
# Indices 1 2 3 4 5 6 
#
# 1 0.022678 -0.003233 -0.003797 0.000000 0.000000 0.000000
# 2 -0.003233 0.007019 -0.000334 0.000000 0.000000 0.000000
# 3 -0.003797 -0.000334 0.010681 0.000000 0.000000 0.000000
# 4 0.000000 0.000000 0.000000 0.025420 0.000000 0.000000
# 5 0.000000 0.000000 0.000000 0.000000 -0.053313 0.000000
# 6 0.000000 0.000000 0.000000 0.000000 0.000000 0.062907
#
#
# Mechanical properties :
#
#
# Convention : Reuss Voigt Hill
#
# Bulk Modulus (GPa) = 38.98730 46.51577 42.75153
# Shear Modulus (GPa) = 50.67265 23.90986 37.29125
#
# Velocity S-wave (km/s) = 4.87248 3.34697 4.17991
# Velocity P-wave (km/s) = 7.06548 6.06051 6.58220
#
# Compressibility (1/GPa) = 0.02564938
#
# Stress axis : x y z
#
# Youngs Moduli (GPa) = 44.09483 142.46371 93.62262
#
# Poissons Ratio (x) = 0.46062 0.35550
# Poissons Ratio (y) = 0.14257 0.03130
# Poissons Ratio (z) = 0.16744 0.04763
#
# Static dielectric constant tensor:
#      x y z
#    x 1.828420 0.000000 0.000000 
#    y 0.000000 1.732670 0.000000 
#    z 0.000000 0.000000 1.770610 
# 
# From -- ./inp_files/9677.got.cif
#   From: 2010.05.17/outbox.cif.g08.bks.cpg/sg60_5_cif.got.tgz:9677.got - 2010.06.03 14:59:27.
