data_PCOD9453578
_publ_section_title
;
Structure prediction by ZEFSAII (Michael W. Deem and Ramdas Pophale) SiO2 
 PCOD9453578
Probable space group: P M M N
;
_chemical_formula_sum "Si O2"
_cell_formula_units_Z 56
_cell_length_a 9.000000
_cell_length_b 21.000000
_cell_length_c 15.000000
_cell_angle_alpha 90.000000
_cell_angle_beta 90.000000
_cell_angle_gamma 90.000000
_cell_volume 2835.000000
_symmetry_space_group_name_H-M "P M M N"
_symmetry_group_IT_number 59
_space_group.IT_coordinate_system_code '2'
_symmetry_cell_setting 'orthorhombic'
loop_
_space_group_symop_operation_xyz
x,y,z
1/2-x,1/2-y,z
1/2+x,-y,-z
-x,1/2+y,-z
-x,-y,-z
1/2+x,1/2+y,-z
1/2-x,y,z
x,1/2-y,z
loop_
_atom_site_type_symbol
_atom_site_label
_atom_site_fract_x
_atom_site_fract_y
_atom_site_fract_z
Si Si1 0.427721 0.946110 0.437032
Si Si2 0.079078 0.495425 0.256015
Si Si3 0.918160 0.675193 0.890360
Si Si4 0.072523 0.037855 0.915121
Si Si5 0.929227 0.680309 0.507442
Si Si6 0.921728 0.852331 0.699435
Si Si7 0.073574 0.673779 0.072865
O O1 0.250000 0.950333 0.446687
O O2 0.464020 0.956207 0.333180
O O3 0.489409 0.877611 0.462339
O O4 0.500000 0.000000 0.500000
O O5 0.250000 0.506109 0.226273
O O6 0.077747 0.428136 0.307404
O O7 0.973787 0.497096 0.171402
O O8 0.750000 0.645317 0.899971
O O9 0.895736 0.750000 0.893361
O O10 0.988680 0.660882 0.795195
O O11 0.029181 0.662049 0.969992
O O12 0.250000 0.041639 0.927497
O O13 0.009019 0.109628 0.890879
O O14 0.000000 0.000000 0.000000
O O15 0.750000 0.670111 0.507559
O O16 0.958601 0.750000 0.468935
O O17 0.980529 0.678421 0.610556
O O18 0.750000 0.830323 0.708240
O O19 0.250000 0.669089 0.088507
O O20 0.032197 0.750000 0.093289
#
# Coordination Sequence:
#
# PCOD9453578 Si02
#       7
#     8   8   8   8   8   8   8
#     4  11  22  39  63  89 121 160 205 251 301 362
#     4  10  21  38  60  86 117 158 205 252 305 367
#     4   9  16  27  48  78 110 148 193 240 296 362
#     4  12  25  41  63  92 126 161 203 257 310 369
#     4  10  20  36  59  87 121 161 205 253 307 364
#     4   9  16  30  52  80 113 150 194 240 294 360
#     4  10  21  38  59  83 115 157 204 254 309 365
#
# _framework density 19.753086
#
# number of rings (size 3 to 8) (size 9 to 14) (size 15 to 20)
#    0.000    1.857    1.429    3.429    0.000    5.143 
#    0.000    1.429    0.000    2.571    0.000    0.000 
#    0.000    0.000    0.000    0.000    0.000    0.000 
#
# Total GULP energy -311827.625430 kJ/mol
# GULP energy per Si atom -5568.350454 kJ/mol
# Density = 1.970813 g / cm^3
# Si number density = 19.753086 Si / 1000 Ang^3
#
#
#
# Elastic Constant Matrix: (Units=GPa)
#
#
# Indices 1 2 3 4 5 6 
#
# 1 64.9159 34.9697 29.6625 0.0000 0.0000 0.0000
# 2 34.9697 79.0923 34.2202 0.0000 0.0000 0.0000
# 3 29.6625 34.2202 63.0639 0.0000 0.0000 0.0000
# 4 0.0000 0.0000 0.0000 21.9653 0.0000 0.0000
# 5 0.0000 0.0000 0.0000 0.0000 41.7610 0.0000
# 6 0.0000 0.0000 0.0000 0.0000 0.0000 30.7212
#
#
#
# Elastic Compliance Matrix: (Units=1/GPa)
#
#
# Indices 1 2 3 4 5 6 
#
# 1 0.022184 -0.006918 -0.006680 0.000000 0.000000 0.000000
# 2 -0.006918 0.018680 -0.006882 0.000000 0.000000 0.000000
# 3 -0.006680 -0.006882 0.022734 0.000000 0.000000 0.000000
# 4 0.000000 0.000000 0.000000 0.045526 0.000000 0.000000
# 5 0.000000 0.000000 0.000000 0.000000 0.023946 0.000000
# 6 0.000000 0.000000 0.000000 0.000000 0.000000 0.032551
#
#
# Mechanical properties :
#
#
# Convention : Reuss Voigt Hill
#
# Bulk Modulus (GPa) = 44.17754 44.97522 44.57638
# Shear Modulus (GPa) = 23.35067 26.10415 24.72741
#
# Velocity S-wave (km/s) = 3.44194 3.63922 3.54195
# Velocity P-wave (km/s) = 6.18137 6.36213 6.27240
#
# Compressibility (1/GPa) = 0.02263593
#
# Stress axis : x y z
#
# Youngs Moduli (GPa) = 45.07820 53.53374 43.98768
#
# Poissons Ratio (x) = 0.37034 0.29386
# Poissons Ratio (y) = 0.31185 0.30274
# Poissons Ratio (z) = 0.30114 0.36844
#
# Static dielectric constant tensor:
#      x y z
#    x 1.688360 0.000000 0.000000 
#    y 0.000000 1.799740 0.000000 
#    z 0.000000 0.000000 1.751090 
# 
# From -- ./inp_files/20981.got.cif
#   From: 2010.05.17/outbox.ucp.g08.bks.cvg/sg59_11_cif.got.tgz:20981.got - 2010.06.11 16:43:56.
