data_PCOD9453682
_publ_section_title
;
Structure prediction by ZEFSAII (Michael W. Deem and Ramdas Pophale) SiO2 
 PCOD9453682
Probable space group: P M M N
;
_chemical_formula_sum "Si O2"
_cell_formula_units_Z 56
_cell_length_a 9.000000
_cell_length_b 15.000000
_cell_length_c 21.000000
_cell_angle_alpha 90.000000
_cell_angle_beta 90.000000
_cell_angle_gamma 90.000000
_cell_volume 2835.000000
_symmetry_space_group_name_H-M "P M M N"
_symmetry_group_IT_number 59
_space_group.IT_coordinate_system_code '2'
_symmetry_cell_setting 'orthorhombic'
loop_
_space_group_symop_operation_xyz
x,y,z
1/2-x,1/2-y,z
1/2+x,-y,-z
-x,1/2+y,-z
-x,-y,-z
1/2+x,1/2+y,-z
1/2-x,y,z
x,1/2-y,z
loop_
_atom_site_type_symbol
_atom_site_label
_atom_site_fract_x
_atom_site_fract_y
_atom_site_fract_z
Si Si1 0.424421 0.407268 0.480648
Si Si2 0.072289 0.479229 0.841368
Si Si3 0.924855 0.017583 0.712229
Si Si4 0.572170 0.854500 0.899042
Si Si5 0.420666 0.350117 0.621529
Si Si6 0.569516 0.851398 0.044797
Si Si7 0.074013 0.647953 0.650169
O O1 0.500000 0.500000 0.500000
O O2 0.250000 0.419057 0.465029
O O3 0.434735 0.350957 0.545344
O O4 0.507961 0.366451 0.420463
O O5 0.250000 0.476618 0.837774
O O6 0.020735 0.419519 0.901194
O O7 0.002147 0.446369 0.775784
O O8 0.014970 0.578870 0.854073
O O9 0.750000 0.011898 0.720430
O O10 0.992834 0.921580 0.695593
O O11 0.968812 0.081312 0.653882
O O12 0.750000 0.868961 0.893552
O O13 0.544462 0.750000 0.887047
O O14 0.525929 0.873636 0.972431
O O15 0.250000 0.377777 0.635743
O O16 0.443572 0.250000 0.645357
O O17 0.750000 0.851418 0.044753
O O18 0.521718 0.750000 0.058563
O O19 0.250000 0.629527 0.649087
O O20 0.050387 0.750000 0.669547
#
# Coordination Sequence:
#
# PCOD9453682 Si02
#       7
#     8   8   8   8   8   8   8
#     4  11  21  36  63  94 124 156 192 238 293 349
#     4  11  22  36  58  85 116 153 194 239 289 346
#     4  12  26  42  60  83 116 158 201 248 295 349
#     4   9  18  35  59  86 117 151 189 234 284 341
#     4  10  22  41  64  88 118 156 196 239 290 349
#     4   8  16  33  58  87 116 149 189 232 282 342
#     4  11  24  42  64  89 118 153 196 247 301 356
#
# _framework density 19.753086
#
# number of rings (size 3 to 8) (size 9 to 14) (size 15 to 20)
#    0.000    1.714    1.429    4.286    0.000    4.000 
#    0.000    2.143    0.000    3.000    0.000    0.000 
#    0.000    0.000    0.000    0.000    0.000    0.000 
#
# Total GULP energy -312844.215272 kJ/mol
# GULP energy per Si atom -5586.503844 kJ/mol
# Density = 1.970813 g / cm^3
# Si number density = 19.753086 Si / 1000 Ang^3
#
#
#
# Elastic Constant Matrix: (Units=GPa)
#
#
# Indices 1 2 3 4 5 6 
#
# 1 64.9599 28.0323 9.0921 0.0000 0.0000 0.0000
# 2 28.0323 58.4764 7.2993 0.0000 0.0000 0.0000
# 3 9.0921 7.2993 42.6404 0.0000 0.0000 0.0000
# 4 0.0000 0.0000 0.0000 -7.1884 0.0000 0.0000
# 5 0.0000 0.0000 0.0000 0.0000 32.1132 0.0000
# 6 0.0000 0.0000 0.0000 0.0000 0.0000 14.4804
#
#
#
# Elastic Compliance Matrix: (Units=1/GPa)
#
#
# Indices 1 2 3 4 5 6 
#
# 1 0.019696 -0.009112 -0.002640 0.000000 0.000000 0.000000
# 2 -0.009112 0.021690 -0.001770 0.000000 0.000000 0.000000
# 3 -0.002640 -0.001770 0.024318 0.000000 0.000000 0.000000
# 4 0.000000 0.000000 0.000000 -0.139113 0.000000 0.000000
# 5 0.000000 0.000000 0.000000 0.000000 0.031140 0.000000
# 6 0.000000 0.000000 0.000000 0.000000 0.000000 0.069059
#
#
# Mechanical properties :
#
#
# Convention : Reuss Voigt Hill
#
# Bulk Modulus (GPa) = 25.86681 28.32490 27.09586
# Shear Modulus (GPa) = 74.94054 15.99124 45.46589
#
# Velocity S-wave (km/s) = 6.16612 2.84836 4.80282
# Velocity P-wave (km/s) = 7.98863 5.01878 6.67107
#
# Compressibility (1/GPa) = 0.03865957
#
# Stress axis : x y z
#
# Youngs Moduli (GPa) = 50.77216 46.10404 41.12216
#
# Poissons Ratio (x) = 0.42011 0.10855
# Poissons Ratio (y) = 0.46265 0.07279
# Poissons Ratio (z) = 0.13403 0.08160
#
# Static dielectric constant tensor:
#      x y z
#    x 1.659730 0.000000 0.000000 
#    y 0.000000 1.699460 0.000000 
#    z 0.000000 0.000000 1.699040 
# 
# From -- ./inp_files/29092.got.cif
#   From: 2010.05.17/outbox.ucp.g08.bks.cvg/sg59_15_cif.got.tgz:29092.got - 2010.06.11 16:43:56.
