data_PCOD9453764
_publ_section_title
;
Structure prediction by ZEFSAII (Michael W. Deem and Ramdas Pophale) SiO2 
 PCOD9453764
Probable space group: P B C N
;
_chemical_formula_sum "Si O2"
_cell_formula_units_Z 48
_cell_length_a 11.098905
_cell_length_b 18.229065
_cell_length_c 11.039434
_cell_angle_alpha 90.000000
_cell_angle_beta 90.000000
_cell_angle_gamma 90.000000
_cell_volume 2233.527659
_symmetry_space_group_name_H-M "P B C N"
_symmetry_group_IT_number 60
_symmetry_cell_setting 'orthorhombic'
loop_
_space_group_symop_operation_xyz
x,y,z
1/2-x,1/2-y,1/2+z
1/2+x,1/2-y,-z
-x,y,1/2-z
-x,-y,-z
1/2+x,1/2+y,1/2-z
1/2-x,1/2+y,z
x,-y,1/2+z
loop_
_atom_site_type_symbol
_atom_site_label
_atom_site_fract_x
_atom_site_fract_y
_atom_site_fract_z
Si Si1 0.143296 0.625509 0.634817
Si Si2 0.185618 0.476029 0.934226
Si Si3 0.102350 0.358607 0.505812
Si Si4 0.000000 0.505194 0.250000
Si Si5 0.000000 0.700228 0.250000
Si Si6 0.435302 0.528971 0.876520
Si Si7 0.187004 0.816014 0.346155
O O1 0.213992 0.590347 0.523662
O O2 0.099086 0.551258 0.700790
O O3 0.229315 0.667966 0.726902
O O4 0.016951 0.655801 0.578758
O O5 0.073385 0.453097 0.852007
O O6 0.306726 0.490397 0.864759
O O7 0.142821 0.555376 0.988788
O O8 0.076156 0.338775 0.643750
O O9 0.214075 0.311987 0.452706
O O10 0.900843 0.749127 0.179353
O O11 0.500000 0.514563 0.750000
O O12 0.400052 0.615123 0.878048
O O13 0.500000 0.500000 0.000000
#
# Coordination Sequence:
#
# PCOD9453764 Si02
#       7
#     8   8   8   4   4   8   8
#     4  11  19  40  69  99 128 173 206 279 341 392
#     4  10  22  35  68  97 139 163 218 275 343 393
#     4  10  23  44  65  99 127 172 224 276 321 396
#     4  10  16  33  56  96 126 167 198 264 320 388
#     4  12  28  43  70  96 134 179 230 270 324 412
#     4  11  22  41  65  97 138 179 218 268 341 415
#     4  11  23  45  69  91 134 178 222 268 338 396
#
# _framework density 21.490669
#
# number of rings (size 3 to 8) (size 9 to 14) (size 15 to 20)
#    0.000    1.333    5.833    3.000    2.333    2.667 
#    3.000    0.000    0.000    0.000    0.000    0.000 
#    0.000    0.000    0.000    0.000    0.000    0.000 
#
# Total GULP energy -267759.287187 kJ/mol
# GULP energy per Si atom -5578.318483 kJ/mol
# Density = 2.144175 g / cm^3
# Si number density = 21.490669 Si / 1000 Ang^3
#
#
#
# Elastic Constant Matrix: (Units=GPa)
#
#
# Indices 1 2 3 4 5 6 
#
# 1 131.8985 38.5706 68.1981 0.0000 0.0000 0.0000
# 2 38.5706 38.0971 39.5127 0.0000 0.0000 0.0000
# 3 68.1981 39.5127 143.3603 0.0000 0.0000 0.0000
# 4 0.0000 0.0000 0.0000 33.3271 0.0000 0.0000
# 5 0.0000 0.0000 0.0000 0.0000 47.6444 0.0000
# 6 0.0000 0.0000 0.0000 0.0000 0.0000 14.2141
#
#
#
# Elastic Compliance Matrix: (Units=1/GPa)
#
#
# Indices 1 2 3 4 5 6 
#
# 1 0.011753 -0.008542 -0.003237 0.000000 0.000000 0.000000
# 2 -0.008542 0.042964 -0.007778 0.000000 0.000000 0.000000
# 3 -0.003237 -0.007778 0.010659 0.000000 0.000000 0.000000
# 4 0.000000 0.000000 0.000000 0.030006 0.000000 0.000000
# 5 0.000000 0.000000 0.000000 0.000000 0.020989 0.000000
# 6 0.000000 0.000000 0.000000 0.000000 0.000000 0.070353
#
#
# Mechanical properties :
#
#
# Convention : Reuss Voigt Hill
#
# Bulk Modulus (GPa) = 38.07744 67.32429 52.70087
# Shear Modulus (GPa) = 21.31365 30.17541 25.74453
#
# Velocity S-wave (km/s) = 3.15264 3.75122 3.46488
# Velocity P-wave (km/s) = 5.56855 7.08219 6.37049
#
# Compressibility (1/GPa) = 0.02626227
#
# Stress axis : x y z
#
# Youngs Moduli (GPa) = 85.08409 23.27519 93.81791
#
# Poissons Ratio (x) = 0.19882 0.30366
# Poissons Ratio (y) = 0.72680 0.72973
# Poissons Ratio (z) = 0.27539 0.18104
#
# Static dielectric constant tensor:
#      x y z
#    x 1.792580 0.000000 0.000000 
#    y 0.000000 1.830050 0.000000 
#    z 0.000000 0.000000 1.996620 
# 
# From -- ./inp_files/11064.got.cif
#   From: 2010.05.17/outbox.cif.g08.bks.cpg/sg60_6_cif.got.tgz:11064.got - 2010.06.03 14:59:27.
