data_PCOD9453861
_publ_section_title
;
Structure prediction by ZEFSAII (Michael W. Deem and Ramdas Pophale) SiO2 
 PCOD9453861
Probable space group: P B C N
;
_chemical_formula_sum "Si O2"
_cell_formula_units_Z 60
_cell_length_a 12.724703
_cell_length_b 18.568689
_cell_length_c 14.706418
_cell_angle_alpha 90.000000
_cell_angle_beta 90.000000
_cell_angle_gamma 90.000000
_cell_volume 3474.847925
_symmetry_space_group_name_H-M "P B C N"
_symmetry_group_IT_number 60
_symmetry_cell_setting 'orthorhombic'
loop_
_space_group_symop_operation_xyz
x,y,z
1/2-x,1/2-y,1/2+z
1/2+x,1/2-y,-z
-x,y,1/2-z
-x,-y,-z
1/2+x,1/2+y,1/2-z
1/2-x,1/2+y,z
x,-y,1/2+z
loop_
_atom_site_type_symbol
_atom_site_label
_atom_site_fract_x
_atom_site_fract_y
_atom_site_fract_z
Si Si1 0.676076 0.345113 0.017986
Si Si2 0.173872 0.854710 0.099359
Si Si3 0.606034 0.786183 0.402238
Si Si4 0.893664 0.271567 0.026771
Si Si5 0.908085 0.987115 0.930348
Si Si6 0.500000 0.584405 0.250000
Si Si7 0.836659 0.211174 0.222254
Si Si8 0.880555 0.215710 0.718762
O O1 0.798139 0.324819 0.007796
O O2 0.634735 0.321428 0.119019
O O3 0.618339 0.291837 0.948407
O O4 0.658083 0.424211 0.979070
O O5 0.293272 0.833981 0.075385
O O6 0.153754 0.842116 0.205707
O O7 0.149676 0.936687 0.078181
O O8 0.105826 0.792892 0.047188
O O9 0.500543 0.813128 0.449691
O O10 0.613607 0.767066 0.295567
O O11 0.864643 0.233902 0.121182
O O12 0.962624 0.962142 0.836233
O O13 0.000000 0.000000 0.000000
O O14 0.398084 0.636142 0.265435
O O15 0.709245 0.221308 0.229122
O O16 0.000000 0.236521 0.750000
#
# Coordination Sequence:
#
# PCOD9453861 Si02
#       8
#     8   8   8   8   8   4   8   8
#     4  10  21  34  55  82 110 143 188 226 281 332
#     4  10  23  34  53  82 114 145 184 225 284 335
#     4  10  17  35  55  81 110 142 185 234 270 323
#     4  10  18  35  59  82 108 144 184 238 272 324
#     4  12  24  37  53  80 115 149 180 230 283 343
#     4  12  22  36  60  84 116 148 188 232 280 340
#     4  10  18  32  57  85 107 141 189 226 273 327
#     4  10  20  34  54  83 113 141 179 234 284 325
#
# _framework density 17.266943000000001
#
# number of rings (size 3 to 8) (size 9 to 14) (size 15 to 20)
#    0.000    1.600    2.667    3.200    2.800    0.000 
#    0.000    0.667    0.000    0.000    3.467    0.000 
#    0.000    0.000    0.000    0.000    0.000    0.000 
#
# Total GULP energy -334012.435382 kJ/mol
# GULP energy per Si atom -5566.873923 kJ/mol
# Density = 1.722764 g / cm^3
# Si number density = 17.266943 Si / 1000 Ang^3
#
#
#
# Elastic Constant Matrix: (Units=GPa)
#
#
# Indices 1 2 3 4 5 6 
#
# 1 110.9196 42.2151 15.1956 0.0000 0.0000 0.0000
# 2 42.2151 105.6143 42.6111 0.0000 0.0000 0.0000
# 3 15.1956 42.6111 91.0932 0.0000 0.0000 0.0000
# 4 0.0000 0.0000 0.0000 20.7166 0.0000 0.0000
# 5 0.0000 0.0000 0.0000 0.0000 23.7571 0.0000
# 6 0.0000 0.0000 0.0000 0.0000 0.0000 14.6036
#
#
#
# Elastic Compliance Matrix: (Units=1/GPa)
#
#
# Indices 1 2 3 4 5 6 
#
# 1 0.010638 -0.004359 0.000264 0.000000 0.000000 0.000000
# 2 -0.004359 0.013457 -0.005568 0.000000 0.000000 0.000000
# 3 0.000264 -0.005568 0.013538 0.000000 0.000000 0.000000
# 4 0.000000 0.000000 0.000000 0.048271 0.000000 0.000000
# 5 0.000000 0.000000 0.000000 0.000000 0.042093 0.000000
# 6 0.000000 0.000000 0.000000 0.000000 0.000000 0.068476
#
#
# Mechanical properties :
#
#
# Convention : Reuss Voigt Hill
#
# Bulk Modulus (GPa) = 54.61819 56.40785 55.51302
# Shear Modulus (GPa) = 22.53261 25.65581 24.09421
#
# Velocity S-wave (km/s) = 3.61634 3.85883 3.73955
# Velocity P-wave (km/s) = 7.00982 7.25211 7.13199
#
# Compressibility (1/GPa) = 0.01830892
#
# Stress axis : x y z
#
# Youngs Moduli (GPa) = 94.00017 74.31041 73.86556
#
# Poissons Ratio (x) = 0.32391 -0.01953
# Poissons Ratio (y) = 0.40974 0.41126
# Poissons Ratio (z) = -0.02485 0.41374
#
# Static dielectric constant tensor:
#      x y z
#    x 1.714750 0.000000 0.000000 
#    y 0.000000 1.265790 0.000000 
#    z 0.000000 0.000000 1.630290 
# 
# From -- ./inp_files/16338.got.cif
#   From: 2010.05.17/outbox.cif.g08.bks.cpg/sg60_9_cif.got.tgz:16338.got - 2010.06.03 14:59:27.
