data_PCOD9453832
_publ_section_title
;
Structure prediction by ZEFSAII (Michael W. Deem and Ramdas Pophale) SiO2 
 PCOD9453832
Probable space group: P B C N
;
_chemical_formula_sum "Si O2"
_cell_formula_units_Z 40
_cell_length_a 18.734640
_cell_length_b 16.710087
_cell_length_c 5.274032
_cell_angle_alpha 90.000000
_cell_angle_beta 90.000000
_cell_angle_gamma 90.000000
_cell_volume 1651.075085
_symmetry_space_group_name_H-M "P B C N"
_symmetry_group_IT_number 60
_symmetry_cell_setting 'orthorhombic'
loop_
_space_group_symop_operation_xyz
x,y,z
1/2-x,1/2-y,1/2+z
1/2+x,1/2-y,-z
-x,y,1/2-z
-x,-y,-z
1/2+x,1/2+y,1/2-z
1/2-x,1/2+y,z
x,-y,1/2+z
loop_
_atom_site_type_symbol
_atom_site_label
_atom_site_fract_x
_atom_site_fract_y
_atom_site_fract_z
Si Si1 0.659374 0.945677 0.764826
Si Si2 0.427216 0.691393 0.645446
Si Si3 0.000000 0.073568 0.250000
Si Si4 0.136685 0.031028 0.752355
Si Si5 0.500000 0.054448 0.250000
Si Si6 0.213484 0.281677 0.561496
O O1 0.578675 0.907595 0.758196
O O2 0.710819 0.872498 0.838430
O O3 0.665080 0.989590 0.492992
O O4 0.500000 0.730834 0.750000
O O5 0.461905 0.633375 0.439606
O O6 0.383645 0.623412 0.808733
O O7 0.367376 0.749274 0.542768
O O8 0.063658 0.015455 0.167093
O O9 0.174398 0.016568 0.480079
O O10 0.500000 0.000000 0.500000
O O11 0.247999 0.268418 0.285956
#
# Coordination Sequence:
#
# PCOD9453832 Si02
#       6
#     8   8   4   8   4   8
#     4  10  21  46  77  98 138 185 246 303 360 440
#     4  11  22  40  70  97 136 182 238 289 359 406
#     4  10  18  36  62 106 140 170 226 298 332 440
#     4  10  17  32  57  94 140 165 213 289 324 409
#     4   8  16  32  64 108 124 162 236 316 358 386
#     4  12  30  50  68 106 157 192 233 302 371 444
#
# _framework density 24.226638999999999
#
# number of rings (size 3 to 8) (size 9 to 14) (size 15 to 20)
#    0.000    1.600    3.000    2.400    4.200    0.000 
#    0.000   13.000    0.000    0.000    0.000    0.000 
#    0.000    0.000    0.000    0.000    0.000    0.000 
#
# Total GULP energy -223078.139161 kJ/mol
# GULP energy per Si atom -5576.953479 kJ/mol
# Density = 2.417150 g / cm^3
# Si number density = 24.226639 Si / 1000 Ang^3
#
#
#
# Elastic Constant Matrix: (Units=GPa)
#
#
# Indices 1 2 3 4 5 6 
#
# 1 112.2934 4.2561 -9.1088 0.0000 0.0000 0.0000
# 2 4.2561 35.0071 -24.4414 0.0000 0.0000 0.0000
# 3 -9.1088 -24.4414 91.9031 0.0000 0.0000 0.0000
# 4 0.0000 0.0000 0.0000 16.8487 0.0000 0.0000
# 5 0.0000 0.0000 0.0000 0.0000 9.4216 0.0000
# 6 0.0000 0.0000 0.0000 0.0000 0.0000 38.7582
#
#
#
# Elastic Compliance Matrix: (Units=1/GPa)
#
#
# Indices 1 2 3 4 5 6 
#
# 1 0.008987 -0.000578 0.000737 0.000000 0.000000 0.000000
# 2 -0.000578 0.035116 0.009282 0.000000 0.000000 0.000000
# 3 0.000737 0.009282 0.013423 0.000000 0.000000 0.000000
# 4 0.000000 0.000000 0.000000 0.059352 0.000000 0.000000
# 5 0.000000 0.000000 0.000000 0.000000 0.106139 0.000000
# 6 0.000000 0.000000 0.000000 0.000000 0.000000 0.025801
#
#
# Mechanical properties :
#
#
# Convention : Reuss Voigt Hill
#
# Bulk Modulus (GPa) = 13.08776 20.06837 16.57807
# Shear Modulus (GPa) = 19.57675 30.90555 25.24115
#
# Velocity S-wave (km/s) = 2.84574 3.57555 3.23131
# Velocity P-wave (km/s) = 4.02636 5.03464 4.55846
#
# Compressibility (1/GPa) = 0.07640726
#
# Stress axis : x y z
#
# Youngs Moduli (GPa) = 111.27263 28.47680 74.50154
#
# Poissons Ratio (x) = 0.01646 -0.05491
# Poissons Ratio (y) = 0.06432 -0.69151
# Poissons Ratio (z) = -0.08201 -0.26432
#
# Static dielectric constant tensor:
#      x y z
#    x 2.096280 0.000000 0.000000 
#    y 0.000000 1.909710 0.000000 
#    z 0.000000 0.000000 2.084340 
# 
# From -- ./inp_files/1653.got.cif
#   From: 2010.05.17/outbox.cif.g08.bks.cpg/sg60_1_cif.got.tgz:1653.got - 2010.06.03 14:59:27.
