data_PCOD9453592
_publ_section_title
;
Structure prediction by ZEFSAII (Michael W. Deem and Ramdas Pophale) SiO2 
 PCOD9453592
Probable space group: P M M N
;
_chemical_formula_sum "Si O2"
_cell_formula_units_Z 40
_cell_length_a 9.000000
_cell_length_b 21.000000
_cell_length_c 12.000000
_cell_angle_alpha 90.000000
_cell_angle_beta 90.000000
_cell_angle_gamma 90.000000
_cell_volume 2268.000000
_symmetry_space_group_name_H-M "P M M N"
_symmetry_group_IT_number 59
_space_group.IT_coordinate_system_code '2'
_symmetry_cell_setting 'orthorhombic'
loop_
_space_group_symop_operation_xyz
x,y,z
1/2-x,1/2-y,z
1/2+x,-y,-z
-x,1/2+y,-z
-x,-y,-z
1/2+x,1/2+y,-z
1/2-x,y,z
x,1/2-y,z
loop_
_atom_site_type_symbol
_atom_site_label
_atom_site_fract_x
_atom_site_fract_y
_atom_site_fract_z
Si Si1 0.069965 0.250000 0.378375
Si Si2 0.070649 0.071286 0.998190
Si Si3 0.570067 0.250000 0.630042
Si Si4 0.570942 0.880460 0.755605
Si Si5 0.427494 0.502427 0.621670
Si Si6 0.071573 0.128331 0.757074
O O1 0.250000 0.250000 0.394574
O O2 0.031963 0.186684 0.305042
O O3 0.994734 0.250000 0.501985
O O4 0.250000 0.063521 0.994819
O O5 0.033202 0.109245 0.112891
O O6 0.029365 0.110233 0.885310
O O7 0.000000 0.000000 0.000000
O O8 0.750000 0.250000 0.625712
O O9 0.510871 0.312330 0.698009
O O10 0.750000 0.886188 0.747421
O O11 0.495456 0.938542 0.689691
O O12 0.500000 0.500000 0.500000
O O13 0.250000 0.510015 0.612740
O O14 0.456022 0.436084 0.686226
O O15 0.250000 0.141048 0.755366
#
# Coordination Sequence:
#
# PCOD9453592 Si02
#       6
#     4   8   4   8   8   8
#     4  10  22  41  60  84 120 159 197 240 297 362
#     4  10  20  37  62  91 121 155 196 245 296 352
#     4  12  26  41  60  88 118 155 201 252 299 346
#     4  10  21  37  61  89 117 154 198 245 294 350
#     4  11  22  36  57  86 117 154 200 246 296 352
#     4  10  22  40  61  85 118 161 197 237 298 362
#
# _framework density 17.636683999999999
#
# number of rings (size 3 to 8) (size 9 to 14) (size 15 to 20)
#    0.000    1.600    2.000    2.700    0.000    8.800 
#    0.000    3.000    0.000    1.200    0.000    0.000 
#    0.000    0.000    0.000    0.000    0.000    0.000 
#
# Total GULP energy -223351.924646 kJ/mol
# GULP energy per Si atom -5583.798116 kJ/mol
# Density = 1.759654 g / cm^3
# Si number density = 17.636684 Si / 1000 Ang^3
#
#
#
# Elastic Constant Matrix: (Units=GPa)
#
#
# Indices 1 2 3 4 5 6 
#
# 1 62.5305 65.3766 64.6543 0.0000 0.0000 0.0000
# 2 65.3766 178.7696 106.0503 0.0000 0.0000 0.0000
# 3 64.6543 106.0503 219.6260 0.0000 0.0000 0.0000
# 4 0.0000 0.0000 0.0000 41.9328 0.0000 0.0000
# 5 0.0000 0.0000 0.0000 0.0000 29.3514 0.0000
# 6 0.0000 0.0000 0.0000 0.0000 0.0000 35.9712
#
#
#
# Elastic Compliance Matrix: (Units=1/GPa)
#
#
# Indices 1 2 3 4 5 6 
#
# 1 0.029111 -0.007795 -0.004806 0.000000 0.000000 0.000000
# 2 -0.007795 0.009927 -0.002499 0.000000 0.000000 0.000000
# 3 -0.004806 -0.002499 0.007174 0.000000 0.000000 0.000000
# 4 0.000000 0.000000 0.000000 0.023848 0.000000 0.000000
# 5 0.000000 0.000000 0.000000 0.000000 0.034070 0.000000
# 6 0.000000 0.000000 0.000000 0.000000 0.000000 0.027800
#
#
# Mechanical properties :
#
#
# Convention : Reuss Voigt Hill
#
# Bulk Modulus (GPa) = 62.44804 103.67649 83.06227
# Shear Modulus (GPa) = 29.85669 36.44074 33.14872
#
# Velocity S-wave (km/s) = 4.11892 4.55047 4.34006
# Velocity P-wave (km/s) = 7.62270 9.30168 8.50373
#
# Compressibility (1/GPa) = 0.01601331
#
# Stress axis : x y z
#
# Youngs Moduli (GPa) = 34.35106 100.73883 139.38428
#
# Poissons Ratio (x) = 0.78527 0.66986
# Poissons Ratio (y) = 0.26777 0.34825
# Poissons Ratio (z) = 0.16509 0.25170
#
# Static dielectric constant tensor:
#      x y z
#    x 1.595880 0.000000 0.000000 
#    y 0.000000 1.578400 0.000000 
#    z 0.000000 0.000000 1.606600 
# 
# From -- ./inp_files/14130.got.cif
#   From: 2010.05.17/outbox.ucp.g08.bks.cvg/sg59_8_cif.got.tgz:14130.got - 2010.06.11 16:43:56.
