data_PCOD9453736
_publ_section_title
;
Structure prediction by ZEFSAII (Michael W. Deem and Ramdas Pophale) SiO2 
 PCOD9453736
Probable space group: P B C N
;
_chemical_formula_sum "Si O2"
_cell_formula_units_Z 48
_cell_length_a 22.369903
_cell_length_b 5.382794
_cell_length_c 17.833362
_cell_angle_alpha 90.000000
_cell_angle_beta 90.000000
_cell_angle_gamma 90.000000
_cell_volume 2147.361122
_symmetry_space_group_name_H-M "P B C N"
_symmetry_group_IT_number 60
_symmetry_cell_setting 'orthorhombic'
loop_
_space_group_symop_operation_xyz
x,y,z
1/2-x,1/2-y,1/2+z
1/2+x,1/2-y,-z
-x,y,1/2-z
-x,-y,-z
1/2+x,1/2+y,1/2-z
1/2-x,1/2+y,z
x,-y,1/2+z
loop_
_atom_site_type_symbol
_atom_site_label
_atom_site_fract_x
_atom_site_fract_y
_atom_site_fract_z
Si Si1 0.184033 0.337324 0.797448
Si Si2 0.152976 0.834835 0.869283
Si Si3 0.544193 0.251455 0.915882
Si Si4 0.899084 0.327221 0.271688
Si Si5 0.578602 0.244618 0.490671
Si Si6 0.728491 0.299145 0.845254
O O1 0.190024 0.590065 0.845489
O O2 0.121658 0.395996 0.752778
O O3 0.231855 0.311592 0.731412
O O4 0.180109 0.099381 0.849426
O O5 0.099340 0.813545 0.807429
O O6 0.132013 0.806171 0.953365
O O7 0.546681 0.200188 0.827564
O O8 0.480143 0.235563 0.955910
O O9 0.569157 0.524779 0.934789
O O10 0.582339 0.023280 0.951532
O O11 0.840060 0.225664 0.318087
O O12 0.746658 0.553614 0.885346
#
# Coordination Sequence:
#
# PCOD9453736 Si02
#       6
#     8   8   8   8   8   8
#     4   9  18  31  53  86 105 134 176 231 273 315
#     4  10  19  33  56  82 108 142 181 225 273 324
#     4  10  22  38  57  79 113 149 189 223 276 332
#     4   9  21  31  60  84 104 141 188 233 269 318
#     4  10  22  39  55  78 114 156 180 221 281 335
#     4  10  16  30  50  84 104 135 169 229 271 325
#
# _framework density 22.353014999999999
#
# number of rings (size 3 to 8) (size 9 to 14) (size 15 to 20)
#    1.000    1.333    1.667    1.000    2.333    0.667 
#    0.000    0.000    3.667    0.000   52.000    0.000 
#    0.000    0.000    0.000    0.000    0.000    0.000 
#
# Total GULP energy -267443.906183 kJ/mol
# GULP energy per Si atom -5571.748045 kJ/mol
# Density = 2.230214 g / cm^3
# Si number density = 22.353015 Si / 1000 Ang^3
#
#
#
# Elastic Constant Matrix: (Units=GPa)
#
#
# Indices 1 2 3 4 5 6 
#
# 1 26.1632 18.5341 6.9536 0.0000 0.0000 0.0000
# 2 18.5341 164.3390 7.9155 0.0000 0.0000 0.0000
# 3 6.9536 7.9155 39.8982 0.0000 0.0000 0.0000
# 4 0.0000 0.0000 0.0000 17.9937 0.0000 0.0000
# 5 0.0000 0.0000 0.0000 0.0000 24.6286 0.0000
# 6 0.0000 0.0000 0.0000 0.0000 0.0000 13.4659
#
#
#
# Elastic Compliance Matrix: (Units=1/GPa)
#
#
# Indices 1 2 3 4 5 6 
#
# 1 0.043209 -0.004554 -0.006627 0.000000 0.000000 0.000000
# 2 -0.004554 0.006624 -0.000520 0.000000 0.000000 0.000000
# 3 -0.006627 -0.000520 0.026322 0.000000 0.000000 0.000000
# 4 0.000000 0.000000 0.000000 0.055575 0.000000 0.000000
# 5 0.000000 0.000000 0.000000 0.000000 0.040603 0.000000
# 6 0.000000 0.000000 0.000000 0.000000 0.000000 0.074261
#
#
# Mechanical properties :
#
#
# Convention : Reuss Voigt Hill
#
# Bulk Modulus (GPa) = 18.95673 33.02297 25.98985
# Shear Modulus (GPa) = 17.38640 24.35080 20.86860
#
# Velocity S-wave (km/s) = 2.79195 3.30415 3.05879
# Velocity P-wave (km/s) = 4.34653 5.41867 4.91194
#
# Compressibility (1/GPa) = 0.05275172
#
# Stress axis : x y z
#
# Youngs Moduli (GPa) = 23.14333 150.97447 37.99099
#
# Poissons Ratio (x) = 0.68752 0.25177
# Poissons Ratio (y) = 0.10539 0.01977
# Poissons Ratio (z) = 0.15337 0.07857
#
# Static dielectric constant tensor:
#      x y z
#    x 1.922420 0.000000 0.000000 
#    y 0.000000 1.903390 0.000000 
#    z 0.000000 0.000000 1.801060 
# 
# From -- ./inp_files/18064.got.cif
#   From: 2010.05.17/outbox.cif.g08.bks.cpg/sg60_10_cif.got.tgz:18064.got - 2010.06.03 14:59:27.
