data_PCOD9453430
_publ_section_title
;
Structure prediction by ZEFSAII (Michael W. Deem and Ramdas Pophale) SiO2 
 PCOD9453430
Probable space group: P M M N
;
_chemical_formula_sum "Si O2"
_cell_formula_units_Z 64
_cell_length_a 18.000000
_cell_length_b 18.000000
_cell_length_c 12.000000
_cell_angle_alpha 90.000000
_cell_angle_beta 90.000000
_cell_angle_gamma 90.000000
_cell_volume 3888.000000
_symmetry_space_group_name_H-M "P M M N"
_symmetry_group_IT_number 59
_space_group.IT_coordinate_system_code '2'
_symmetry_cell_setting 'orthorhombic'
loop_
_space_group_symop_operation_xyz
x,y,z
1/2-x,1/2-y,z
1/2+x,-y,-z
-x,1/2+y,-z
-x,-y,-z
1/2+x,1/2+y,-z
1/2-x,y,z
x,1/2-y,z
loop_
_atom_site_type_symbol
_atom_site_label
_atom_site_fract_x
_atom_site_fract_y
_atom_site_fract_z
Si Si1 0.447844 0.083917 0.622499
Si Si2 0.432326 0.560193 0.014849
Si Si3 0.336514 0.660846 0.466756
Si Si4 0.078935 0.839651 0.240244
Si Si5 0.159804 0.085375 0.016465
Si Si6 0.161161 0.336629 0.777307
Si Si7 0.477210 0.159388 0.153279
Si Si8 0.026584 0.591630 0.608758
O O1 0.506599 0.132837 0.692588
O O2 0.372181 0.114607 0.676262
O O3 0.465600 0.096003 0.491447
O O4 0.460169 0.995393 0.639809
O O5 0.421027 0.607815 0.129705
O O6 0.500000 0.500000 0.000000
O O7 0.363060 0.502181 0.005426
O O8 0.457445 0.621849 0.923104
O O9 0.250000 0.639636 0.487053
O O10 0.343106 0.750000 0.482501
O O11 0.357900 0.646844 0.335952
O O12 0.397297 0.622692 0.549555
O O13 0.077476 0.750000 0.215872
O O14 0.250000 0.093133 0.038766
O O15 0.143169 0.125652 0.897334
O O16 0.101721 0.124084 0.105730
O O17 0.250000 0.335880 0.769022
O O18 0.135475 0.250000 0.774794
O O19 0.475246 0.250000 0.144663
O O20 0.497485 0.134226 0.280566
#
# Coordination Sequence:
#
# PCOD9453430 Si02
#       8
#     8   8   8   8   8   8   8   8
#     4  10  19  34  54  76 104 136 175 223 267 308
#     4  10  20  34  53  79 108 140 178 220 270 326
#     4   9  19  36  57  79 103 136 180 229 277 322
#     4  10  19  33  56  81 102 131 177 229 273 312
#     4  10  21  37  57  80 109 146 186 228 275 329
#     4  10  20  34  54  79 104 134 179 230 274 315
#     4  11  21  34  54  80 113 149 184 222 268 332
#     4  10  21  35  53  80 111 144 182 218 261 326
#
# _framework density 16.460905
#
# number of rings (size 3 to 8) (size 9 to 14) (size 15 to 20)
#    0.000    2.000    0.000    5.250    0.000    3.250 
#    0.000    1.250    0.000    1.875    0.000    0.000 
#    0.000    0.000    0.000    0.000    0.000    0.000 
#
# Total GULP energy -356308.457267 kJ/mol
# GULP energy per Si atom -5567.319645 kJ/mol
# Density = 1.642344 g / cm^3
# Si number density = 16.460905 Si / 1000 Ang^3
#
#
#
# Elastic Constant Matrix: (Units=GPa)
#
#
# Indices 1 2 3 4 5 6 
#
# 1 88.0259 37.4494 47.7356 0.0000 0.0000 0.0000
# 2 37.4494 135.9596 62.3114 0.0000 0.0000 0.0000
# 3 47.7356 62.3114 130.5136 0.0000 0.0000 0.0000
# 4 0.0000 0.0000 0.0000 40.8386 0.0000 0.0000
# 5 0.0000 0.0000 0.0000 0.0000 30.3764 0.0000
# 6 0.0000 0.0000 0.0000 0.0000 0.0000 31.6861
#
#
#
# Elastic Compliance Matrix: (Units=1/GPa)
#
#
# Indices 1 2 3 4 5 6 
#
# 1 0.014589 -0.002014 -0.004375 0.000000 0.000000 0.000000
# 2 -0.002014 0.009693 -0.003891 0.000000 0.000000 0.000000
# 3 -0.004375 -0.003891 0.011120 0.000000 0.000000 0.000000
# 4 0.000000 0.000000 0.000000 0.024487 0.000000 0.000000
# 5 0.000000 0.000000 0.000000 0.000000 0.032920 0.000000
# 6 0.000000 0.000000 0.000000 0.000000 0.000000 0.031560
#
#
# Mechanical properties :
#
#
# Convention : Reuss Voigt Hill
#
# Bulk Modulus (GPa) = 67.37127 72.16579 69.76853
# Shear Modulus (GPa) = 33.36091 34.38041 33.87066
#
# Velocity S-wave (km/s) = 4.50674 4.57509 4.54105
# Velocity P-wave (km/s) = 8.25214 8.47611 8.36488
#
# Compressibility (1/GPa) = 0.01484312
#
# Stress axis : x y z
#
# Youngs Moduli (GPa) = 68.54333 103.16501 89.92833
#
# Poissons Ratio (x) = 0.20773 0.39341
# Poissons Ratio (y) = 0.13802 0.34995
# Poissons Ratio (z) = 0.29986 0.40145
#
# Static dielectric constant tensor:
#      x y z
#    x 1.592600 0.000000 0.000000 
#    y 0.000000 1.562850 0.000000 
#    z 0.000000 0.000000 1.561990 
# 
# From -- ./inp_files/17954.got.cif
#   From: 2010.05.17/outbox.ucp.g08.bks.cvg/sg59_9_cif.got.tgz:17954.got - 2010.06.11 16:43:56.
