data_PCOD9453330
_publ_section_title
;
Structure prediction by ZEFSAII (Michael W. Deem and Ramdas Pophale) SiO2 
 PCOD9453330
Probable space group: P M M N
;
_chemical_formula_sum "Si O2"
_cell_formula_units_Z 64
_cell_length_a 30.000000
_cell_length_b 9.000000
_cell_length_c 12.000000
_cell_angle_alpha 90.000000
_cell_angle_beta 90.000000
_cell_angle_gamma 90.000000
_cell_volume 3240.000000
_symmetry_space_group_name_H-M "P M M N"
_symmetry_group_IT_number 59
_space_group.IT_coordinate_system_code '2'
_symmetry_cell_setting 'orthorhombic'
loop_
_space_group_symop_operation_xyz
x,y,z
1/2-x,1/2-y,z
1/2+x,-y,-z
-x,1/2+y,-z
-x,-y,-z
1/2+x,1/2+y,-z
1/2-x,y,z
x,1/2-y,z
loop_
_atom_site_type_symbol
_atom_site_label
_atom_site_fract_x
_atom_site_fract_y
_atom_site_fract_z
Si Si1 0.613992 0.926351 0.680156
Si Si2 0.074042 0.076090 0.542204
Si Si3 0.201059 0.574053 0.400146
Si Si4 0.700462 0.428911 0.137770
Si Si5 0.675804 0.923712 0.372291
Si Si6 0.536274 0.571663 0.243059
Si Si7 0.104280 0.577828 0.910741
Si Si8 0.057119 0.576333 0.142989
O O1 0.618913 0.750000 0.665659
O O2 0.582581 0.987726 0.579770
O O3 0.661772 0.001191 0.669370
O O4 0.590461 0.971033 0.792087
O O5 0.062907 0.250000 0.527031
O O6 0.122943 0.067953 0.600091
O O7 0.038986 0.011971 0.630217
O O8 0.250000 0.547366 0.351995
O O9 0.194052 0.750000 0.409840
O O10 0.198400 0.501777 0.522308
O O11 0.750000 0.479244 0.100859
O O12 0.702209 0.250000 0.144411
O O13 0.689925 0.495464 0.259437
O O14 0.655774 0.465947 0.067561
O O15 0.687560 0.750000 0.366403
O O16 0.536566 0.750000 0.247606
O O17 0.580721 0.520092 0.181715
O O18 0.492723 0.527610 0.174181
O O19 0.104890 0.750000 0.873556
O O20 0.072015 0.568509 0.016163
O O21 0.062161 0.750000 0.177622
#
# Coordination Sequence:
#
# PCOD9453330 Si02
#       8
#     8   8   8   8   8   8   8   8
#     4  10  21  37  56  79 111 147 186 231 274 328
#     4   8  16  31  51  78 110 139 170 213 269 326
#     4  10  20  34  54  80 110 145 185 226 272 329
#     4  10  20  33  50  74 106 143 180 220 271 328
#     4  10  18  30  50  78 113 145 175 218 269 325
#     4  10  19  35  59  83 109 142 180 227 286 343
#     4  10  21  37  55  79 110 141 184 235 278 330
#     4  10  22  38  56  79 109 146 188 235 282 333
#
# _framework density 19.753086
#
# number of rings (size 3 to 8) (size 9 to 14) (size 15 to 20)
#    0.000    2.250    1.250    2.625    0.000    4.250 
#    0.000    1.250    0.000    2.250    0.000    0.000 
#    0.000    0.000    0.000    0.000    0.000    0.000 
#
# Total GULP energy -356636.883443 kJ/mol
# GULP energy per Si atom -5572.451304 kJ/mol
# Density = 1.970813 g / cm^3
# Si number density = 19.753086 Si / 1000 Ang^3
#
#
#
# Elastic Constant Matrix: (Units=GPa)
#
#
# Indices 1 2 3 4 5 6 
#
# 1 26.1694 11.0445 -0.0553 0.0000 0.0000 0.0000
# 2 11.0445 8.5781 13.7156 0.0000 0.0000 0.0000
# 3 -0.0553 13.7156 11.4817 0.0000 0.0000 0.0000
# 4 0.0000 0.0000 0.0000 12.6285 0.0000 0.0000
# 5 0.0000 0.0000 0.0000 0.0000 6.5488 0.0000
# 6 0.0000 0.0000 0.0000 0.0000 0.0000 21.6034
#
#
#
# Elastic Compliance Matrix: (Units=1/GPa)
#
#
# Indices 1 2 3 4 5 6 
#
# 1 0.023819 0.033902 -0.040384 0.000000 0.000000 0.000000
# 2 0.033902 -0.079852 0.095551 0.000000 0.000000 0.000000
# 3 -0.040384 0.095551 -0.027242 0.000000 0.000000 0.000000
# 4 0.000000 0.000000 0.000000 0.079186 0.000000 0.000000
# 5 0.000000 0.000000 0.000000 0.000000 0.152700 0.000000
# 6 0.000000 0.000000 0.000000 0.000000 0.000000 0.046289
#
#
# Mechanical properties :
#
#
# Convention : Reuss Voigt Hill
#
# Bulk Modulus (GPa) = 10.54121 10.62652 10.58387
# Shear Modulus (GPa) = 103.34208 9.59110 56.46659
#
# Velocity S-wave (km/s) = 7.24089 2.20591 5.35241
# Velocity P-wave (km/s) = 8.67499 3.44665 6.60056
#
# Compressibility (1/GPa) = 0.09486575
#
# Stress axis : x y z
#
# Youngs Moduli (GPa) = 41.98322 -12.52320 -36.70866
#
# Poissons Ratio (x) = 0.42457 -1.48244
# Poissons Ratio (y) = -1.42333 3.50757
# Poissons Ratio (z) = 1.69545 1.19661
#
# Static dielectric constant tensor:
#      x y z
#    x 1.735080 0.000000 0.000000 
#    y 0.000000 1.663440 0.000000 
#    z 0.000000 0.000000 1.713510 
# 
# From -- ./inp_files/14973.got.cif
#   From: 2010.05.17/outbox.ucp.g08.bks.cvg/sg59_8_cif.got.tgz:14973.got - 2010.06.11 16:43:56.
