data_PCOD9453158
_publ_section_title
;
Structure prediction by ZEFSAII (Michael W. Deem and Ramdas Pophale) SiO2 
 PCOD9453158
Probable space group: P M M N
;
_chemical_formula_sum "Si O2"
_cell_formula_units_Z 24
_cell_length_a 8.789047
_cell_length_b 14.334077
_cell_length_c 10.153896
_cell_angle_alpha 90.000000
_cell_angle_beta 90.000000
_cell_angle_gamma 90.000000
_cell_volume 1279.217025
_symmetry_space_group_name_H-M "P M M N"
_symmetry_group_IT_number 59
_space_group.IT_coordinate_system_code '2'
_symmetry_cell_setting 'orthorhombic'
loop_
_space_group_symop_operation_xyz
x,y,z
1/2-x,1/2-y,z
1/2+x,-y,-z
-x,1/2+y,-z
-x,-y,-z
1/2+x,1/2+y,-z
1/2-x,y,z
x,1/2-y,z
loop_
_atom_site_type_symbol
_atom_site_label
_atom_site_fract_x
_atom_site_fract_y
_atom_site_fract_z
Si Si1 0.569260 0.250000 0.521504
Si Si2 0.067576 0.250000 0.224655
Si Si3 0.429863 0.062676 0.614355
Si Si4 0.930410 0.443067 0.121523
O O1 0.750000 0.250000 0.503928
O O2 0.495223 0.250000 0.375152
O O3 0.514328 0.160393 0.601855
O O4 0.250000 0.250000 0.227913
O O5 0.007959 0.343481 0.152302
O O6 0.250000 0.076317 0.592922
O O7 0.500000 0.000000 0.500000
O O8 0.450919 0.008173 0.750280
O O9 0.750000 0.428349 0.101992
O O10 0.000000 0.500000 0.000000
#
# Coordination Sequence:
#
# PCOD9453158 Si02
#       4
#     4   4   8   8
#     4  12  24  39  64  97 132 170 218 270 324 385
#     4  12  24  41  68  95 128 172 218 266 328 389
#     4  11  23  40  65  95 128 167 215 267 321 381
#     4  11  25  44  67  96 133 172 217 267 326 389
#
# _framework density 18.761475999999998
#
# number of rings (size 3 to 8) (size 9 to 14) (size 15 to 20)
#    0.000    0.667    3.333    5.000    0.000    5.333 
#    0.000    1.667    0.000    0.000    0.000    0.000 
#    0.000    0.000    0.000    0.000    0.000    0.000 
#
# Total GULP energy -134257.610722 kJ/mol
# GULP energy per Si atom -5594.067113 kJ/mol
# Density = 1.871877 g / cm^3
# Si number density = 18.761476 Si / 1000 Ang^3
#
#
#
# Elastic Constant Matrix: (Units=GPa)
#
#
# Indices 1 2 3 4 5 6 
#
# 1 194.1009 112.2298 101.1704 0.0000 0.0000 0.0000
# 2 112.2298 184.9426 47.8537 0.0000 0.0000 0.0000
# 3 101.1704 47.8537 91.4625 0.0000 0.0000 0.0000
# 4 0.0000 0.0000 0.0000 24.0440 0.0000 0.0000
# 5 0.0000 0.0000 0.0000 0.0000 34.5228 0.0000
# 6 0.0000 0.0000 0.0000 0.0000 0.0000 42.1267
#
#
#
# Elastic Compliance Matrix: (Units=1/GPa)
#
#
# Indices 1 2 3 4 5 6 
#
# 1 0.016610 -0.006160 -0.015151 0.000000 0.000000 0.000000
# 2 -0.006160 0.008538 0.002346 0.000000 0.000000 0.000000
# 3 -0.015151 0.002346 0.026465 0.000000 0.000000 0.000000
# 4 0.000000 0.000000 0.000000 0.041590 0.000000 0.000000
# 5 0.000000 0.000000 0.000000 0.000000 0.028966 0.000000
# 6 0.000000 0.000000 0.000000 0.000000 0.000000 0.023738
#
#
# Mechanical properties :
#
#
# Convention : Reuss Voigt Hill
#
# Bulk Modulus (GPa) = 73.07300 110.33486 91.70393
# Shear Modulus (GPa) = 26.53969 34.08885 30.31427
#
# Velocity S-wave (km/s) = 3.76518 4.26721 4.02403
# Velocity P-wave (km/s) = 7.61151 9.12226 8.40091
#
# Compressibility (1/GPa) = 0.01368495
#
# Stress axis : x y z
#
# Youngs Moduli (GPa) = 60.20336 117.12607 37.78620
#
# Poissons Ratio (x) = 0.72144 0.57249
# Poissons Ratio (y) = 0.37082 -0.08866
# Poissons Ratio (z) = 0.91212 -0.27481
#
# Static dielectric constant tensor:
#      x y z
#    x 1.690330 0.000000 0.000000 
#    y 0.000000 1.614080 0.000000 
#    z 0.000000 0.000000 1.577210 
# 
# From -- ./inp_files/5003.got.cif
#   From: 2010.05.17/outbox.cif.g08.bks.cpg/sg59_3_cif.got.tgz:5003.got - 2010.06.03 14:40:33.
