data_PCOD9453262
_publ_section_title
;
Structure prediction by ZEFSAII (Michael W. Deem and Ramdas Pophale) SiO2 
 PCOD9453262
Probable space group: P M M N
;
_chemical_formula_sum "Si O2"
_cell_formula_units_Z 56
_cell_length_a 7.398090
_cell_length_b 14.964513
_cell_length_c 23.199348
_cell_angle_alpha 90.000000
_cell_angle_beta 90.000000
_cell_angle_gamma 90.000000
_cell_volume 2568.372302
_symmetry_space_group_name_H-M "P M M N"
_symmetry_group_IT_number 59
_space_group.IT_coordinate_system_code '2'
_symmetry_cell_setting 'orthorhombic'
loop_
_space_group_symop_operation_xyz
x,y,z
1/2-x,1/2-y,z
1/2+x,-y,-z
-x,1/2+y,-z
-x,-y,-z
1/2+x,1/2+y,-z
1/2-x,y,z
x,1/2-y,z
loop_
_atom_site_type_symbol
_atom_site_label
_atom_site_fract_x
_atom_site_fract_y
_atom_site_fract_z
Si Si1 0.467777 0.351521 0.522906
Si Si2 0.032159 0.345703 0.104228
Si Si3 0.959349 0.151540 0.389362
Si Si4 0.971670 0.539314 0.367217
Si Si5 0.470937 0.147058 0.745264
Si Si6 0.035157 0.451672 0.859476
Si Si7 0.035212 0.398396 0.981176
O O1 0.250000 0.356363 0.519809
O O2 0.515583 0.250000 0.540123
O O3 0.536296 0.365516 0.458275
O O4 0.530090 0.419661 0.571622
O O5 0.250000 0.345331 0.102751
O O6 0.973798 0.250000 0.130366
O O7 0.987054 0.441182 0.132856
O O8 0.966502 0.347474 0.037524
O O9 0.750000 0.156671 0.371887
O O10 0.040361 0.250000 0.379440
O O11 0.035725 0.062541 0.360855
O O12 0.750000 0.538261 0.368292
O O13 0.027009 0.601472 0.314445
O O14 0.250000 0.146564 0.745137
O O15 0.527174 0.250000 0.749486
O O16 0.532816 0.088898 0.799888
O O17 0.250000 0.437057 0.860048
O O18 0.963570 0.398203 0.915871
O O19 0.250000 0.379844 0.978071
O O20 0.000000 0.500000 0.000000
#
# Coordination Sequence:
#
# PCOD9453262 Si02
#       7
#     8   8   8   8   8   8   8
#     4   9  16  26  43  66  88 111 141 176 213 255
#     4   9  17  29  46  67  92 124 156 183 219 272
#     4   9  17  28  42  62  88 115 142 175 216 261
#     4   9  16  27  43  63  88 116 145 177 215 259
#     4   9  17  29  46  68  91 115 147 187 227 267
#     4   9  17  29  46  69  94 118 148 190 233 266
#     4   8  14  25  41  62  88 115 144 179 218 259
#
# _framework density 21.803692999999999
#
# number of rings (size 3 to 8) (size 9 to 14) (size 15 to 20)
#    0.000    3.143    0.000    0.857    0.000    2.571 
#    0.000    3.571    0.000    4.714    0.000    6.000 
#    0.000    0.000    0.000    0.000    0.000    0.000 
#
# Total GULP energy -312126.410987 kJ/mol
# GULP energy per Si atom -5573.685910 kJ/mol
# Density = 2.175407 g / cm^3
# Si number density = 21.803693 Si / 1000 Ang^3
#
#
#
# Elastic Constant Matrix: (Units=GPa)
#
#
# Indices 1 2 3 4 5 6 
#
# 1 73.7224 -2.1317 -4.8486 0.0000 0.0000 0.0000
# 2 -2.1317 164.0268 49.8642 0.0000 0.0000 0.0000
# 3 -4.8486 49.8642 33.7573 0.0000 0.0000 0.0000
# 4 0.0000 0.0000 0.0000 30.2766 0.0000 0.0000
# 5 0.0000 0.0000 0.0000 0.0000 23.0984 0.0000
# 6 0.0000 0.0000 0.0000 0.0000 0.0000 -0.3214
#
#
#
# Elastic Compliance Matrix: (Units=1/GPa)
#
#
# Indices 1 2 3 4 5 6 
#
# 1 0.013746 -0.000765 0.003105 0.000000 0.000000 0.000000
# 2 -0.000765 0.011108 -0.016518 0.000000 0.000000 0.000000
# 3 0.003105 -0.016518 0.054469 0.000000 0.000000 0.000000
# 4 0.000000 0.000000 0.000000 0.033029 0.000000 0.000000
# 5 0.000000 0.000000 0.000000 0.000000 0.043293 0.000000
# 6 0.000000 0.000000 0.000000 0.000000 0.000000 -3.111059
#
#
# Mechanical properties :
#
#
# Convention : Reuss Voigt Hill
#
# Bulk Modulus (GPa) = 19.62090 39.69714 29.65902
# Shear Modulus (GPa) = -1.71817 25.85222 12.06702
#
# Velocity S-wave (km/s) = -0.88867 3.44711 2.35508
# Velocity P-wave (km/s) = 2.82231 5.83862 4.58557
#
# Compressibility (1/GPa) = 0.05096607
#
# Stress axis : x y z
#
# Youngs Moduli (GPa) = 72.74596 90.02393 18.35914
#
# Poissons Ratio (x) = 0.06888 -0.05700
# Poissons Ratio (y) = 0.05566 0.30326
# Poissons Ratio (z) = -0.22585 1.48703
#
# Static dielectric constant tensor:
#      x y z
#    x 1.849600 0.000000 0.000000 
#    y 0.000000 1.812110 0.000000 
#    z 0.000000 0.000000 1.771890 
# 
# From -- ./inp_files/29116.got.cif
#   From: 2010.05.17/outbox.cif.g08.bks.cpg/sg59_15_cif.got.tgz:29116.got - 2010.06.03 14:40:33.
