data_PCOD9453076
_publ_section_title
;
Structure prediction by ZEFSAII (Michael W. Deem and Ramdas Pophale) SiO2 
 PCOD9453076
Probable space group: P M M N
;
_chemical_formula_sum "Si O2"
_cell_formula_units_Z 64
_cell_length_a 14.237028
_cell_length_b 8.392869
_cell_length_c 31.756746
_cell_angle_alpha 90.000000
_cell_angle_beta 90.000000
_cell_angle_gamma 90.000000
_cell_volume 3794.598049
_symmetry_space_group_name_H-M "P M M N"
_symmetry_group_IT_number 59
_space_group.IT_coordinate_system_code '2'
_symmetry_cell_setting 'orthorhombic'
loop_
_space_group_symop_operation_xyz
x,y,z
1/2-x,1/2-y,z
1/2+x,-y,-z
-x,1/2+y,-z
-x,-y,-z
1/2+x,1/2+y,-z
1/2-x,y,z
x,1/2-y,z
loop_
_atom_site_type_symbol
_atom_site_label
_atom_site_fract_x
_atom_site_fract_y
_atom_site_fract_z
Si Si1 0.467238 0.057659 0.934521
Si Si2 0.518860 0.067449 0.546174
Si Si3 0.642164 0.057578 0.241345
Si Si4 0.519705 0.061205 0.317381
Si Si5 0.856748 0.557603 0.981728
Si Si6 0.858393 0.557601 0.147581
Si Si7 0.857305 0.942137 0.621364
Si Si8 0.140693 0.563999 0.600625
O O1 0.466674 0.250000 0.934259
O O2 0.425765 0.002583 0.890033
O O3 0.571003 0.000084 0.946299
O O4 0.399996 0.005727 0.973226
O O5 0.546485 0.250000 0.542538
O O6 0.500000 0.000000 0.500000
O O7 0.595112 0.983819 0.576565
O O8 0.421467 0.045469 0.571091
O O9 0.750000 0.003079 0.250351
O O10 0.643469 0.250000 0.244580
O O11 0.564496 0.995795 0.274422
O O12 0.619532 0.009992 0.193573
O O13 0.501920 0.250000 0.310492
O O14 0.426530 0.997413 0.341172
O O15 0.601532 0.048010 0.352258
O O16 0.750000 0.501858 0.976540
O O17 0.856282 0.750000 0.981713
O O18 0.750000 0.515056 0.137620
O O19 0.862972 0.750000 0.149702
O O20 0.750000 0.999242 0.624397
O O21 0.856604 0.750000 0.624184
O O22 0.250000 0.530469 0.598351
O O23 0.124467 0.750000 0.588489
#
# Coordination Sequence:
#
# PCOD9453076 Si02
#       8
#     8   8   8   8   8   8   8   8
#     4   9  17  29  45  64  87 118 153 187 226 274
#     4  11  22  35  50  69  96 126 156 190 227 270
#     4   9  16  26  43  68  95 122 152 186 226 273
#     4   8  14  27  48  72  95 119 148 183 224 269
#     4   9  17  29  45  65  88 114 147 189 234 275
#     4   9  17  29  44  63  90 123 155 185 221 269
#     4   9  18  34  55  75  94 120 157 198 236 274
#     4   9  17  31  51  72  94 121 151 182 220 267
#
# _framework density 16.866081999999999
#
# number of rings (size 3 to 8) (size 9 to 14) (size 15 to 20)
#    0.000    2.875    0.000    2.625    0.000    4.750 
#    0.000    2.500    0.000    6.000    0.000    1.750 
#    0.000    0.000    0.000    0.000    0.000    0.000 
#
# Total GULP energy -356483.429252 kJ/mol
# GULP energy per Si atom -5570.053582 kJ/mol
# Density = 1.682769 g / cm^3
# Si number density = 16.866082 Si / 1000 Ang^3
#
#
#
# Elastic Constant Matrix: (Units=GPa)
#
#
# Indices 1 2 3 4 5 6 
#
# 1 127.8371 14.4230 76.9210 0.0000 0.0000 0.0000
# 2 14.4230 6.4577 13.9454 0.0000 0.0000 0.0000
# 3 76.9210 13.9454 116.5098 0.0000 0.0000 0.0000
# 4 0.0000 0.0000 0.0000 22.0142 0.0000 0.0000
# 5 0.0000 0.0000 0.0000 0.0000 14.1445 0.0000
# 6 0.0000 0.0000 0.0000 0.0000 0.0000 18.0322
#
#
#
# Elastic Compliance Matrix: (Units=1/GPa)
#
#
# Indices 1 2 3 4 5 6 
#
# 1 0.014011 -0.015262 -0.007424 0.000000 0.000000 0.000000
# 2 -0.015262 0.225455 -0.016909 0.000000 0.000000 0.000000
# 3 -0.007424 -0.016909 0.015508 0.000000 0.000000 0.000000
# 4 0.000000 0.000000 0.000000 0.045425 0.000000 0.000000
# 5 0.000000 0.000000 0.000000 0.000000 0.070699 0.000000
# 6 0.000000 0.000000 0.000000 0.000000 0.000000 0.055456
#
#
# Mechanical properties :
#
#
# Convention : Reuss Voigt Hill
#
# Bulk Modulus (GPa) = 5.68878 51.26482 28.47680
# Shear Modulus (GPa) = 8.85992 20.53921 14.69957
#
# Velocity S-wave (km/s) = 2.29445 3.49346 2.95540
# Velocity P-wave (km/s) = 3.22484 6.83619 5.34477
#
# Compressibility (1/GPa) = 0.17578453
#
# Stress axis : x y z
#
# Youngs Moduli (GPa) = 71.37123 4.43548 64.48287
#
# Poissons Ratio (x) = 0.06769 0.47870
# Poissons Ratio (y) = 1.08928 1.09035
# Poissons Ratio (z) = 0.52983 0.07500
#
# Static dielectric constant tensor:
#      x y z
#    x 1.572000 0.000000 0.000000 
#    y 0.000000 1.589960 0.000000 
#    z 0.000000 0.000000 1.564570 
# 
# From -- ./inp_files/33349.got.cif
#   From: 2010.05.17/outbox.cif.g08.bks.cpg/sg59_17_cif.got.tgz:33349.got - 2010.06.03 14:40:33.
