data_PCOD9453787
_publ_section_title
;
Structure prediction by ZEFSAII (Michael W. Deem and Ramdas Pophale) SiO2 
 PCOD9453787
Probable space group: P B C N
;
_chemical_formula_sum "Si O2"
_cell_formula_units_Z 48
_cell_length_a 23.383941
_cell_length_b 23.790061
_cell_length_c 5.499692
_cell_angle_alpha 90.000000
_cell_angle_beta 90.000000
_cell_angle_gamma 90.000000
_cell_volume 3059.508263
_symmetry_space_group_name_H-M "P B C N"
_symmetry_group_IT_number 60
_symmetry_cell_setting 'orthorhombic'
loop_
_space_group_symop_operation_xyz
x,y,z
1/2-x,1/2-y,1/2+z
1/2+x,1/2-y,-z
-x,y,1/2-z
-x,-y,-z
1/2+x,1/2+y,1/2-z
1/2-x,1/2+y,z
x,-y,1/2+z
loop_
_atom_site_type_symbol
_atom_site_label
_atom_site_fract_x
_atom_site_fract_y
_atom_site_fract_z
Si Si1 0.500000 0.726398 0.750000
Si Si2 0.322738 0.638893 0.331195
Si Si3 0.547366 0.374749 0.552025
Si Si4 0.681747 0.226422 0.659536
Si Si5 0.123570 0.259430 0.842461
Si Si6 0.000000 0.036273 0.750000
Si Si7 0.795977 0.846980 0.166184
O O1 0.474080 0.685107 0.545716
O O2 0.555152 0.759356 0.655859
O O3 0.390632 0.630627 0.333119
O O4 0.308628 0.706041 0.336669
O O5 0.298457 0.618192 0.586610
O O6 0.297555 0.617649 0.079712
O O7 0.500000 0.392694 0.750000
O O8 0.549083 0.418307 0.324514
O O9 0.647944 0.215025 0.408806
O O10 0.741323 0.193833 0.662329
O O11 0.648279 0.214507 0.909850
O O12 0.148260 0.194779 0.837880
O O13 0.000000 0.000000 0.500000
#
# Coordination Sequence:
#
# PCOD9453787 Si02
#       7
#     4   8   8   8   8   4   8
#     4  11  20  28  40  64  84 102 128 180 214 258
#     4  10  18  27  40  63  75  96 127 154 204 243
#     4  11  21  32  51  62  83 100 127 177 219 266
#     4  10  17  28  40  53  79 106 131 154 190 257
#     4  10  18  26  37  53  76 101 132 154 201 240
#     4  11  24  40  50  62  78 108 136 164 222 290
#     4  10  17  28  40  56  80 103 128 156 190 258
#
# _framework density 15.688795000000001
#
# number of rings (size 3 to 8) (size 9 to 14) (size 15 to 20)
#    0.000    1.667    4.167    7.000    2.333    0.000 
#    0.000    0.000    0.000    0.000    0.000    0.000 
#    0.000    0.000    0.000    0.000    0.000    0.000 
#
# Total GULP energy -267232.692035 kJ/mol
# GULP energy per Si atom -5567.347751 kJ/mol
# Density = 1.565309 g / cm^3
# Si number density = 15.688795 Si / 1000 Ang^3
#
#
#
# Elastic Constant Matrix: (Units=GPa)
#
#
# Indices 1 2 3 4 5 6 
#
# 1 83.1412 14.9626 38.3664 0.0000 0.0000 0.0000
# 2 14.9626 9.7295 13.7482 0.0000 0.0000 0.0000
# 3 38.3664 13.7482 161.4732 0.0000 0.0000 0.0000
# 4 0.0000 0.0000 0.0000 -7.3174 0.0000 0.0000
# 5 0.0000 0.0000 0.0000 0.0000 26.7597 0.0000
# 6 0.0000 0.0000 0.0000 0.0000 0.0000 0.2284
#
#
#
# Elastic Compliance Matrix: (Units=1/GPa)
#
#
# Indices 1 2 3 4 5 6 
#
# 1 0.017229 -0.023544 -0.002089 0.000000 0.000000 0.000000
# 2 -0.023544 0.149011 -0.007093 0.000000 0.000000 0.000000
# 3 -0.002089 -0.007093 0.007293 0.000000 0.000000 0.000000
# 4 0.000000 0.000000 0.000000 -0.136660 0.000000 0.000000
# 5 0.000000 0.000000 0.000000 0.000000 0.037370 0.000000
# 6 0.000000 0.000000 0.000000 0.000000 0.000000 4.379027
#
#
# Mechanical properties :
#
#
# Convention : Reuss Voigt Hill
#
# Bulk Modulus (GPa) = 9.25231 43.16648 26.20939
# Shear Modulus (GPa) = 1.09776 16.41858 8.75817
#
# Velocity S-wave (km/s) = 0.83739 3.23850 2.36528
# Velocity P-wave (km/s) = 2.61633 6.44653 4.91950
#
# Compressibility (1/GPa) = 0.10808111
#
# Stress axis : x y z
#
# Youngs Moduli (GPa) = 58.04224 6.71093 137.11303
#
# Poissons Ratio (x) = 0.15800 0.28644
# Poissons Ratio (y) = 1.36653 0.97254
# Poissons Ratio (z) = 0.12125 0.04760
#
# Static dielectric constant tensor:
#      x y z
#    x 1.525270 0.000000 0.000000 
#    y 0.000000 1.502380 0.000000 
#    z 0.000000 0.000000 1.672660 
# 
# From -- ./inp_files/2197.got.cif
#   From: 2010.05.17/outbox.cif.g08.bks.cpg/sg60_2_cif.got.tgz:2197.got - 2010.06.03 14:59:27.
