data_PCOD9453931
_publ_section_title
;
Structure prediction by ZEFSAII (Michael W. Deem and Ramdas Pophale) SiO2 
 PCOD9453931
Probable space group: P B C N
;
_chemical_formula_sum "Si O2"
_cell_formula_units_Z 64
_cell_length_a 21.282372
_cell_length_b 8.488309
_cell_length_c 15.348502
_cell_angle_alpha 90.000000
_cell_angle_beta 90.000000
_cell_angle_gamma 90.000000
_cell_volume 2772.727604
_symmetry_space_group_name_H-M "P B C N"
_symmetry_group_IT_number 60
_symmetry_cell_setting 'orthorhombic'
loop_
_space_group_symop_operation_xyz
x,y,z
1/2-x,1/2-y,1/2+z
1/2+x,1/2-y,-z
-x,y,1/2-z
-x,-y,-z
1/2+x,1/2+y,1/2-z
1/2-x,1/2+y,z
x,-y,1/2+z
loop_
_atom_site_type_symbol
_atom_site_label
_atom_site_fract_x
_atom_site_fract_y
_atom_site_fract_z
Si Si1 0.946207 0.985942 0.884778
Si Si2 0.670765 0.883757 0.530226
Si Si3 0.314604 0.517775 0.654782
Si Si4 0.314916 0.855320 0.172143
Si Si5 0.956221 0.528855 0.581882
Si Si6 0.798265 0.982703 0.047387
Si Si7 0.075497 0.899214 0.917416
Si Si8 0.051537 0.656488 0.689119
O O1 0.888372 0.055044 0.828071
O O2 0.935666 0.794550 0.882157
O O3 0.020694 0.996965 0.868044
O O4 0.934794 0.049155 0.981994
O O5 0.670363 0.922162 0.425903
O O6 0.687916 0.701356 0.539856
O O7 0.604450 0.922195 0.573290
O O8 0.727207 0.982432 0.572986
O O9 0.253716 0.588245 0.701782
O O10 0.308544 0.331593 0.666103
O O11 0.304620 0.553898 0.551242
O O12 0.379961 0.889090 0.223540
O O13 0.933980 0.711406 0.586218
O O14 0.000000 0.500000 0.500000
O O15 0.008804 0.513394 0.656503
O O16 0.853153 0.058172 0.105497
O O17 0.000000 0.739741 0.750000
#
# Coordination Sequence:
#
# PCOD9453931 Si02
#       8
#     8   8   8   8   8   8   8   8
#     4   8  16  29  50  75 102 137 178 215 271 326
#     4  10  18  30  48  77 115 138 186 225 279 336
#     4   8  15  26  43  71 104 127 168 212 266 313
#     4   9  16  29  47  75  98 133 171 225 268 322
#     4  11  21  32  52  83 109 146 184 231 279 334
#     4   9  17  28  47  75 112 147 168 225 281 334
#     4   9  17  29  50  78 113 136 174 224 282 330
#     4  10  20  36  54  74 107 149 189 229 281 339
#
# _framework density 23.081963999999999
#
# number of rings (size 3 to 8) (size 9 to 14) (size 15 to 20)
#    0.000    2.750    1.250    1.500    5.250    3.000 
#    0.000    0.000    0.000    9.750    0.000    0.000 
#    0.000    0.000    0.000    0.000    0.000    0.000 
#
# Total GULP energy -356287.723961 kJ/mol
# GULP energy per Si atom -5566.995687 kJ/mol
# Density = 2.302943 g / cm^3
# Si number density = 23.081964 Si / 1000 Ang^3
#
#
#
# Elastic Constant Matrix: (Units=GPa)
#
#
# Indices 1 2 3 4 5 6 
#
# 1 226.8676 32.4026 11.7783 0.0000 0.0000 0.0000
# 2 32.4026 27.3128 8.5933 0.0000 0.0000 0.0000
# 3 11.7783 8.5933 38.5024 0.0000 0.0000 0.0000
# 4 0.0000 0.0000 0.0000 13.7719 0.0000 0.0000
# 5 0.0000 0.0000 0.0000 0.0000 17.0552 0.0000
# 6 0.0000 0.0000 0.0000 0.0000 0.0000 37.6034
#
#
#
# Elastic Compliance Matrix: (Units=1/GPa)
#
#
# Indices 1 2 3 4 5 6 
#
# 1 0.005309 -0.006225 -0.000235 0.000000 0.000000 0.000000
# 2 -0.006225 0.046676 -0.008513 0.000000 0.000000 0.000000
# 3 -0.000235 -0.008513 0.027944 0.000000 0.000000 0.000000
# 4 0.000000 0.000000 0.000000 0.072612 0.000000 0.000000
# 5 0.000000 0.000000 0.000000 0.000000 0.058633 0.000000
# 6 0.000000 0.000000 0.000000 0.000000 0.000000 0.026593
#
#
# Mechanical properties :
#
#
# Convention : Reuss Voigt Hill
#
# Bulk Modulus (GPa) = 20.00648 44.24790 32.12719
# Shear Modulus (GPa) = 17.58247 29.68000 23.63124
#
# Velocity S-wave (km/s) = 2.76296 3.58977 3.20315
# Velocity P-wave (km/s) = 4.34338 6.03270 5.25635
#
# Compressibility (1/GPa) = 0.04998380
#
# Stress axis : x y z
#
# Youngs Moduli (GPa) = 188.35679 21.42437 35.78541
#
# Poissons Ratio (x) = 0.13336 0.00840
# Poissons Ratio (y) = 1.17243 0.30465
# Poissons Ratio (z) = 0.04424 0.18239
#
# Static dielectric constant tensor:
#      x y z
#    x 1.998010 0.000000 0.000000 
#    y 0.000000 1.818270 0.000000 
#    z 0.000000 0.000000 2.125030 
# 
# From -- ./inp_files/21070.got.cif
#   From: 2010.05.17/outbox.cif.g08.bks.cpg/sg60_11_cif.got.tgz:21070.got - 2010.06.03 14:59:27.
