data_PCOD9453701
_publ_section_title
;
Structure prediction by ZEFSAII (Michael W. Deem and Ramdas Pophale) SiO2 
 PCOD9453701
Probable space group: P B C N
;
_chemical_formula_sum "Si O2"
_cell_formula_units_Z 48
_cell_length_a 7.179151
_cell_length_b 36.004474
_cell_length_c 7.940574
_cell_angle_alpha 90.000000
_cell_angle_beta 90.000000
_cell_angle_gamma 90.000000
_cell_volume 2052.491919
_symmetry_space_group_name_H-M "P B C N"
_symmetry_group_IT_number 60
_symmetry_cell_setting 'orthorhombic'
loop_
_space_group_symop_operation_xyz
x,y,z
1/2-x,1/2-y,1/2+z
1/2+x,1/2-y,-z
-x,y,1/2-z
-x,-y,-z
1/2+x,1/2+y,1/2-z
1/2-x,1/2+y,z
x,-y,1/2+z
loop_
_atom_site_type_symbol
_atom_site_label
_atom_site_fract_x
_atom_site_fract_y
_atom_site_fract_z
Si Si1 0.791029 0.199418 0.112354
Si Si2 0.202679 0.166014 0.055469
Si Si3 0.276155 0.467942 0.738319
Si Si4 0.227565 0.780953 0.256282
Si Si5 0.278114 0.448695 0.107413
Si Si6 0.297649 0.418262 0.438689
O O1 0.708323 0.174316 0.262307
O O2 0.798799 0.240369 0.193696
O O3 0.990784 0.180911 0.074660
O O4 0.706122 0.205849 0.927604
O O5 0.280255 0.190343 0.902286
O O6 0.197479 0.123290 0.005889
O O7 0.500000 0.463354 0.750000
O O8 0.252745 0.511266 0.696740
O O9 0.207944 0.443928 0.581402
O O10 0.203528 0.454270 0.918866
O O11 0.000000 0.778171 0.250000
O O12 0.210944 0.420691 0.252198
O O13 0.493337 0.435570 0.080187
#
# Coordination Sequence:
#
# PCOD9453701 Si02
#       6
#     8   8   8   8   8   8
#     4  10  20  34  48  67  90 116 151 198 238 290
#     4  10  22  32  46  70  95 121 156 202 241 273
#     4  10  15  25  35  52  77 118 158 189 204 257
#     4  10  20  35  53  67  89 119 156 197 241 289
#     4  10  17  24  37  52  82 117 160 190 205 264
#     4  10  19  25  37  58  84 114 155 192 223 257
#
# _framework density 23.386206000000001
#
# number of rings (size 3 to 8) (size 9 to 14) (size 15 to 20)
#    0.000    2.000    5.000    1.000   14.000    0.000 
#    0.000    0.000    0.000    0.000    0.000    0.000 
#    0.000    0.000    0.000    0.000    0.000   26.667 
#
# Total GULP energy -267901.186216 kJ/mol
# GULP energy per Si atom -5581.274713 kJ/mol
# Density = 2.333298 g / cm^3
# Si number density = 23.386206 Si / 1000 Ang^3
#
#
#
# Elastic Constant Matrix: (Units=GPa)
#
#
# Indices 1 2 3 4 5 6 
#
# 1 99.1179 22.2680 14.6977 0.0000 0.0000 0.0000
# 2 22.2680 163.4705 78.6293 0.0000 0.0000 0.0000
# 3 14.6977 78.6293 248.6778 0.0000 0.0000 0.0000
# 4 0.0000 0.0000 0.0000 -11.0770 0.0000 0.0000
# 5 0.0000 0.0000 0.0000 0.0000 -18.9571 0.0000
# 6 0.0000 0.0000 0.0000 0.0000 0.0000 -19.3249
#
#
#
# Elastic Compliance Matrix: (Units=1/GPa)
#
#
# Indices 1 2 3 4 5 6 
#
# 1 0.010416 -0.001324 -0.000197 0.000000 0.000000 0.000000
# 2 -0.001324 0.007383 -0.002256 0.000000 0.000000 0.000000
# 3 -0.000197 -0.002256 0.004746 0.000000 0.000000 0.000000
# 4 0.000000 0.000000 0.000000 -0.090278 0.000000 0.000000
# 5 0.000000 0.000000 0.000000 0.000000 -0.052751 0.000000
# 6 0.000000 0.000000 0.000000 0.000000 0.000000 -0.051747
#
#
# Mechanical properties :
#
#
# Convention : Reuss Voigt Hill
#
# Bulk Modulus (GPa) = 66.70894 82.49514 74.60204
# Shear Modulus (GPa) = -31.31282 16.50630 -7.40326
#
# Velocity S-wave (km/s) = -3.66313 2.65960 -1.78116
# Velocity P-wave (km/s) = 3.27040 6.69201 5.26681
#
# Compressibility (1/GPa) = 0.01499049
#
# Stress axis : x y z
#
# Youngs Moduli (GPa) = 96.00914 135.44854 210.69172
#
# Poissons Ratio (x) = 0.17935 0.04149
# Poissons Ratio (y) = 0.12713 0.47535
# Poissons Ratio (z) = 0.01891 0.30559
#
# Static dielectric constant tensor:
#      x y z
#    x 2.015030 0.000000 0.000000 
#    y 0.000000 1.799800 0.000000 
#    z 0.000000 0.000000 1.940390 
# 
# From -- ./inp_files/5170.got.cif
#   From: 2010.05.17/outbox.cif.g08.bks.cpg/sg60_3_cif.got.tgz:5170.got - 2010.06.03 14:59:27.
