data_PCOD9453760
_publ_section_title
;
Structure prediction by ZEFSAII (Michael W. Deem and Ramdas Pophale) SiO2 
 PCOD9453760
Probable space group: P B C N
;
_chemical_formula_sum "Si O2"
_cell_formula_units_Z 52
_cell_length_a 12.372297
_cell_length_b 5.480612
_cell_length_c 30.208513
_cell_angle_alpha 90.000000
_cell_angle_beta 90.000000
_cell_angle_gamma 90.000000
_cell_volume 2048.371582
_symmetry_space_group_name_H-M "P B C N"
_symmetry_group_IT_number 60
_symmetry_cell_setting 'orthorhombic'
loop_
_space_group_symop_operation_xyz
x,y,z
1/2-x,1/2-y,1/2+z
1/2+x,1/2-y,-z
-x,y,1/2-z
-x,-y,-z
1/2+x,1/2+y,1/2-z
1/2-x,1/2+y,z
x,-y,1/2+z
loop_
_atom_site_type_symbol
_atom_site_label
_atom_site_fract_x
_atom_site_fract_y
_atom_site_fract_z
Si Si1 0.500000 0.760804 0.750000
Si Si2 0.411393 0.164548 0.695824
Si Si3 0.640307 0.613114 0.218061
Si Si4 0.853836 0.191879 0.122000
Si Si5 0.813089 0.238861 0.399129
Si Si6 0.884947 0.306923 0.587403
Si Si7 0.821787 0.671227 0.993658
O O1 0.463530 0.906539 0.706278
O O2 0.383582 0.653400 0.764558
O O3 0.338194 0.222860 0.739018
O O4 0.514252 0.337787 0.703422
O O5 0.361842 0.211555 0.648909
O O6 0.694229 0.667681 0.171683
O O7 0.746624 0.198518 0.091946
O O8 0.914971 0.445193 0.113002
O O9 0.919383 0.948215 0.109408
O O10 0.721126 0.453806 0.401059
O O11 0.874313 0.299225 0.445027
O O12 0.903103 0.314977 0.535039
O O13 0.758567 0.409897 0.996337
#
# Coordination Sequence:
#
# PCOD9453760 Si02
#       7
#     4   8   8   8   8   8   8
#     4   8  18  36  60  68 102 144 186 218 260 318
#     4   9  20  39  54  79 106 143 189 220 263 328
#     4   9  20  35  58  76 104 152 181 219 264 327
#     4  10  19  31  52  80 105 141 178 216 269 313
#     4  10  23  36  58  85 108 140 179 228 275 311
#     4  10  18  32  51  80 113 135 174 227 263 326
#     4  10  16  33  53  77 103 146 175 212 271 322
#
# _framework density 25.386021
#
# number of rings (size 3 to 8) (size 9 to 14) (size 15 to 20)
#    0.000    2.769    3.077    0.000    8.615    0.000 
#    5.538    0.000    0.000    1.846    0.000    0.000 
#    0.000    0.000    0.000    0.000    0.000    0.000 
#
# Total GULP energy -289757.439485 kJ/mol
# GULP energy per Si atom -5572.258452 kJ/mol
# Density = 2.532824 g / cm^3
# Si number density = 25.386021 Si / 1000 Ang^3
#
#
#
# Elastic Constant Matrix: (Units=GPa)
#
#
# Indices 1 2 3 4 5 6 
#
# 1 30.2306 -2.4586 16.9455 0.0000 0.0000 0.0000
# 2 -2.4586 146.8401 28.8833 0.0000 0.0000 0.0000
# 3 16.9455 28.8833 192.3094 0.0000 0.0000 0.0000
# 4 0.0000 0.0000 0.0000 63.2511 0.0000 0.0000
# 5 0.0000 0.0000 0.0000 0.0000 25.4755 0.0000
# 6 0.0000 0.0000 0.0000 0.0000 0.0000 -17.0415
#
#
#
# Elastic Compliance Matrix: (Units=1/GPa)
#
#
# Indices 1 2 3 4 5 6 
#
# 1 0.035012 0.001229 -0.003270 0.000000 0.000000 0.000000
# 2 0.001229 0.007061 -0.001169 0.000000 0.000000 0.000000
# 3 -0.003270 -0.001169 0.005664 0.000000 0.000000 0.000000
# 4 0.000000 0.000000 0.000000 0.015810 0.000000 0.000000
# 5 0.000000 0.000000 0.000000 0.000000 0.039253 0.000000
# 6 0.000000 0.000000 0.000000 0.000000 0.000000 -0.058680
#
#
# Mechanical properties :
#
#
# Convention : Reuss Voigt Hill
#
# Bulk Modulus (GPa) = 24.20262 50.68005 37.44134
# Shear Modulus (GPa) = 77.74823 36.07102 56.90963
#
# Velocity S-wave (km/s) = 5.54012 3.77357 4.73987
# Velocity P-wave (km/s) = 7.10481 6.24448 6.68850
#
# Compressibility (1/GPa) = 0.04131784
#
# Stress axis : x y z
#
# Youngs Moduli (GPa) = 28.56171 141.63084 176.56583
#
# Poissons Ratio (x) = -0.17412 0.57732
# Poissons Ratio (y) = -0.03511 0.20637
# Poissons Ratio (z) = 0.09339 0.16553
#
# Static dielectric constant tensor:
#      x y z
#    x 2.101170 0.000000 0.000000 
#    y 0.000000 2.248990 0.000000 
#    z 0.000000 0.000000 2.568080 
# 
# From -- ./inp_files/25465.got.cif
#   From: 2010.05.17/outbox.cif.g08.bks.cpg/sg60_13_cif.got.tgz:25465.got - 2010.06.03 14:59:27.
