data_PCOD9453510
_publ_section_title
;
Structure prediction by ZEFSAII (Michael W. Deem and Ramdas Pophale) SiO2 
 PCOD9453510
Probable space group: P M M N
;
_chemical_formula_sum "Si O2"
_cell_formula_units_Z 48
_cell_length_a 9.000000
_cell_length_b 27.000000
_cell_length_c 12.000000
_cell_angle_alpha 90.000000
_cell_angle_beta 90.000000
_cell_angle_gamma 90.000000
_cell_volume 2916.000000
_symmetry_space_group_name_H-M "P M M N"
_symmetry_group_IT_number 59
_space_group.IT_coordinate_system_code '2'
_symmetry_cell_setting 'orthorhombic'
loop_
_space_group_symop_operation_xyz
x,y,z
1/2-x,1/2-y,z
1/2+x,-y,-z
-x,1/2+y,-z
-x,-y,-z
1/2+x,1/2+y,-z
1/2-x,y,z
x,1/2-y,z
loop_
_atom_site_type_symbol
_atom_site_label
_atom_site_fract_x
_atom_site_fract_y
_atom_site_fract_z
Si Si1 0.427809 0.609915 0.675084
Si Si2 0.930290 0.567416 0.211238
Si Si3 0.072287 0.948842 0.452460
Si Si4 0.070316 0.462611 0.150693
Si Si5 0.069400 0.618419 0.011435
Si Si6 0.570389 0.690505 0.829763
O O1 0.250000 0.607842 0.702617
O O2 0.441955 0.594464 0.545823
O O3 0.520199 0.567433 0.739392
O O4 0.496316 0.660887 0.724972
O O5 0.750000 0.567818 0.207398
O O6 0.990664 0.566642 0.338195
O O7 0.996262 0.516260 0.160567
O O8 0.000617 0.611083 0.134865
O O9 0.250000 0.956881 0.433353
O O10 0.000000 0.000000 0.500000
O O11 0.250000 0.465046 0.139362
O O12 0.994588 0.429396 0.055036
O O13 0.250000 0.618966 0.012580
O O14 0.004097 0.664492 0.938979
O O15 0.750000 0.681885 0.831007
O O16 0.545700 0.750000 0.826344
#
# Coordination Sequence:
#
# PCOD9453510 Si02
#       6
#     8   8   8   8   8   8
#     4  10  20  34  54  81 111 143 184 227 271 320
#     4  12  23  35  51  74 109 149 188 224 267 322
#     4  11  22  35  53  78 111 151 190 227 268 323
#     4  11  20  32  51  75 108 145 183 223 267 320
#     4  11  22  36  54  78 108 140 180 225 275 328
#     4  10  21  38  61  86 110 138 176 224 279 332
#
# _framework density 16.460905
#
# number of rings (size 3 to 8) (size 9 to 14) (size 15 to 20)
#    0.000    1.167    1.667    8.500    0.000    3.333 
#    0.000    0.000    0.000    1.000    0.000    4.667 
#    0.000    0.000    0.000    0.000    0.000    0.000 
#
# Total GULP energy -267929.845129 kJ/mol
# GULP energy per Si atom -5581.871774 kJ/mol
# Density = 1.642344 g / cm^3
# Si number density = 16.460905 Si / 1000 Ang^3
#
#
#
# Elastic Constant Matrix: (Units=GPa)
#
#
# Indices 1 2 3 4 5 6 
#
# 1 184.4083 49.6421 52.9753 0.0000 0.0000 0.0000
# 2 49.6421 105.2260 44.7773 0.0000 0.0000 0.0000
# 3 52.9753 44.7773 111.5805 0.0000 0.0000 0.0000
# 4 0.0000 0.0000 0.0000 16.3660 0.0000 0.0000
# 5 0.0000 0.0000 0.0000 0.0000 33.9447 0.0000
# 6 0.0000 0.0000 0.0000 0.0000 0.0000 30.3329
#
#
#
# Elastic Compliance Matrix: (Units=1/GPa)
#
#
# Indices 1 2 3 4 5 6 
#
# 1 0.006666 -0.002168 -0.002295 0.000000 0.000000 0.000000
# 2 -0.002168 0.012166 -0.003853 0.000000 0.000000 0.000000
# 3 -0.002295 -0.003853 0.011598 0.000000 0.000000 0.000000
# 4 0.000000 0.000000 0.000000 0.061102 0.000000 0.000000
# 5 0.000000 0.000000 0.000000 0.000000 0.029460 0.000000
# 6 0.000000 0.000000 0.000000 0.000000 0.000000 0.032968
#
#
# Mechanical properties :
#
#
# Convention : Reuss Voigt Hill
#
# Bulk Modulus (GPa) = 72.47415 77.33382 74.90399
# Shear Modulus (GPa) = 28.54065 33.05005 30.79535
#
# Velocity S-wave (km/s) = 4.16846 4.48570 4.32999
# Velocity P-wave (km/s) = 8.20315 8.59715 8.40246
#
# Compressibility (1/GPa) = 0.01379802
#
# Stress axis : x y z
#
# Youngs Moduli (GPa) = 150.02461 82.19837 86.22467
#
# Poissons Ratio (x) = 0.17822 0.19785
# Poissons Ratio (y) = 0.32528 0.33220
# Poissons Ratio (z) = 0.34424 0.31669
#
# Static dielectric constant tensor:
#      x y z
#    x 1.549300 0.000000 0.000000 
#    y 0.000000 1.543600 0.000000 
#    z 0.000000 0.000000 1.611810 
# 
# From -- ./inp_files/14460.got.cif
#   From: 2010.05.17/outbox.ucp.g08.bks.cvg/sg59_8_cif.got.tgz:14460.got - 2010.06.11 16:43:56.
