data_PCOD9453025
_publ_section_title
;
Structure prediction by ZEFSAII (Michael W. Deem and Ramdas Pophale) SiO2 
 PCOD9453025
Probable space group: P M M N
;
_chemical_formula_sum "Si O2"
_cell_formula_units_Z 48
_cell_length_a 31.621945
_cell_length_b 8.250029
_cell_length_c 10.487854
_cell_angle_alpha 90.000000
_cell_angle_beta 90.000000
_cell_angle_gamma 90.000000
_cell_volume 2736.091942
_symmetry_space_group_name_H-M "P M M N"
_symmetry_group_IT_number 59
_space_group.IT_coordinate_system_code '2'
_symmetry_cell_setting 'orthorhombic'
loop_
_space_group_symop_operation_xyz
x,y,z
1/2-x,1/2-y,z
1/2+x,-y,-z
-x,1/2+y,-z
-x,-y,-z
1/2+x,1/2+y,-z
1/2-x,y,z
x,1/2-y,z
loop_
_atom_site_type_symbol
_atom_site_label
_atom_site_fract_x
_atom_site_fract_y
_atom_site_fract_z
Si Si1 0.977594 0.556950 0.871929
Si Si2 0.973287 0.555601 0.377798
Si Si3 0.887547 0.948377 0.778596
Si Si4 0.795783 0.442587 0.501910
Si Si5 0.795654 0.942365 0.792226
Si Si6 0.615371 0.945265 0.480319
O O1 0.974938 0.750000 0.875256
O O2 0.005032 0.507658 0.749560
O O3 0.929492 0.495360 0.851081
O O4 0.000000 0.500000 0.000000
O O5 0.973233 0.750000 0.374515
O O6 0.924986 0.499833 0.399672
O O7 0.000000 0.500000 0.500000
O O8 0.886926 0.750000 0.780046
O O9 0.841992 0.004866 0.832708
O O10 0.890725 0.995972 0.628912
O O11 0.750000 0.480346 0.441161
O O12 0.797222 0.250000 0.524983
O O13 0.796236 0.530895 0.639216
O O14 0.839010 0.493423 0.434642
O O15 0.750000 0.010098 0.837272
O O16 0.795100 0.750000 0.817631
O O17 0.616221 0.750000 0.479881
#
# Coordination Sequence:
#
# PCOD9453025 Si02
#       6
#     8   8   8   8   8   8
#     4  11  22  37  52  72 102 136 173 214 258 309
#     4  11  21  35  54  77 102 132 170 213 256 302
#     4   8  14  27  45  66  94 125 157 199 244 288
#     4   9  16  24  36  61  96 127 156 195 243 291
#     4   8  13  23  40  61  87 121 156 190 237 294
#     4   9  17  30  47  68  94 127 165 202 246 298
#
# _framework density 17.543272000000002
#
# number of rings (size 3 to 8) (size 9 to 14) (size 15 to 20)
#    0.000    2.667    1.667    2.500    0.000    2.333 
#    0.000    0.833    0.000    0.000    0.000    1.167 
#    0.000    6.667    0.000    0.000    0.000    0.000 
#
# Total GULP energy -267204.063269 kJ/mol
# GULP energy per Si atom -5566.751318 kJ/mol
# Density = 1.750334 g / cm^3
# Si number density = 17.543272 Si / 1000 Ang^3
#
#
#
# Elastic Constant Matrix: (Units=GPa)
#
#
# Indices 1 2 3 4 5 6 
#
# 1 231.9856 18.6000 59.8973 0.0000 0.0000 0.0000
# 2 18.6000 16.9994 8.5402 0.0000 0.0000 0.0000
# 3 59.8973 8.5402 66.2799 0.0000 0.0000 0.0000
# 4 0.0000 0.0000 0.0000 17.4054 0.0000 0.0000
# 5 0.0000 0.0000 0.0000 0.0000 12.6635 0.0000
# 6 0.0000 0.0000 0.0000 0.0000 0.0000 23.8317
#
#
#
# Elastic Compliance Matrix: (Units=1/GPa)
#
#
# Indices 1 2 3 4 5 6 
#
# 1 0.005868 -0.004017 -0.004786 0.000000 0.000000 0.000000
# 2 -0.004017 0.065646 -0.004829 0.000000 0.000000 0.000000
# 3 -0.004786 -0.004829 0.020034 0.000000 0.000000 0.000000
# 4 0.000000 0.000000 0.000000 0.057454 0.000000 0.000000
# 5 0.000000 0.000000 0.000000 0.000000 0.078967 0.000000
# 6 0.000000 0.000000 0.000000 0.000000 0.000000 0.041961
#
#
# Mechanical properties :
#
#
# Convention : Reuss Voigt Hill
#
# Bulk Modulus (GPa) = 15.55518 54.37108 34.96313
# Shear Modulus (GPa) = 15.69260 25.99529 20.84395
#
# Velocity S-wave (km/s) = 2.99408 3.85357 3.45069
# Velocity P-wave (km/s) = 4.56494 7.13161 5.98742
#
# Compressibility (1/GPa) = 0.06428728
#
# Stress axis : x y z
#
# Youngs Moduli (GPa) = 170.40783 15.23312 49.91391
#
# Poissons Ratio (x) = 0.06119 0.23887
# Poissons Ratio (y) = 0.68446 0.24102
# Poissons Ratio (z) = 0.81551 0.07356
#
# Static dielectric constant tensor:
#      x y z
#    x 1.691750 0.000000 0.000000 
#    y 0.000000 1.620440 0.000000 
#    z 0.000000 0.000000 1.538160 
# 
# From -- ./inp_files/19036.got.cif
#   From: 2010.05.17/outbox.cif.g08.bks.cpg/sg59_10_cif.got.tgz:19036.got - 2010.06.03 14:40:33.
