data_PCOD9453982
_publ_section_title
;
Structure prediction by ZEFSAII (Michael W. Deem and Ramdas Pophale) SiO2 
 PCOD9453982
Probable space group: P B C N
;
_chemical_formula_sum "Si O2"
_cell_formula_units_Z 52
_cell_length_a 25.565504
_cell_length_b 9.105587
_cell_length_c 8.836326
_cell_angle_alpha 90.000000
_cell_angle_beta 90.000000
_cell_angle_gamma 90.000000
_cell_volume 2056.998794
_symmetry_space_group_name_H-M "P B C N"
_symmetry_group_IT_number 60
_symmetry_cell_setting 'orthorhombic'
loop_
_space_group_symop_operation_xyz
x,y,z
1/2-x,1/2-y,1/2+z
1/2+x,1/2-y,-z
-x,y,1/2-z
-x,-y,-z
1/2+x,1/2+y,1/2-z
1/2-x,1/2+y,z
x,-y,1/2+z
loop_
_atom_site_type_symbol
_atom_site_label
_atom_site_fract_x
_atom_site_fract_y
_atom_site_fract_z
Si Si1 0.500000 0.184814 0.750000
Si Si2 0.896817 0.985294 0.311689
Si Si3 0.366959 0.296016 0.471918
Si Si4 0.474698 0.724789 0.565040
Si Si5 0.754394 0.110341 0.611175
Si Si6 0.429046 0.907948 0.787311
Si Si7 0.791378 0.840334 0.442748
O O1 0.512638 0.283883 0.608311
O O2 0.451474 0.068701 0.760974
O O3 0.889957 0.924113 0.141539
O O4 0.952204 0.924681 0.369180
O O5 0.847742 0.903447 0.394454
O O6 0.888154 0.153685 0.363746
O O7 0.305152 0.312244 0.464536
O O8 0.381391 0.141330 0.392484
O O9 0.428913 0.837115 0.619899
O O10 0.526154 0.808967 0.627275
O O11 0.707203 0.179756 0.516542
O O12 0.765942 0.941924 0.573038
O O13 0.757617 0.143368 0.788727
#
# Coordination Sequence:
#
# PCOD9453982 Si02
#       7
#     4   8   8   8   8   8   8
#     4  10  18  32  50  70 100 140 178 218 256 310
#     4   9  19  35  53  77 106 138 175 223 268 323
#     4   9  19  34  54  78 106 137 176 220 273 324
#     4   9  18  32  51  72 101 136 174 215 261 309
#     4  10  20  37  59  83 114 150 186 236 286 347
#     4   9  17  33  52  70 102 139 169 214 267 311
#     4  10  20  37  60  82 115 147 188 234 290 340
#
# _framework density 25.279551000000001
#
# number of rings (size 3 to 8) (size 9 to 14) (size 15 to 20)
#    0.000    2.769    0.000    2.769    0.000    3.077 
#    2.769    2.308    3.385    0.000    0.000    0.000 
#    0.000    0.000    0.000    0.000    0.000    0.000 
#
# Total GULP energy -289860.712962 kJ/mol
# GULP energy per Si atom -5574.244480 kJ/mol
# Density = 2.522201 g / cm^3
# Si number density = 25.279551 Si / 1000 Ang^3
#
#
#
# Elastic Constant Matrix: (Units=GPa)
#
#
# Indices 1 2 3 4 5 6 
#
# 1 41.1453 20.6287 2.6433 0.0000 0.0000 0.0000
# 2 20.6287 66.7432 5.2176 0.0000 0.0000 0.0000
# 3 2.6433 5.2176 105.5500 0.0000 0.0000 0.0000
# 4 0.0000 0.0000 0.0000 27.8629 0.0000 0.0000
# 5 0.0000 0.0000 0.0000 0.0000 25.6219 0.0000
# 6 0.0000 0.0000 0.0000 0.0000 0.0000 26.9997
#
#
#
# Elastic Compliance Matrix: (Units=1/GPa)
#
#
# Indices 1 2 3 4 5 6 
#
# 1 0.028769 -0.008870 -0.000282 0.000000 0.000000 0.000000
# 2 -0.008870 0.017776 -0.000657 0.000000 0.000000 0.000000
# 3 -0.000282 -0.000657 0.009514 0.000000 0.000000 0.000000
# 4 0.000000 0.000000 0.000000 0.035890 0.000000 0.000000
# 5 0.000000 0.000000 0.000000 0.000000 0.039029 0.000000
# 6 0.000000 0.000000 0.000000 0.000000 0.000000 0.037037
#
#
# Mechanical properties :
#
#
# Convention : Reuss Voigt Hill
#
# Bulk Modulus (GPa) = 27.44108 30.04640 28.74374
# Shear Modulus (GPa) = 25.02764 28.42683 26.72724
#
# Velocity S-wave (km/s) = 3.14990 3.35699 3.25509
# Velocity P-wave (km/s) = 4.90996 5.19012 5.05198
#
# Compressibility (1/GPa) = 0.03644172
#
# Stress axis : x y z
#
# Youngs Moduli (GPa) = 34.75934 56.25696 105.11161
#
# Poissons Ratio (x) = 0.49899 0.02964
# Poissons Ratio (y) = 0.30831 0.06901
# Poissons Ratio (z) = 0.00980 0.03694
#
# Static dielectric constant tensor:
#      x y z
#    x 2.077090 0.000000 0.000000 
#    y 0.000000 2.042260 0.000000 
#    z 0.000000 0.000000 2.110080 
# 
# From -- ./inp_files/8145.got.cif
#   From: 2010.05.17/outbox.cif.g08.bks.cpg/sg60_5_cif.got.tgz:8145.got - 2010.06.03 14:59:27.
