data_PCOD9453894
_publ_section_title
;
Structure prediction by ZEFSAII (Michael W. Deem and Ramdas Pophale) SiO2 
 PCOD9453894
Probable space group: P B C N
;
_chemical_formula_sum "Si O2"
_cell_formula_units_Z 60
_cell_length_a 18.611164
_cell_length_b 5.707400
_cell_length_c 27.135183
_cell_angle_alpha 90.000000
_cell_angle_beta 90.000000
_cell_angle_gamma 90.000000
_cell_volume 2882.335972
_symmetry_space_group_name_H-M "P B C N"
_symmetry_group_IT_number 60
_symmetry_cell_setting 'orthorhombic'
loop_
_space_group_symop_operation_xyz
x,y,z
1/2-x,1/2-y,1/2+z
1/2+x,1/2-y,-z
-x,y,1/2-z
-x,-y,-z
1/2+x,1/2+y,1/2-z
1/2-x,1/2+y,z
x,-y,1/2+z
loop_
_atom_site_type_symbol
_atom_site_label
_atom_site_fract_x
_atom_site_fract_y
_atom_site_fract_z
Si Si1 0.020773 0.715970 0.654903
Si Si2 0.783815 0.835399 0.667957
Si Si3 0.000000 0.413465 0.750000
Si Si4 0.445811 0.250475 0.024427
Si Si5 0.577350 0.123806 0.095625
Si Si6 0.571332 0.750925 0.449206
Si Si7 0.419646 0.426455 0.312412
Si Si8 0.732589 0.883263 0.555105
O O1 0.029411 0.561790 0.703706
O O2 0.954930 0.594200 0.625277
O O3 0.075914 0.742692 0.609996
O O4 0.996713 0.966080 0.674462
O O5 0.756425 0.577718 0.683015
O O6 0.775158 0.848104 0.607882
O O7 0.861720 0.870943 0.692738
O O8 0.934666 0.253993 0.730463
O O9 0.511556 0.236313 0.064682
O O10 0.404832 0.495038 0.031752
O O11 0.403568 0.007894 0.032921
O O12 0.489051 0.247550 0.972643
O O13 0.604402 0.295494 0.138378
O O14 0.648346 0.078451 0.065248
O O15 0.740624 0.625759 0.531212
#
# Coordination Sequence:
#
# PCOD9453894 Si02
#       8
#     8   8   4   8   8   8   8   8
#     4  10  19  32  46  64  93 134 167 207 247 299
#     4  10  19  30  47  68  91 122 159 199 245 298
#     4  10  24  32  44  70  94 138 178 206 256 310
#     4   9  17  28  43  70  88 120 155 191 228 283
#     4  10  18  27  46  65  95 125 159 191 245 294
#     4   9  17  29  46  63  92 118 158 194 232 275
#     4  11  19  32  47  65  97 132 168 203 249 305
#     4  10  18  27  40  66  91 122 152 186 234 291
#
# _framework density 20.81645
#
# number of rings (size 3 to 8) (size 9 to 14) (size 15 to 20)
#    0.000    2.133    4.000    2.000    1.867    0.000 
#    0.000    0.000    0.000    0.000    0.000    0.000 
#    0.000    2.133    0.000    0.000    0.000    0.000 
#
# Total GULP energy -334040.434941 kJ/mol
# GULP energy per Si atom -5567.340582 kJ/mol
# Density = 2.076907 g / cm^3
# Si number density = 20.816450 Si / 1000 Ang^3
#
#
#
# Elastic Constant Matrix: (Units=GPa)
#
#
# Indices 1 2 3 4 5 6 
#
# 1 29.6047 4.4380 14.6509 0.0000 0.0000 0.0000
# 2 4.4380 151.2872 33.4964 0.0000 0.0000 0.0000
# 3 14.6509 33.4964 110.9001 0.0000 0.0000 0.0000
# 4 0.0000 0.0000 0.0000 20.1048 0.0000 0.0000
# 5 0.0000 0.0000 0.0000 0.0000 11.7199 0.0000
# 6 0.0000 0.0000 0.0000 0.0000 0.0000 10.4311
#
#
#
# Elastic Compliance Matrix: (Units=1/GPa)
#
#
# Indices 1 2 3 4 5 6 
#
# 1 0.036141 -0.000003 -0.004774 0.000000 0.000000 0.000000
# 2 -0.000003 0.007084 -0.002139 0.000000 0.000000 0.000000
# 3 -0.004774 -0.002139 0.010294 0.000000 0.000000 0.000000
# 4 0.000000 0.000000 0.000000 0.049739 0.000000 0.000000
# 5 0.000000 0.000000 0.000000 0.000000 0.085325 0.000000
# 6 0.000000 0.000000 0.000000 0.000000 0.000000 0.095867
#
#
# Mechanical properties :
#
#
# Convention : Reuss Voigt Hill
#
# Bulk Modulus (GPa) = 25.19727 44.10695 34.65211
# Shear Modulus (GPa) = 16.05080 24.39828 20.22454
#
# Velocity S-wave (km/s) = 2.77982 3.42726 3.12038
# Velocity P-wave (km/s) = 4.73645 6.07421 5.44656
#
# Compressibility (1/GPa) = 0.03968683
#
# Stress axis : x y z
#
# Youngs Moduli (GPa) = 27.66915 141.16992 97.14525
#
# Poissons Ratio (x) = 0.00046 0.46373
# Poissons Ratio (y) = 0.00009 0.20781
# Poissons Ratio (z) = 0.13208 0.30198
#
# Static dielectric constant tensor:
#      x y z
#    x 1.788320 0.000000 0.000000 
#    y 0.000000 1.871730 0.000000 
#    z 0.000000 0.000000 1.810610 
# 
# From -- ./inp_files/26230.got.cif
#   From: 2010.05.17/outbox.cif.g08.bks.cpg/sg60_14_cif.got.tgz:26230.got - 2010.06.03 14:59:27.
