data_PCOD9453606
_publ_section_title
;
Structure prediction by ZEFSAII (Michael W. Deem and Ramdas Pophale) SiO2 
 PCOD9453606
Probable space group: P M M N
;
_chemical_formula_sum "Si O2"
_cell_formula_units_Z 64
_cell_length_a 15.000000
_cell_length_b 18.000000
_cell_length_c 12.000000
_cell_angle_alpha 90.000000
_cell_angle_beta 90.000000
_cell_angle_gamma 90.000000
_cell_volume 3240.000000
_symmetry_space_group_name_H-M "P M M N"
_symmetry_group_IT_number 59
_space_group.IT_coordinate_system_code '2'
_symmetry_cell_setting 'orthorhombic'
loop_
_space_group_symop_operation_xyz
x,y,z
1/2-x,1/2-y,z
1/2+x,-y,-z
-x,1/2+y,-z
-x,-y,-z
1/2+x,1/2+y,-z
1/2-x,y,z
x,1/2-y,z
loop_
_atom_site_type_symbol
_atom_site_label
_atom_site_fract_x
_atom_site_fract_y
_atom_site_fract_z
Si Si1 0.147791 0.331747 0.046630
Si Si2 0.009774 0.566652 0.683459
Si Si3 0.351557 0.866480 0.087768
Si Si4 0.959143 0.665801 0.179982
Si Si5 0.854366 0.164065 0.172082
Si Si6 0.349924 0.479927 0.185100
Si Si7 0.854693 0.559358 0.349292
Si Si8 0.647255 0.838731 0.567926
O O1 0.250000 0.333532 0.003691
O O2 0.133756 0.250000 0.098845
O O3 0.080792 0.340218 0.944701
O O4 0.140143 0.398847 0.131740
O O5 0.935317 0.511895 0.736788
O O6 0.940801 0.625574 0.626696
O O7 0.072965 0.611662 0.769562
O O8 0.082954 0.512844 0.623325
O O9 0.250000 0.844356 0.121846
O O10 0.433737 0.841856 0.165506
O O11 0.353969 0.956154 0.092262
O O12 0.365187 0.840262 0.961612
O O13 0.939527 0.750000 0.220499
O O14 0.906761 0.604690 0.252301
O O15 0.750000 0.143637 0.195518
O O16 0.866801 0.250000 0.206467
O O17 0.250000 0.486850 0.235657
O O18 0.750000 0.541050 0.321338
O O19 0.850993 0.615976 0.452577
O O20 0.750000 0.848573 0.616659
O O21 0.635919 0.750000 0.555862
#
# Coordination Sequence:
#
# PCOD9453606 Si02
#       8
#     8   8   8   8   8   8   8   8
#     4   9  19  33  50  78 117 156 196 245 297 349
#     4  12  22  38  63  90 119 153 200 243 300 356
#     4  10  21  37  55  81 119 165 205 247 293 344
#     4  11  21  35  58  85 113 156 204 247 296 354
#     4  10  22  38  57  85 122 163 206 248 290 345
#     4  10  21  35  54  82 119 156 195 243 294 348
#     4  11  24  41  62  91 122 155 195 248 306 363
#     4  10  23  44  68  92 119 151 191 245 309 371
#
# _framework density 19.753086
#
# number of rings (size 3 to 8) (size 9 to 14) (size 15 to 20)
#    0.000    1.625    1.250    3.375    1.750    5.000 
#    0.000    1.250    0.000    0.750    0.000    0.000 
#    0.000    0.000    0.000    0.000    0.000    0.000 
#
# Total GULP energy -356836.363886 kJ/mol
# GULP energy per Si atom -5575.568186 kJ/mol
# Density = 1.970813 g / cm^3
# Si number density = 19.753086 Si / 1000 Ang^3
#
#
#
# Elastic Constant Matrix: (Units=GPa)
#
#
# Indices 1 2 3 4 5 6 
#
# 1 169.0412 41.7928 33.4935 0.0000 0.0000 0.0000
# 2 41.7928 103.4231 19.1322 0.0000 0.0000 0.0000
# 3 33.4935 19.1322 27.1801 0.0000 0.0000 0.0000
# 4 0.0000 0.0000 0.0000 -15.4575 0.0000 0.0000
# 5 0.0000 0.0000 0.0000 0.0000 32.8765 0.0000
# 6 0.0000 0.0000 0.0000 0.0000 0.0000 33.5272
#
#
#
# Elastic Compliance Matrix: (Units=1/GPa)
#
#
# Indices 1 2 3 4 5 6 
#
# 1 0.008059 -0.001632 -0.008783 0.000000 0.000000 0.000000
# 2 -0.001632 0.011447 -0.006046 0.000000 0.000000 0.000000
# 3 -0.008783 -0.006046 0.051870 0.000000 0.000000 0.000000
# 4 0.000000 0.000000 0.000000 -0.064693 0.000000 0.000000
# 5 0.000000 0.000000 0.000000 0.000000 0.030417 0.000000
# 6 0.000000 0.000000 0.000000 0.000000 0.000000 0.029827
#
#
# Mechanical properties :
#
#
# Convention : Reuss Voigt Hill
#
# Bulk Modulus (GPa) = 26.00477 54.27571 40.14024
# Shear Modulus (GPa) = 44.37854 23.87097 34.12475
#
# Velocity S-wave (km/s) = 4.74504 3.48007 4.16091
# Velocity P-wave (km/s) = 6.57374 6.60943 6.59161
#
# Compressibility (1/GPa) = 0.03845448
#
# Stress axis : x y z
#
# Youngs Moduli (GPa) = 124.07904 87.35855 19.27887
#
# Poissons Ratio (x) = 0.14258 0.16932
# Poissons Ratio (y) = 0.20251 0.11657
# Poissons Ratio (z) = 1.08973 0.52821
#
# Static dielectric constant tensor:
#      x y z
#    x 1.717790 0.000000 0.000000 
#    y 0.000000 1.716680 0.000000 
#    z 0.000000 0.000000 1.701400 
# 
# From -- ./inp_files/17221.got.cif
#   From: 2010.05.17/outbox.ucp.g08.bks.cvg/sg59_9_cif.got.tgz:17221.got - 2010.06.11 16:43:56.
