data_PCOD9453823
_publ_section_title
;
Structure prediction by ZEFSAII (Michael W. Deem and Ramdas Pophale) SiO2 
 PCOD9453823
Probable space group: P B C N
;
_chemical_formula_sum "Si O2"
_cell_formula_units_Z 44
_cell_length_a 21.869767
_cell_length_b 19.559953
_cell_length_c 5.447785
_cell_angle_alpha 90.000000
_cell_angle_beta 90.000000
_cell_angle_gamma 90.000000
_cell_volume 2330.407786
_symmetry_space_group_name_H-M "P B C N"
_symmetry_group_IT_number 60
_symmetry_cell_setting 'orthorhombic'
loop_
_space_group_symop_operation_xyz
x,y,z
1/2-x,1/2-y,1/2+z
1/2+x,1/2-y,-z
-x,y,1/2-z
-x,-y,-z
1/2+x,1/2+y,1/2-z
1/2-x,1/2+y,z
x,-y,1/2+z
loop_
_atom_site_type_symbol
_atom_site_label
_atom_site_fract_x
_atom_site_fract_y
_atom_site_fract_z
Si Si1 0.735881 0.122417 0.955122
Si Si2 0.576473 0.039291 0.455577
Si Si3 0.618317 0.786597 0.458524
Si Si4 0.000000 0.350804 0.250000
Si Si5 0.326521 0.749446 0.540430
Si Si6 0.285999 0.907987 0.543114
O O1 0.775650 0.191211 0.946552
O O2 0.746974 0.080941 0.201439
O O3 0.664203 0.147004 0.959427
O O4 0.746653 0.079392 0.712202
O O5 0.539171 0.103995 0.557303
O O6 0.648153 0.056747 0.461247
O O7 0.564076 0.015589 0.175478
O O8 0.549605 0.809407 0.407054
O O9 0.639152 0.744401 0.218940
O O10 0.631268 0.750049 0.717038
O O11 0.296255 0.824952 0.541194
#
# Coordination Sequence:
#
# PCOD9453823 Si02
#       6
#     8   8   8   4   8   8
#     4  10  17  32  54  72  89 110 145 214 275 317
#     4  12  26  39  50  65  93 141 192 230 258 283
#     4  10  20  30  49  68  93 119 155 208 263 294
#     4  12  24  40  50  66 100 140 188 226 262 286
#     4  10  18  32  52  73  90 109 148 212 272 317
#     4  10  18  33  49  70  89 112 158 214 269 291
#
# _framework density 18.880815999999999
#
# number of rings (size 3 to 8) (size 9 to 14) (size 15 to 20)
#    0.000    1.455    3.636    7.091    2.545    2.182 
#    0.000    0.000    0.000    0.000    0.000    0.000 
#    0.000    0.000    0.000    0.000    0.000    0.000 
#
# Total GULP energy -245807.600191 kJ/mol
# GULP energy per Si atom -5586.536368 kJ/mol
# Density = 1.883784 g / cm^3
# Si number density = 18.880816 Si / 1000 Ang^3
#
#
#
# Elastic Constant Matrix: (Units=GPa)
#
#
# Indices 1 2 3 4 5 6 
#
# 1 45.1241 21.7273 21.7718 0.0000 0.0000 0.0000
# 2 21.7273 42.1566 13.2111 0.0000 0.0000 0.0000
# 3 21.7718 13.2111 186.3161 0.0000 0.0000 0.0000
# 4 0.0000 0.0000 0.0000 3.9821 0.0000 0.0000
# 5 0.0000 0.0000 0.0000 0.0000 27.3016 0.0000
# 6 0.0000 0.0000 0.0000 0.0000 0.0000 27.6984
#
#
#
# Elastic Compliance Matrix: (Units=1/GPa)
#
#
# Indices 1 2 3 4 5 6 
#
# 1 0.030584 -0.014976 -0.002512 0.000000 0.000000 0.000000
# 2 -0.014976 0.031593 -0.000490 0.000000 0.000000 0.000000
# 3 -0.002512 -0.000490 0.005696 0.000000 0.000000 0.000000
# 4 0.000000 0.000000 0.000000 0.251124 0.000000 0.000000
# 5 0.000000 0.000000 0.000000 0.000000 0.036628 0.000000
# 6 0.000000 0.000000 0.000000 0.000000 0.000000 0.036103
#
#
# Mechanical properties :
#
#
# Convention : Reuss Voigt Hill
#
# Bulk Modulus (GPa) = 31.33136 43.00193 37.16665
# Shear Modulus (GPa) = 11.40713 26.25554 18.83134
#
# Velocity S-wave (km/s) = 2.46064 3.73311 3.16156
# Velocity P-wave (km/s) = 4.97024 6.43478 5.74934
#
# Compressibility (1/GPa) = 0.03191690
#
# Stress axis : x y z
#
# Youngs Moduli (GPa) = 32.69700 31.65259 175.57672
#
# Poissons Ratio (x) = 0.47401 0.44104
# Poissons Ratio (y) = 0.48966 0.08607
# Poissons Ratio (z) = 0.08213 0.01552
#
# Static dielectric constant tensor:
#      x y z
#    x 1.642850 0.000000 0.000000 
#    y 0.000000 1.668390 0.000000 
#    z 0.000000 0.000000 1.811290 
# 
# From -- ./inp_files/2041.got.cif
#   From: 2010.05.17/outbox.cif.g08.bks.cpg/sg60_2_cif.got.tgz:2041.got - 2010.06.03 14:59:27.
