data_PCOD9453341
_publ_section_title
;
Structure prediction by ZEFSAII (Michael W. Deem and Ramdas Pophale) SiO2 
 PCOD9453341
Probable space group: P M M N
;
_chemical_formula_sum "Si O2"
_cell_formula_units_Z 64
_cell_length_a 15.000000
_cell_length_b 24.000000
_cell_length_c 9.000000
_cell_angle_alpha 90.000000
_cell_angle_beta 90.000000
_cell_angle_gamma 90.000000
_cell_volume 3240.000000
_symmetry_space_group_name_H-M "P M M N"
_symmetry_group_IT_number 59
_space_group.IT_coordinate_system_code '2'
_symmetry_cell_setting 'orthorhombic'
loop_
_space_group_symop_operation_xyz
x,y,z
1/2-x,1/2-y,z
1/2+x,-y,-z
-x,1/2+y,-z
-x,-y,-z
1/2+x,1/2+y,-z
1/2-x,y,z
x,1/2-y,z
loop_
_atom_site_type_symbol
_atom_site_label
_atom_site_fract_x
_atom_site_fract_y
_atom_site_fract_z
Si Si1 0.849588 0.893978 0.952198
Si Si2 0.985368 0.314168 0.686393
Si Si3 0.853541 0.090788 0.680351
Si Si4 0.013122 0.685593 0.953337
Si Si5 0.853647 0.484882 0.400252
Si Si6 0.594530 0.485409 0.929944
Si Si7 0.645703 0.894703 0.310949
Si Si8 0.649833 0.402602 0.169639
O O1 0.750000 0.874525 0.917318
O O2 0.855941 0.901989 0.131628
O O3 0.924378 0.849104 0.912016
O O4 0.864814 0.955393 0.883949
O O5 0.981899 0.250000 0.635955
O O6 0.903434 0.352891 0.632902
O O7 0.078291 0.345111 0.648790
O O8 0.980124 0.313715 0.866977
O O9 0.750000 0.101588 0.724929
O O10 0.912541 0.062020 0.806954
O O11 0.851415 0.041790 0.560427
O O12 0.011758 0.750000 0.903939
O O13 0.094162 0.649213 0.889427
O O14 0.750000 0.489471 0.348344
O O15 0.888273 0.547110 0.381565
O O16 0.897280 0.435997 0.303057
O O17 0.500000 0.500000 0.000000
O O18 0.652626 0.452498 0.050136
O O19 0.750000 0.884722 0.352097
O O20 0.750000 0.384649 0.209215
#
# Coordination Sequence:
#
# PCOD9453341 Si02
#       8
#     8   8   8   8   8   8   8   8
#     4  10  18  31  54  80 110 147 182 224 284 339
#     4  10  21  35  52  79 110 148 193 231 274 333
#     4  11  23  38  56  85 118 149 184 232 286 339
#     4  10  21  35  52  78 111 145 190 238 273 323
#     4   9  20  36  56  84 115 144 183 230 286 344
#     4  12  20  34  56  84 114 142 179 226 280 336
#     4   9  17  33  55  81 112 145 181 230 283 335
#     4  11  20  35  58  81 108 145 182 225 278 334
#
# _framework density 19.753086
#
# number of rings (size 3 to 8) (size 9 to 14) (size 15 to 20)
#    0.000    1.750    3.750    1.875    0.000    1.500 
#    0.000    4.375    0.000    2.250    0.000    0.000 
#    0.000    5.000    0.000    0.000    0.000    0.000 
#
# Total GULP energy -356813.702870 kJ/mol
# GULP energy per Si atom -5575.214107 kJ/mol
# Density = 1.970813 g / cm^3
# Si number density = 19.753086 Si / 1000 Ang^3
#
#
#
# Elastic Constant Matrix: (Units=GPa)
#
#
# Indices 1 2 3 4 5 6 
#
# 1 113.2737 71.9955 4.3651 0.0000 0.0000 0.0000
# 2 71.9955 168.5116 14.9361 0.0000 0.0000 0.0000
# 3 4.3651 14.9361 13.6195 0.0000 0.0000 0.0000
# 4 0.0000 0.0000 0.0000 16.7624 0.0000 0.0000
# 5 0.0000 0.0000 0.0000 0.0000 2.3531 0.0000
# 6 0.0000 0.0000 0.0000 0.0000 0.0000 11.4664
#
#
#
# Elastic Compliance Matrix: (Units=1/GPa)
#
#
# Indices 1 2 3 4 5 6 
#
# 1 0.012168 -0.005376 0.001995 0.000000 0.000000 0.000000
# 2 -0.005376 0.008948 -0.008090 0.000000 0.000000 0.000000
# 3 0.001995 -0.008090 0.081657 0.000000 0.000000 0.000000
# 4 0.000000 0.000000 0.000000 0.059657 0.000000 0.000000
# 5 0.000000 0.000000 0.000000 0.000000 0.424966 0.000000
# 6 0.000000 0.000000 0.000000 0.000000 0.000000 0.087211
#
#
# Mechanical properties :
#
#
# Convention : Reuss Voigt Hill
#
# Bulk Modulus (GPa) = 12.52630 53.11091 32.81860
# Shear Modulus (GPa) = 6.90456 19.72359 13.31408
#
# Velocity S-wave (km/s) = 1.87164 3.16334 2.59902
# Velocity P-wave (km/s) = 3.32053 6.34729 5.06527
#
# Compressibility (1/GPa) = 0.07983206
#
# Stress axis : x y z
#
# Youngs Moduli (GPa) = 82.18343 111.75645 12.24637
#
# Poissons Ratio (x) = 0.60075 -0.02443
# Poissons Ratio (y) = 0.44178 0.09907
# Poissons Ratio (z) = -0.16398 0.90412
#
# Static dielectric constant tensor:
#      x y z
#    x 1.852180 0.000000 0.000000 
#    y 0.000000 1.673080 0.000000 
#    z 0.000000 0.000000 1.800820 
# 
# From -- ./inp_files/9624.got.cif
#   From: 2010.05.17/outbox.ucp.g08.bks.cvg/sg59_5_cif.got.tgz:9624.got - 2010.06.11 16:43:56.
