data_PCOD9453483
_publ_section_title
;
Structure prediction by ZEFSAII (Michael W. Deem and Ramdas Pophale) SiO2 
 PCOD9453483
Probable space group: P M M N
;
_chemical_formula_sum "Si O2"
_cell_formula_units_Z 64
_cell_length_a 9.000000
_cell_length_b 15.000000
_cell_length_c 24.000000
_cell_angle_alpha 90.000000
_cell_angle_beta 90.000000
_cell_angle_gamma 90.000000
_cell_volume 3240.000000
_symmetry_space_group_name_H-M "P M M N"
_symmetry_group_IT_number 59
_space_group.IT_coordinate_system_code '2'
_symmetry_cell_setting 'orthorhombic'
loop_
_space_group_symop_operation_xyz
x,y,z
1/2-x,1/2-y,z
1/2+x,-y,-z
-x,1/2+y,-z
-x,-y,-z
1/2+x,1/2+y,-z
1/2-x,y,z
x,1/2-y,z
loop_
_atom_site_type_symbol
_atom_site_label
_atom_site_fract_x
_atom_site_fract_y
_atom_site_fract_z
Si Si1 0.925090 0.469940 0.385129
Si Si2 0.078411 0.144579 0.294934
Si Si3 0.572086 0.150147 0.600230
Si Si4 0.426801 0.148624 0.477932
Si Si5 0.573467 0.144707 0.080594
Si Si6 0.424654 0.039409 0.180132
Si Si7 0.071636 0.850423 0.149767
Si Si8 0.918236 0.858082 0.033018
O O1 0.750000 0.479328 0.393876
O O2 0.965151 0.400135 0.337161
O O3 0.997413 0.565460 0.370716
O O4 0.002495 0.426751 0.439358
O O5 0.250000 0.130372 0.314713
O O6 0.056333 0.250000 0.289383
O O7 0.061688 0.095688 0.236161
O O8 0.750000 0.139863 0.599060
O O9 0.539124 0.250000 0.622659
O O10 0.505862 0.147327 0.537745
O O11 0.250000 0.134853 0.483990
O O12 0.447982 0.250000 0.454670
O O13 0.750000 0.138992 0.074428
O O14 0.535730 0.250000 0.089376
O O15 0.517333 0.086757 0.131950
O O16 0.496122 0.112524 0.023729
O O17 0.250000 0.041146 0.163932
O O18 0.468150 0.935464 0.187517
O O19 0.250000 0.845167 0.147987
O O20 0.017032 0.750000 0.164166
O O21 0.010906 0.875624 0.088644
O O22 0.750000 0.892134 0.037663
O O23 0.912090 0.750000 0.029605
#
# Coordination Sequence:
#
# PCOD9453483 Si02
#       8
#     8   8   8   8   8   8   8   8
#     4  12  24  37  57  84 116 153 193 237 283 335
#     4  10  22  41  62  83 110 143 182 231 282 332
#     4  10  21  38  60  86 118 155 194 235 279 331
#     4  10  20  35  57  86 121 158 195 237 284 334
#     4  10  20  33  51  77 109 142 176 219 272 329
#     4  10  21  37  58  81 105 139 182 227 276 327
#     4   9  18  34  55  79 108 139 173 217 268 322
#     4   9  17  30  50  76 106 141 179 217 260 316
#
# _framework density 19.753086
#
# number of rings (size 3 to 8) (size 9 to 14) (size 15 to 20)
#    0.000    2.000    0.000    3.750    0.000    7.500 
#    0.000    0.625    0.000    2.250    0.000    0.000 
#    0.000    0.000    0.000    0.000    0.000    0.000 
#
# Total GULP energy -357422.337006 kJ/mol
# GULP energy per Si atom -5584.724016 kJ/mol
# Density = 1.970813 g / cm^3
# Si number density = 19.753086 Si / 1000 Ang^3
#
#
#
# Elastic Constant Matrix: (Units=GPa)
#
#
# Indices 1 2 3 4 5 6 
#
# 1 56.4231 43.4552 9.3672 0.0000 0.0000 0.0000
# 2 43.4552 121.7610 25.5966 0.0000 0.0000 0.0000
# 3 9.3672 25.5966 16.8741 0.0000 0.0000 0.0000
# 4 0.0000 0.0000 0.0000 26.8163 0.0000 0.0000
# 5 0.0000 0.0000 0.0000 0.0000 24.2931 0.0000
# 6 0.0000 0.0000 0.0000 0.0000 0.0000 26.5810
#
#
#
# Elastic Compliance Matrix: (Units=1/GPa)
#
#
# Indices 1 2 3 4 5 6 
#
# 1 0.024444 -0.008620 -0.000494 0.000000 0.000000 0.000000
# 2 -0.008620 0.015098 -0.018117 0.000000 0.000000 0.000000
# 3 -0.000494 -0.018117 0.087018 0.000000 0.000000 0.000000
# 4 0.000000 0.000000 0.000000 0.037291 0.000000 0.000000
# 5 0.000000 0.000000 0.000000 0.000000 0.041164 0.000000
# 6 0.000000 0.000000 0.000000 0.000000 0.000000 0.037621
#
#
# Mechanical properties :
#
#
# Convention : Reuss Voigt Hill
#
# Bulk Modulus (GPa) = 13.86983 39.09959 26.48471
# Shear Modulus (GPa) = 15.57007 23.31403 19.44205
#
# Velocity S-wave (km/s) = 2.81060 3.43924 3.14069
# Velocity P-wave (km/s) = 4.19159 5.96727 5.15644
#
# Compressibility (1/GPa) = 0.07209892
#
# Stress axis : x y z
#
# Youngs Moduli (GPa) = 40.90970 66.23511 11.49189
#
# Poissons Ratio (x) = 0.57095 0.00567
# Poissons Ratio (y) = 0.35264 0.20820
# Poissons Ratio (z) = 0.02019 1.19997
#
# Static dielectric constant tensor:
#      x y z
#    x 1.664900 0.000000 0.000000 
#    y 0.000000 1.743490 0.000000 
#    z 0.000000 0.000000 1.673300 
# 
# From -- ./inp_files/31412.got.cif
#   From: 2010.05.17/outbox.ucp.g08.bks.cvg/sg59_16_cif.got.tgz:31412.got - 2010.06.11 16:43:56.
