data_PCOD9453661
_publ_section_title
;
Structure prediction by ZEFSAII (Michael W. Deem and Ramdas Pophale) SiO2 
 PCOD9453661
Probable space group: P M M N
;
_chemical_formula_sum "Si O2"
_cell_formula_units_Z 56
_cell_length_a 9.000000
_cell_length_b 21.000000
_cell_length_c 15.000000
_cell_angle_alpha 90.000000
_cell_angle_beta 90.000000
_cell_angle_gamma 90.000000
_cell_volume 2835.000000
_symmetry_space_group_name_H-M "P M M N"
_symmetry_group_IT_number 59
_space_group.IT_coordinate_system_code '2'
_symmetry_cell_setting 'orthorhombic'
loop_
_space_group_symop_operation_xyz
x,y,z
1/2-x,1/2-y,z
1/2+x,-y,-z
-x,1/2+y,-z
-x,-y,-z
1/2+x,1/2+y,-z
1/2-x,y,z
x,1/2-y,z
loop_
_atom_site_type_symbol
_atom_site_label
_atom_site_fract_x
_atom_site_fract_y
_atom_site_fract_z
Si Si1 0.576314 0.508008 0.596277
Si Si2 0.927267 0.568855 0.108311
Si Si3 0.917499 0.675898 0.443293
Si Si4 0.426892 0.920748 0.918312
Si Si5 0.425674 0.633087 0.619428
Si Si6 0.577691 0.119120 0.715366
Si Si7 0.576907 0.821487 0.787789
O O1 0.500000 0.500000 0.500000
O O2 0.750000 0.525585 0.585964
O O3 0.482574 0.562841 0.643802
O O4 0.570665 0.445049 0.655606
O O5 0.750000 0.577859 0.110838
O O6 0.958716 0.492941 0.113730
O O7 0.004857 0.604692 0.189799
O O8 0.992657 0.589177 0.012918
O O9 0.750000 0.649126 0.446048
O O10 0.910727 0.750000 0.465174
O O11 0.019827 0.644974 0.518914
O O12 0.986110 0.667493 0.345717
O O13 0.250000 0.915099 0.929327
O O14 0.487356 0.870561 0.847819
O O15 0.250000 0.639232 0.625515
O O16 0.508978 0.677660 0.688953
O O17 0.750000 0.137464 0.724584
O O18 0.750000 0.839649 0.783574
O O19 0.565965 0.750000 0.824323
#
# Coordination Sequence:
#
# PCOD9453661 Si02
#       7
#     8   8   8   8   8   8   8
#     4  11  22  36  57  86 120 156 195 242 296 350
#     4  10  21  38  63  92 122 156 192 238 297 357
#     4  11  24  41  60  81 111 154 200 246 295 349
#     4  10  21  39  64  93 122 153 193 242 297 356
#     4  12  24  38  59  87 119 158 201 245 296 352
#     4  11  23  38  59  88 119 154 195 242 293 347
#     4  11  24  41  61  87 121 161 203 248 300 358
#
# _framework density 19.753086
#
# number of rings (size 3 to 8) (size 9 to 14) (size 15 to 20)
#    0.000    1.143    1.429    5.143    0.000    9.714 
#    0.000    0.714    0.000    4.286    0.000    0.000 
#    0.000    0.000    0.000    0.000    0.000    0.000 
#
# Total GULP energy -313003.160945 kJ/mol
# GULP energy per Si atom -5589.342160 kJ/mol
# Density = 1.970813 g / cm^3
# Si number density = 19.753086 Si / 1000 Ang^3
#
#
#
# Elastic Constant Matrix: (Units=GPa)
#
#
# Indices 1 2 3 4 5 6 
#
# 1 61.4488 3.9766 9.4183 0.0000 0.0000 0.0000
# 2 3.9766 39.8437 6.5930 0.0000 0.0000 0.0000
# 3 9.4183 6.5930 83.6387 0.0000 0.0000 0.0000
# 4 0.0000 0.0000 0.0000 23.1072 0.0000 0.0000
# 5 0.0000 0.0000 0.0000 0.0000 39.6199 0.0000
# 6 0.0000 0.0000 0.0000 0.0000 0.0000 11.8163
#
#
#
# Elastic Compliance Matrix: (Units=1/GPa)
#
#
# Indices 1 2 3 4 5 6 
#
# 1 0.016633 -0.001368 -0.001765 0.000000 0.000000 0.000000
# 2 -0.001368 0.025542 -0.001859 0.000000 0.000000 0.000000
# 3 -0.001765 -0.001859 0.012302 0.000000 0.000000 0.000000
# 4 0.000000 0.000000 0.000000 0.043277 0.000000 0.000000
# 5 0.000000 0.000000 0.000000 0.000000 0.025240 0.000000
# 6 0.000000 0.000000 0.000000 0.000000 0.000000 0.084629
#
#
# Mechanical properties :
#
#
# Convention : Reuss Voigt Hill
#
# Bulk Modulus (GPa) = 22.47614 24.98968 23.73291
# Shear Modulus (GPa) = 21.51113 25.90488 23.70801
#
# Velocity S-wave (km/s) = 3.30358 3.62530 3.46817
# Velocity P-wave (km/s) = 5.09458 5.49566 5.29892
#
# Compressibility (1/GPa) = 0.04449163
#
# Stress axis : x y z
#
# Youngs Moduli (GPa) = 60.12225 39.15074 81.29069
#
# Poissons Ratio (x) = 0.05356 0.14349
# Poissons Ratio (y) = 0.08224 0.15115
# Poissons Ratio (z) = 0.10612 0.07280
#
# Static dielectric constant tensor:
#      x y z
#    x 1.667280 0.000000 0.000000 
#    y 0.000000 1.713640 0.000000 
#    z 0.000000 0.000000 1.718480 
# 
# From -- ./inp_files/21028.got.cif
#   From: 2010.05.17/outbox.ucp.g08.bks.cvg/sg59_11_cif.got.tgz:21028.got - 2010.06.11 16:43:56.
