data_PCOD9453564
_publ_section_title
;
Structure prediction by ZEFSAII (Michael W. Deem and Ramdas Pophale) SiO2 
 PCOD9453564
Probable space group: P M M N
;
_chemical_formula_sum "Si O2"
_cell_formula_units_Z 64
_cell_length_a 9.000000
_cell_length_b 18.000000
_cell_length_c 21.000000
_cell_angle_alpha 90.000000
_cell_angle_beta 90.000000
_cell_angle_gamma 90.000000
_cell_volume 3402.000000
_symmetry_space_group_name_H-M "P M M N"
_symmetry_group_IT_number 59
_space_group.IT_coordinate_system_code '2'
_symmetry_cell_setting 'orthorhombic'
loop_
_space_group_symop_operation_xyz
x,y,z
1/2-x,1/2-y,z
1/2+x,-y,-z
-x,1/2+y,-z
-x,-y,-z
1/2+x,1/2+y,-z
1/2-x,y,z
x,1/2-y,z
loop_
_atom_site_type_symbol
_atom_site_label
_atom_site_fract_x
_atom_site_fract_y
_atom_site_fract_z
Si Si1 0.574109 0.919449 0.289219
Si Si2 0.072927 0.405593 0.941701
Si Si3 0.074119 0.909155 0.675080
Si Si4 0.570999 0.565158 0.915403
Si Si5 0.925833 0.334304 0.825001
Si Si6 0.923487 0.662251 0.418489
Si Si7 0.428918 0.165120 0.204930
Si Si8 0.071776 0.575242 0.528046
O O1 0.750000 0.904472 0.281126
O O2 0.490356 0.889735 0.227640
O O3 0.525369 0.878339 0.354044
O O4 0.553943 0.006573 0.300635
O O5 0.250000 0.405347 0.934186
O O6 0.008583 0.485856 0.921059
O O7 0.000232 0.348230 0.893211
O O8 0.039755 0.394775 0.016777
O O9 0.250000 0.891972 0.675936
O O10 0.025044 0.907805 0.601012
O O11 0.992384 0.858430 0.726587
O O12 0.750000 0.553947 0.912253
O O13 0.523843 0.610998 0.853013
O O14 0.750000 0.345060 0.830799
O O15 0.955491 0.250000 0.803615
O O16 0.750000 0.640486 0.428940
O O17 0.929614 0.750000 0.408980
O O18 0.018238 0.637933 0.479154
O O19 0.250000 0.161161 0.207647
O O20 0.471332 0.250000 0.190482
O O21 0.250000 0.567398 0.528299
O O22 0.000000 0.500000 0.500000
#
# Coordination Sequence:
#
# PCOD9453564 Si02
#       8
#     8   8   8   8   8   8   8   8
#     4  10  20  38  61  83 110 147 191 234 281 342
#     4  10  20  35  59  87 113 146 191 238 287 346
#     4  10  22  39  60  85 113 146 188 235 281 337
#     4   9  19  37  60  85 114 148 188 238 289 339
#     4  11  24  38  52  78 117 153 188 233 282 334
#     4  10  21  38  60  87 119 151 186 234 291 348
#     4  10  22  39  58  83 115 151 193 238 286 341
#     4  11  22  39  61  85 116 151 193 239 286 344
#
# _framework density 18.812463000000001
#
# number of rings (size 3 to 8) (size 9 to 14) (size 15 to 20)
#    0.000    1.875    1.250    2.250    0.000    8.000 
#    0.000    3.750    0.000    0.000    0.000    0.000 
#    0.000    0.000    0.000    0.000    0.000    0.000 
#
# Total GULP energy -357400.487569 kJ/mol
# GULP energy per Si atom -5584.382618 kJ/mol
# Density = 1.876965 g / cm^3
# Si number density = 18.812463 Si / 1000 Ang^3
#
#
#
# Elastic Constant Matrix: (Units=GPa)
#
#
# Indices 1 2 3 4 5 6 
#
# 1 24.5913 13.4185 20.6021 0.0000 0.0000 0.0000
# 2 13.4185 33.2689 21.1129 0.0000 0.0000 0.0000
# 3 20.6021 21.1129 100.1249 0.0000 0.0000 0.0000
# 4 0.0000 0.0000 0.0000 16.2650 0.0000 0.0000
# 5 0.0000 0.0000 0.0000 0.0000 33.6988 0.0000
# 6 0.0000 0.0000 0.0000 0.0000 0.0000 26.5290
#
#
#
# Elastic Compliance Matrix: (Units=1/GPa)
#
#
# Indices 1 2 3 4 5 6 
#
# 1 0.057160 -0.017999 -0.007966 0.000000 0.000000 0.000000
# 2 -0.017999 0.040370 -0.004809 0.000000 0.000000 0.000000
# 3 -0.007966 -0.004809 0.012641 0.000000 0.000000 0.000000
# 4 0.000000 0.000000 0.000000 0.061482 0.000000 0.000000
# 5 0.000000 0.000000 0.000000 0.000000 0.029675 0.000000
# 6 0.000000 0.000000 0.000000 0.000000 0.000000 0.037695
#
#
# Mechanical properties :
#
#
# Convention : Reuss Voigt Hill
#
# Bulk Modulus (GPa) = 20.56688 29.80579 25.18634
# Shear Modulus (GPa) = 15.78393 22.15532 18.96962
#
# Velocity S-wave (km/s) = 2.89972 3.43548 3.17890
# Velocity P-wave (km/s) = 4.70823 5.62270 5.18566
#
# Compressibility (1/GPa) = 0.04862186
#
# Stress axis : x y z
#
# Youngs Moduli (GPa) = 17.49467 24.77098 79.10957
#
# Poissons Ratio (x) = 0.44586 0.63019
# Poissons Ratio (y) = 0.31489 0.38044
# Poissons Ratio (z) = 0.13936 0.11912
#
# Static dielectric constant tensor:
#      x y z
#    x 1.637090 0.000000 0.000000 
#    y 0.000000 1.660420 0.000000 
#    z 0.000000 0.000000 1.636370 
# 
# From -- ./inp_files/29550.got.cif
#   From: 2010.05.17/outbox.ucp.g08.bks.cvg/sg59_15_cif.got.tgz:29550.got - 2010.06.11 16:43:56.
