data_PCOD9453697
_publ_section_title
;
Structure prediction by ZEFSAII (Michael W. Deem and Ramdas Pophale) SiO2 
 PCOD9453697
Probable space group: P B C N
;
_chemical_formula_sum "Si O2"
_cell_formula_units_Z 60
_cell_length_a 26.774007
_cell_length_b 8.643368
_cell_length_c 11.899218
_cell_angle_alpha 90.000000
_cell_angle_beta 90.000000
_cell_angle_gamma 90.000000
_cell_volume 2753.688416
_symmetry_space_group_name_H-M "P B C N"
_symmetry_group_IT_number 60
_symmetry_cell_setting 'orthorhombic'
loop_
_space_group_symop_operation_xyz
x,y,z
1/2-x,1/2-y,1/2+z
1/2+x,1/2-y,-z
-x,y,1/2-z
-x,-y,-z
1/2+x,1/2+y,1/2-z
1/2-x,1/2+y,z
x,-y,1/2+z
loop_
_atom_site_type_symbol
_atom_site_label
_atom_site_fract_x
_atom_site_fract_y
_atom_site_fract_z
Si Si1 0.900976 0.699055 0.372658
Si Si2 0.460456 0.237219 0.472240
Si Si3 0.316352 0.381957 0.218548
Si Si4 0.214206 0.771778 0.669007
Si Si5 0.500000 0.290013 0.250000
Si Si6 0.346262 0.773383 0.945359
Si Si7 0.862695 0.555325 0.722960
Si Si8 0.954866 0.378726 0.099868
O O1 0.865696 0.845116 0.353561
O O2 0.869638 0.551808 0.332073
O O3 0.921610 0.676766 0.495214
O O4 0.948532 0.710367 0.290279
O O5 0.481915 0.350702 0.374145
O O6 0.402061 0.263559 0.490048
O O7 0.494594 0.219436 0.583196
O O8 0.466023 0.062056 0.418627
O O9 0.296527 0.551287 0.195976
O O10 0.271989 0.267351 0.182757
O O11 0.330859 0.346051 0.347273
O O12 0.192984 0.730896 0.545788
O O13 0.181861 0.671684 0.756767
O O14 0.351086 0.937324 0.879414
O O15 0.916705 0.633754 0.702475
#
# Coordination Sequence:
#
# PCOD9453697 Si02
#       8
#     8   8   8   8   4   8   8   8
#     4  10  19  34  61  89 125 170 218 257 324 378
#     4   9  16  30  55  93 124 170 208 262 315 370
#     4  11  25  45  65  93 123 172 220 271 329 385
#     4  12  27  43  69  95 128 173 220 271 331 391
#     4  10  14  30  62  90 120 168 214 256 314 386
#     4  10  22  44  65  94 135 166 214 274 320 390
#     4  10  19  38  59  96 132 165 211 267 319 378
#     4   9  17  28  55  92 125 161 212 259 307 374
#
# _framework density 21.788957
#
# number of rings (size 3 to 8) (size 9 to 14) (size 15 to 20)
#    0.000    1.867    4.000    3.200    0.000    4.267 
#    0.000    0.000    2.933    2.400    0.000    0.000 
#    0.000    0.000    0.000    0.000    0.000    0.000 
#
# Total GULP energy -334741.939775 kJ/mol
# GULP energy per Si atom -5579.032330 kJ/mol
# Density = 2.173936 g / cm^3
# Si number density = 21.788957 Si / 1000 Ang^3
#
#
#
# Elastic Constant Matrix: (Units=GPa)
#
#
# Indices 1 2 3 4 5 6 
#
# 1 122.5358 32.6823 22.9525 0.0000 0.0000 0.0000
# 2 32.6823 66.2325 16.3797 0.0000 0.0000 0.0000
# 3 22.9525 16.3797 53.9888 0.0000 0.0000 0.0000
# 4 0.0000 0.0000 0.0000 11.1333 0.0000 0.0000
# 5 0.0000 0.0000 0.0000 0.0000 24.8374 0.0000
# 6 0.0000 0.0000 0.0000 0.0000 0.0000 15.5071
#
#
#
# Elastic Compliance Matrix: (Units=1/GPa)
#
#
# Indices 1 2 3 4 5 6 
#
# 1 0.009806 -0.004117 -0.002920 0.000000 0.000000 0.000000
# 2 -0.004117 0.018051 -0.003726 0.000000 0.000000 0.000000
# 3 -0.002920 -0.003726 0.020894 0.000000 0.000000 0.000000
# 4 0.000000 0.000000 0.000000 0.089820 0.000000 0.000000
# 5 0.000000 0.000000 0.000000 0.000000 0.040262 0.000000
# 6 0.000000 0.000000 0.000000 0.000000 0.000000 0.064487
#
#
# Mechanical properties :
#
#
# Convention : Reuss Voigt Hill
#
# Bulk Modulus (GPa) = 36.73025 42.97621 39.85323
# Shear Modulus (GPa) = 18.25345 21.67841 19.96593
#
# Velocity S-wave (km/s) = 2.89751 3.15767 3.03038
# Velocity P-wave (km/s) = 5.29981 5.74988 5.52943
#
# Compressibility (1/GPa) = 0.02722552
#
# Stress axis : x y z
#
# Youngs Moduli (GPa) = 101.98097 55.39793 47.86000
#
# Poissons Ratio (x) = 0.22805 0.13974
# Poissons Ratio (y) = 0.41981 0.17835
# Poissons Ratio (z) = 0.29777 0.20644
#
# Static dielectric constant tensor:
#      x y z
#    x 1.789320 0.000000 0.000000 
#    y 0.000000 1.803640 0.000000 
#    z 0.000000 0.000000 1.843090 
# 
# From -- ./inp_files/13270.got.cif
#   From: 2010.05.17/outbox.cif.g08.bks.cpg/sg60_7_cif.got.tgz:13270.got - 2010.06.03 14:59:27.
