data_PCOD9453086
_publ_section_title
;
Structure prediction by ZEFSAII (Michael W. Deem and Ramdas Pophale) SiO2 
 PCOD9453086
Probable space group: P M M N
;
_chemical_formula_sum "Si O2"
_cell_formula_units_Z 48
_cell_length_a 14.678154
_cell_length_b 8.166296
_cell_length_c 21.945022
_cell_angle_alpha 90.000000
_cell_angle_beta 90.000000
_cell_angle_gamma 90.000000
_cell_volume 2630.465305
_symmetry_space_group_name_H-M "P M M N"
_symmetry_group_IT_number 59
_space_group.IT_coordinate_system_code '2'
_symmetry_cell_setting 'orthorhombic'
loop_
_space_group_symop_operation_xyz
x,y,z
1/2-x,1/2-y,z
1/2+x,-y,-z
-x,1/2+y,-z
-x,-y,-z
1/2+x,1/2+y,-z
1/2-x,y,z
x,1/2-y,z
loop_
_atom_site_type_symbol
_atom_site_label
_atom_site_fract_x
_atom_site_fract_y
_atom_site_fract_z
Si Si1 0.146703 0.052536 0.665755
Si Si2 0.502725 0.052127 0.902735
Si Si3 0.646707 0.447422 0.665898
Si Si4 0.999830 0.555886 0.569574
Si Si5 0.646173 0.947782 0.000005
Si Si6 0.500146 0.950232 0.236332
O O1 0.250000 0.990437 0.664662
O O2 0.149867 0.250000 0.668215
O O3 0.088252 0.997666 0.724530
O O4 0.087925 0.006406 0.606659
O O5 0.500464 0.250000 0.901691
O O6 0.500144 0.993397 0.833240
O O7 0.592722 0.999707 0.939255
O O8 0.416498 0.995721 0.943307
O O9 0.750000 0.509624 0.664971
O O10 0.649878 0.250000 0.668463
O O11 0.588226 0.493260 0.606622
O O12 0.587894 0.502561 0.724477
O O13 0.999688 0.750000 0.571795
O O14 0.000000 0.500000 0.500000
O O15 0.750000 0.007175 0.002384
O O16 0.647952 0.750000 0.001855
O O17 0.500175 0.750000 0.235572
#
# Coordination Sequence:
#
# PCOD9453086 Si02
#       6
#     8   8   8   8   8   8
#     4   9  18  34  55  77 101 128 160 200 246 296
#     4   9  17  30  49  71  95 125 163 203 242 289
#     4   9  18  34  54  75 101 130 161 201 248 295
#     4  11  22  36  54  75 102 133 166 203 241 286
#     4   9  18  31  45  65  96 130 163 202 246 288
#     4   8  15  29  50  76 100 123 157 201 246 290
#
# _framework density 18.247720999999999
#
# number of rings (size 3 to 8) (size 9 to 14) (size 15 to 20)
#    0.000    2.833    0.000    2.500    0.000    3.000 
#    0.000    8.333    0.000    0.000    0.000    7.000 
#    0.000    0.000    0.000    0.000    0.000    0.000 
#
# Total GULP energy -267641.186486 kJ/mol
# GULP energy per Si atom -5575.858052 kJ/mol
# Density = 1.820619 g / cm^3
# Si number density = 18.247721 Si / 1000 Ang^3
#
#
#
# Elastic Constant Matrix: (Units=GPa)
#
#
# Indices 1 2 3 4 5 6 
#
# 1 204.1609 15.2178 106.7584 0.0000 0.0000 0.0000
# 2 15.2178 12.4024 7.6031 0.0000 0.0000 0.0000
# 3 106.7584 7.6031 194.9435 0.0000 0.0000 0.0000
# 4 0.0000 0.0000 0.0000 21.7838 0.0000 0.0000
# 5 0.0000 0.0000 0.0000 0.0000 4.0634 0.0000
# 6 0.0000 0.0000 0.0000 0.0000 0.0000 18.2864
#
#
#
# Elastic Compliance Matrix: (Units=1/GPa)
#
#
# Indices 1 2 3 4 5 6 
#
# 1 0.007375 -0.006734 -0.003776 0.000000 0.000000 0.000000
# 2 -0.006734 0.088753 0.000226 0.000000 0.000000 0.000000
# 3 -0.003776 0.000226 0.007189 0.000000 0.000000 0.000000
# 4 0.000000 0.000000 0.000000 0.045906 0.000000 0.000000
# 5 0.000000 0.000000 0.000000 0.000000 0.246098 0.000000
# 6 0.000000 0.000000 0.000000 0.000000 0.000000 0.054685
#
#
# Mechanical properties :
#
#
# Convention : Reuss Voigt Hill
#
# Bulk Modulus (GPa) = 12.08471 74.51839 43.30155
# Shear Modulus (GPa) = 10.03703 27.62190 18.82946
#
# Velocity S-wave (km/s) = 2.34784 3.89487 3.21577
# Velocity P-wave (km/s) = 3.73989 7.82000 6.12941
#
# Compressibility (1/GPa) = 0.08274919
#
# Stress axis : x y z
#
# Youngs Moduli (GPa) = 135.60240 11.26721 139.10698
#
# Poissons Ratio (x) = 0.07587 0.52526
# Poissons Ratio (y) = 0.91311 -0.03146
# Poissons Ratio (z) = 0.51202 -0.00255
#
# Static dielectric constant tensor:
#      x y z
#    x 1.640720 0.000000 0.000000 
#    y 0.000000 1.643060 0.000000 
#    z 0.000000 0.000000 0.960230 
# 
# From -- ./inp_files/28836.got.cif
#   From: 2010.05.17/outbox.cif.g08.bks.cpg/sg59_15_cif.got.tgz:28836.got - 2010.06.03 14:40:33.
