data_PCOD9453063
_publ_section_title
;
Structure prediction by ZEFSAII (Michael W. Deem and Ramdas Pophale) SiO2 
 PCOD9453063
Probable space group: P M M N
;
_chemical_formula_sum "Si O2"
_cell_formula_units_Z 34
_cell_length_a 13.600829
_cell_length_b 22.859952
_cell_length_c 5.226623
_cell_angle_alpha 90.000000
_cell_angle_beta 90.000000
_cell_angle_gamma 90.000000
_cell_volume 1625.031821
_symmetry_space_group_name_H-M "P M M N"
_symmetry_group_IT_number 59
_space_group.IT_coordinate_system_code '2'
_symmetry_cell_setting 'orthorhombic'
loop_
_space_group_symop_operation_xyz
x,y,z
1/2-x,1/2-y,z
1/2+x,-y,-z
-x,1/2+y,-z
-x,-y,-z
1/2+x,1/2+y,-z
1/2-x,y,z
x,1/2-y,z
loop_
_atom_site_type_symbol
_atom_site_label
_atom_site_fract_x
_atom_site_fract_y
_atom_site_fract_z
Si Si1 0.857751 0.367125 0.431296
Si Si2 0.493060 0.460447 0.249238
Si Si3 0.134767 0.354172 0.251440
Si Si4 0.981940 0.816273 0.250054
Si Si5 0.250000 0.750000 0.711599
O O1 0.750000 0.391111 0.495385
O O2 0.834340 0.303207 0.306974
O O3 0.920014 0.412050 0.263290
O O4 0.923834 0.355583 0.681707
O O5 0.500000 0.500000 0.500000
O O6 0.393238 0.422696 0.259579
O O7 0.500000 0.500000 0.000000
O O8 0.250000 0.343681 0.232114
O O9 0.089883 0.325781 0.507235
O O10 0.077225 0.330711 0.004405
O O11 0.016598 0.750000 0.237759
#
# Coordination Sequence:
#
# PCOD9453063 Si02
#       5
#     8   8   8   8   2
#     4   9  19  39  70 101 137 177 228 288 359 415
#     4  11  24  43  66  93 130 175 225 273 334 411
#     4  11  25  41  62  91 130 174 226 277 332 396
#     4  11  21  40  64  95 133 173 219 280 342 412
#     4   8  16  40  72 102 142 174 236 284 376 418
#
# _framework density 20.922667000000001
#
# number of rings (size 3 to 8) (size 9 to 14) (size 15 to 20)
#    0.706    0.941    1.176    4.235    0.000    4.706 
#    0.000    9.412    0.000   18.353    0.000    0.000 
#    0.000    0.000    0.000    0.000    0.000    0.000 
#
# Total GULP energy -189356.400450 kJ/mol
# GULP energy per Si atom -5569.305896 kJ/mol
# Density = 2.087505 g / cm^3
# Si number density = 20.922667 Si / 1000 Ang^3
#
#
#
# Elastic Constant Matrix: (Units=GPa)
#
#
# Indices 1 2 3 4 5 6 
#
# 1 137.3833 14.6059 28.7764 0.0000 0.0000 0.0000
# 2 14.6059 95.8221 41.9801 0.0000 0.0000 0.0000
# 3 28.7764 41.9801 140.1687 0.0000 0.0000 0.0000
# 4 0.0000 0.0000 0.0000 -6.9104 0.0000 0.0000
# 5 0.0000 0.0000 0.0000 0.0000 8.5949 0.0000
# 6 0.0000 0.0000 0.0000 0.0000 0.0000 34.6193
#
#
#
# Elastic Compliance Matrix: (Units=1/GPa)
#
#
# Indices 1 2 3 4 5 6 
#
# 1 0.007631 -0.000549 -0.001402 0.000000 0.000000 0.000000
# 2 -0.000549 0.012052 -0.003497 0.000000 0.000000 0.000000
# 3 -0.001402 -0.003497 0.008469 0.000000 0.000000 0.000000
# 4 0.000000 0.000000 0.000000 -0.144709 0.000000 0.000000
# 5 0.000000 0.000000 0.000000 0.000000 0.116348 0.000000
# 6 0.000000 0.000000 0.000000 0.000000 0.000000 0.028886
#
#
# Mechanical properties :
#
#
# Convention : Reuss Voigt Hill
#
# Bulk Modulus (GPa) = 57.94980 60.45544 59.20262
# Shear Modulus (GPa) = 110.31635 26.46153 68.38894
#
# Velocity S-wave (km/s) = 7.26913 3.56016 5.72342
# Velocity P-wave (km/s) = 9.91014 6.77179 8.48729
#
# Compressibility (1/GPa) = 0.01725632
#
# Stress axis : x y z
#
# Youngs Moduli (GPa) = 131.04495 82.97652 118.07210
#
# Poissons Ratio (x) = 0.04554 0.16557
# Poissons Ratio (y) = 0.07192 0.41287
# Poissons Ratio (z) = 0.18376 0.29015
#
# Static dielectric constant tensor:
#      x y z
#    x 1.744240 0.000000 0.000000 
#    y 0.000000 1.546390 0.000000 
#    z 0.000000 0.000000 1.769120 
# 
# From -- ./inp_files/1310.got.cif
#   From: 2010.05.17/outbox.cif.g08.bks.cpg/sg59_1_cif.got.tgz:1310.got - 2010.06.03 14:40:33.
