data_PCOD9453188
_publ_section_title
;
Structure prediction by ZEFSAII (Michael W. Deem and Ramdas Pophale) SiO2 
 PCOD9453188
Probable space group: P M M N
;
_chemical_formula_sum "Si O2"
_cell_formula_units_Z 56
_cell_length_a 14.661543
_cell_length_b 14.999062
_cell_length_c 12.715348
_cell_angle_alpha 90.000000
_cell_angle_beta 90.000000
_cell_angle_gamma 90.000000
_cell_volume 2796.224454
_symmetry_space_group_name_H-M "P M M N"
_symmetry_group_IT_number 59
_space_group.IT_coordinate_system_code '2'
_symmetry_cell_setting 'orthorhombic'
loop_
_space_group_symop_operation_xyz
x,y,z
1/2-x,1/2-y,z
1/2+x,-y,-z
-x,1/2+y,-z
-x,-y,-z
1/2+x,1/2+y,-z
1/2-x,y,z
x,1/2-y,z
loop_
_atom_site_type_symbol
_atom_site_label
_atom_site_fract_x
_atom_site_fract_y
_atom_site_fract_z
Si Si1 0.644116 0.850251 0.601139
Si Si2 0.140246 0.852039 0.706845
Si Si3 0.140291 0.357131 0.764301
Si Si4 0.414200 0.479798 0.574305
Si Si5 0.529073 0.900166 0.025187
Si Si6 0.647032 0.856206 0.822700
Si Si7 0.850748 0.354016 0.062122
O O1 0.750000 0.840102 0.628979
O O2 0.609536 0.750000 0.573553
O O3 0.642677 0.919963 0.507575
O O4 0.603231 0.886594 0.711302
O O5 0.250000 0.846807 0.709143
O O6 0.105153 0.750000 0.690470
O O7 0.115542 0.888752 0.823798
O O8 0.115792 0.924038 0.618652
O O9 0.250000 0.378926 0.764526
O O10 0.133459 0.250000 0.746454
O O11 0.088090 0.414816 0.675864
O O12 0.091327 0.380598 0.874442
O O13 0.500000 0.500000 0.500000
O O14 0.586107 0.870642 0.923811
O O15 0.428331 0.857587 0.025537
O O16 0.500000 0.000000 0.000000
O O17 0.750000 0.892261 0.840278
O O18 0.652938 0.750000 0.809462
O O19 0.750000 0.391520 0.035907
O O20 0.839373 0.250000 0.084952
#
# Coordination Sequence:
#
# PCOD9453188 Si02
#       7
#     8   8   8   8   8   8   8
#     4   9  19  37  62  88 116 157 207 260 317 374
#     4   9  19  37  60  85 116 160 211 259 309 374
#     4  11  25  46  70  96 131 177 227 282 342 397
#     4  12  25  37  60  89 129 161 208 263 326 392
#     4  12  24  35  61  94 134 167 206 257 318 390
#     4   9  19  37  61  89 119 155 205 262 316 370
#     4   9  19  37  60  85 116 158 206 250 298 365
#
# _framework density 20.027004000000002
#
# number of rings (size 3 to 8) (size 9 to 14) (size 15 to 20)
#    0.000    1.857    0.000    6.000    4.000    5.714 
#    0.000    0.000    0.000    0.000    0.000    2.000 
#    0.000    0.000    0.000    0.000    0.000    0.000 
#
# Total GULP energy -311809.179761 kJ/mol
# GULP energy per Si atom -5568.021067 kJ/mol
# Density = 1.998142 g / cm^3
# Si number density = 20.027004 Si / 1000 Ang^3
#
#
#
# Elastic Constant Matrix: (Units=GPa)
#
#
# Indices 1 2 3 4 5 6 
#
# 1 84.3399 26.4360 44.7901 0.0000 0.0000 0.0000
# 2 26.4360 86.3703 38.5964 0.0000 0.0000 0.0000
# 3 44.7901 38.5964 133.1507 0.0000 0.0000 0.0000
# 4 0.0000 0.0000 0.0000 32.0231 0.0000 0.0000
# 5 0.0000 0.0000 0.0000 0.0000 14.7757 0.0000
# 6 0.0000 0.0000 0.0000 0.0000 0.0000 27.1077
#
#
#
# Elastic Compliance Matrix: (Units=1/GPa)
#
#
# Indices 1 2 3 4 5 6 
#
# 1 0.014955 -0.002676 -0.004255 0.000000 0.000000 0.000000
# 2 -0.002676 0.013780 -0.003094 0.000000 0.000000 0.000000
# 3 -0.004255 -0.003094 0.009839 0.000000 0.000000 0.000000
# 4 0.000000 0.000000 0.000000 0.031227 0.000000 0.000000
# 5 0.000000 0.000000 0.000000 0.000000 0.067678 0.000000
# 6 0.000000 0.000000 0.000000 0.000000 0.000000 0.036890
#
#
# Mechanical properties :
#
#
# Convention : Reuss Voigt Hill
#
# Bulk Modulus (GPa) = 53.98652 58.16732 56.07692
# Shear Modulus (GPa) = 24.92592 27.71720 26.32156
#
# Velocity S-wave (km/s) = 3.53174 3.72424 3.62927
# Velocity P-wave (km/s) = 6.60653 6.89933 6.75452
#
# Compressibility (1/GPa) = 0.01852314
#
# Stress axis : x y z
#
# Youngs Moduli (GPa) = 66.86602 72.56989 101.64110
#
# Poissons Ratio (x) = 0.19420 0.43249
# Poissons Ratio (y) = 0.17893 0.31450
# Poissons Ratio (z) = 0.28452 0.22454
#
# Static dielectric constant tensor:
#      x y z
#    x 1.712260 0.000000 0.000000 
#    y 0.000000 1.346870 0.000000 
#    z 0.000000 0.000000 1.777230 
# 
# From -- ./inp_files/16952.got.cif
#   From: 2010.05.17/outbox.cif.g08.bks.cpg/sg59_9_cif.got.tgz:16952.got - 2010.06.03 14:40:33.
