data_PCOD9453655
_publ_section_title
;
Structure prediction by ZEFSAII (Michael W. Deem and Ramdas Pophale) SiO2 
 PCOD9453655
Probable space group: P M M N
;
_chemical_formula_sum "Si O2"
_cell_formula_units_Z 40
_cell_length_a 15.000000
_cell_length_b 9.000000
_cell_length_c 15.000000
_cell_angle_alpha 90.000000
_cell_angle_beta 90.000000
_cell_angle_gamma 90.000000
_cell_volume 2025.000000
_symmetry_space_group_name_H-M "P M M N"
_symmetry_group_IT_number 59
_space_group.IT_coordinate_system_code '2'
_symmetry_cell_setting 'orthorhombic'
loop_
_space_group_symop_operation_xyz
x,y,z
1/2-x,1/2-y,z
1/2+x,-y,-z
-x,1/2+y,-z
-x,-y,-z
1/2+x,1/2+y,-z
1/2-x,y,z
x,1/2-y,z
loop_
_atom_site_type_symbol
_atom_site_label
_atom_site_fract_x
_atom_site_fract_y
_atom_site_fract_z
Si Si1 0.750000 0.430901 0.765100
Si Si2 0.852312 0.422171 0.290405
Si Si3 0.585008 0.926093 0.456809
Si Si4 0.100998 0.929011 0.099036
Si Si5 0.593021 0.428098 0.096311
Si Si6 0.250000 0.929334 0.442051
O O1 0.750000 0.250000 0.767016
O O2 0.835646 0.481188 0.821638
O O3 0.750000 0.472876 0.662176
O O4 0.750000 0.429656 0.320083
O O5 0.881742 0.250000 0.299899
O O6 0.908575 0.527944 0.353342
O O7 0.855898 0.463464 0.186705
O O8 0.586033 0.750000 0.466272
O O9 0.500000 0.000000 0.500000
O O10 0.666043 0.001637 0.508628
O O11 0.096259 0.750000 0.104165
O O12 0.134875 0.968456 0.999276
O O13 0.002984 0.996157 0.104403
O O14 0.581829 0.250000 0.094375
O O15 0.250000 0.750000 0.448652
#
# Coordination Sequence:
#
# PCOD9453655 Si02
#       6
#     4   8   8   8   8   4
#     4   9  20  35  58  85 112 152 195 233 282 345
#     4  10  21  38  61  89 120 155 195 246 302 360
#     4  12  26  44  66  91 120 160 204 254 311 369
#     4   9  18  35  56  82 116 154 195 237 283 345
#     4   9  19  34  56  85 117 152 194 239 290 346
#     4  11  23  43  64  91 126 160 203 255 304 363
#
# _framework density 19.753086
#
# number of rings (size 3 to 8) (size 9 to 14) (size 15 to 20)
#    0.000    2.000    1.000    2.100    4.200    0.800 
#    0.000    1.500    0.000    0.000    0.000    0.000 
#    0.000    0.000    0.000    0.000    0.000    0.000 
#
# Total GULP energy -223141.969991 kJ/mol
# GULP energy per Si atom -5578.549250 kJ/mol
# Density = 1.970813 g / cm^3
# Si number density = 19.753086 Si / 1000 Ang^3
#
#
#
# Elastic Constant Matrix: (Units=GPa)
#
#
# Indices 1 2 3 4 5 6 
#
# 1 87.0904 30.7502 43.2172 0.0000 0.0000 0.0000
# 2 30.7502 59.8466 51.2985 0.0000 0.0000 0.0000
# 3 43.2172 51.2985 129.9371 0.0000 0.0000 0.0000
# 4 0.0000 0.0000 0.0000 23.9212 0.0000 0.0000
# 5 0.0000 0.0000 0.0000 0.0000 26.7040 0.0000
# 6 0.0000 0.0000 0.0000 0.0000 0.0000 18.3012
#
#
#
# Elastic Compliance Matrix: (Units=1/GPa)
#
#
# Indices 1 2 3 4 5 6 
#
# 1 0.014709 -0.005085 -0.002885 0.000000 0.000000 0.000000
# 2 -0.005085 0.027014 -0.008974 0.000000 0.000000 0.000000
# 3 -0.002885 -0.008974 0.012198 0.000000 0.000000 0.000000
# 4 0.000000 0.000000 0.000000 0.041804 0.000000 0.000000
# 5 0.000000 0.000000 0.000000 0.000000 0.037448 0.000000
# 6 0.000000 0.000000 0.000000 0.000000 0.000000 0.054641
#
#
# Mechanical properties :
#
#
# Convention : Reuss Voigt Hill
#
# Bulk Modulus (GPa) = 49.91390 58.60065 54.25727
# Shear Modulus (GPa) = 21.89333 23.89249 22.89291
#
# Velocity S-wave (km/s) = 3.33280 3.48164 3.40803
# Velocity P-wave (km/s) = 6.33513 6.77447 6.55848
#
# Compressibility (1/GPa) = 0.02003450
#
# Stress axis : x y z
#
# Youngs Moduli (GPa) = 67.98408 37.01749 81.97879
#
# Poissons Ratio (x) = 0.18824 0.23648
# Poissons Ratio (y) = 0.34571 0.73566
# Poissons Ratio (z) = 0.19611 0.33219
#
# Static dielectric constant tensor:
#      x y z
#    x 1.680940 0.000000 0.000000 
#    y 0.000000 1.651150 0.000000 
#    z 0.000000 0.000000 1.726900 
# 
# From -- ./inp_files/20021.got.cif
#   From: 2010.05.17/outbox.ucp.g08.bks.cvg/sg59_11_cif.got.tgz:20021.got - 2010.06.11 16:43:56.
