data_PCOD9453059
_publ_section_title
;
Structure prediction by ZEFSAII (Michael W. Deem and Ramdas Pophale) SiO2 
 PCOD9453059
Probable space group: P M M N
;
_chemical_formula_sum "Si O2"
_cell_formula_units_Z 24
_cell_length_a 8.564071
_cell_length_b 10.355630
_cell_length_c 14.012926
_cell_angle_alpha 90.000000
_cell_angle_beta 90.000000
_cell_angle_gamma 90.000000
_cell_volume 1242.755268
_symmetry_space_group_name_H-M "P M M N"
_symmetry_group_IT_number 59
_space_group.IT_coordinate_system_code '2'
_symmetry_cell_setting 'orthorhombic'
loop_
_space_group_symop_operation_xyz
x,y,z
1/2-x,1/2-y,z
1/2+x,-y,-z
-x,1/2+y,-z
-x,-y,-z
1/2+x,1/2+y,-z
1/2-x,y,z
x,1/2-y,z
loop_
_atom_site_type_symbol
_atom_site_label
_atom_site_fract_x
_atom_site_fract_y
_atom_site_fract_z
Si Si1 0.562083 0.750000 0.918387
Si Si2 0.437274 0.102986 0.424588
Si Si3 0.437961 0.526562 0.783119
Si Si4 0.939871 0.750000 0.139343
O O1 0.750000 0.750000 0.914866
O O2 0.499339 0.625092 0.862870
O O3 0.511436 0.750000 0.028689
O O4 0.250000 0.098332 0.423681
O O5 0.484950 0.250000 0.449170
O O6 0.499398 0.069695 0.319474
O O7 0.500000 0.000000 0.500000
O O8 0.250000 0.530946 0.781958
O O9 0.489572 0.381298 0.808901
O O10 0.750000 0.750000 0.139757
#
# Coordination Sequence:
#
# PCOD9453059 Si02
#       4
#     4   8   8   4
#     4  11  21  39  62  89 126 165 207 256 306 361
#     4  11  25  44  66  93 125 160 202 254 309 366
#     4  11  22  40  64  91 124 164 207 254 308 366
#     4   9  22  39  60  91 126 163 207 256 304 357
#
# _framework density 19.311927000000001
#
# number of rings (size 3 to 8) (size 9 to 14) (size 15 to 20)
#    0.000    1.333    1.667    3.500    2.333    2.000 
#    0.000    7.500    0.000    0.000    0.000    0.000 
#    0.000    0.000    0.000    0.000    0.000    0.000 
#
# Total GULP energy -134216.279538 kJ/mol
# GULP energy per Si atom -5592.344981 kJ/mol
# Density = 1.926797 g / cm^3
# Si number density = 19.311927 Si / 1000 Ang^3
#
#
#
# Elastic Constant Matrix: (Units=GPa)
#
#
# Indices 1 2 3 4 5 6 
#
# 1 58.4782 48.8401 34.0978 0.0000 0.0000 0.0000
# 2 48.8401 208.3635 74.6749 0.0000 0.0000 0.0000
# 3 34.0978 74.6749 102.5711 0.0000 0.0000 0.0000
# 4 0.0000 0.0000 0.0000 44.1769 0.0000 0.0000
# 5 0.0000 0.0000 0.0000 0.0000 29.6659 0.0000
# 6 0.0000 0.0000 0.0000 0.0000 0.0000 24.7058
#
#
#
# Elastic Compliance Matrix: (Units=1/GPa)
#
#
# Indices 1 2 3 4 5 6 
#
# 1 0.023043 -0.003593 -0.005044 0.000000 0.000000 0.000000
# 2 -0.003593 0.007054 -0.003941 0.000000 0.000000 0.000000
# 3 -0.005044 -0.003941 0.014295 0.000000 0.000000 0.000000
# 4 0.000000 0.000000 0.000000 0.022636 0.000000 0.000000
# 5 0.000000 0.000000 0.000000 0.000000 0.033709 0.000000
# 6 0.000000 0.000000 0.000000 0.000000 0.000000 0.040476
#
#
# Mechanical properties :
#
#
# Convention : Reuss Voigt Hill
#
# Bulk Modulus (GPa) = 51.98809 76.07092 64.02951
# Shear Modulus (GPa) = 28.93827 33.82973 31.38400
#
# Velocity S-wave (km/s) = 3.87520 4.18994 4.03564
# Velocity P-wave (km/s) = 6.85577 7.92992 7.41233
#
# Compressibility (1/GPa) = 0.01923517
#
# Stress axis : x y z
#
# Youngs Moduli (GPa) = 43.39782 141.76358 69.95351
#
# Poissons Ratio (x) = 0.50943 0.35284
# Poissons Ratio (y) = 0.15595 0.27568
# Poissons Ratio (z) = 0.21889 0.55868
#
# Static dielectric constant tensor:
#      x y z
#    x 1.658500 0.000000 0.000000 
#    y 0.000000 1.665870 0.000000 
#    z 0.000000 0.000000 1.626370 
# 
# From -- ./inp_files/15109.got.cif
#   From: 2010.05.17/outbox.cif.g08.bks.cpg/sg59_8_cif.got.tgz:15109.got - 2010.06.03 14:40:33.
