data_PCOD9453966
_publ_section_title
;
Structure prediction by ZEFSAII (Michael W. Deem and Ramdas Pophale) SiO2 
 PCOD9453966
Probable space group: P B C N
;
_chemical_formula_sum "Si O2"
_cell_formula_units_Z 64
_cell_length_a 17.049248
_cell_length_b 11.535379
_cell_length_c 18.066232
_cell_angle_alpha 90.000000
_cell_angle_beta 90.000000
_cell_angle_gamma 90.000000
_cell_volume 3553.077489
_symmetry_space_group_name_H-M "P B C N"
_symmetry_group_IT_number 60
_symmetry_cell_setting 'orthorhombic'
loop_
_space_group_symop_operation_xyz
x,y,z
1/2-x,1/2-y,1/2+z
1/2+x,1/2-y,-z
-x,y,1/2-z
-x,-y,-z
1/2+x,1/2+y,1/2-z
1/2-x,1/2+y,z
x,-y,1/2+z
loop_
_atom_site_type_symbol
_atom_site_label
_atom_site_fract_x
_atom_site_fract_y
_atom_site_fract_z
Si Si1 0.740965 0.311137 0.038089
Si Si2 0.810024 0.719809 0.696508
Si Si3 0.692835 0.982970 0.300993
Si Si4 0.868119 0.043349 0.241466
Si Si5 0.135563 0.277892 0.740221
Si Si6 0.417392 0.581639 0.625796
Si Si7 0.760013 0.059717 0.957976
Si Si8 0.085151 0.845695 0.374096
O O1 0.795395 0.307658 0.111081
O O2 0.651114 0.317174 0.066600
O O3 0.750643 0.185454 0.997893
O O4 0.756847 0.435068 0.997522
O O5 0.838138 0.613070 0.745147
O O6 0.865348 0.828804 0.709775
O O7 0.723208 0.750307 0.729253
O O8 0.707042 0.938830 0.383828
O O9 0.780344 0.016582 0.271915
O O10 0.639474 0.095641 0.293938
O O11 0.923424 0.019761 0.312179
O O12 0.885840 0.953627 0.176138
O O13 0.114142 0.187505 0.676463
O O14 0.080947 0.255977 0.811827
O O15 0.351102 0.552815 0.566884
O O16 0.500931 0.619557 0.595058
#
# Coordination Sequence:
#
# PCOD9453966 Si02
#       8
#     8   8   8   8   8   8   8   8
#     4  11  23  36  55  87 120 148 194 241 296 344
#     4  10  18  31  55  80 110 142 186 237 293 328
#     4  10  18  31  56  81 111 141 189 239 290 328
#     4   9  16  30  54  85 108 133 186 246 282 326
#     4   9  16  30  54  82 105 136 188 242 277 336
#     4  10  19  34  56  81 110 150 190 235 286 344
#     4  11  23  36  56  86 120 151 191 246 292 342
#     4  10  19  34  56  81 111 150 187 234 292 349
#
# _framework density 18.012554999999999
#
# number of rings (size 3 to 8) (size 9 to 14) (size 15 to 20)
#    0.000    2.000    5.000    3.000    7.000    0.500 
#    0.000    0.000    0.000    6.000    0.000    0.000 
#    0.000    0.000    0.000    0.000    0.000    0.000 
#
# Total GULP energy -356522.763430 kJ/mol
# GULP energy per Si atom -5570.668179 kJ/mol
# Density = 1.797156 g / cm^3
# Si number density = 18.012555 Si / 1000 Ang^3
#
#
#
# Elastic Constant Matrix: (Units=GPa)
#
#
# Indices 1 2 3 4 5 6 
#
# 1 36.3301 20.9398 11.7939 0.0000 0.0000 0.0000
# 2 20.9398 127.6245 70.9940 0.0000 0.0000 0.0000
# 3 11.7939 70.9940 89.0288 0.0000 0.0000 0.0000
# 4 0.0000 0.0000 0.0000 27.4561 0.0000 0.0000
# 5 0.0000 0.0000 0.0000 0.0000 13.8385 0.0000
# 6 0.0000 0.0000 0.0000 0.0000 0.0000 13.6848
#
#
#
# Elastic Compliance Matrix: (Units=1/GPa)
#
#
# Indices 1 2 3 4 5 6 
#
# 1 0.030401 -0.004938 -0.000089 0.000000 0.000000 0.000000
# 2 -0.004938 0.014884 -0.011215 0.000000 0.000000 0.000000
# 3 -0.000089 -0.011215 0.020187 0.000000 0.000000 0.000000
# 4 0.000000 0.000000 0.000000 0.036422 0.000000 0.000000
# 5 0.000000 0.000000 0.000000 0.000000 0.072262 0.000000
# 6 0.000000 0.000000 0.000000 0.000000 0.000000 0.073074
#
#
# Mechanical properties :
#
#
# Convention : Reuss Voigt Hill
#
# Bulk Modulus (GPa) = 30.31484 51.15986 40.73735
# Shear Modulus (GPa) = 17.19924 20.94627 19.07275
#
# Velocity S-wave (km/s) = 3.09341 3.41379 3.25754
# Velocity P-wave (km/s) = 5.44291 6.63345 6.06745
#
# Compressibility (1/GPa) = 0.03298714
#
# Stress axis : x y z
#
# Youngs Moduli (GPa) = 32.89397 67.18488 49.53612
#
# Poissons Ratio (x) = 0.33177 0.00443
# Poissons Ratio (y) = 0.16244 0.55555
# Poissons Ratio (z) = 0.00294 0.75348
#
# Static dielectric constant tensor:
#      x y z
#    x 1.633640 0.000000 0.000000 
#    y 0.000000 1.664280 0.000000 
#    z 0.000000 0.000000 1.632910 
# 
# From -- ./inp_files/20970.got.cif
#   From: 2010.05.17/outbox.cif.g08.bks.cpg/sg60_11_cif.got.tgz:20970.got - 2010.06.03 14:59:27.
