data_PCOD9453320
_publ_section_title
;
Structure prediction by ZEFSAII (Michael W. Deem and Ramdas Pophale) SiO2 
 PCOD9453320
Probable space group: P M M N
;
_chemical_formula_sum "Si O2"
_cell_formula_units_Z 64
_cell_length_a 9.000000
_cell_length_b 21.000000
_cell_length_c 21.000000
_cell_angle_alpha 90.000000
_cell_angle_beta 90.000000
_cell_angle_gamma 90.000000
_cell_volume 3969.000000
_symmetry_space_group_name_H-M "P M M N"
_symmetry_group_IT_number 59
_space_group.IT_coordinate_system_code '2'
_symmetry_cell_setting 'orthorhombic'
loop_
_space_group_symop_operation_xyz
x,y,z
1/2-x,1/2-y,z
1/2+x,-y,-z
-x,1/2+y,-z
-x,-y,-z
1/2+x,1/2+y,-z
1/2-x,y,z
x,1/2-y,z
loop_
_atom_site_type_symbol
_atom_site_label
_atom_site_fract_x
_atom_site_fract_y
_atom_site_fract_z
Si Si1 0.925639 0.399085 0.106245
Si Si2 0.926408 0.955990 0.155093
Si Si3 0.571943 0.568202 0.017055
Si Si4 0.082540 0.174994 0.216722
Si Si5 0.580691 0.431897 0.576066
Si Si6 0.581927 0.584598 0.548749
Si Si7 0.425818 0.602678 0.675744
Si Si8 0.928069 0.031916 0.713265
O O1 0.750000 0.393306 0.096973
O O2 0.952858 0.470311 0.134417
O O3 0.988043 0.352483 0.158990
O O4 0.008400 0.388838 0.039257
O O5 0.750000 0.949212 0.167191
O O6 0.965566 0.917346 0.090670
O O7 0.015897 0.942123 0.219192
O O8 0.750000 0.563181 0.013191
O O9 0.500000 0.500000 0.000000
O O10 0.250000 0.147792 0.215248
O O11 0.090895 0.250000 0.211448
O O12 0.002689 0.155557 0.281528
O O13 0.750000 0.409098 0.568165
O O14 0.582780 0.508034 0.561114
O O15 0.474502 0.403332 0.522524
O O16 0.536207 0.426754 0.650058
O O17 0.750000 0.607079 0.558596
O O18 0.472660 0.610462 0.602546
O O19 0.250000 0.602123 0.683433
O O20 0.491995 0.535722 0.701374
O O21 0.750000 0.022891 0.713543
#
# Coordination Sequence:
#
# PCOD9453320 Si02
#       8
#     8   8   8   8   8   8   8   8
#     4  10  19  31  46  63  82 107 139 176 218 261
#     4   9  17  27  40  61  85 111 142 174 211 252
#     4   9  17  28  42  60  83 109 140 176 211 253
#     4  11  23  36  49  64  82 107 142 183 223 261
#     4   8  15  25  35  54  79 105 137 170 203 240
#     4   9  16  26  40  56  75 102 137 172 206 244
#     4  11  20  30  44  59  79 107 138 175 215 255
#     4  10  18  26  40  59  83 113 143 174 208 247
#
# _framework density 16.124969
#
# number of rings (size 3 to 8) (size 9 to 14) (size 15 to 20)
#    0.000    2.375    1.250    4.500    0.000    7.000 
#    0.000    0.000    0.000    0.000    0.000    0.000 
#    0.000    0.000    0.000    1.125    0.000   19.250 
#
# Total GULP energy -356446.722431 kJ/mol
# GULP energy per Si atom -5569.480038 kJ/mol
# Density = 1.608827 g / cm^3
# Si number density = 16.124969 Si / 1000 Ang^3
#
#
#
# Elastic Constant Matrix: (Units=GPa)
#
#
# Indices 1 2 3 4 5 6 
#
# 1 43.8610 1.5634 34.7633 0.0000 0.0000 0.0000
# 2 1.5634 9.7850 3.8326 0.0000 0.0000 0.0000
# 3 34.7633 3.8326 124.2495 0.0000 0.0000 0.0000
# 4 0.0000 0.0000 0.0000 2.6587 0.0000 0.0000
# 5 0.0000 0.0000 0.0000 0.0000 33.1396 0.0000
# 6 0.0000 0.0000 0.0000 0.0000 0.0000 8.7486
#
#
#
# Elastic Compliance Matrix: (Units=1/GPa)
#
#
# Indices 1 2 3 4 5 6 
#
# 1 0.029317 -0.001490 -0.008157 0.000000 0.000000 0.000000
# 2 -0.001490 0.103523 -0.002777 0.000000 0.000000 0.000000
# 3 -0.008157 -0.002777 0.010416 0.000000 0.000000 0.000000
# 4 0.000000 0.000000 0.000000 0.376120 0.000000 0.000000
# 5 0.000000 0.000000 0.000000 0.000000 0.030175 0.000000
# 6 0.000000 0.000000 0.000000 0.000000 0.000000 0.114304
#
#
# Mechanical properties :
#
#
# Convention : Reuss Voigt Hill
#
# Bulk Modulus (GPa) = 8.44519 28.69046 18.56783
# Shear Modulus (GPa) = 6.86652 18.09180 12.47916
#
# Velocity S-wave (km/s) = 2.06581 3.35322 2.78493
# Velocity P-wave (km/s) = 3.30738 5.72917 4.67772
#
# Compressibility (1/GPa) = 0.11841064
#
# Stress axis : x y z
#
# Youngs Moduli (GPa) = 34.10976 9.65972 96.00552
#
# Poissons Ratio (x) = 0.01439 0.78308
# Poissons Ratio (y) = 0.05081 0.26656
# Poissons Ratio (z) = 0.27822 0.02682
#
# Static dielectric constant tensor:
#      x y z
#    x 1.553300 0.000000 0.000000 
#    y 0.000000 1.521660 0.000000 
#    z 0.000000 0.000000 1.602740 
# 
# From -- ./inp_files/29666.got.cif
#   From: 2010.05.17/outbox.ucp.g08.bks.cvg/sg59_15_cif.got.tgz:29666.got - 2010.06.11 16:43:56.
