data_PCOD9453115
_publ_section_title
;
Structure prediction by ZEFSAII (Michael W. Deem and Ramdas Pophale) SiO2 
 PCOD9453115
Probable space group: P M M N
;
_chemical_formula_sum "Si O2"
_cell_formula_units_Z 28
_cell_length_a 11.142674
_cell_length_b 11.340498
_cell_length_c 10.344320
_cell_angle_alpha 90.000000
_cell_angle_beta 90.000000
_cell_angle_gamma 90.000000
_cell_volume 1307.144193
_symmetry_space_group_name_H-M "P M M N"
_symmetry_group_IT_number 59
_space_group.IT_coordinate_system_code '2'
_symmetry_cell_setting 'orthorhombic'
loop_
_space_group_symop_operation_xyz
x,y,z
1/2-x,1/2-y,z
1/2+x,-y,-z
-x,1/2+y,-z
-x,-y,-z
1/2+x,1/2+y,-z
1/2-x,y,z
x,1/2-y,z
loop_
_atom_site_type_symbol
_atom_site_label
_atom_site_fract_x
_atom_site_fract_y
_atom_site_fract_z
Si Si1 0.250000 0.750000 0.920106
Si Si2 0.521747 0.250000 0.893278
Si Si3 0.890571 0.421169 0.675608
Si Si4 0.250000 0.991418 0.752411
Si Si5 0.533072 0.119189 0.387562
Si Si6 0.250000 0.250000 0.883167
O O1 0.127235 0.750000 0.002644
O O2 0.250000 0.877969 0.848618
O O3 0.546983 0.138600 0.798507
O O4 0.384720 0.250000 0.944848
O O5 0.750000 0.391580 0.676778
O O6 0.950782 0.377708 0.541866
O O7 0.911801 0.561152 0.664516
O O8 0.134977 0.967874 0.664124
O O9 0.250000 0.123765 0.807635
O O10 0.552970 0.250000 0.337079
#
# Coordination Sequence:
#
# PCOD9453115 Si02
#       6
#     2   4   8   4   8   2
#     4  12  28  44  82  92 120 196 248 282 332 420
#     4  12  24  45  70 100 134 179 233 280 349 406
#     4  11  22  39  66 100 138 179 224 282 348 415
#     4  12  24  45  70 100 134 179 233 280 349 406
#     4  11  22  39  66 100 138 179 224 282 348 415
#     4  12  28  48  68 100 142 172 224 308 348 398
#
# _framework density 21.420742000000001
#
# number of rings (size 3 to 8) (size 9 to 14) (size 15 to 20)
#    0.000    0.571    8.571    0.000    0.000    1.714 
#    0.000    0.000    0.000    0.000    0.000    0.000 
#    0.000    0.000    0.000    0.000    0.000    0.000 
#
# Total GULP energy -156160.401363 kJ/mol
# GULP energy per Si atom -5577.157192 kJ/mol
# Density = 2.137199 g / cm^3
# Si number density = 21.420742 Si / 1000 Ang^3
#
#
#
# Elastic Constant Matrix: (Units=GPa)
#
#
# Indices 1 2 3 4 5 6 
#
# 1 139.7659 24.5310 30.4981 0.0000 0.0000 0.0000
# 2 24.5310 121.5126 11.0487 0.0000 0.0000 0.0000
# 3 30.4981 11.0487 64.8613 0.0000 0.0000 0.0000
# 4 0.0000 0.0000 0.0000 8.1144 0.0000 0.0000
# 5 0.0000 0.0000 0.0000 0.0000 17.1051 0.0000
# 6 0.0000 0.0000 0.0000 0.0000 0.0000 31.2626
#
#
#
# Elastic Compliance Matrix: (Units=1/GPa)
#
#
# Indices 1 2 3 4 5 6 
#
# 1 0.008177 -0.001322 -0.003620 0.000000 0.000000 0.000000
# 2 -0.001322 0.008573 -0.000839 0.000000 0.000000 0.000000
# 3 -0.003620 -0.000839 0.017262 0.000000 0.000000 0.000000
# 4 0.000000 0.000000 0.000000 0.123237 0.000000 0.000000
# 5 0.000000 0.000000 0.000000 0.000000 0.058462 0.000000
# 6 0.000000 0.000000 0.000000 0.000000 0.000000 0.031987
#
#
# Mechanical properties :
#
#
# Convention : Reuss Voigt Hill
#
# Bulk Modulus (GPa) = 44.54029 50.92170 47.73100
# Shear Modulus (GPa) = 18.74472 28.63391 23.68931
#
# Velocity S-wave (km/s) = 2.96137 3.66011 3.32912
# Velocity P-wave (km/s) = 5.70361 6.45644 6.09167
#
# Compressibility (1/GPa) = 0.02245158
#
# Stress axis : x y z
#
# Youngs Moduli (GPa) = 122.30034 116.64964 57.92959
#
# Poissons Ratio (x) = 0.15416 0.20968
# Poissons Ratio (y) = 0.16163 0.04860
# Poissons Ratio (z) = 0.44267 0.09786
#
# Static dielectric constant tensor:
#      x y z
#    x 1.849150 0.000000 0.000000 
#    y 0.000000 1.852610 0.000000 
#    z 0.000000 0.000000 1.758760 
# 
# From -- ./inp_files/15222.got.cif
#   From: 2010.05.17/outbox.cif.g08.bks.cpg/sg59_8_cif.got.tgz:15222.got - 2010.06.03 14:40:33.
