data_PCOD9453837
_publ_section_title
;
Structure prediction by ZEFSAII (Michael W. Deem and Ramdas Pophale) SiO2 
 PCOD9453837
Probable space group: P B C N
;
_chemical_formula_sum "Si O2"
_cell_formula_units_Z 52
_cell_length_a 12.038552
_cell_length_b 8.817401
_cell_length_c 26.885129
_cell_angle_alpha 90.000000
_cell_angle_beta 90.000000
_cell_angle_gamma 90.000000
_cell_volume 2853.822580
_symmetry_space_group_name_H-M "P B C N"
_symmetry_group_IT_number 60
_symmetry_cell_setting 'orthorhombic'
loop_
_space_group_symop_operation_xyz
x,y,z
1/2-x,1/2-y,1/2+z
1/2+x,1/2-y,-z
-x,y,1/2-z
-x,-y,-z
1/2+x,1/2+y,1/2-z
1/2-x,1/2+y,z
x,-y,1/2+z
loop_
_atom_site_type_symbol
_atom_site_label
_atom_site_fract_x
_atom_site_fract_y
_atom_site_fract_z
Si Si1 0.414449 0.978278 0.544188
Si Si2 0.399044 0.230178 0.789164
Si Si3 0.534677 0.011796 0.846489
Si Si4 0.796868 0.999105 0.352342
Si Si5 0.000000 0.699734 0.250000
Si Si6 0.818182 0.954939 0.240161
Si Si7 0.256704 0.735092 0.576450
O O1 0.478692 0.956826 0.596880
O O2 0.332247 0.834146 0.539868
O O3 0.500000 0.000000 0.500000
O O4 0.331399 0.122713 0.551184
O O5 0.500000 0.235636 0.750000
O O6 0.348922 0.399364 0.793125
O O7 0.303586 0.113185 0.770617
O O8 0.456735 0.156430 0.837160
O O9 0.666608 0.040591 0.844756
O O10 0.516158 0.899991 0.799674
O O11 0.803301 0.146129 0.386595
O O12 0.837981 0.014303 0.296687
O O13 0.836904 0.860749 0.386363
O O14 0.102002 0.810345 0.262396
#
# Coordination Sequence:
#
# PCOD9453837 Si02
#       7
#     8   8   8   8   4   8   8
#     4  10  21  40  62  85 114 149 189 246 296 337
#     4  12  22  38  53  85 119 158 194 237 300 346
#     4  10  20  37  57  80 118 150 191 245 291 345
#     4  10  17  33  57  83 110 149 190 250 280 316
#     4  12  22  34  54  92 120 164 194 234 296 356
#     4  12  23  33  57  84 127 160 201 237 287 359
#     4   8  18  33  59  87 107 139 197 240 289 333
#
# _framework density 18.221173
#
# number of rings (size 3 to 8) (size 9 to 14) (size 15 to 20)
#    0.000    1.846    3.077    4.615    2.154    0.000 
#    0.000    6.154    0.000    0.000    0.000    0.000 
#    0.000    0.000    0.000    0.000    0.000    0.000 
#
# Total GULP energy -289703.592214 kJ/mol
# GULP energy per Si atom -5571.222927 kJ/mol
# Density = 1.817970 g / cm^3
# Si number density = 18.221173 Si / 1000 Ang^3
#
#
#
# Elastic Constant Matrix: (Units=GPa)
#
#
# Indices 1 2 3 4 5 6 
#
# 1 89.3196 42.1069 32.3630 0.0000 0.0000 0.0000
# 2 42.1069 115.2007 34.9486 0.0000 0.0000 0.0000
# 3 32.3630 34.9486 83.2652 0.0000 0.0000 0.0000
# 4 0.0000 0.0000 0.0000 9.0440 0.0000 0.0000
# 5 0.0000 0.0000 0.0000 0.0000 35.1229 0.0000
# 6 0.0000 0.0000 0.0000 0.0000 0.0000 32.8872
#
#
#
# Elastic Compliance Matrix: (Units=1/GPa)
#
#
# Indices 1 2 3 4 5 6 
#
# 1 0.014567 -0.004133 -0.003927 0.000000 0.000000 0.000000
# 2 -0.004133 0.011120 -0.003061 0.000000 0.000000 0.000000
# 3 -0.003927 -0.003061 0.014821 0.000000 0.000000 0.000000
# 4 0.000000 0.000000 0.000000 0.110571 0.000000 0.000000
# 5 0.000000 0.000000 0.000000 0.000000 0.028471 0.000000
# 6 0.000000 0.000000 0.000000 0.000000 0.000000 0.030407
#
#
# Mechanical properties :
#
#
# Convention : Reuss Voigt Hill
#
# Bulk Modulus (GPa) = 54.74727 56.29138 55.51932
# Shear Modulus (GPa) = 20.98304 27.30194 24.14249
#
# Velocity S-wave (km/s) = 3.39717 3.87507 3.64396
# Velocity P-wave (km/s) = 6.74528 7.14017 6.94553
#
# Compressibility (1/GPa) = 0.01826575
#
# Stress axis : x y z
#
# Youngs Moduli (GPa) = 68.64818 89.93024 67.47231
#
# Poissons Ratio (x) = 0.37168 0.26497
# Poissons Ratio (y) = 0.28372 0.20652
# Poissons Ratio (z) = 0.26959 0.27526
#
# Static dielectric constant tensor:
#      x y z
#    x 1.658300 0.000000 0.000000 
#    y 0.000000 1.717250 0.000000 
#    z 0.000000 0.000000 1.645540 
# 
# From -- ./inp_files/25298.got.cif
#   From: 2010.05.17/outbox.cif.g08.bks.cpg/sg60_13_cif.got.tgz:25298.got - 2010.06.03 14:59:27.
