data_PCOD9453379
_publ_section_title
;
Structure prediction by ZEFSAII (Michael W. Deem and Ramdas Pophale) SiO2 
 PCOD9453379
Probable space group: P M M N
;
_chemical_formula_sum "Si O2"
_cell_formula_units_Z 64
_cell_length_a 15.000000
_cell_length_b 18.000000
_cell_length_c 15.000000
_cell_angle_alpha 90.000000
_cell_angle_beta 90.000000
_cell_angle_gamma 90.000000
_cell_volume 4050.000000
_symmetry_space_group_name_H-M "P M M N"
_symmetry_group_IT_number 59
_space_group.IT_coordinate_system_code '2'
_symmetry_cell_setting 'orthorhombic'
loop_
_space_group_symop_operation_xyz
x,y,z
1/2-x,1/2-y,z
1/2+x,-y,-z
-x,1/2+y,-z
-x,-y,-z
1/2+x,1/2+y,-z
1/2-x,y,z
x,1/2-y,z
loop_
_atom_site_type_symbol
_atom_site_label
_atom_site_fract_x
_atom_site_fract_y
_atom_site_fract_z
Si Si1 0.645630 0.919726 0.725504
Si Si2 0.354903 0.836183 0.132749
Si Si3 0.472861 0.837809 0.664134
Si Si4 0.976701 0.086708 0.007819
Si Si5 0.852075 0.838143 0.916306
Si Si6 0.644383 0.161281 0.507627
Si Si7 0.356564 0.909709 0.311557
Si Si8 0.856887 0.338429 0.157920
O O1 0.750000 0.910370 0.696225
O O2 0.567168 0.879196 0.671685
O O3 0.640993 0.884557 0.824428
O O4 0.623206 0.007263 0.721482
O O5 0.250000 0.856449 0.118943
O O6 0.364241 0.750000 0.108141
O O7 0.377743 0.850219 0.235657
O O8 0.421288 0.886385 0.077072
O O9 0.491796 0.750000 0.662685
O O10 0.415375 0.856786 0.577416
O O11 0.408024 0.850619 0.748860
O O12 0.910235 0.110752 0.088037
O O13 0.069098 0.131494 0.021740
O O14 0.000000 0.000000 0.000000
O O15 0.750000 0.847723 0.949793
O O16 0.865066 0.750000 0.898700
O O17 0.750000 0.146500 0.490961
O O18 0.637936 0.250000 0.525625
O O19 0.610025 0.115011 0.592272
O O20 0.250000 0.907427 0.320633
O O21 0.750000 0.352970 0.161459
O O22 0.866719 0.250000 0.135017
#
# Coordination Sequence:
#
# PCOD9453379 Si02
#       8
#     8   8   8   8   8   8   8   8
#     4  10  19  31  49  73 103 134 166 206 253 301
#     4  10  20  34  53  76 101 132 170 211 254 302
#     4  10  19  31  51  77 103 134 171 206 248 306
#     4  12  23  33  50  74 103 136 166 208 254 308
#     4  10  20  35  53  71  96 133 175 215 250 293
#     4   9  17  31  51  75 102 132 166 205 250 302
#     4   9  18  32  50  73 103 134 166 206 254 301
#     4  10  20  35  54  76 104 135 167 208 259 311
#
# _framework density 15.802469
#
# number of rings (size 3 to 8) (size 9 to 14) (size 15 to 20)
#    0.000    2.000    1.250    3.375    0.000    7.250 
#    0.000    0.000    0.000    0.000    0.000    0.875 
#    0.000    2.000    0.000    0.000    0.000    0.000 
#
# Total GULP energy -356677.890779 kJ/mol
# GULP energy per Si atom -5573.092043 kJ/mol
# Density = 1.576650 g / cm^3
# Si number density = 15.802469 Si / 1000 Ang^3
#
#
#
# Elastic Constant Matrix: (Units=GPa)
#
#
# Indices 1 2 3 4 5 6 
#
# 1 102.0925 43.4672 35.0277 0.0000 0.0000 0.0000
# 2 43.4672 66.6692 34.2369 0.0000 0.0000 0.0000
# 3 35.0277 34.2369 73.0460 0.0000 0.0000 0.0000
# 4 0.0000 0.0000 0.0000 2.2105 0.0000 0.0000
# 5 0.0000 0.0000 0.0000 0.0000 7.4365 0.0000
# 6 0.0000 0.0000 0.0000 0.0000 0.0000 25.9516
#
#
#
# Elastic Compliance Matrix: (Units=1/GPa)
#
#
# Indices 1 2 3 4 5 6 
#
# 1 0.014116 -0.007543 -0.003234 0.000000 0.000000 0.000000
# 2 -0.007543 0.023785 -0.007531 0.000000 0.000000 0.000000
# 3 -0.003234 -0.007531 0.018770 0.000000 0.000000 0.000000
# 4 0.000000 0.000000 0.000000 0.452383 0.000000 0.000000
# 5 0.000000 0.000000 0.000000 0.000000 0.134471 0.000000
# 6 0.000000 0.000000 0.000000 0.000000 0.000000 0.038533
#
#
# Mechanical properties :
#
#
# Convention : Reuss Voigt Hill
#
# Bulk Modulus (GPa) = 49.85992 51.91900 50.88946
# Shear Modulus (GPa) = 6.89314 15.72479 11.30897
#
# Velocity S-wave (km/s) = 2.09082 3.15792 2.67806
# Velocity P-wave (km/s) = 6.11957 6.79874 6.46808
#
# Compressibility (1/GPa) = 0.02005619
#
# Stress axis : x y z
#
# Youngs Moduli (GPa) = 70.84199 42.04411 53.27527
#
# Poissons Ratio (x) = 0.31713 0.17228
# Poissons Ratio (y) = 0.53434 0.40121
# Poissons Ratio (z) = 0.22908 0.31663
#
# Static dielectric constant tensor:
#      x y z
#    x 1.515180 0.000000 0.000000 
#    y 0.000000 1.529780 0.000000 
#    z 0.000000 0.000000 1.550640 
# 
# From -- ./inp_files/23451.got.cif
#   From: 2010.05.17/outbox.ucp.g08.bks.cvg/sg59_12_cif.got.tgz:23451.got - 2010.06.11 16:43:56.
