data_PCOD9453351
_publ_section_title
;
Structure prediction by ZEFSAII (Michael W. Deem and Ramdas Pophale) SiO2 
 PCOD9453351
Probable space group: P M M N
;
_chemical_formula_sum "Si O2"
_cell_formula_units_Z 64
_cell_length_a 30.000000
_cell_length_b 9.000000
_cell_length_c 12.000000
_cell_angle_alpha 90.000000
_cell_angle_beta 90.000000
_cell_angle_gamma 90.000000
_cell_volume 3240.000000
_symmetry_space_group_name_H-M "P M M N"
_symmetry_group_IT_number 59
_space_group.IT_coordinate_system_code '2'
_symmetry_cell_setting 'orthorhombic'
loop_
_space_group_symop_operation_xyz
x,y,z
1/2-x,1/2-y,z
1/2+x,-y,-z
-x,1/2+y,-z
-x,-y,-z
1/2+x,1/2+y,-z
1/2-x,y,z
x,1/2-y,z
loop_
_atom_site_type_symbol
_atom_site_label
_atom_site_fract_x
_atom_site_fract_y
_atom_site_fract_z
Si Si1 0.346562 0.576556 0.991290
Si Si2 0.374770 0.425392 0.345571
Si Si3 0.299496 0.569454 0.765806
Si Si4 0.865673 0.070920 0.416935
Si Si5 0.934522 0.925140 0.010761
Si Si6 0.800895 0.418181 0.786002
Si Si7 0.537905 0.569608 0.778099
Si Si8 0.442845 0.571691 0.749322
O O1 0.362248 0.750000 0.986509
O O2 0.330041 0.529467 0.870134
O O3 0.384837 0.465827 0.030379
O O4 0.307336 0.572912 0.081170
O O5 0.379643 0.250000 0.358591
O O6 0.369346 0.500583 0.463925
O O7 0.332333 0.465312 0.272246
O O8 0.418594 0.486080 0.283501
O O9 0.250000 0.511768 0.779683
O O10 0.298149 0.750000 0.768320
O O11 0.321365 0.526588 0.649657
O O12 0.866706 0.250000 0.425015
O O13 0.906223 0.021659 0.337748
O O14 0.940909 0.750000 0.026630
O O15 0.937046 0.007622 0.127628
O O16 0.964176 0.980084 0.907048
O O17 0.750000 0.437689 0.754927
O O18 0.815036 0.250000 0.753737
O O19 0.540631 0.750000 0.783691
O O20 0.492848 0.530575 0.715048
O O21 0.439394 0.750000 0.757273
#
# Coordination Sequence:
#
# PCOD9453351 Si02
#       8
#     8   8   8   8   8   8   8   8
#     4  10  18  33  58  86 113 146 183 223 276 335
#     4  11  23  40  58  79 112 153 190 229 283 339
#     4   9  17  32  56  84 111 140 178 226 279 329
#     4  10  21  37  57  82 108 144 192 240 282 325
#     4  11  20  33  55  85 119 148 179 224 282 341
#     4  10  21  37  60  89 116 144 186 236 277 323
#     4   9  20  37  57  81 113 150 184 229 282 336
#     4  10  20  38  60  82 110 146 190 233 280 336
#
# _framework density 19.753086
#
# number of rings (size 3 to 8) (size 9 to 14) (size 15 to 20)
#    0.000    2.000    2.500    1.500    0.000    3.250 
#    0.000    3.125    0.000    1.875    0.000    0.000 
#    0.000    0.000    0.000    0.000    0.000    0.000 
#
# Total GULP energy -356782.572495 kJ/mol
# GULP energy per Si atom -5574.727695 kJ/mol
# Density = 1.970813 g / cm^3
# Si number density = 19.753086 Si / 1000 Ang^3
#
#
#
# Elastic Constant Matrix: (Units=GPa)
#
#
# Indices 1 2 3 4 5 6 
#
# 1 48.3953 1.0016 14.3915 0.0000 0.0000 0.0000
# 2 1.0016 1.5348 9.5491 0.0000 0.0000 0.0000
# 3 14.3915 9.5491 78.4446 0.0000 0.0000 0.0000
# 4 0.0000 0.0000 0.0000 17.4294 0.0000 0.0000
# 5 0.0000 0.0000 0.0000 0.0000 -5.7768 0.0000
# 6 0.0000 0.0000 0.0000 0.0000 0.0000 10.2817
#
#
#
# Elastic Compliance Matrix: (Units=1/GPa)
#
#
# Indices 1 2 3 4 5 6 
#
# 1 0.022602 0.045534 -0.009689 0.000000 0.000000 0.000000
# 2 0.045534 2.776981 -0.346396 0.000000 0.000000 0.000000
# 3 -0.009689 -0.346396 0.056692 0.000000 0.000000 0.000000
# 4 0.000000 0.000000 0.000000 0.057374 0.000000 0.000000
# 5 0.000000 0.000000 0.000000 0.000000 -0.173105 0.000000
# 6 0.000000 0.000000 0.000000 0.000000 0.000000 0.097260
#
#
# Mechanical properties :
#
#
# Convention : Reuss Voigt Hill
#
# Bulk Modulus (GPa) = 0.44739 19.80655 10.12697
# Shear Modulus (GPa) = 1.18935 11.28235 6.23585
#
# Velocity S-wave (km/s) = 0.77680 2.39251 1.77869
# Velocity P-wave (km/s) = 1.01565 4.20487 3.05880
#
# Compressibility (1/GPa) = 2.23517424
#
# Stress axis : x y z
#
# Youngs Moduli (GPa) = 44.24357 0.36010 17.63911
#
# Poissons Ratio (x) = -0.01640 0.17091
# Poissons Ratio (y) = -2.01460 6.11011
# Poissons Ratio (z) = 0.42870 0.12474
#
# Static dielectric constant tensor:
#      x y z
#    x 1.762820 0.000000 0.000000 
#    y 0.000000 1.673090 0.000000 
#    z 0.000000 0.000000 1.669780 
# 
# From -- ./inp_files/19262.got.cif
#   From: 2010.05.17/outbox.ucp.g08.bks.cvg/sg59_10_cif.got.tgz:19262.got - 2010.06.11 16:43:56.
