data_PCOD9453317
_publ_section_title
;
Structure prediction by ZEFSAII (Michael W. Deem and Ramdas Pophale) SiO2 
 PCOD9453317
Probable space group: P M M N
;
_chemical_formula_sum "Si O2"
_cell_formula_units_Z 56
_cell_length_a 9.000000
_cell_length_b 24.000000
_cell_length_c 18.000000
_cell_angle_alpha 90.000000
_cell_angle_beta 90.000000
_cell_angle_gamma 90.000000
_cell_volume 3888.000000
_symmetry_space_group_name_H-M "P M M N"
_symmetry_group_IT_number 59
_space_group.IT_coordinate_system_code '2'
_symmetry_cell_setting 'orthorhombic'
loop_
_space_group_symop_operation_xyz
x,y,z
1/2-x,1/2-y,z
1/2+x,-y,-z
-x,1/2+y,-z
-x,-y,-z
1/2+x,1/2+y,-z
1/2-x,y,z
x,1/2-y,z
loop_
_atom_site_type_symbol
_atom_site_label
_atom_site_fract_x
_atom_site_fract_y
_atom_site_fract_z
Si Si1 0.571224 0.893974 0.706464
Si Si2 0.572777 0.968567 0.105599
Si Si3 0.421122 0.051799 0.592512
Si Si4 0.430615 0.184770 0.156035
Si Si5 0.578702 0.419282 0.445624
Si Si6 0.928777 0.583588 0.950721
Si Si7 0.927081 0.023307 0.742044
O O1 0.750000 0.891294 0.698407
O O2 0.526253 0.847529 0.767419
O O3 0.496871 0.889894 0.625325
O O4 0.535856 0.956797 0.735420
O O5 0.750000 0.973402 0.111593
O O6 0.502012 0.953150 0.184087
O O7 0.505564 0.029283 0.085143
O O8 0.540249 0.925302 0.038475
O O9 0.250000 0.067834 0.603529
O O10 0.492254 0.084879 0.523539
O O11 0.512951 0.053683 0.668559
O O12 0.423048 0.985796 0.571819
O O13 0.250000 0.186448 0.155503
O O14 0.480220 0.250000 0.151149
O O15 0.473658 0.141619 0.089322
O O16 0.750000 0.402248 0.453087
O O17 0.750000 0.578210 0.940039
O O18 0.750000 0.027242 0.746154
#
# Coordination Sequence:
#
# PCOD9453317 Si02
#       7
#     8   8   8   8   8   8   8
#     4   9  16  26  40  57  78 107 141 176 210 246
#     4  10  18  26  41  61  84 111 141 176 215 262
#     4   9  16  25  37  56  81 108 139 169 201 241
#     4   9  16  28  46  64  82 108 145 185 220 253
#     4   9  16  25  37  54  78 109 140 168 200 241
#     4   9  17  30  43  60  82 108 142 179 218 259
#     4  10  17  26  40  58  84 112 141 174 209 253
#
# _framework density 14.403292
#
# number of rings (size 3 to 8) (size 9 to 14) (size 15 to 20)
#    0.000    2.714    1.429    1.714    0.000    4.571 
#    0.000    0.000    0.000    1.714    0.000    0.000 
#    0.000    1.143    0.000    9.714    0.000    2.857 
#
# Total GULP energy -311736.803876 kJ/mol
# GULP energy per Si atom -5566.728641 kJ/mol
# Density = 1.437051 g / cm^3
# Si number density = 14.403292 Si / 1000 Ang^3
#
#
#
# Elastic Constant Matrix: (Units=GPa)
#
#
# Indices 1 2 3 4 5 6 
#
# 1 41.5437 20.2291 47.9302 0.0000 0.0000 0.0000
# 2 20.2291 66.7121 49.1473 0.0000 0.0000 0.0000
# 3 47.9302 49.1473 142.2833 0.0000 0.0000 0.0000
# 4 0.0000 0.0000 0.0000 17.7796 0.0000 0.0000
# 5 0.0000 0.0000 0.0000 0.0000 27.0586 0.0000
# 6 0.0000 0.0000 0.0000 0.0000 0.0000 11.1334
#
#
#
# Elastic Compliance Matrix: (Units=1/GPa)
#
#
# Indices 1 2 3 4 5 6 
#
# 1 0.039799 -0.002939 -0.012392 0.000000 0.000000 0.000000
# 2 -0.002939 0.020323 -0.006030 0.000000 0.000000 0.000000
# 3 -0.012392 -0.006030 0.013285 0.000000 0.000000 0.000000
# 4 0.000000 0.000000 0.000000 0.056244 0.000000 0.000000
# 5 0.000000 0.000000 0.000000 0.000000 0.036957 0.000000
# 6 0.000000 0.000000 0.000000 0.000000 0.000000 0.089819
#
#
# Mechanical properties :
#
#
# Convention : Reuss Voigt Hill
#
# Bulk Modulus (GPa) = 32.58806 53.90579 43.24692
# Shear Modulus (GPa) = 16.16145 20.07650 18.11897
#
# Velocity S-wave (km/s) = 3.35336 3.73752 3.55064
# Velocity P-wave (km/s) = 6.13742 7.49218 6.84838
#
# Compressibility (1/GPa) = 0.03068609
#
# Stress axis : x y z
#
# Youngs Moduli (GPa) = 25.12639 49.20448 75.27080
#
# Poissons Ratio (x) = 0.14462 0.93272
# Poissons Ratio (y) = 0.07385 0.45388
# Poissons Ratio (z) = 0.31136 0.29670
#
# Static dielectric constant tensor:
#      x y z
#    x 1.482920 0.000000 0.000000 
#    y 0.000000 1.441880 0.000000 
#    z 0.000000 0.000000 1.501770 
# 
# From -- ./inp_files/26377.got.cif
#   From: 2010.05.17/outbox.ucp.g08.bks.cvg/sg59_14_cif.got.tgz:26377.got - 2010.06.11 16:43:56.
