data_PCOD9453062
_publ_section_title
;
Structure prediction by ZEFSAII (Michael W. Deem and Ramdas Pophale) SiO2 
 PCOD9453062
Probable space group: P M M N
;
_chemical_formula_sum "Si O2"
_cell_formula_units_Z 32
_cell_length_a 8.535977
_cell_length_b 13.895355
_cell_length_c 13.438268
_cell_angle_alpha 90.000000
_cell_angle_beta 90.000000
_cell_angle_gamma 90.000000
_cell_volume 1593.918755
_symmetry_space_group_name_H-M "P M M N"
_symmetry_group_IT_number 59
_space_group.IT_coordinate_system_code '2'
_symmetry_cell_setting 'orthorhombic'
loop_
_space_group_symop_operation_xyz
x,y,z
1/2-x,1/2-y,z
1/2+x,-y,-z
-x,1/2+y,-z
-x,-y,-z
1/2+x,1/2+y,-z
1/2-x,y,z
x,1/2-y,z
loop_
_atom_site_type_symbol
_atom_site_label
_atom_site_fract_x
_atom_site_fract_y
_atom_site_fract_z
Si Si1 0.566440 0.750000 0.606789
Si Si2 0.566496 0.750000 0.843646
Si Si3 0.937388 0.641386 0.243762
Si Si4 0.939017 0.966762 0.892982
Si Si5 0.434496 0.599158 0.461683
O O1 0.750000 0.750000 0.578440
O O2 0.558246 0.750000 0.724505
O O3 0.478148 0.663693 0.555178
O O4 0.750000 0.750000 0.874630
O O5 0.504079 0.644246 0.875691
O O6 0.750000 0.637525 0.233635
O O7 0.988083 0.750000 0.209728
O O8 0.006358 0.549188 0.185167
O O9 0.983721 0.632161 0.359723
O O10 0.750000 0.964675 0.889516
O O11 0.000000 0.000000 0.000000
O O12 0.500000 0.500000 0.500000
O O13 0.250000 0.597445 0.442975
#
# Coordination Sequence:
#
# PCOD9453062 Si02
#       5
#     4   4   8   8   8
#     4  11  21  39  64  93 126 169 217 266 324 387
#     4   9  22  43  66  91 128 171 213 268 332 393
#     4  11  24  43  67  97 135 176 221 276 336 396
#     4  11  24  44  69  98 130 172 222 275 338 401
#     4  12  24  39  62  94 133 176 220 268 323 389
#
# _framework density 20.076305000000001
#
# number of rings (size 3 to 8) (size 9 to 14) (size 15 to 20)
#    0.000    1.000    1.250    5.625    1.750    3.500 
#    0.000    5.625    0.000    0.000    0.000    0.000 
#    0.000    0.000    0.000    0.000    0.000    0.000 
#
# Total GULP energy -178591.863905 kJ/mol
# GULP energy per Si atom -5580.995747 kJ/mol
# Density = 2.003061 g / cm^3
# Si number density = 20.076305 Si / 1000 Ang^3
#
#
#
# Elastic Constant Matrix: (Units=GPa)
#
#
# Indices 1 2 3 4 5 6 
#
# 1 63.7213 39.2944 17.3764 0.0000 0.0000 0.0000
# 2 39.2944 215.2617 47.8999 0.0000 0.0000 0.0000
# 3 17.3764 47.8999 59.4770 0.0000 0.0000 0.0000
# 4 0.0000 0.0000 0.0000 42.9313 0.0000 0.0000
# 5 0.0000 0.0000 0.0000 0.0000 35.8218 0.0000
# 6 0.0000 0.0000 0.0000 0.0000 0.0000 26.3584
#
#
#
# Elastic Compliance Matrix: (Units=1/GPa)
#
#
# Indices 1 2 3 4 5 6 
#
# 1 0.018175 -0.002602 -0.003214 0.000000 0.000000 0.000000
# 2 -0.002602 0.006032 -0.004098 0.000000 0.000000 0.000000
# 3 -0.003214 -0.004098 0.021052 0.000000 0.000000 0.000000
# 4 0.000000 0.000000 0.000000 0.023293 0.000000 0.000000
# 5 0.000000 0.000000 0.000000 0.000000 0.027916 0.000000
# 6 0.000000 0.000000 0.000000 0.000000 0.000000 0.037939
#
#
# Mechanical properties :
#
#
# Convention : Reuss Voigt Hill
#
# Bulk Modulus (GPa) = 39.32216 60.84460 50.08338
# Shear Modulus (GPa) = 30.72905 36.61493 33.67199
#
# Velocity S-wave (km/s) = 3.91655 4.27522 4.09981
# Velocity P-wave (km/s) = 6.33098 7.39881 6.88563
#
# Compressibility (1/GPa) = 0.02543095
#
# Stress axis : x y z
#
# Youngs Moduli (GPa) = 55.02185 165.77051 47.50045
#
# Poissons Ratio (x) = 0.43142 0.15266
# Poissons Ratio (y) = 0.14319 0.19465
# Poissons Ratio (z) = 0.17683 0.67931
#
# Static dielectric constant tensor:
#      x y z
#    x 1.678180 0.000000 0.000000 
#    y 0.000000 1.718040 0.000000 
#    z 0.000000 0.000000 1.663360 
# 
# From -- ./inp_files/13634.got.cif
#   From: 2010.05.17/outbox.cif.g08.bks.cpg/sg59_7_cif.got.tgz:13634.got - 2010.06.03 14:40:33.
