data_PCOD9453959
_publ_section_title
;
Structure prediction by ZEFSAII (Michael W. Deem and Ramdas Pophale) SiO2 
 PCOD9453959
Probable space group: P B C N
;
_chemical_formula_sum "Si O2"
_cell_formula_units_Z 56
_cell_length_a 26.483851
_cell_length_b 9.797124
_cell_length_c 12.155899
_cell_angle_alpha 90.000000
_cell_angle_beta 90.000000
_cell_angle_gamma 90.000000
_cell_volume 3154.037290
_symmetry_space_group_name_H-M "P B C N"
_symmetry_group_IT_number 60
_symmetry_cell_setting 'orthorhombic'
loop_
_space_group_symop_operation_xyz
x,y,z
1/2-x,1/2-y,1/2+z
1/2+x,1/2-y,-z
-x,y,1/2-z
-x,-y,-z
1/2+x,1/2+y,1/2-z
1/2-x,1/2+y,z
x,-y,1/2+z
loop_
_atom_site_type_symbol
_atom_site_label
_atom_site_fract_x
_atom_site_fract_y
_atom_site_fract_z
Si Si1 0.768949 0.400951 0.382375
Si Si2 0.684991 0.451978 0.203158
Si Si3 0.988337 0.854845 0.441214
Si Si4 0.261224 0.152522 0.974347
Si Si5 0.071049 0.099629 0.779159
Si Si6 0.160028 0.274001 0.290929
Si Si7 0.953784 0.778915 0.672052
O O1 0.721004 0.401443 0.300826
O O2 0.757049 0.297699 0.481011
O O3 0.775116 0.553319 0.426109
O O4 0.817025 0.347281 0.315520
O O5 0.715527 0.417165 0.092909
O O6 0.630311 0.382723 0.205652
O O7 0.674414 0.613341 0.215375
O O8 0.946585 0.869019 0.345144
O O9 0.970127 0.765852 0.544384
O O10 0.038348 0.819410 0.370464
O O11 0.000000 0.000000 0.500000
O O12 0.308733 0.168976 0.894265
O O13 0.056686 0.940078 0.800575
O O14 0.100150 0.289358 0.304441
O O15 0.000000 0.735420 0.750000
#
# Coordination Sequence:
#
# PCOD9453959 Si02
#       7
#     8   8   8   8   8   8   8
#     4  11  22  38  57  82 118 155 190 237 288 343
#     4  10  21  33  54  84 118 149 200 227 285 358
#     4   9  15  27  43  71 110 148 176 231 287 338
#     4  11  22  38  57  82 115 155 189 240 285 343
#     4   9  17  28  45  78 111 151 182 233 295 340
#     4  10  22  36  55  88 110 154 195 237 290 352
#     4  10  18  31  51  77 112 146 195 235 287 343
#
# _framework density 17.755019999999998
#
# number of rings (size 3 to 8) (size 9 to 14) (size 15 to 20)
#    0.000    2.000    5.714    0.000    2.000    2.286 
#    0.000    0.000    0.000    0.857    0.000    0.000 
#    0.000    0.000    0.000    0.000    0.000    0.000 
#
# Total GULP energy -312147.851593 kJ/mol
# GULP energy per Si atom -5574.068778 kJ/mol
# Density = 1.771461 g / cm^3
# Si number density = 17.755020 Si / 1000 Ang^3
#
#
#
# Elastic Constant Matrix: (Units=GPa)
#
#
# Indices 1 2 3 4 5 6 
#
# 1 169.2634 13.8774 63.2785 0.0000 0.0000 0.0000
# 2 13.8774 17.1809 -0.0633 0.0000 0.0000 0.0000
# 3 63.2785 -0.0633 104.3507 0.0000 0.0000 0.0000
# 4 0.0000 0.0000 0.0000 15.5410 0.0000 0.0000
# 5 0.0000 0.0000 0.0000 0.0000 11.0492 0.0000
# 6 0.0000 0.0000 0.0000 0.0000 0.0000 16.8076
#
#
#
# Elastic Compliance Matrix: (Units=1/GPa)
#
#
# Indices 1 2 3 4 5 6 
#
# 1 0.008360 -0.006771 -0.005074 0.000000 0.000000 0.000000
# 2 -0.006771 0.063689 0.004145 0.000000 0.000000 0.000000
# 3 -0.005074 0.004145 0.012662 0.000000 0.000000 0.000000
# 4 0.000000 0.000000 0.000000 0.064346 0.000000 0.000000
# 5 0.000000 0.000000 0.000000 0.000000 0.090504 0.000000
# 6 0.000000 0.000000 0.000000 0.000000 0.000000 0.059497
#
#
# Mechanical properties :
#
#
# Convention : Reuss Voigt Hill
#
# Bulk Modulus (GPa) = 14.42781 49.44226 31.93504
# Shear Modulus (GPa) = 14.81212 22.92638 18.86925
#
# Velocity S-wave (km/s) = 2.89147 3.59731 3.26353
# Velocity P-wave (km/s) = 4.39217 6.72024 5.67683
#
# Compressibility (1/GPa) = 0.06931057
#
# Stress axis : x y z
#
# Youngs Moduli (GPa) = 119.62003 15.70141 78.97543
#
# Poissons Ratio (x) = 0.10632 0.40068
# Poissons Ratio (y) = 0.80996 -0.32732
# Poissons Ratio (z) = 0.60689 -0.06508
#
# Static dielectric constant tensor:
#      x y z
#    x 1.598620 0.000000 0.000000 
#    y 0.000000 1.593990 0.000000 
#    z 0.000000 0.000000 1.614820 
# 
# From -- ./inp_files/13129.got.cif
#   From: 2010.05.17/outbox.cif.g08.bks.cpg/sg60_7_cif.got.tgz:13129.got - 2010.06.03 14:59:27.
