data_PCOD9453417
_publ_section_title
;
Structure prediction by ZEFSAII (Michael W. Deem and Ramdas Pophale) SiO2 
 PCOD9453417
Probable space group: P M M N
;
_chemical_formula_sum "Si O2"
_cell_formula_units_Z 64
_cell_length_a 9.000000
_cell_length_b 21.000000
_cell_length_c 18.000000
_cell_angle_alpha 90.000000
_cell_angle_beta 90.000000
_cell_angle_gamma 90.000000
_cell_volume 3402.000000
_symmetry_space_group_name_H-M "P M M N"
_symmetry_group_IT_number 59
_space_group.IT_coordinate_system_code '2'
_symmetry_cell_setting 'orthorhombic'
loop_
_space_group_symop_operation_xyz
x,y,z
1/2-x,1/2-y,z
1/2+x,-y,-z
-x,1/2+y,-z
-x,-y,-z
1/2+x,1/2+y,-z
1/2-x,y,z
x,1/2-y,z
loop_
_atom_site_type_symbol
_atom_site_label
_atom_site_fract_x
_atom_site_fract_y
_atom_site_fract_z
Si Si1 0.073428 0.324780 0.401913
Si Si2 0.571158 0.178609 0.983485
Si Si3 0.929135 0.176510 0.721389
Si Si4 0.925132 0.549907 0.226090
Si Si5 0.069629 0.582890 0.718178
Si Si6 0.429893 0.679992 0.842199
Si Si7 0.576069 0.951726 0.056942
Si Si8 0.082440 0.673396 0.447812
O O1 0.250000 0.328294 0.392375
O O2 0.028790 0.250000 0.389361
O O3 0.992078 0.374123 0.348144
O O4 0.026696 0.343038 0.485707
O O5 0.750000 0.173464 0.976233
O O6 0.529516 0.250000 0.957094
O O7 0.494042 0.118556 0.946864
O O8 0.533098 0.174490 0.071157
O O9 0.750000 0.176866 0.727449
O O10 0.977772 0.250000 0.737486
O O11 0.967130 0.159329 0.635754
O O12 0.994644 0.117739 0.766820
O O13 0.750000 0.560404 0.240383
O O14 0.978459 0.490974 0.277191
O O15 0.939643 0.525473 0.141604
O O16 0.250000 0.582625 0.716128
O O17 0.020075 0.621920 0.791648
O O18 0.250000 0.680518 0.838872
O O19 0.481332 0.750000 0.815252
O O20 0.750000 0.947974 0.039357
O O21 0.500000 0.000000 0.000000
O O22 0.250000 0.648172 0.460351
O O23 0.093476 0.750000 0.448743
#
# Coordination Sequence:
#
# PCOD9453417 Si02
#       8
#     8   8   8   8   8   8   8   8
#     4  10  20  32  49  79 114 142 172 213 260 308
#     4   9  18  34  56  81 108 137 172 217 269 325
#     4   9  19  37  61  86 109 136 175 222 269 319
#     4  10  23  39  55  79 108 139 178 222 267 320
#     4  10  19  33  52  72 100 140 183 220 255 304
#     4   8  14  27  50  76 100 133 176 215 252 301
#     4  11  23  39  58  79 106 141 182 226 271 322
#     4   8  15  31  55  80 105 136 176 217 256 306
#
# _framework density 18.812463000000001
#
# number of rings (size 3 to 8) (size 9 to 14) (size 15 to 20)
#    0.000    2.625    0.000    3.375    0.000    6.250 
#    0.000    6.250    0.000    0.750    0.000    0.000 
#    0.000    0.000    0.000    0.000    0.000    0.000 
#
# Total GULP energy -356670.646922 kJ/mol
# GULP energy per Si atom -5572.978858 kJ/mol
# Density = 1.876965 g / cm^3
# Si number density = 18.812463 Si / 1000 Ang^3
#
#
#
# Elastic Constant Matrix: (Units=GPa)
#
#
# Indices 1 2 3 4 5 6 
#
# 1 32.1021 37.3493 25.8879 0.0000 0.0000 0.0000
# 2 37.3493 117.8009 38.9936 0.0000 0.0000 0.0000
# 3 25.8879 38.9936 46.9217 0.0000 0.0000 0.0000
# 4 0.0000 0.0000 0.0000 24.9241 0.0000 0.0000
# 5 0.0000 0.0000 0.0000 0.0000 19.2136 0.0000
# 6 0.0000 0.0000 0.0000 0.0000 0.0000 27.7911
#
#
#
# Elastic Compliance Matrix: (Units=1/GPa)
#
#
# Indices 1 2 3 4 5 6 
#
# 1 0.067192 -0.012460 -0.026717 0.000000 0.000000 0.000000
# 2 -0.012460 0.014021 -0.004777 0.000000 0.000000 0.000000
# 3 -0.026717 -0.004777 0.040023 0.000000 0.000000 0.000000
# 4 0.000000 0.000000 0.000000 0.040122 0.000000 0.000000
# 5 0.000000 0.000000 0.000000 0.000000 0.052047 0.000000
# 6 0.000000 0.000000 0.000000 0.000000 0.000000 0.035983
#
#
# Mechanical properties :
#
#
# Convention : Reuss Voigt Hill
#
# Bulk Modulus (GPa) = 30.00553 44.58736 37.29645
# Shear Modulus (GPa) = 14.35112 20.69200 17.52156
#
# Velocity S-wave (km/s) = 2.76497 3.32009 3.05516
# Velocity P-wave (km/s) = 5.11643 6.20078 5.68452
#
# Compressibility (1/GPa) = 0.03332719
#
# Stress axis : x y z
#
# Youngs Moduli (GPa) = 14.88261 71.32307 24.98582
#
# Poissons Ratio (x) = 0.88868 0.66755
# Poissons Ratio (y) = 0.18544 0.11936
# Poissons Ratio (z) = 0.39762 0.34073
#
# Static dielectric constant tensor:
#      x y z
#    x 1.634030 0.000000 0.000000 
#    y 0.000000 1.646920 0.000000 
#    z 0.000000 0.000000 1.692990 
# 
# From -- ./inp_files/26243.got.cif
#   From: 2010.05.17/outbox.ucp.g08.bks.cvg/sg59_14_cif.got.tgz:26243.got - 2010.06.11 16:43:56.
