data_PCOD9453445
_publ_section_title
;
Structure prediction by ZEFSAII (Michael W. Deem and Ramdas Pophale) SiO2 
 PCOD9453445
Probable space group: P M M N
;
_chemical_formula_sum "Si O2"
_cell_formula_units_Z 48
_cell_length_a 18.000000
_cell_length_b 9.000000
_cell_length_c 15.000000
_cell_angle_alpha 90.000000
_cell_angle_beta 90.000000
_cell_angle_gamma 90.000000
_cell_volume 2430.000000
_symmetry_space_group_name_H-M "P M M N"
_symmetry_group_IT_number 59
_space_group.IT_coordinate_system_code '2'
_symmetry_cell_setting 'orthorhombic'
loop_
_space_group_symop_operation_xyz
x,y,z
1/2-x,1/2-y,z
1/2+x,-y,-z
-x,1/2+y,-z
-x,-y,-z
1/2+x,1/2+y,-z
1/2-x,y,z
x,1/2-y,z
loop_
_atom_site_type_symbol
_atom_site_label
_atom_site_fract_x
_atom_site_fract_y
_atom_site_fract_z
Si Si1 0.835537 0.580424 0.828708
Si Si2 0.089863 0.925415 0.330710
Si Si3 0.545893 0.422714 0.925036
Si Si4 0.662925 0.420884 0.346379
Si Si5 0.418624 0.425408 0.499155
Si Si6 0.033309 0.922242 0.770042
O O1 0.750000 0.579728 0.846370
O O2 0.857416 0.750000 0.805603
O O3 0.856121 0.468019 0.749647
O O4 0.880272 0.517548 0.911452
O O5 0.072719 0.750000 0.333558
O O6 0.123813 0.986256 0.421334
O O7 0.018232 0.031758 0.313578
O O8 0.559698 0.250000 0.937285
O O9 0.496125 0.457091 0.838664
O O10 0.500000 0.500000 0.000000
O O11 0.750000 0.439048 0.338312
O O12 0.647117 0.250000 0.377167
O O13 0.626343 0.537927 0.412255
O O14 0.618671 0.436335 0.254315
O O15 0.500000 0.500000 0.500000
O O16 0.424184 0.250000 0.484332
O O17 0.020139 0.750000 0.796254
#
# Coordination Sequence:
#
# PCOD9453445 Si02
#       6
#     8   8   8   8   8   8
#     4  10  21  38  60  87 120 153 188 236 292 346
#     4  11  21  34  56  83 112 149 192 235 281 341
#     4  11  22  38  62  89 118 151 193 237 281 343
#     4  10  22  39  58  82 114 152 192 237 288 341
#     4  12  23  36  56  81 112 152 198 245 291 340
#     4  10  19  35  59  83 112 147 186 233 282 341
#
# _framework density 19.753086
#
# number of rings (size 3 to 8) (size 9 to 14) (size 15 to 20)
#    0.000    1.333    1.667    7.500    0.000    3.000 
#    0.000    0.833    0.000    3.000    0.000    0.000 
#    0.000    0.000    0.000    0.000    0.000    0.000 
#
# Total GULP energy -267342.439123 kJ/mol
# GULP energy per Si atom -5569.634148 kJ/mol
# Density = 1.970813 g / cm^3
# Si number density = 19.753086 Si / 1000 Ang^3
#
#
#
# Elastic Constant Matrix: (Units=GPa)
#
#
# Indices 1 2 3 4 5 6 
#
# 1 99.0350 28.3781 24.3802 0.0000 0.0000 0.0000
# 2 28.3781 108.8546 -9.5062 0.0000 0.0000 0.0000
# 3 24.3802 -9.5062 30.0893 0.0000 0.0000 0.0000
# 4 0.0000 0.0000 0.0000 26.2883 0.0000 0.0000
# 5 0.0000 0.0000 0.0000 0.0000 8.3574 0.0000
# 6 0.0000 0.0000 0.0000 0.0000 0.0000 17.5980
#
#
#
# Elastic Compliance Matrix: (Units=1/GPa)
#
#
# Indices 1 2 3 4 5 6 
#
# 1 0.014929 -0.005089 -0.013704 0.000000 0.000000 0.000000
# 2 -0.005089 0.011182 0.007656 0.000000 0.000000 0.000000
# 3 -0.013704 0.007656 0.046757 0.000000 0.000000 0.000000
# 4 0.000000 0.000000 0.000000 0.038040 0.000000 0.000000
# 5 0.000000 0.000000 0.000000 0.000000 0.119655 0.000000
# 6 0.000000 0.000000 0.000000 0.000000 0.000000 0.056825
#
#
# Mechanical properties :
#
#
# Convention : Reuss Voigt Hill
#
# Bulk Modulus (GPa) = 19.76516 36.05366 27.90941
# Shear Modulus (GPa) = 15.31268 23.43051 19.37159
#
# Velocity S-wave (km/s) = 2.78727 3.44782 3.13499
# Velocity P-wave (km/s) = 4.51512 5.84309 5.22150
#
# Compressibility (1/GPa) = 0.05059407
#
# Stress axis : x y z
#
# Youngs Moduli (GPa) = 66.98212 89.43090 21.38698
#
# Poissons Ratio (x) = 0.45510 0.29310
# Poissons Ratio (y) = 0.34086 -0.16374
# Poissons Ratio (z) = 0.91795 -0.68468
#
# Static dielectric constant tensor:
#      x y z
#    x 1.698770 0.000000 0.000000 
#    y 0.000000 1.676420 0.000000 
#    z 0.000000 0.000000 2.401030 
# 
# From -- ./inp_files/23666.got.cif
#   From: 2010.05.17/outbox.ucp.g08.bks.cvg/sg59_12_cif.got.tgz:23666.got - 2010.06.11 16:43:56.
