data_PCOD9453465
_publ_section_title
;
Structure prediction by ZEFSAII (Michael W. Deem and Ramdas Pophale) SiO2 
 PCOD9453465
Probable space group: P M M N
;
_chemical_formula_sum "Si O2"
_cell_formula_units_Z 64
_cell_length_a 9.000000
_cell_length_b 21.000000
_cell_length_c 18.000000
_cell_angle_alpha 90.000000
_cell_angle_beta 90.000000
_cell_angle_gamma 90.000000
_cell_volume 3402.000000
_symmetry_space_group_name_H-M "P M M N"
_symmetry_group_IT_number 59
_space_group.IT_coordinate_system_code '2'
_symmetry_cell_setting 'orthorhombic'
loop_
_space_group_symop_operation_xyz
x,y,z
1/2-x,1/2-y,z
1/2+x,-y,-z
-x,1/2+y,-z
-x,-y,-z
1/2+x,1/2+y,-z
1/2-x,y,z
x,1/2-y,z
loop_
_atom_site_type_symbol
_atom_site_label
_atom_site_fract_x
_atom_site_fract_y
_atom_site_fract_z
Si Si1 0.071489 0.041973 0.289484
Si Si2 0.582866 0.674314 0.225412
Si Si3 0.569932 0.965412 0.428649
Si Si4 0.429479 0.124778 0.930718
Si Si5 0.071696 0.822175 0.754837
Si Si6 0.072687 0.863204 0.921076
Si Si7 0.572612 0.503171 0.879209
Si Si8 0.068724 0.176558 0.610808
O O1 0.250000 0.045641 0.301090
O O2 0.045920 0.006020 0.210257
O O3 0.007413 0.114802 0.279977
O O4 0.994607 0.001671 0.355527
O O5 0.750000 0.645646 0.227751
O O6 0.596888 0.750000 0.222459
O O7 0.516170 0.653350 0.147866
O O8 0.511863 0.662251 0.305308
O O9 0.750000 0.970292 0.427974
O O10 0.532082 0.889136 0.431681
O O11 0.500000 0.000000 0.500000
O O12 0.250000 0.128232 0.936012
O O13 0.486395 0.052546 0.921671
O O14 0.501868 0.159305 0.001529
O O15 0.250000 0.828741 0.743071
O O16 0.028046 0.750000 0.729614
O O17 0.046448 0.825542 0.844248
O O18 0.250000 0.870298 0.929409
O O19 0.991801 0.930346 0.907596
O O20 0.750000 0.498452 0.891547
O O21 0.250000 0.179417 0.613688
O O22 0.022966 0.250000 0.589553
#
# Coordination Sequence:
#
# PCOD9453465 Si02
#       8
#     8   8   8   8   8   8   8   8
#     4  10  21  37  58  84 112 143 182 229 280 338
#     4   8  15  28  46  70  98 127 164 210 256 305
#     4  11  22  37  60  89 121 153 183 223 275 329
#     4  11  20  29  45  70 100 134 173 218 271 328
#     4   9  19  37  59  80 104 141 190 240 291 346
#     4  10  20  33  48  68  98 135 175 222 276 329
#     4  10  20  34  51  71  97 130 172 221 270 323
#     4   8  15  31  56  83 109 141 184 228 268 316
#
# _framework density 18.812463000000001
#
# number of rings (size 3 to 8) (size 9 to 14) (size 15 to 20)
#    0.000    2.375    0.000    3.750    0.000    3.750 
#    0.000    0.625    0.000    4.875    0.000    8.750 
#    0.000    0.000    0.000    0.000    0.000    0.000 
#
# Total GULP energy -356592.355836 kJ/mol
# GULP energy per Si atom -5571.755560 kJ/mol
# Density = 1.876965 g / cm^3
# Si number density = 18.812463 Si / 1000 Ang^3
#
#
#
# Elastic Constant Matrix: (Units=GPa)
#
#
# Indices 1 2 3 4 5 6 
#
# 1 61.4626 21.3082 27.4118 0.0000 0.0000 0.0000
# 2 21.3082 97.4667 45.6731 0.0000 0.0000 0.0000
# 3 27.4118 45.6731 84.3232 0.0000 0.0000 0.0000
# 4 0.0000 0.0000 0.0000 17.7881 0.0000 0.0000
# 5 0.0000 0.0000 0.0000 0.0000 26.6756 0.0000
# 6 0.0000 0.0000 0.0000 0.0000 0.0000 19.1448
#
#
#
# Elastic Compliance Matrix: (Units=1/GPa)
#
#
# Indices 1 2 3 4 5 6 
#
# 1 0.019239 -0.001709 -0.005328 0.000000 0.000000 0.000000
# 2 -0.001709 0.013902 -0.006974 0.000000 0.000000 0.000000
# 3 -0.005328 -0.006974 0.017369 0.000000 0.000000 0.000000
# 4 0.000000 0.000000 0.000000 0.056217 0.000000 0.000000
# 5 0.000000 0.000000 0.000000 0.000000 0.037487 0.000000
# 6 0.000000 0.000000 0.000000 0.000000 0.000000 0.052234
#
#
# Mechanical properties :
#
#
# Convention : Reuss Voigt Hill
#
# Bulk Modulus (GPa) = 44.47209 48.00431 46.23820
# Shear Modulus (GPa) = 21.55482 22.64566 22.10024
#
# Velocity S-wave (km/s) = 3.38860 3.47329 3.43120
# Velocity P-wave (km/s) = 6.24509 6.45427 6.35054
#
# Compressibility (1/GPa) = 0.02248601
#
# Stress axis : x y z
#
# Youngs Moduli (GPa) = 51.97767 71.93389 57.57449
#
# Poissons Ratio (x) = 0.12294 0.30679
# Poissons Ratio (y) = 0.08884 0.40153
# Poissons Ratio (z) = 0.27696 0.50168
#
# Static dielectric constant tensor:
#      x y z
#    x 1.653110 0.000000 0.000000 
#    y 0.000000 1.681420 0.000000 
#    z 0.000000 0.000000 1.704840 
# 
# From -- ./inp_files/26338.got.cif
#   From: 2010.05.17/outbox.ucp.g08.bks.cvg/sg59_14_cif.got.tgz:26338.got - 2010.06.11 16:43:56.
