data_PCOD9453912
_publ_section_title
;
Structure prediction by ZEFSAII (Michael W. Deem and Ramdas Pophale) SiO2 
 PCOD9453912
Probable space group: P B C N
;
_chemical_formula_sum "Si O2"
_cell_formula_units_Z 64
_cell_length_a 7.270492
_cell_length_b 20.859125
_cell_length_c 20.215362
_cell_angle_alpha 90.000000
_cell_angle_beta 90.000000
_cell_angle_gamma 90.000000
_cell_volume 3065.782990
_symmetry_space_group_name_H-M "P B C N"
_symmetry_group_IT_number 60
_symmetry_cell_setting 'orthorhombic'
loop_
_space_group_symop_operation_xyz
x,y,z
1/2-x,1/2-y,1/2+z
1/2+x,1/2-y,-z
-x,y,1/2-z
-x,-y,-z
1/2+x,1/2+y,1/2-z
1/2-x,1/2+y,z
x,-y,1/2+z
loop_
_atom_site_type_symbol
_atom_site_label
_atom_site_fract_x
_atom_site_fract_y
_atom_site_fract_z
Si Si1 0.261091 0.103144 0.323032
Si Si2 0.255136 0.054799 0.463915
Si Si3 0.747188 0.763871 0.315785
Si Si4 0.801968 0.388583 0.822576
Si Si5 0.850762 0.299466 0.033482
Si Si6 0.691520 0.754079 0.171202
Si Si7 0.716982 0.324945 0.448808
Si Si8 0.797517 0.573163 0.463427
O O1 0.196194 0.064872 0.387644
O O2 0.481710 0.096486 0.320739
O O3 0.208282 0.091335 0.246405
O O4 0.216301 0.177800 0.335453
O O5 0.175161 0.109052 0.513246
O O6 0.478953 0.064431 0.462966
O O7 0.220409 0.985083 0.494009
O O8 0.792149 0.688916 0.329619
O O9 0.789953 0.775619 0.238587
O O10 0.525546 0.766892 0.320859
O O11 0.826681 0.810737 0.371786
O O12 0.730435 0.423090 0.888003
O O13 0.751806 0.286094 0.102822
O O14 0.060883 0.318990 0.047045
O O15 0.855927 0.234925 0.991019
O O16 0.759897 0.357685 0.994780
#
# Coordination Sequence:
#
# PCOD9453912 Si02
#       8
#     8   8   8   8   8   8   8   8
#     4   9  16  27  45  67  88 114 151 187 221 267
#     4   9  17  29  44  65  93 121 148 183 226 266
#     4   9  17  28  43  66  93 117 145 185 231 271
#     4   9  16  27  45  67  88 114 151 187 221 267
#     4  10  18  29  47  68  90 118 151 187 226 267
#     4   9  17  28  43  66  93 117 145 185 231 271
#     4  10  18  29  47  68  90 118 151 187 226 267
#     4   9  17  29  44  65  93 121 148 183 226 266
#
# _framework density 20.875579999999999
#
# number of rings (size 3 to 8) (size 9 to 14) (size 15 to 20)
#    0.000    2.750    2.500    0.000    0.000    0.000 
#    0.000    1.250    0.000   10.500    0.000    0.000 
#    0.000    8.000    0.000    0.000    0.000    0.000 
#
# Total GULP energy -357065.993545 kJ/mol
# GULP energy per Si atom -5579.156149 kJ/mol
# Density = 2.082807 g / cm^3
# Si number density = 20.875580 Si / 1000 Ang^3
#
#
#
# Elastic Constant Matrix: (Units=GPa)
#
#
# Indices 1 2 3 4 5 6 
#
# 1 57.2945 -14.5461 -7.5546 0.0000 0.0000 0.0000
# 2 -14.5461 85.2706 62.9878 0.0000 0.0000 0.0000
# 3 -7.5546 62.9878 198.1776 0.0000 0.0000 0.0000
# 4 0.0000 0.0000 0.0000 37.8154 0.0000 0.0000
# 5 0.0000 0.0000 0.0000 0.0000 0.2948 0.0000
# 6 0.0000 0.0000 0.0000 0.0000 0.0000 14.5175
#
#
#
# Elastic Compliance Matrix: (Units=1/GPa)
#
#
# Indices 1 2 3 4 5 6 
#
# 1 0.018266 0.003400 -0.000384 0.000000 0.000000 0.000000
# 2 0.003400 0.015958 -0.004942 0.000000 0.000000 0.000000
# 3 -0.000384 -0.004942 0.006602 0.000000 0.000000 0.000000
# 4 0.000000 0.000000 0.000000 0.026444 0.000000 0.000000
# 5 0.000000 0.000000 0.000000 0.000000 3.392210 0.000000
# 6 0.000000 0.000000 0.000000 0.000000 0.000000 0.068882
#
#
# Mechanical properties :
#
#
# Convention : Reuss Voigt Hill
#
# Bulk Modulus (GPa) = 27.04688 46.94632 36.99660
# Shear Modulus (GPa) = 1.41062 30.51592 15.96327
#
# Velocity S-wave (km/s) = 0.82292 3.82750 2.76830
# Velocity P-wave (km/s) = 3.72656 6.48617 5.28950
#
# Compressibility (1/GPa) = 0.03697284
#
# Stress axis : x y z
#
# Youngs Moduli (GPa) = 54.74596 62.66345 151.46408
#
# Poissons Ratio (x) = -0.21305 0.05820
# Poissons Ratio (y) = -0.18613 0.74861
# Poissons Ratio (z) = 0.02104 0.30971
#
# Static dielectric constant tensor:
#      x y z
#    x 1.796490 0.000000 0.000000 
#    y 0.000000 1.680740 0.000000 
#    z 0.000000 0.000000 1.794000 
# 
# From -- ./inp_files/22738.got.cif
#   From: 2010.05.17/outbox.cif.g08.bks.cpg/sg60_12_cif.got.tgz:22738.got - 2010.06.03 14:59:27.
