data_PCOD9453900
_publ_section_title
;
Structure prediction by ZEFSAII (Michael W. Deem and Ramdas Pophale) SiO2 
 PCOD9453900
Probable space group: P B C N
;
_chemical_formula_sum "Si O2"
_cell_formula_units_Z 48
_cell_length_a 13.797322
_cell_length_b 21.065440
_cell_length_c 7.338657
_cell_angle_alpha 90.000000
_cell_angle_beta 90.000000
_cell_angle_gamma 90.000000
_cell_volume 2132.956137
_symmetry_space_group_name_H-M "P B C N"
_symmetry_group_IT_number 60
_symmetry_cell_setting 'orthorhombic'
loop_
_space_group_symop_operation_xyz
x,y,z
1/2-x,1/2-y,1/2+z
1/2+x,1/2-y,-z
-x,y,1/2-z
-x,-y,-z
1/2+x,1/2+y,1/2-z
1/2-x,1/2+y,z
x,-y,1/2+z
loop_
_atom_site_type_symbol
_atom_site_label
_atom_site_fract_x
_atom_site_fract_y
_atom_site_fract_z
Si Si1 0.822692 0.579680 0.584141
Si Si2 0.840777 0.825006 0.676116
Si Si3 0.242372 0.704948 0.978212
Si Si4 0.472208 0.888592 0.966516
Si Si5 0.532951 0.244107 0.446415
Si Si6 0.278655 0.940933 0.840274
O O1 0.776671 0.645568 0.655930
O O2 0.940042 0.581038 0.583156
O O3 0.800138 0.578432 0.367898
O O4 0.773994 0.516576 0.659537
O O5 0.831083 0.812234 0.891847
O O6 0.758287 0.774745 0.605540
O O7 0.937609 0.799195 0.583827
O O8 0.811958 0.895572 0.617751
O O9 0.137182 0.708382 0.078508
O O10 0.500000 0.891316 0.750000
O O11 0.467086 0.813916 0.015936
O O12 0.369031 0.922928 0.971583
O O13 0.500000 0.267252 0.250000
#
# Coordination Sequence:
#
# PCOD9453900 Si02
#       6
#     8   8   8   8   8   8
#     4   9  17  29  43  64  95 127 150 185 226 285
#     4   9  17  28  46  68  92 117 160 199 226 275
#     4   8  17  29  45  65  93 120 153 194 235 269
#     4   8  14  27  45  63  91 128 149 175 223 284
#     4   8  14  27  48  64  88 122 157 184 232 282
#     4  10  18  28  45  69  96 122 159 186 229 279
#
# _framework density 22.503976999999999
#
# number of rings (size 3 to 8) (size 9 to 14) (size 15 to 20)
#    1.000    2.333    0.000    3.500    0.000    1.333 
#    0.000    0.000    0.000    3.000    0.000    4.667 
#    0.000    0.000    0.000    0.000    0.000    0.000 
#
# Total GULP energy -267370.881567 kJ/mol
# GULP energy per Si atom -5570.226699 kJ/mol
# Density = 2.245276 g / cm^3
# Si number density = 22.503977 Si / 1000 Ang^3
#
#
#
# Elastic Constant Matrix: (Units=GPa)
#
#
# Indices 1 2 3 4 5 6 
#
# 1 41.2706 23.7446 13.3421 0.0000 0.0000 0.0000
# 2 23.7446 94.6963 22.1322 0.0000 0.0000 0.0000
# 3 13.3421 22.1322 38.0515 0.0000 0.0000 0.0000
# 4 0.0000 0.0000 0.0000 20.7326 0.0000 0.0000
# 5 0.0000 0.0000 0.0000 0.0000 23.9717 0.0000
# 6 0.0000 0.0000 0.0000 0.0000 0.0000 26.1770
#
#
#
# Elastic Compliance Matrix: (Units=1/GPa)
#
#
# Indices 1 2 3 4 5 6 
#
# 1 0.029878 -0.005837 -0.007081 0.000000 0.000000 0.000000
# 2 -0.005837 0.013362 -0.005725 0.000000 0.000000 0.000000
# 3 -0.007081 -0.005725 0.032093 0.000000 0.000000 0.000000
# 4 0.000000 0.000000 0.000000 0.048233 0.000000 0.000000
# 5 0.000000 0.000000 0.000000 0.000000 0.041716 0.000000
# 6 0.000000 0.000000 0.000000 0.000000 0.000000 0.038201
#
#
# Mechanical properties :
#
#
# Convention : Reuss Voigt Hill
#
# Bulk Modulus (GPa) = 26.28378 32.49513 29.38946
# Shear Modulus (GPa) = 19.72768 21.82955 20.77861
#
# Velocity S-wave (km/s) = 2.96401 3.11791 3.04193
# Velocity P-wave (km/s) = 4.83929 5.23764 5.04240
#
# Compressibility (1/GPa) = 0.03804628
#
# Stress axis : x y z
#
# Youngs Moduli (GPa) = 33.46990 74.84109 31.15942
#
# Poissons Ratio (x) = 0.43682 0.22065
# Poissons Ratio (y) = 0.19535 0.17839
# Poissons Ratio (z) = 0.23701 0.42847
#
# Static dielectric constant tensor:
#      x y z
#    x 1.857110 0.000000 0.000000 
#    y 0.000000 1.927910 0.000000 
#    z 0.000000 0.000000 1.923630 
# 
# From -- ./inp_files/12031.got.cif
#   From: 2010.05.17/outbox.cif.g08.bks.cpg/sg60_7_cif.got.tgz:12031.got - 2010.06.03 14:59:27.
