data_PCOD9453906
_publ_section_title
;
Structure prediction by ZEFSAII (Michael W. Deem and Ramdas Pophale) SiO2 
 PCOD9453906
Probable space group: P B C N
;
_chemical_formula_sum "Si O2"
_cell_formula_units_Z 64
_cell_length_a 19.374190
_cell_length_b 25.712739
_cell_length_c 8.014542
_cell_angle_alpha 90.000000
_cell_angle_beta 90.000000
_cell_angle_gamma 90.000000
_cell_volume 3992.552220
_symmetry_space_group_name_H-M "P B C N"
_symmetry_group_IT_number 60
_symmetry_cell_setting 'orthorhombic'
loop_
_space_group_symop_operation_xyz
x,y,z
1/2-x,1/2-y,1/2+z
1/2+x,1/2-y,-z
-x,y,1/2-z
-x,-y,-z
1/2+x,1/2+y,1/2-z
1/2-x,1/2+y,z
x,-y,1/2+z
loop_
_atom_site_type_symbol
_atom_site_label
_atom_site_fract_x
_atom_site_fract_y
_atom_site_fract_z
Si Si1 0.299296 0.687982 0.692837
Si Si2 0.183880 0.732360 0.914567
Si Si3 0.071113 0.297513 0.172567
Si Si4 0.554749 0.930943 0.988269
Si Si5 0.641577 0.840604 0.816280
Si Si6 0.571715 0.736869 0.665621
Si Si7 0.686984 0.877415 0.464837
Si Si8 0.912268 0.544600 0.871675
O O1 0.245643 0.726200 0.785929
O O2 0.313016 0.715391 0.517270
O O3 0.369351 0.693314 0.800132
O O4 0.255015 0.637395 0.640790
O O5 0.111533 0.729425 0.822273
O O6 0.188565 0.682596 0.036833
O O7 0.000000 0.318460 0.250000
O O8 0.061123 0.256169 0.023896
O O9 0.124430 0.341561 0.109786
O O10 0.580288 0.938507 0.179115
O O11 0.472094 0.929385 0.012688
O O12 0.589232 0.882420 0.896078
O O13 0.574279 0.983374 0.889238
O O14 0.599525 0.789845 0.754193
O O15 0.684700 0.863059 0.660585
O O16 0.500000 0.721720 0.750000
O O17 0.660833 0.935739 0.437865
#
# Coordination Sequence:
#
# PCOD9453906 Si02
#       8
#     8   8   8   8   8   8   8   8
#     4  10  18  32  45  63  88 114 155 193 236 281
#     4  10  18  29  44  63  85 117 147 193 233 275
#     4  10  19  29  44  64  88 117 155 197 233 275
#     4  10  20  33  46  64  93 121 157 204 230 277
#     4  10  20  31  46  66  90 119 159 191 236 275
#     4  10  21  32  46  67  88 120 155 198 236 282
#     4  10  21  30  47  64  87 123 157 198 233 278
#     4  10  21  32  46  65  89 125 161 194 246 265
#
# _framework density 16.029847
#
# number of rings (size 3 to 8) (size 9 to 14) (size 15 to 20)
#    0.000    2.000    0.000    6.750    7.000    1.000 
#    0.000    0.000    0.000    0.000    0.000    0.000 
#    0.000    0.000    0.000   10.125    0.000   10.125 
#
# Total GULP energy -356889.375242 kJ/mol
# GULP energy per Si atom -5576.396488 kJ/mol
# Density = 1.599336 g / cm^3
# Si number density = 16.029847 Si / 1000 Ang^3
#
#
#
# Elastic Constant Matrix: (Units=GPa)
#
#
# Indices 1 2 3 4 5 6 
#
# 1 56.8623 18.6050 10.5732 0.0000 0.0000 0.0000
# 2 18.6050 43.9933 12.4625 0.0000 0.0000 0.0000
# 3 10.5732 12.4625 69.7056 0.0000 0.0000 0.0000
# 4 0.0000 0.0000 0.0000 13.3466 0.0000 0.0000
# 5 0.0000 0.0000 0.0000 0.0000 22.8804 0.0000
# 6 0.0000 0.0000 0.0000 0.0000 0.0000 23.8107
#
#
#
# Elastic Compliance Matrix: (Units=1/GPa)
#
#
# Indices 1 2 3 4 5 6 
#
# 1 0.020589 -0.008240 -0.001650 0.000000 0.000000 0.000000
# 2 -0.008240 0.027241 -0.003621 0.000000 0.000000 0.000000
# 3 -0.001650 -0.003621 0.015244 0.000000 0.000000 0.000000
# 4 0.000000 0.000000 0.000000 0.074925 0.000000 0.000000
# 5 0.000000 0.000000 0.000000 0.000000 0.043706 0.000000
# 6 0.000000 0.000000 0.000000 0.000000 0.000000 0.041998
#
#
# Mechanical properties :
#
#
# Convention : Reuss Voigt Hill
#
# Bulk Modulus (GPa) = 27.73670 28.20474 27.97072
# Shear Modulus (GPa) = 19.03013 20.60223 19.81618
#
# Velocity S-wave (km/s) = 3.44927 3.58892 3.51979
# Velocity P-wave (km/s) = 5.76229 5.89975 5.83143
#
# Compressibility (1/GPa) = 0.03605331
#
# Stress axis : x y z
#
# Youngs Moduli (GPa) = 48.56924 36.70923 65.60128
#
# Poissons Ratio (x) = 0.30248 0.10823
# Poissons Ratio (y) = 0.40021 0.23751
# Poissons Ratio (z) = 0.08013 0.13291
#
# Static dielectric constant tensor:
#      x y z
#    x 1.559740 0.000000 0.000000 
#    y 0.000000 1.556630 0.000000 
#    z 0.000000 0.000000 1.600510 
# 
# From -- ./inp_files/7104.got.cif
#   From: 2010.05.17/outbox.cif.g08.bks.cpg/sg60_4_cif.got.tgz:7104.got - 2010.06.03 14:59:27.
