data_PCOD9453669
_publ_section_title
;
Structure prediction by ZEFSAII (Michael W. Deem and Ramdas Pophale) SiO2 
 PCOD9453669
Probable space group: P M M N
;
_chemical_formula_sum "Si O2"
_cell_formula_units_Z 56
_cell_length_a 15.000000
_cell_length_b 9.000000
_cell_length_c 21.000000
_cell_angle_alpha 90.000000
_cell_angle_beta 90.000000
_cell_angle_gamma 90.000000
_cell_volume 2835.000000
_symmetry_space_group_name_H-M "P M M N"
_symmetry_group_IT_number 59
_space_group.IT_coordinate_system_code '2'
_symmetry_cell_setting 'orthorhombic'
loop_
_space_group_symop_operation_xyz
x,y,z
1/2-x,1/2-y,z
1/2+x,-y,-z
-x,1/2+y,-z
-x,-y,-z
1/2+x,1/2+y,-z
1/2-x,y,z
x,1/2-y,z
loop_
_atom_site_type_symbol
_atom_site_label
_atom_site_fract_x
_atom_site_fract_y
_atom_site_fract_z
Si Si1 0.354203 0.072901 0.407256
Si Si2 0.150227 0.422296 0.884819
Si Si3 0.596577 0.427332 0.990605
Si Si4 0.520808 0.426137 0.214600
Si Si5 0.978509 0.927673 0.347425
Si Si6 0.853048 0.425455 0.843612
Si Si7 0.644469 0.425410 0.454800
O O1 0.250000 0.047789 0.391665
O O2 0.370793 0.250000 0.406384
O O3 0.422268 0.988502 0.361645
O O4 0.369946 0.007497 0.477961
O O5 0.250000 0.426768 0.857654
O O6 0.120679 0.250000 0.887938
O O7 0.152401 0.491936 0.954955
O O8 0.082996 0.516570 0.842457
O O9 0.594215 0.250000 0.001209
O O10 0.500000 0.500000 0.000000
O O11 0.630627 0.451897 0.918952
O O12 0.527012 0.250000 0.222551
O O13 0.548577 0.510469 0.278687
O O14 0.421117 0.475743 0.195996
O O15 0.976019 0.750000 0.349595
O O16 0.914901 0.997862 0.401149
O O17 0.750000 0.454061 0.828658
O O18 0.871731 0.250000 0.832016
O O19 0.750000 0.437590 0.439839
O O20 0.622684 0.250000 0.460513
#
# Coordination Sequence:
#
# PCOD9453669 Si02
#       7
#     8   8   8   8   8   8   8
#     4  10  21  39  64  94 127 161 202 251 300 353
#     4  11  24  42  64  90 122 160 203 251 305 365
#     4  11  21  36  63  94 125 159 198 248 305 360
#     4  12  26  43  63  87 119 160 205 255 304 361
#     4  12  25  41  63  88 122 164 205 250 302 362
#     4  10  22  41  64  89 121 160 201 247 302 363
#     4  10  21  39  64  94 127 161 201 249 300 356
#
# _framework density 19.753086
#
# number of rings (size 3 to 8) (size 9 to 14) (size 15 to 20)
#    0.000    1.143    1.429    5.143    0.000    5.429 
#    0.000    0.000    0.000    0.000    0.000    0.000 
#    0.000    0.000    0.000    0.000    0.000    0.000 
#
# Total GULP energy -313241.171643 kJ/mol
# GULP energy per Si atom -5593.592351 kJ/mol
# Density = 1.970813 g / cm^3
# Si number density = 19.753086 Si / 1000 Ang^3
#
#
#
# Elastic Constant Matrix: (Units=GPa)
#
#
# Indices 1 2 3 4 5 6 
#
# 1 57.3427 24.4919 0.8820 0.0000 0.0000 0.0000
# 2 24.4919 121.0298 13.1448 0.0000 0.0000 0.0000
# 3 0.8820 13.1448 34.6914 0.0000 0.0000 0.0000
# 4 0.0000 0.0000 0.0000 36.7451 0.0000 0.0000
# 5 0.0000 0.0000 0.0000 0.0000 -11.3675 0.0000
# 6 0.0000 0.0000 0.0000 0.0000 0.0000 17.4590
#
#
#
# Elastic Compliance Matrix: (Units=1/GPa)
#
#
# Indices 1 2 3 4 5 6 
#
# 1 0.019124 -0.003981 0.001022 0.000000 0.000000 0.000000
# 2 -0.003981 0.009446 -0.003478 0.000000 0.000000 0.000000
# 3 0.001022 -0.003478 0.030117 0.000000 0.000000 0.000000
# 4 0.000000 0.000000 0.000000 0.027214 0.000000 0.000000
# 5 0.000000 0.000000 0.000000 0.000000 -0.087970 0.000000
# 6 0.000000 0.000000 0.000000 0.000000 0.000000 0.057277
#
#
# Mechanical properties :
#
#
# Convention : Reuss Voigt Hill
#
# Bulk Modulus (GPa) = 21.82762 32.23347 27.03054
# Shear Modulus (GPa) = 59.98646 20.20369 40.09508
#
# Velocity S-wave (km/s) = 5.51671 3.20161 4.51023
# Velocity P-wave (km/s) = 7.18700 5.47912 6.39037
#
# Compressibility (1/GPa) = 0.04581352
#
# Stress axis : x y z
#
# Youngs Moduli (GPa) = 52.29146 105.86794 33.20347
#
# Poissons Ratio (x) = 0.42145 -0.03394
# Poissons Ratio (y) = 0.20817 0.11548
# Poissons Ratio (z) = -0.05345 0.36819
#
# Static dielectric constant tensor:
#      x y z
#    x 1.710880 0.000000 0.000000 
#    y 0.000000 1.651890 0.000000 
#    z 0.000000 0.000000 1.725180 
# 
# From -- ./inp_files/29160.got.cif
#   From: 2010.05.17/outbox.ucp.g08.bks.cvg/sg59_15_cif.got.tgz:29160.got - 2010.06.11 16:43:56.
