data_PCOD9453888
_publ_section_title
;
Structure prediction by ZEFSAII (Michael W. Deem and Ramdas Pophale) SiO2 
 PCOD9453888
Probable space group: P B C N
;
_chemical_formula_sum "Si O2"
_cell_formula_units_Z 44
_cell_length_a 8.761261
_cell_length_b 14.527213
_cell_length_c 16.154925
_cell_angle_alpha 90.000000
_cell_angle_beta 90.000000
_cell_angle_gamma 90.000000
_cell_volume 2056.145619
_symmetry_space_group_name_H-M "P B C N"
_symmetry_group_IT_number 60
_symmetry_cell_setting 'orthorhombic'
loop_
_space_group_symop_operation_xyz
x,y,z
1/2-x,1/2-y,1/2+z
1/2+x,1/2-y,-z
-x,y,1/2-z
-x,-y,-z
1/2+x,1/2+y,1/2-z
1/2-x,1/2+y,z
x,-y,1/2+z
loop_
_atom_site_type_symbol
_atom_site_label
_atom_site_fract_x
_atom_site_fract_y
_atom_site_fract_z
Si Si1 0.742375 0.713782 0.641119
Si Si2 0.316706 0.976493 0.667041
Si Si3 0.500000 0.866119 0.250000
Si Si4 0.000000 0.042546 0.250000
Si Si5 0.207278 0.931536 0.494542
Si Si6 0.000000 0.313019 0.750000
Si Si7 0.091630 0.877986 0.922746
O O1 0.868556 0.696387 0.711403
O O2 0.740016 0.619157 0.590691
O O3 0.586667 0.749394 0.682987
O O4 0.802585 0.789679 0.576350
O O5 0.424207 0.063312 0.684674
O O6 0.147701 0.003011 0.703725
O O7 0.319507 0.948935 0.570808
O O8 0.375853 0.884597 0.713143
O O9 0.929232 0.098084 0.173745
O O10 0.073646 0.869644 0.536041
O O11 0.158010 0.033763 0.468870
#
# Coordination Sequence:
#
# PCOD9453888 Si02
#       7
#     8   8   4   4   8   4   8
#     4  12  26  43  71 103 141 182 241 287 347 419
#     4  10  23  46  70  98 139 182 234 288 356 408
#     4  11  27  44  69 107 130 190 238 286 347 431
#     4  10  17  41  77  85 134 182 219 281 345 411
#     4  10  25  41  70  99 136 185 223 290 362 405
#     4  11  26  43  66 102 140 188 233 293 336 424
#     4  10  22  43  64 100 134 179 224 284 344 416
#
# _framework density 21.399260999999999
#
# number of rings (size 3 to 8) (size 9 to 14) (size 15 to 20)
#    0.000    1.455    1.818    1.636    7.636    8.000 
#    0.000    0.000    0.000    0.000    0.000    0.000 
#    0.000    0.000    0.000    0.000    0.000    0.000 
#
# Total GULP energy -245447.951901 kJ/mol
# GULP energy per Si atom -5578.362543 kJ/mol
# Density = 2.135056 g / cm^3
# Si number density = 21.399261 Si / 1000 Ang^3
#
#
#
# Elastic Constant Matrix: (Units=GPa)
#
#
# Indices 1 2 3 4 5 6 
#
# 1 67.2952 26.3547 9.7221 0.0000 0.0000 0.0000
# 2 26.3547 59.6644 -1.5695 0.0000 0.0000 0.0000
# 3 9.7221 -1.5695 67.6575 0.0000 0.0000 0.0000
# 4 0.0000 0.0000 0.0000 14.0133 0.0000 0.0000
# 5 0.0000 0.0000 0.0000 0.0000 19.7793 0.0000
# 6 0.0000 0.0000 0.0000 0.0000 0.0000 19.1421
#
#
#
# Elastic Compliance Matrix: (Units=1/GPa)
#
#
# Indices 1 2 3 4 5 6 
#
# 1 0.018502 -0.008247 -0.002850 0.000000 0.000000 0.000000
# 2 -0.008247 0.020447 0.001659 0.000000 0.000000 0.000000
# 3 -0.002850 0.001659 0.015228 0.000000 0.000000 0.000000
# 4 0.000000 0.000000 0.000000 0.071361 0.000000 0.000000
# 5 0.000000 0.000000 0.000000 0.000000 0.050558 0.000000
# 6 0.000000 0.000000 0.000000 0.000000 0.000000 0.052241
#
#
# Mechanical properties :
#
#
# Convention : Reuss Voigt Hill
#
# Bulk Modulus (GPa) = 28.32761 29.29239 28.81000
# Shear Modulus (GPa) = 19.30655 21.26092 20.28373
#
# Velocity S-wave (km/s) = 3.00693 3.15546 3.08209
# Velocity P-wave (km/s) = 5.03209 5.19559 5.11449
#
# Compressibility (1/GPa) = 0.03530125
#
# Stress axis : x y z
#
# Youngs Moduli (GPa) = 54.04956 48.90681 65.66697
#
# Poissons Ratio (x) = 0.40335 0.18715
# Poissons Ratio (y) = 0.44577 -0.10897
# Poissons Ratio (z) = 0.15404 -0.08116
#
# Static dielectric constant tensor:
#      x y z
#    x 1.786960 0.000000 0.000000 
#    y 0.000000 1.751700 0.000000 
#    z 0.000000 0.000000 1.775590 
# 
# From -- ./inp_files/19254.got.cif
#   From: 2010.05.17/outbox.cif.g08.bks.cpg/sg60_10_cif.got.tgz:19254.got - 2010.06.03 14:59:27.
