data_PCOD9453967
_publ_section_title
;
Structure prediction by ZEFSAII (Michael W. Deem and Ramdas Pophale) SiO2 
 PCOD9453967
Probable space group: P B C N
;
_chemical_formula_sum "Si O2"
_cell_formula_units_Z 60
_cell_length_a 21.758919
_cell_length_b 19.426062
_cell_length_c 5.365157
_cell_angle_alpha 90.000000
_cell_angle_beta 90.000000
_cell_angle_gamma 90.000000
_cell_volume 2267.798800
_symmetry_space_group_name_H-M "P B C N"
_symmetry_group_IT_number 60
_symmetry_cell_setting 'orthorhombic'
loop_
_space_group_symop_operation_xyz
x,y,z
1/2-x,1/2-y,1/2+z
1/2+x,1/2-y,-z
-x,y,1/2-z
-x,-y,-z
1/2+x,1/2+y,1/2-z
1/2-x,1/2+y,z
x,-y,1/2+z
loop_
_atom_site_type_symbol
_atom_site_label
_atom_site_fract_x
_atom_site_fract_y
_atom_site_fract_z
Si Si1 0.183859 0.207282 0.188950
Si Si2 0.000000 0.230602 0.250000
Si Si3 0.428013 0.971351 0.527104
Si Si4 0.434546 0.187348 0.108499
Si Si5 0.604246 0.474089 0.175738
Si Si6 0.252424 0.483416 0.927516
Si Si7 0.251667 0.161138 0.684393
Si Si8 0.079554 0.176532 0.880052
O O1 0.209628 0.187476 0.456113
O O2 0.189257 0.289782 0.172466
O O3 0.222299 0.176217 0.954026
O O4 0.118503 0.175026 0.136930
O O5 0.987529 0.186162 0.496423
O O6 0.052420 0.284424 0.332417
O O7 0.416561 0.891952 0.596029
O O8 0.500000 0.000000 0.500000
O O9 0.401582 0.014971 0.754862
O O10 0.500000 0.183004 0.250000
O O11 0.401848 0.251672 0.245787
O O12 0.575742 0.516010 0.403010
O O13 0.674801 0.499630 0.123771
O O14 0.597373 0.394127 0.248757
O O15 0.229790 0.464295 0.647288
O O16 0.241427 0.417487 0.109277
#
# Coordination Sequence:
#
# PCOD9453967 Si02
#       8
#     8   4   8   8   8   8   8   8
#     4  10  21  36  62  89 126 155 195 264 323 394
#     4  10  24  40  60  84 128 172 226 274 328 374
#     4  10  18  31  58  86 112 141 192 256 298 367
#     4  10  21  37  58  88 121 162 206 259 319 369
#     4  10  21  36  59  85 116 161 220 272 315 375
#     4  10  18  31  55  85 116 155 199 250 300 373
#     4  10  20  37  60  95 121 153 204 257 326 383
#     4  11  24  39  62  90 130 169 222 274 329 388
#
# _framework density 26.457370999999998
#
# number of rings (size 3 to 8) (size 9 to 14) (size 15 to 20)
#    0.000    1.867    1.333    4.800    5.600    0.000 
#    0.000    0.667    0.000    1.600    0.000    0.000 
#    0.000    0.000    0.000    0.000    0.000    0.000 
#
# Total GULP energy -334559.061127 kJ/mol
# GULP energy per Si atom -5575.984352 kJ/mol
# Density = 2.639715 g / cm^3
# Si number density = 26.457371 Si / 1000 Ang^3
#
#
#
# Elastic Constant Matrix: (Units=GPa)
#
#
# Indices 1 2 3 4 5 6 
#
# 1 40.4634 19.7886 9.3898 0.0000 0.0000 0.0000
# 2 19.7886 141.9630 18.8397 0.0000 0.0000 0.0000
# 3 9.3898 18.8397 191.4708 0.0000 0.0000 0.0000
# 4 0.0000 0.0000 0.0000 42.6826 0.0000 0.0000
# 5 0.0000 0.0000 0.0000 0.0000 -8.5887 0.0000
# 6 0.0000 0.0000 0.0000 0.0000 0.0000 16.7069
#
#
#
# Elastic Compliance Matrix: (Units=1/GPa)
#
#
# Indices 1 2 3 4 5 6 
#
# 1 0.026693 -0.003594 -0.000955 0.000000 0.000000 0.000000
# 2 -0.003594 0.007621 -0.000574 0.000000 0.000000 0.000000
# 3 -0.000955 -0.000574 0.005326 0.000000 0.000000 0.000000
# 4 0.000000 0.000000 0.000000 0.023429 0.000000 0.000000
# 5 0.000000 0.000000 0.000000 0.000000 -0.116432 0.000000
# 6 0.000000 0.000000 0.000000 0.000000 0.000000 0.059855
#
#
# Mechanical properties :
#
#
# Convention : Reuss Voigt Hill
#
# Bulk Modulus (GPa) = 34.02036 52.21482 43.11759
# Shear Modulus (GPa) = 188.41704 31.88544 110.15124
#
# Velocity S-wave (km/s) = 8.44807 3.47531 6.45940
# Velocity P-wave (km/s) = 10.39454 5.99016 8.48317
#
# Compressibility (1/GPa) = 0.02939416
#
# Stress axis : x y z
#
# Youngs Moduli (GPa) = 37.46290 131.21298 187.75737
#
# Poissons Ratio (x) = 0.47158 0.17938
# Poissons Ratio (y) = 0.13464 0.10770
# Poissons Ratio (z) = 0.03579 0.07527
#
# Static dielectric constant tensor:
#      x y z
#    x 2.054110 0.000000 0.000000 
#    y 0.000000 2.201410 0.000000 
#    z 0.000000 0.000000 2.219310 
# 
# From -- ./inp_files/2611.got.cif
#   From: 2010.05.17/outbox.cif.g08.bks.cpg/sg60_2_cif.got.tgz:2611.got - 2010.06.03 14:59:27.
