data_PCOD9453285
_publ_section_title
;
Structure prediction by ZEFSAII (Michael W. Deem and Ramdas Pophale) SiO2 
 PCOD9453285
Probable space group: P M M N
;
_chemical_formula_sum "Si O2"
_cell_formula_units_Z 48
_cell_length_a 7.398567
_cell_length_b 14.365501
_cell_length_c 21.288199
_cell_angle_alpha 90.000000
_cell_angle_beta 90.000000
_cell_angle_gamma 90.000000
_cell_volume 2262.597532
_symmetry_space_group_name_H-M "P M M N"
_symmetry_group_IT_number 59
_space_group.IT_coordinate_system_code '2'
_symmetry_cell_setting 'orthorhombic'
loop_
_space_group_symop_operation_xyz
x,y,z
1/2-x,1/2-y,z
1/2+x,-y,-z
-x,1/2+y,-z
-x,-y,-z
1/2+x,1/2+y,-z
1/2-x,y,z
x,1/2-y,z
loop_
_atom_site_type_symbol
_atom_site_label
_atom_site_fract_x
_atom_site_fract_y
_atom_site_fract_z
Si Si1 0.036683 0.891719 0.013226
Si Si2 0.529181 0.143300 0.720404
Si Si3 0.028517 0.558855 0.146591
Si Si4 0.533437 0.854598 0.529269
Si Si5 0.957074 0.849118 0.875571
Si Si6 0.034037 0.963591 0.401885
O O1 0.250000 0.871076 0.011618
O O2 0.972180 0.882058 0.084964
O O3 0.955185 0.846418 0.951531
O O4 0.000000 0.000000 0.000000
O O5 0.750000 0.142681 0.719852
O O6 0.472880 0.250000 0.711505
O O7 0.466241 0.078664 0.663184
O O8 0.474462 0.104539 0.788197
O O9 0.250000 0.556453 0.143452
O O10 0.966120 0.450773 0.141949
O O11 0.750000 0.851155 0.536895
O O12 0.463695 0.750000 0.538278
O O13 0.498842 0.892069 0.458991
O O14 0.463956 0.935672 0.575621
O O15 0.750000 0.850454 0.853074
O O16 0.038395 0.750000 0.854268
O O17 0.250000 0.972769 0.395616
#
# Coordination Sequence:
#
# PCOD9453285 Si02
#       6
#     8   8   8   8   8   8
#     4   9  16  27  44  64  86 112 144 182 222 263
#     4   9  16  26  42  64  88 112 141 180 220 257
#     4   8  15  27  41  60  86 112 139 175 219 263
#     4   9  17  29  45  66  93 120 144 177 221 261
#     4   9  17  29  44  62  86 115 146 182 224 266
#     4   9  17  29  46  68  91 116 149 184 216 257
#
# _framework density 21.214555000000001
#
# number of rings (size 3 to 8) (size 9 to 14) (size 15 to 20)
#    0.000    3.167    0.000    2.000    0.000    2.000 
#    0.000    2.500    0.000   10.000    0.000    2.333 
#    0.000    8.000    0.000    0.000    0.000    0.000 
#
# Total GULP energy -267503.418115 kJ/mol
# GULP energy per Si atom -5572.987877 kJ/mol
# Density = 2.116627 g / cm^3
# Si number density = 21.214555 Si / 1000 Ang^3
#
#
#
# Elastic Constant Matrix: (Units=GPa)
#
#
# Indices 1 2 3 4 5 6 
#
# 1 73.2321 -5.9644 -3.0303 0.0000 0.0000 0.0000
# 2 -5.9644 121.5577 56.5404 0.0000 0.0000 0.0000
# 3 -3.0303 56.5404 141.8658 0.0000 0.0000 0.0000
# 4 0.0000 0.0000 0.0000 10.4142 0.0000 0.0000
# 5 0.0000 0.0000 0.0000 0.0000 11.2964 0.0000
# 6 0.0000 0.0000 0.0000 0.0000 0.0000 -0.5815
#
#
#
# Elastic Compliance Matrix: (Units=1/GPa)
#
#
# Indices 1 2 3 4 5 6 
#
# 1 0.013710 0.000659 0.000030 0.000000 0.000000 0.000000
# 2 0.000659 0.010130 -0.004023 0.000000 0.000000 0.000000
# 3 0.000030 -0.004023 0.008653 0.000000 0.000000 0.000000
# 4 0.000000 0.000000 0.000000 0.096023 0.000000 0.000000
# 5 0.000000 0.000000 0.000000 0.000000 0.088523 0.000000
# 6 0.000000 0.000000 0.000000 0.000000 0.000000 -1.719743
#
#
# Mechanical properties :
#
#
# Convention : Reuss Voigt Hill
#
# Bulk Modulus (GPa) = 38.72267 47.97189 43.34728
# Shear Modulus (GPa) = -3.36151 23.49982 10.06916
#
# Velocity S-wave (km/s) = -1.26015 3.33186 2.18097
# Velocity P-wave (km/s) = 4.02184 6.12074 5.17874
#
# Compressibility (1/GPa) = 0.02582467
#
# Stress axis : x y z
#
# Youngs Moduli (GPa) = 72.93885 98.71436 115.56609
#
# Poissons Ratio (x) = -0.06501 -0.00351
# Poissons Ratio (y) = -0.04804 0.46496
# Poissons Ratio (z) = -0.00222 0.39716
#
# Static dielectric constant tensor:
#      x y z
#    x 1.848550 0.000000 0.000000 
#    y 0.000000 1.786260 0.000000 
#    z 0.000000 0.000000 1.728340 
# 
# From -- ./inp_files/25479.got.cif
#   From: 2010.05.17/outbox.cif.g08.bks.cpg/sg59_13_cif.got.tgz:25479.got - 2010.06.03 14:40:33.
