data_PCOD9453753
_publ_section_title
;
Structure prediction by ZEFSAII (Michael W. Deem and Ramdas Pophale) SiO2 
 PCOD9453753
Probable space group: P B C N
;
_chemical_formula_sum "Si O2"
_cell_formula_units_Z 52
_cell_length_a 16.726325
_cell_length_b 7.104209
_cell_length_c 17.265247
_cell_angle_alpha 90.000000
_cell_angle_beta 90.000000
_cell_angle_gamma 90.000000
_cell_volume 2051.582833
_symmetry_space_group_name_H-M "P B C N"
_symmetry_group_IT_number 60
_symmetry_cell_setting 'orthorhombic'
loop_
_space_group_symop_operation_xyz
x,y,z
1/2-x,1/2-y,1/2+z
1/2+x,1/2-y,-z
-x,y,1/2-z
-x,-y,-z
1/2+x,1/2+y,1/2-z
1/2-x,1/2+y,z
x,-y,1/2+z
loop_
_atom_site_type_symbol
_atom_site_label
_atom_site_fract_x
_atom_site_fract_y
_atom_site_fract_z
Si Si1 0.132622 0.318582 0.530714
Si Si2 0.922453 0.634859 0.626660
Si Si3 0.163229 0.690355 0.719615
Si Si4 0.455905 0.704248 0.909214
Si Si5 0.000000 0.915152 0.250000
Si Si6 0.400463 0.758868 0.067225
Si Si7 0.834452 0.255119 0.810637
O O1 0.137320 0.287546 0.439369
O O2 0.137955 0.544875 0.538833
O O3 0.183889 0.221304 0.597906
O O4 0.042845 0.262972 0.557689
O O5 0.897325 0.711966 0.710029
O O6 0.921665 0.403514 0.624913
O O7 0.011946 0.685971 0.600290
O O8 0.143637 0.815076 0.644023
O O9 0.151032 0.476962 0.694271
O O10 0.256082 0.710572 0.738887
O O11 0.467919 0.554942 0.840713
O O12 0.409389 0.642757 0.987551
O O13 0.915343 0.831446 0.279081
#
# Coordination Sequence:
#
# PCOD9453753 Si02
#       7
#     8   8   8   8   4   8   8
#     4   7  14  27  44  72  99 127 164 213 254 296
#     4   9  14  26  49  76  99 128 172 213 248 302
#     4  11  20  32  50  79 107 130 172 217 266 300
#     4   8  13  24  47  75  95 126 173 214 241 299
#     4  10  16  32  56  72  98 142 182 204 250 316
#     4   8  15  26  47  74 101 126 168 213 260 293
#     4  10  21  34  52  74 105 136 172 216 264 307
#
# _framework density 25.346285000000002
#
# number of rings (size 3 to 8) (size 9 to 14) (size 15 to 20)
#    0.000    3.077    1.538    3.231    0.000    0.000 
#    2.769    0.000    3.385    0.000    0.000    3.231 
#    0.000    0.000    0.000    0.000    0.000    0.000 
#
# Total GULP energy -289684.619817 kJ/mol
# GULP energy per Si atom -5570.858073 kJ/mol
# Density = 2.528860 g / cm^3
# Si number density = 25.346285 Si / 1000 Ang^3
#
#
#
# Elastic Constant Matrix: (Units=GPa)
#
#
# Indices 1 2 3 4 5 6 
#
# 1 83.5564 6.5190 27.0085 0.0000 0.0000 0.0000
# 2 6.5190 76.7166 13.6042 0.0000 0.0000 0.0000
# 3 27.0085 13.6042 180.4233 0.0000 0.0000 0.0000
# 4 0.0000 0.0000 0.0000 878.6877 0.0000 0.0000
# 5 0.0000 0.0000 0.0000 0.0000 23.3201 0.0000
# 6 0.0000 0.0000 0.0000 0.0000 0.0000 5.0299
#
#
#
# Elastic Compliance Matrix: (Units=1/GPa)
#
#
# Indices 1 2 3 4 5 6 
#
# 1 0.012619 -0.000747 -0.001833 0.000000 0.000000 0.000000
# 2 -0.000747 0.013256 -0.000888 0.000000 0.000000 0.000000
# 3 -0.001833 -0.000888 0.005884 0.000000 0.000000 0.000000
# 4 0.000000 0.000000 0.000000 0.001138 0.000000 0.000000
# 5 0.000000 0.000000 0.000000 0.000000 0.042881 0.000000
# 6 0.000000 0.000000 0.000000 0.000000 0.000000 0.198810
#
#
# Mechanical properties :
#
#
# Convention : Reuss Voigt Hill
#
# Bulk Modulus (GPa) = 40.28486 48.32885 44.30685
# Shear Modulus (GPa) = 17.25345 200.97854 109.11600
#
# Velocity S-wave (km/s) = 2.61187 8.91433 6.56838
# Velocity P-wave (km/s) = 5.00241 11.18313 8.66275
#
# Compressibility (1/GPa) = 0.02482322
#
# Stress axis : x y z
#
# Youngs Moduli (GPa) = 79.24790 75.43812 169.95876
#
# Poissons Ratio (x) = 0.05638 0.31147
# Poissons Ratio (y) = 0.05922 0.15086
# Poissons Ratio (z) = 0.14523 0.06696
#
# Static dielectric constant tensor:
#      x y z
#    x 2.013630 0.000000 0.000000 
#    y 0.000000 2.036060 0.000000 
#    z 0.000000 0.000000 2.082670 
# 
# From -- ./inp_files/20616.got.cif
#   From: 2010.05.17/outbox.cif.g08.bks.cpg/sg60_11_cif.got.tgz:20616.got - 2010.06.03 14:59:27.
