data_PCOD9453245
_publ_section_title
;
Structure prediction by ZEFSAII (Michael W. Deem and Ramdas Pophale) SiO2 
 PCOD9453245
Probable space group: P M M N
;
_chemical_formula_sum "Si O2"
_cell_formula_units_Z 48
_cell_length_a 7.417894
_cell_length_b 22.051451
_cell_length_c 16.103317
_cell_angle_alpha 90.000000
_cell_angle_beta 90.000000
_cell_angle_gamma 90.000000
_cell_volume 2634.105329
_symmetry_space_group_name_H-M "P M M N"
_symmetry_group_IT_number 59
_space_group.IT_coordinate_system_code '2'
_symmetry_cell_setting 'orthorhombic'
loop_
_space_group_symop_operation_xyz
x,y,z
1/2-x,1/2-y,z
1/2+x,-y,-z
-x,1/2+y,-z
-x,-y,-z
1/2+x,1/2+y,-z
1/2-x,y,z
x,1/2-y,z
loop_
_atom_site_type_symbol
_atom_site_label
_atom_site_fract_x
_atom_site_fract_y
_atom_site_fract_z
Si Si1 0.462026 0.450061 0.880212
Si Si2 0.033463 0.402092 0.345032
Si Si3 0.029444 0.319523 0.193761
Si Si4 0.534627 0.929477 0.478408
Si Si5 0.968292 0.914686 0.942583
Si Si6 0.465893 0.042915 0.698119
O O1 0.250000 0.435644 0.876550
O O2 0.479458 0.521715 0.899959
O O3 0.538006 0.438695 0.788449
O O4 0.534910 0.416832 0.962332
O O5 0.250000 0.396645 0.348120
O O6 0.968734 0.354588 0.276730
O O7 0.965602 0.394899 0.439808
O O8 0.995861 0.470848 0.315194
O O9 0.250000 0.319972 0.194240
O O10 0.971828 0.250000 0.191060
O O11 0.972427 0.359059 0.114285
O O12 0.750000 0.920050 0.475283
O O13 0.464718 0.922857 0.384414
O O14 0.500000 0.000000 0.500000
O O15 0.750000 0.914207 0.944704
O O16 0.250000 0.051166 0.699559
#
# Coordination Sequence:
#
# PCOD9453245 Si02
#       6
#     8   8   8   8   8   8
#     4   9  16  24  37  55  75  97 119 146 186 228
#     4   9  15  24  37  52  71  95 123 150 175 209
#     4   9  16  25  38  55  73  95 126 160 186 210
#     4   8  14  22  33  50  71  94 116 139 171 210
#     4   9  16  26  38  53  72  96 124 153 183 217
#     4   9  15  23  35  53  76  97 115 140 180 224
#
# _framework density 18.222505999999999
#
# number of rings (size 3 to 8) (size 9 to 14) (size 15 to 20)
#    0.000    3.167    1.667    0.000    0.000    0.000 
#    0.000    0.000    0.000    2.000    0.000    1.167 
#    0.000    9.333    0.000    0.000    0.000   53.667 
#
# Total GULP energy -267258.920146 kJ/mol
# GULP energy per Si atom -5567.894170 kJ/mol
# Density = 1.818103 g / cm^3
# Si number density = 18.222506 Si / 1000 Ang^3
#
#
#
# Elastic Constant Matrix: (Units=GPa)
#
#
# Indices 1 2 3 4 5 6 
#
# 1 61.1134 -0.4007 8.7850 0.0000 0.0000 0.0000
# 2 -0.4007 71.1616 67.4019 0.0000 0.0000 0.0000
# 3 8.7850 67.4019 239.2888 0.0000 0.0000 0.0000
# 4 0.0000 0.0000 0.0000 10.2167 0.0000 0.0000
# 5 0.0000 0.0000 0.0000 0.0000 2.3111 0.0000
# 6 0.0000 0.0000 0.0000 0.0000 0.0000 7.4656
#
#
#
# Elastic Compliance Matrix: (Units=1/GPa)
#
#
# Indices 1 2 3 4 5 6 
#
# 1 0.016493 0.000909 -0.000861 0.000000 0.000000 0.000000
# 2 0.000909 0.019216 -0.005446 0.000000 0.000000 0.000000
# 3 -0.000861 -0.005446 0.005745 0.000000 0.000000 0.000000
# 4 0.000000 0.000000 0.000000 0.097879 0.000000 0.000000
# 5 0.000000 0.000000 0.000000 0.000000 0.432704 0.000000
# 6 0.000000 0.000000 0.000000 0.000000 0.000000 0.133948
#
#
# Mechanical properties :
#
#
# Convention : Reuss Voigt Hill
#
# Bulk Modulus (GPa) = 32.61995 58.12623 45.37309
# Shear Modulus (GPa) = 6.87758 23.71718 15.29738
#
# Velocity S-wave (km/s) = 1.94484 3.61159 2.90052
# Velocity P-wave (km/s) = 4.79406 7.02558 6.01422
#
# Compressibility (1/GPa) = 0.03065608
#
# Stress axis : x y z
#
# Youngs Moduli (GPa) = 60.63245 52.04014 174.07366
#
# Poissons Ratio (x) = -0.04730 0.14996
# Poissons Ratio (y) = -0.05511 0.94801
# Poissons Ratio (z) = 0.05223 0.28341
#
# Static dielectric constant tensor:
#      x y z
#    x 1.539920 0.000000 0.000000 
#    y 0.000000 1.557390 0.000000 
#    z 0.000000 0.000000 1.713170 
# 
# From -- ./inp_files/16126.got.cif
#   From: 2010.05.17/outbox.cif.g08.bks.cpg/sg59_9_cif.got.tgz:16126.got - 2010.06.03 14:40:33.
