data_PCOD9453255
_publ_section_title
;
Structure prediction by ZEFSAII (Michael W. Deem and Ramdas Pophale) SiO2 
 PCOD9453255
Probable space group: P M M N
;
_chemical_formula_sum "Si O2"
_cell_formula_units_Z 48
_cell_length_a 18.554074
_cell_length_b 7.355377
_cell_length_c 13.993081
_cell_angle_alpha 90.000000
_cell_angle_beta 90.000000
_cell_angle_gamma 90.000000
_cell_volume 1909.666677
_symmetry_space_group_name_H-M "P M M N"
_symmetry_group_IT_number 59
_space_group.IT_coordinate_system_code '2'
_symmetry_cell_setting 'orthorhombic'
loop_
_space_group_symop_operation_xyz
x,y,z
1/2-x,1/2-y,z
1/2+x,-y,-z
-x,1/2+y,-z
-x,-y,-z
1/2+x,1/2+y,-z
1/2-x,y,z
x,1/2-y,z
loop_
_atom_site_type_symbol
_atom_site_label
_atom_site_fract_x
_atom_site_fract_y
_atom_site_fract_z
Si Si1 0.829865 0.472083 0.427323
Si Si2 0.327456 0.034768 0.936807
Si Si3 0.132366 0.528896 0.156642
Si Si4 0.521062 0.533921 0.109581
Si Si5 0.985540 0.035188 0.388352
Si Si6 0.644720 0.455906 0.643332
O O1 0.750000 0.524536 0.392071
O O2 0.832962 0.250000 0.428300
O O3 0.903108 0.530056 0.372254
O O4 0.836974 0.534263 0.538940
O O5 0.250000 0.958212 0.909243
O O6 0.326840 0.250000 0.918169
O O7 0.336825 0.016895 0.052133
O O8 0.398062 0.960150 0.883190
O O9 0.132760 0.750000 0.159204
O O10 0.168727 0.464860 0.254918
O O11 0.049741 0.459430 0.159332
O O12 0.523459 0.750000 0.128216
O O13 0.500000 0.500000 0.000000
O O14 0.987979 0.250000 0.368750
O O15 0.000000 0.000000 0.500000
O O16 0.057667 0.948829 0.347121
O O17 0.671429 0.250000 0.638739
#
# Coordination Sequence:
#
# PCOD9453255 Si02
#       6
#     8   8   8   8   8   8
#     4   8  14  25  41  60  80 104 135 167 200 242
#     4   9  17  28  42  61  85 112 141 175 215 256
#     4   9  17  28  43  63  85 111 142 175 210 250
#     4   8  14  26  42  58  78 106 140 173 204 242
#     4   9  16  27  44  62  81 109 143 176 207 244
#     4   9  17  28  43  63  86 110 137 172 211 252
#
# _framework density 25.135276999999999
#
# number of rings (size 3 to 8) (size 9 to 14) (size 15 to 20)
#    0.000    3.333    0.000    1.500    0.000    1.667 
#    0.000    1.667    0.000   13.500    0.000    2.333 
#    0.000    0.000    0.000    0.000    0.000    0.000 
#
# Total GULP energy -267437.885290 kJ/mol
# GULP energy per Si atom -5571.622610 kJ/mol
# Density = 2.507807 g / cm^3
# Si number density = 25.135277 Si / 1000 Ang^3
#
#
#
# Elastic Constant Matrix: (Units=GPa)
#
#
# Indices 1 2 3 4 5 6 
#
# 1 241.3393 14.3345 -6.2396 0.0000 0.0000 0.0000
# 2 14.3345 111.3506 -9.1661 0.0000 0.0000 0.0000
# 3 -6.2396 -9.1661 34.9852 0.0000 0.0000 0.0000
# 4 0.0000 0.0000 0.0000 7.9468 0.0000 0.0000
# 5 0.0000 0.0000 0.0000 0.0000 -6.3343 0.0000
# 6 0.0000 0.0000 0.0000 0.0000 0.0000 3.1301
#
#
#
# Elastic Compliance Matrix: (Units=1/GPa)
#
#
# Indices 1 2 3 4 5 6 
#
# 1 0.004189 -0.000488 0.000619 0.000000 0.000000 0.000000
# 2 -0.000488 0.009236 0.002333 0.000000 0.000000 0.000000
# 3 0.000619 0.002333 0.029305 0.000000 0.000000 0.000000
# 4 0.000000 0.000000 0.000000 0.125837 0.000000 0.000000
# 5 0.000000 0.000000 0.000000 0.000000 -0.157871 0.000000
# 6 0.000000 0.000000 0.000000 0.000000 0.000000 0.319474
#
#
# Mechanical properties :
#
#
# Convention : Reuss Voigt Hill
#
# Bulk Modulus (GPa) = 20.98366 42.83697 31.91031
# Shear Modulus (GPa) = 14.65726 26.86495 20.76111
#
# Velocity S-wave (km/s) = 2.41744 3.27282 2.87710
# Velocity P-wave (km/s) = 4.01975 5.60012 4.87441
#
# Compressibility (1/GPa) = 0.04765612
#
# Stress axis : x y z
#
# Youngs Moduli (GPa) = 238.74614 108.27775 34.12377
#
# Poissons Ratio (x) = 0.05287 -0.02113
# Poissons Ratio (y) = 0.11657 -0.07960
# Poissons Ratio (z) = -0.14781 -0.25257
#
# Static dielectric constant tensor:
#      x y z
#    x 2.044030 0.000000 0.000000 
#    y 0.000000 1.945820 0.000000 
#    z 0.000000 0.000000 1.956760 
# 
# From -- ./inp_files/25719.got.cif
#   From: 2010.05.17/outbox.cif.g08.bks.cpg/sg59_13_cif.got.tgz:25719.got - 2010.06.03 14:40:33.
