data_PCOD9453642
_publ_section_title
;
Structure prediction by ZEFSAII (Michael W. Deem and Ramdas Pophale) SiO2 
 PCOD9453642
Probable space group: P M M N
;
_chemical_formula_sum "Si O2"
_cell_formula_units_Z 64
_cell_length_a 9.000000
_cell_length_b 18.000000
_cell_length_c 21.000000
_cell_angle_alpha 90.000000
_cell_angle_beta 90.000000
_cell_angle_gamma 90.000000
_cell_volume 3402.000000
_symmetry_space_group_name_H-M "P M M N"
_symmetry_group_IT_number 59
_space_group.IT_coordinate_system_code '2'
_symmetry_cell_setting 'orthorhombic'
loop_
_space_group_symop_operation_xyz
x,y,z
1/2-x,1/2-y,z
1/2+x,-y,-z
-x,1/2+y,-z
-x,-y,-z
1/2+x,1/2+y,-z
1/2-x,y,z
x,1/2-y,z
loop_
_atom_site_type_symbol
_atom_site_label
_atom_site_fract_x
_atom_site_fract_y
_atom_site_fract_z
Si Si1 0.579074 0.659346 0.941135
Si Si2 0.575658 0.587516 0.325448
Si Si3 0.079124 0.912409 0.686896
Si Si4 0.928910 0.664548 0.802374
Si Si5 0.582083 0.660559 0.571169
Si Si6 0.578815 0.160766 0.556203
Si Si7 0.927913 0.664078 0.195770
Si Si8 0.919517 0.159329 0.932402
O O1 0.750000 0.635998 0.947549
O O2 0.579213 0.750000 0.940880
O O3 0.518709 0.638389 0.871914
O O4 0.488184 0.633106 0.001530
O O5 0.750000 0.608274 0.334351
O O6 0.564258 0.499342 0.326302
O O7 0.478830 0.623898 0.380011
O O8 0.526912 0.617593 0.256886
O O9 0.250000 0.895477 0.700737
O O10 0.983194 0.886935 0.746496
O O11 0.024451 0.868558 0.625514
O O12 0.750000 0.665816 0.804862
O O13 0.977609 0.750000 0.791170
O O14 0.750000 0.634686 0.582585
O O15 0.581815 0.750000 0.572276
O O16 0.523048 0.636538 0.502560
O O17 0.750000 0.142310 0.543155
O O18 0.567492 0.250000 0.562059
O O19 0.750000 0.663136 0.191529
O O20 0.974851 0.750000 0.204419
O O21 0.992384 0.635162 0.129782
O O22 0.750000 0.137294 0.926919
O O23 0.927144 0.250000 0.933526
#
# Coordination Sequence:
#
# PCOD9453642 Si02
#       8
#     8   8   8   8   8   8   8   8
#     4   8  14  26  45  69  97 129 166 207 251 304
#     4  10  22  38  54  75 105 142 179 211 251 307
#     4  11  23  36  52  77 108 139 173 216 260 301
#     4   9  18  33  53  76 102 135 175 215 257 310
#     4  10  21  38  60  82 105 137 174 209 250 306
#     4  10  21  37  59  86 110 132 165 212 261 304
#     4   9  17  31  52  73  95 130 173 211 248 298
#     4   9  16  25  41  70 104 130 157 203 260 308
#
# _framework density 18.812463000000001
#
# number of rings (size 3 to 8) (size 9 to 14) (size 15 to 20)
#    0.000    2.500    0.000    3.000    0.000    7.750 
#    0.000    2.500    0.000    0.750    0.000    0.000 
#    0.000    0.000    0.000    0.000    0.000    0.000 
#
# Total GULP energy -356929.990172 kJ/mol
# GULP energy per Si atom -5577.031096 kJ/mol
# Density = 1.876965 g / cm^3
# Si number density = 18.812463 Si / 1000 Ang^3
#
#
#
# Elastic Constant Matrix: (Units=GPa)
#
#
# Indices 1 2 3 4 5 6 
#
# 1 7.8197 18.4772 13.6751 0.0000 0.0000 0.0000
# 2 18.4772 -4.9492 10.5625 0.0000 0.0000 0.0000
# 3 13.6751 10.5625 92.8627 0.0000 0.0000 0.0000
# 4 0.0000 0.0000 0.0000 143.0407 0.0000 0.0000
# 5 0.0000 0.0000 0.0000 0.0000 73.1133 0.0000
# 6 0.0000 0.0000 0.0000 0.0000 0.0000 16.4241
#
#
#
# Elastic Compliance Matrix: (Units=1/GPa)
#
#
# Indices 1 2 3 4 5 6 
#
# 1 0.019098 0.052543 -0.008789 0.000000 0.000000 0.000000
# 2 0.052543 -0.018028 -0.005687 0.000000 0.000000 0.000000
# 3 -0.008789 -0.005687 0.012710 0.000000 0.000000 0.000000
# 4 0.000000 0.000000 0.000000 0.006991 0.000000 0.000000
# 5 0.000000 0.000000 0.000000 0.000000 0.013677 0.000000
# 6 0.000000 0.000000 0.000000 0.000000 0.000000 0.060886
#
#
# Mechanical properties :
#
#
# Convention : Reuss Voigt Hill
#
# Bulk Modulus (GPa) = 11.12167 20.12917 15.62542
# Shear Modulus (GPa) = 101.68472 50.05017 75.86745
#
# Velocity S-wave (km/s) = 7.35997 5.16358 6.35735
# Velocity P-wave (km/s) = 8.84026 6.80244 7.88744
#
# Compressibility (1/GPa) = 0.08991456
#
# Stress axis : x y z
#
# Youngs Moduli (GPa) = 52.36127 -55.47025 78.68002
#
# Poissons Ratio (x) = 2.91458 0.69150
# Poissons Ratio (y) = -2.75122 0.44746
# Poissons Ratio (z) = 0.46019 -0.31546
#
# Static dielectric constant tensor:
#      x y z
#    x 1.631120 0.000000 0.000000 
#    y 0.000000 1.633610 0.000000 
#    z 0.000000 0.000000 1.634720 
# 
# From -- ./inp_files/29461.got.cif
#   From: 2010.05.17/outbox.ucp.g08.bks.cvg/sg59_15_cif.got.tgz:29461.got - 2010.06.11 16:43:56.
