data_PCOD9453818
_publ_section_title
;
Structure prediction by ZEFSAII (Michael W. Deem and Ramdas Pophale) SiO2 
 PCOD9453818
Probable space group: P B C N
;
_chemical_formula_sum "Si O2"
_cell_formula_units_Z 40
_cell_length_a 12.033278
_cell_length_b 28.729612
_cell_length_c 5.711517
_cell_angle_alpha 90.000000
_cell_angle_beta 90.000000
_cell_angle_gamma 90.000000
_cell_volume 1974.536584
_symmetry_space_group_name_H-M "P B C N"
_symmetry_group_IT_number 60
_symmetry_cell_setting 'orthorhombic'
loop_
_space_group_symop_operation_xyz
x,y,z
1/2-x,1/2-y,1/2+z
1/2+x,1/2-y,-z
-x,y,1/2-z
-x,-y,-z
1/2+x,1/2+y,1/2-z
1/2-x,1/2+y,z
x,-y,1/2+z
loop_
_atom_site_type_symbol
_atom_site_label
_atom_site_fract_x
_atom_site_fract_y
_atom_site_fract_z
Si Si1 0.000000 0.287435 0.250000
Si Si2 0.617501 0.105695 0.378658
Si Si3 0.389140 0.279587 0.128488
Si Si4 0.000000 0.546348 0.750000
Si Si5 0.681208 0.809680 0.603543
Si Si6 0.718211 0.012808 0.318526
O O1 0.069834 0.253494 0.417664
O O2 0.918814 0.316527 0.418071
O O3 0.500000 0.103927 0.250000
O O4 0.583215 0.082782 0.622636
O O5 0.665973 0.156314 0.324275
O O6 0.699434 0.067318 0.272233
O O7 0.500000 0.299372 0.250000
O O8 0.332671 0.243651 0.311268
O O9 0.297809 0.314247 0.027674
O O10 0.094844 0.511386 0.645167
O O11 0.770092 0.006720 0.577870
#
# Coordination Sequence:
#
# PCOD9453818 Si02
#       6
#     4   8   8   4   8   8
#     4  10  20  39  56  72 106 142 176 234 290 333
#     4  11  19  30  48  78 105 146 190 228 267 343
#     4  10  21  39  56  73 105 147 177 236 298 332
#     4  10  18  33  44  68 116 154 172 220 292 349
#     4  11  22  36  54  80 104 139 196 233 279 338
#     4  10  17  32  48  68 111 159 180 214 289 352
#
# _framework density 20.257916999999999
#
# number of rings (size 3 to 8) (size 9 to 14) (size 15 to 20)
#    0.000    1.600    5.000    3.000    0.000    3.200 
#    0.000    0.000    0.000    0.000    0.000    0.000 
#    0.000    6.400    0.000    0.000    0.000    0.000 
#
# Total GULP energy -222760.770396 kJ/mol
# GULP energy per Si atom -5569.019260 kJ/mol
# Density = 2.021181 g / cm^3
# Si number density = 20.257917 Si / 1000 Ang^3
#
#
#
# Elastic Constant Matrix: (Units=GPa)
#
#
# Indices 1 2 3 4 5 6 
#
# 1 66.2466 17.5534 15.8863 0.0000 0.0000 0.0000
# 2 17.5534 58.8957 4.7521 0.0000 0.0000 0.0000
# 3 15.8863 4.7521 73.5311 0.0000 0.0000 0.0000
# 4 0.0000 0.0000 0.0000 90.1236 0.0000 0.0000
# 5 0.0000 0.0000 0.0000 0.0000 20.9631 0.0000
# 6 0.0000 0.0000 0.0000 0.0000 0.0000 3.1384
#
#
#
# Elastic Compliance Matrix: (Units=1/GPa)
#
#
# Indices 1 2 3 4 5 6 
#
# 1 0.017196 -0.004851 -0.003402 0.000000 0.000000 0.000000
# 2 -0.004851 0.018436 -0.000144 0.000000 0.000000 0.000000
# 3 -0.003402 -0.000144 0.014344 0.000000 0.000000 0.000000
# 4 0.000000 0.000000 0.000000 0.011096 0.000000 0.000000
# 5 0.000000 0.000000 0.000000 0.000000 0.047703 0.000000
# 6 0.000000 0.000000 0.000000 0.000000 0.000000 0.318634
#
#
# Mechanical properties :
#
#
# Convention : Reuss Voigt Hill
#
# Bulk Modulus (GPa) = 30.13441 30.56189 30.34815
# Shear Modulus (GPa) = 10.98268 33.54381 22.26324
#
# Velocity S-wave (km/s) = 2.33092 4.07361 3.31870
# Velocity P-wave (km/s) = 4.70658 6.10286 5.44962
#
# Compressibility (1/GPa) = 0.03318466
#
# Stress axis : x y z
#
# Youngs Moduli (GPa) = 58.15255 54.24030 69.71606
#
# Poissons Ratio (x) = 0.26310 0.23715
# Poissons Ratio (y) = 0.28208 0.01001
# Poissons Ratio (z) = 0.19782 0.00778
#
# Static dielectric constant tensor:
#      x y z
#    x 1.719160 0.000000 0.000000 
#    y 0.000000 1.728000 0.000000 
#    z 0.000000 0.000000 1.958780 
# 
# From -- ./inp_files/840.got.cif
#   From: 2010.05.17/outbox.cif.g08.bks.cpg/sg60_1_cif.got.tgz:840.got - 2010.06.03 14:59:27.
