data_PCOD9453707
_publ_section_title
;
Structure prediction by ZEFSAII (Michael W. Deem and Ramdas Pophale) SiO2 
 PCOD9453707
Probable space group: P B C N
;
_chemical_formula_sum "Si O2"
_cell_formula_units_Z 44
_cell_length_a 7.789817
_cell_length_b 17.917829
_cell_length_c 13.745035
_cell_angle_alpha 90.000000
_cell_angle_beta 90.000000
_cell_angle_gamma 90.000000
_cell_volume 1918.485375
_symmetry_space_group_name_H-M "P B C N"
_symmetry_group_IT_number 60
_symmetry_cell_setting 'orthorhombic'
loop_
_space_group_symop_operation_xyz
x,y,z
1/2-x,1/2-y,1/2+z
1/2+x,1/2-y,-z
-x,y,1/2-z
-x,-y,-z
1/2+x,1/2+y,1/2-z
1/2-x,1/2+y,z
x,-y,1/2+z
loop_
_atom_site_type_symbol
_atom_site_label
_atom_site_fract_x
_atom_site_fract_y
_atom_site_fract_z
Si Si1 0.687235 0.036966 0.307044
Si Si2 0.373363 0.584087 0.568112
Si Si3 0.615921 0.138331 0.469516
Si Si4 0.509003 0.286474 0.956381
Si Si5 0.732666 0.518790 0.605508
Si Si6 0.000000 0.853433 0.750000
O O1 0.576058 0.097482 0.367939
O O2 0.853634 0.089825 0.286177
O O3 0.737798 0.963701 0.369801
O O4 0.663091 0.003920 0.200141
O O5 0.394981 0.669945 0.537687
O O6 0.555104 0.564302 0.620351
O O7 0.342001 0.547840 0.461031
O O8 0.492609 0.200353 0.513052
O O9 0.644263 0.070294 0.542295
O O10 0.801727 0.178189 0.463140
O O11 0.451145 0.303296 0.844722
#
# Coordination Sequence:
#
# PCOD9453707 Si02
#       6
#     8   8   8   8   8   4
#     4  10  15  29  52  82 103 141 182 234 273 302
#     4   9  15  25  51  76 107 126 180 238 256 297
#     4   9  21  32  56  81 115 141 177 228 280 330
#     4  10  19  36  50  85 110 147 174 224 284 334
#     4   9  14  28  48  80 101 134 185 230 258 305
#     4  10  16  28  60  74 106 142 188 222 274 324
#
# _framework density 22.934760000000001
#
# number of rings (size 3 to 8) (size 9 to 14) (size 15 to 20)
#    0.000    2.545    3.636    2.182    0.000    0.000 
#    6.545    0.000    0.000    4.364    4.727    0.000 
#    0.000    0.000    0.000    0.000    0.000    0.000 
#
# Total GULP energy -245147.787695 kJ/mol
# GULP energy per Si atom -5571.540629 kJ/mol
# Density = 2.288256 g / cm^3
# Si number density = 22.934760 Si / 1000 Ang^3
#
#
#
# Elastic Constant Matrix: (Units=GPa)
#
#
# Indices 1 2 3 4 5 6 
#
# 1 57.5221 26.1802 21.3095 0.0000 0.0000 0.0000
# 2 26.1802 92.6900 55.0240 0.0000 0.0000 0.0000
# 3 21.3095 55.0240 123.5927 0.0000 0.0000 0.0000
# 4 0.0000 0.0000 0.0000 20.8390 0.0000 0.0000
# 5 0.0000 0.0000 0.0000 0.0000 16.6920 0.0000
# 6 0.0000 0.0000 0.0000 0.0000 0.0000 35.2908
#
#
#
# Elastic Compliance Matrix: (Units=1/GPa)
#
#
# Indices 1 2 3 4 5 6 
#
# 1 0.020096 -0.004919 -0.001275 0.000000 0.000000 0.000000
# 2 -0.004919 0.015868 -0.006217 0.000000 0.000000 0.000000
# 3 -0.001275 -0.006217 0.011079 0.000000 0.000000 0.000000
# 4 0.000000 0.000000 0.000000 0.047987 0.000000 0.000000
# 5 0.000000 0.000000 0.000000 0.000000 0.059909 0.000000
# 6 0.000000 0.000000 0.000000 0.000000 0.000000 0.028336
#
#
# Mechanical properties :
#
#
# Convention : Reuss Voigt Hill
#
# Bulk Modulus (GPa) = 45.00133 53.20360 49.10247
# Shear Modulus (GPa) = 23.20154 25.98377 24.59265
#
# Velocity S-wave (km/s) = 3.18407 3.36957 3.27813
# Velocity P-wave (km/s) = 5.76036 6.19571 5.98200
#
# Compressibility (1/GPa) = 0.02222157
#
# Stress axis : x y z
#
# Youngs Moduli (GPa) = 49.76161 63.01807 90.26483
#
# Poissons Ratio (x) = 0.31001 0.11507
# Poissons Ratio (y) = 0.24479 0.56113
# Poissons Ratio (z) = 0.06343 0.39175
#
# Static dielectric constant tensor:
#      x y z
#    x 2.068060 0.000000 0.000000 
#    y 0.000000 1.807310 0.000000 
#    z 0.000000 0.000000 1.950200 
# 
# From -- ./inp_files/16013.got.cif
#   From: 2010.05.17/outbox.cif.g08.bks.cpg/sg60_9_cif.got.tgz:16013.got - 2010.06.03 14:59:27.
