data_PCOD9453994
_publ_section_title
;
Structure prediction by ZEFSAII (Michael W. Deem and Ramdas Pophale) SiO2 
 PCOD9453994
Probable space group: P B C N
;
_chemical_formula_sum "Si O2"
_cell_formula_units_Z 48
_cell_length_a 11.814862
_cell_length_b 18.139061
_cell_length_c 12.924242
_cell_angle_alpha 90.000000
_cell_angle_beta 90.000000
_cell_angle_gamma 90.000000
_cell_volume 2769.800798
_symmetry_space_group_name_H-M "P B C N"
_symmetry_group_IT_number 60
_symmetry_cell_setting 'orthorhombic'
loop_
_space_group_symop_operation_xyz
x,y,z
1/2-x,1/2-y,1/2+z
1/2+x,1/2-y,-z
-x,y,1/2-z
-x,-y,-z
1/2+x,1/2+y,1/2-z
1/2-x,1/2+y,z
x,-y,1/2+z
loop_
_atom_site_type_symbol
_atom_site_label
_atom_site_fract_x
_atom_site_fract_y
_atom_site_fract_z
Si Si1 0.955820 0.373919 0.052080
Si Si2 0.838206 0.409390 0.847035
Si Si3 0.119778 0.826172 0.630806
Si Si4 0.861013 0.280594 0.557206
Si Si5 0.500000 0.974187 0.250000
Si Si6 0.377506 0.282071 0.856702
Si Si7 0.500000 0.213355 0.250000
O O1 0.903925 0.296526 0.091536
O O2 0.975389 0.424720 0.150353
O O3 0.880117 0.413583 0.965528
O O4 0.070079 0.347645 0.994202
O O5 0.704246 0.393798 0.848087
O O6 0.892323 0.474930 0.780294
O O7 0.902324 0.337382 0.800979
O O8 0.156836 0.781500 0.529572
O O9 0.131146 0.775148 0.732926
O O10 0.984262 0.835677 0.621630
O O11 0.741533 0.307923 0.599448
O O12 0.936997 0.249490 0.652749
#
# Coordination Sequence:
#
# PCOD9453994 Si02
#       7
#     8   8   8   8   4   8   4
#     4  10  20  35  53  86 106 141 184 227 278 315
#     4  10  19  33  52  74 110 142 181 220 262 318
#     4  10  19  31  49  82 108 144 175 215 283 331
#     4  10  18  32  54  79 114 135 172 229 280 334
#     4  11  22  36  52  80 110 146 189 230 254 305
#     4  10  19  32  56  81 113 136 169 231 283 337
#     4   9  18  30  50  78 106 140 175 214 282 313
#
# _framework density 17.329767
#
# number of rings (size 3 to 8) (size 9 to 14) (size 15 to 20)
#    0.000    2.000    3.333    2.500    0.000    0.000 
#    0.000    0.000    0.000    1.000    0.000    0.000 
#    0.000    0.000    0.000    0.000    0.000    0.000 
#
# Total GULP energy -267330.907417 kJ/mol
# GULP energy per Si atom -5569.393905 kJ/mol
# Density = 1.729032 g / cm^3
# Si number density = 17.329767 Si / 1000 Ang^3
#
#
#
# Elastic Constant Matrix: (Units=GPa)
#
#
# Indices 1 2 3 4 5 6 
#
# 1 133.7395 35.0888 52.4579 0.0000 0.0000 0.0000
# 2 35.0888 38.1551 22.2626 0.0000 0.0000 0.0000
# 3 52.4579 22.2626 123.2041 0.0000 0.0000 0.0000
# 4 0.0000 0.0000 0.0000 18.3422 0.0000 0.0000
# 5 0.0000 0.0000 0.0000 0.0000 26.2698 0.0000
# 6 0.0000 0.0000 0.0000 0.0000 0.0000 -2.9698
#
#
#
# Elastic Compliance Matrix: (Units=1/GPa)
#
#
# Indices 1 2 3 4 5 6 
#
# 1 0.010847 -0.008139 -0.003148 0.000000 0.000000 0.000000
# 2 -0.008139 0.035404 -0.002932 0.000000 0.000000 0.000000
# 3 -0.003148 -0.002932 0.009987 0.000000 0.000000 0.000000
# 4 0.000000 0.000000 0.000000 0.054519 0.000000 0.000000
# 5 0.000000 0.000000 0.000000 0.000000 0.038067 0.000000
# 6 0.000000 0.000000 0.000000 0.000000 0.000000 -0.336721
#
#
# Mechanical properties :
#
#
# Convention : Reuss Voigt Hill
#
# Bulk Modulus (GPa) = 35.97028 57.19084 46.58056
# Shear Modulus (GPa) = -33.29076 20.68105 -6.30485
#
# Velocity S-wave (km/s) = -4.38769 3.45829 -1.90947
# Velocity P-wave (km/s) = 2.20629 7.00139 4.69850
#
# Compressibility (1/GPa) = 0.02780073
#
# Stress axis : x y z
#
# Youngs Moduli (GPa) = 92.18861 28.24509 100.13264
#
# Poissons Ratio (x) = 0.22988 0.31521
# Poissons Ratio (y) = 0.75031 0.29360
# Poissons Ratio (z) = 0.29020 0.08282
#
# Static dielectric constant tensor:
#      x y z
#    x 1.633290 0.000000 0.000000 
#    y 0.000000 1.560760 0.000000 
#    z 0.000000 0.000000 1.628090 
# 
# From -- ./inp_files/11052.got.cif
#   From: 2010.05.17/outbox.cif.g08.bks.cpg/sg60_6_cif.got.tgz:11052.got - 2010.06.03 14:59:27.
