data_PCOD9453740
_publ_section_title
;
Structure prediction by ZEFSAII (Michael W. Deem and Ramdas Pophale) SiO2 
 PCOD9453740
Probable space group: P B C N
;
_chemical_formula_sum "Si O2"
_cell_formula_units_Z 64
_cell_length_a 11.533584
_cell_length_b 14.588201
_cell_length_c 15.233053
_cell_angle_alpha 90.000000
_cell_angle_beta 90.000000
_cell_angle_gamma 90.000000
_cell_volume 2563.025780
_symmetry_space_group_name_H-M "P B C N"
_symmetry_group_IT_number 60
_symmetry_cell_setting 'orthorhombic'
loop_
_space_group_symop_operation_xyz
x,y,z
1/2-x,1/2-y,1/2+z
1/2+x,1/2-y,-z
-x,y,1/2-z
-x,-y,-z
1/2+x,1/2+y,1/2-z
1/2-x,1/2+y,z
x,-y,1/2+z
loop_
_atom_site_type_symbol
_atom_site_label
_atom_site_fract_x
_atom_site_fract_y
_atom_site_fract_z
Si Si1 0.597009 0.317198 0.321588
Si Si2 0.632101 0.169423 0.605671
Si Si3 0.580588 0.029207 0.083175
Si Si4 0.121871 0.168246 0.932345
Si Si5 0.340028 0.461093 0.956456
Si Si6 0.324719 0.489245 0.654142
Si Si7 0.968453 0.170700 0.379616
Si Si8 0.624286 0.860321 0.892785
O O1 0.500000 0.303902 0.250000
O O2 0.509466 0.312774 0.404961
O O3 0.661145 0.412441 0.300738
O O4 0.670544 0.226902 0.338806
O O5 0.764105 0.207051 0.616939
O O6 0.530491 0.233882 0.642217
O O7 0.630422 0.159372 0.497807
O O8 0.607084 0.064732 0.635245
O O9 0.705277 0.064225 0.051180
O O10 0.507647 0.109455 0.128208
O O11 0.500000 0.000000 0.000000
O O12 0.140223 0.060208 0.914314
O O13 0.118359 0.186619 0.037161
O O14 0.422822 0.387554 0.915148
O O15 0.369046 0.481765 0.057279
O O16 0.400938 0.401313 0.683189
O O17 0.198729 0.448454 0.636394
#
# Coordination Sequence:
#
# PCOD9453740 Si02
#       8
#     8   8   8   8   8   8   8   8
#     4  12  26  43  60  84 123 175 221 245 287 386
#     4  10  19  30  54  97 125 152 186 251 331 371
#     4   9  18  31  49  88 132 151 184 239 321 383
#     4  10  18  34  53  83 126 151 198 250 309 363
#     4  10  16  30  55  91 123 150 188 254 323 362
#     4  11  20  39  60  86 123 160 203 256 315 369
#     4  11  18  29  58  94 125 150 188 259 325 368
#     4  11  21  38  59  90 126 157 198 254 316 369
#
# _framework density 24.970486999999999
#
# number of rings (size 3 to 8) (size 9 to 14) (size 15 to 20)
#    0.000    1.500    8.750    0.750    1.750    1.000 
#    0.000    3.750    0.000    0.000    0.000    5.250 
#    0.000    0.000    0.000    0.000    0.000    0.000 
#
# Total GULP energy -356941.971812 kJ/mol
# GULP energy per Si atom -5577.218310 kJ/mol
# Density = 2.491365 g / cm^3
# Si number density = 24.970487 Si / 1000 Ang^3
#
#
#
# Elastic Constant Matrix: (Units=GPa)
#
#
# Indices 1 2 3 4 5 6 
#
# 1 114.9858 32.2186 -9.3573 0.0000 0.0000 0.0000
# 2 32.2186 109.0812 13.8645 0.0000 0.0000 0.0000
# 3 -9.3573 13.8645 30.3324 0.0000 0.0000 0.0000
# 4 0.0000 0.0000 0.0000 -102.3648 0.0000 0.0000
# 5 0.0000 0.0000 0.0000 0.0000 12.3838 0.0000
# 6 0.0000 0.0000 0.0000 0.0000 0.0000 46.6045
#
#
#
# Elastic Compliance Matrix: (Units=1/GPa)
#
#
# Indices 1 2 3 4 5 6 
#
# 1 0.010087 -0.003583 0.004750 0.000000 0.000000 0.000000
# 2 -0.003583 0.011006 -0.006136 0.000000 0.000000 0.000000
# 3 0.004750 -0.006136 0.037238 0.000000 0.000000 0.000000
# 4 0.000000 0.000000 0.000000 -0.009769 0.000000 0.000000
# 5 0.000000 0.000000 0.000000 0.000000 0.080751 0.000000
# 6 0.000000 0.000000 0.000000 0.000000 0.000000 0.021457
#
#
# Mechanical properties :
#
#
# Convention : Reuss Voigt Hill
#
# Bulk Modulus (GPa) = 20.66458 36.42789 28.54624
# Shear Modulus (GPa) = 28.27431 5.83628 17.05530
#
# Velocity S-wave (km/s) = 3.36863 1.53047 2.61630
# Velocity P-wave (km/s) = 4.83981 4.21226 4.53690
#
# Compressibility (1/GPa) = 0.04839197
#
# Stress axis : x y z
#
# Youngs Moduli (GPa) = 99.13553 90.86215 26.85440
#
# Poissons Ratio (x) = 0.32557 -0.12755
# Poissons Ratio (y) = 0.35521 0.16478
# Poissons Ratio (z) = -0.47085 0.55752
#
# Static dielectric constant tensor:
#      x y z
#    x 2.027940 0.000000 0.000000 
#    y 0.000000 2.092770 0.000000 
#    z 0.000000 0.000000 2.197160 
# 
# From -- ./inp_files/20198.got.cif
#   From: 2010.05.17/outbox.cif.g08.bks.cpg/sg60_11_cif.got.tgz:20198.got - 2010.06.03 14:59:27.
