data_PCOD9453709
_publ_section_title
;
Structure prediction by ZEFSAII (Michael W. Deem and Ramdas Pophale) SiO2 
 PCOD9453709
Probable space group: P B C N
;
_chemical_formula_sum "Si O2"
_cell_formula_units_Z 32
_cell_length_a 7.363169
_cell_length_b 34.184845
_cell_length_c 5.456588
_cell_angle_alpha 90.000000
_cell_angle_beta 90.000000
_cell_angle_gamma 90.000000
_cell_volume 1373.471168
_symmetry_space_group_name_H-M "P B C N"
_symmetry_group_IT_number 60
_symmetry_cell_setting 'orthorhombic'
loop_
_space_group_symop_operation_xyz
x,y,z
1/2-x,1/2-y,1/2+z
1/2+x,1/2-y,-z
-x,y,1/2-z
-x,-y,-z
1/2+x,1/2+y,1/2-z
1/2-x,1/2+y,z
x,-y,1/2+z
loop_
_atom_site_type_symbol
_atom_site_label
_atom_site_fract_x
_atom_site_fract_y
_atom_site_fract_z
Si Si1 0.719909 0.359356 0.986924
Si Si2 0.301390 0.390989 0.012245
Si Si3 0.799919 0.770041 0.861551
Si Si4 0.294127 0.483822 0.018999
O O1 0.503864 0.371397 0.999499
O O2 0.790381 0.372260 0.250612
O O3 0.787572 0.381910 0.748029
O O4 0.752088 0.313855 0.938330
O O5 0.309710 0.437353 0.044681
O O6 0.696006 0.753845 0.619144
O O7 0.000000 0.771864 0.750000
O O8 0.210038 0.497016 0.761178
O O9 0.500000 0.500000 0.000000
#
# Coordination Sequence:
#
# PCOD9453709 Si02
#       4
#     8   8   8   8
#     4  10  18  31  48  69  95 132 188 226 261 334
#     4  10  17  27  47  63 100 137 188 222 261 328
#     4  12  25  41  62  86 115 147 193 253 302 350
#     4  10  16  23  34  60  93 133 181 216 254 313
#
# _framework density 23.298629999999999
#
# number of rings (size 3 to 8) (size 9 to 14) (size 15 to 20)
#    0.000    1.500    2.500    9.750    3.500    0.000 
#    0.000    0.000    0.000    0.000    0.000    0.000 
#    0.000    0.000    0.000    0.000    0.000 1065.000 
#
# Total GULP energy -178689.352097 kJ/mol
# GULP energy per Si atom -5584.042253 kJ/mol
# Density = 2.324560 g / cm^3
# Si number density = 23.298630 Si / 1000 Ang^3
#
#
#
# Elastic Constant Matrix: (Units=GPa)
#
#
# Indices 1 2 3 4 5 6 
#
# 1 45.6322 -2.1855 11.7717 0.0000 0.0000 0.0000
# 2 -2.1855 202.6414 92.3146 0.0000 0.0000 0.0000
# 3 11.7717 92.3146 287.1804 0.0000 0.0000 0.0000
# 4 0.0000 0.0000 0.0000 66.8365 0.0000 0.0000
# 5 0.0000 0.0000 0.0000 0.0000 -15.3192 0.0000
# 6 0.0000 0.0000 0.0000 0.0000 0.0000 -95.0426
#
#
#
# Elastic Compliance Matrix: (Units=1/GPa)
#
#
# Indices 1 2 3 4 5 6 
#
# 1 0.022250 0.000768 -0.001159 0.000000 0.000000 0.000000
# 2 0.000768 0.005808 -0.001898 0.000000 0.000000 0.000000
# 3 -0.001159 -0.001898 0.004140 0.000000 0.000000 0.000000
# 4 0.000000 0.000000 0.000000 0.014962 0.000000 0.000000
# 5 0.000000 0.000000 0.000000 0.000000 -0.065277 0.000000
# 6 0.000000 0.000000 0.000000 0.000000 0.000000 -0.010522
#
#
# Mechanical properties :
#
#
# Convention : Reuss Voigt Hill
#
# Bulk Modulus (GPa) = 36.20686 82.13949 59.17318
# Shear Modulus (GPa) = -336.61078 20.19847 -158.20616
#
# Velocity S-wave (km/s) = -12.03288 2.94758 -8.24931
# Velocity P-wave (km/s) = 13.32215 6.84952 8.07972
#
# Compressibility (1/GPa) = 0.02761907
#
# Stress axis : x y z
#
# Youngs Moduli (GPa) = 44.94364 172.17743 241.55190
#
# Poissons Ratio (x) = -0.13222 0.27993
# Poissons Ratio (y) = -0.03451 0.45858
# Poissons Ratio (z) = 0.05208 0.32687
#
# Static dielectric constant tensor:
#      x y z
#    x 2.064790 0.000000 0.000000 
#    y 0.000000 1.822540 0.000000 
#    z 0.000000 0.000000 1.981490 
# 
# From -- ./inp_files/375.got.cif
#   From: 2010.05.17/outbox.cif.g08.bks.cpg/sg60_1_cif.got.tgz:375.got - 2010.06.03 14:59:27.
