data_PCOD9453958
_publ_section_title
;
Structure prediction by ZEFSAII (Michael W. Deem and Ramdas Pophale) SiO2 
 PCOD9453958
Probable space group: P B C N
;
_chemical_formula_sum "Si O2"
_cell_formula_units_Z 64
_cell_length_a 7.189123
_cell_length_b 10.937914
_cell_length_c 31.800264
_cell_angle_alpha 90.000000
_cell_angle_beta 90.000000
_cell_angle_gamma 90.000000
_cell_volume 2500.582249
_symmetry_space_group_name_H-M "P B C N"
_symmetry_group_IT_number 60
_symmetry_cell_setting 'orthorhombic'
loop_
_space_group_symop_operation_xyz
x,y,z
1/2-x,1/2-y,1/2+z
1/2+x,1/2-y,-z
-x,y,1/2-z
-x,-y,-z
1/2+x,1/2+y,1/2-z
1/2-x,1/2+y,z
x,-y,1/2+z
loop_
_atom_site_type_symbol
_atom_site_label
_atom_site_fract_x
_atom_site_fract_y
_atom_site_fract_z
Si Si1 0.531987 0.410860 0.442800
Si Si2 0.532427 0.673047 0.462484
Si Si3 0.531589 0.859365 0.798710
Si Si4 0.470315 0.594951 0.699617
Si Si5 0.526457 0.053843 0.953174
Si Si6 0.891239 0.671019 0.411636
Si Si7 0.911439 0.142774 0.337146
Si Si8 0.028639 0.620973 0.699606
O O1 0.454746 0.549765 0.439806
O O2 0.478630 0.358322 0.488430
O O3 0.754264 0.431129 0.443523
O O4 0.504339 0.300785 0.410014
O O5 0.450109 0.806815 0.451142
O O6 0.750944 0.681528 0.451364
O O7 0.500000 0.864126 0.750000
O O8 0.454181 0.728696 0.812717
O O9 0.756310 0.858910 0.800474
O O10 0.455642 0.988468 0.815004
O O11 0.500000 0.574716 0.750000
O O12 0.522886 0.481197 0.670323
O O13 0.249589 0.609022 0.692724
O O14 0.478783 0.945387 0.920479
O O15 0.500000 0.000000 0.000000
O O16 0.736406 0.651173 0.375403
O O17 0.027166 0.264640 0.328962
O O18 0.000000 0.639111 0.750000
#
# Coordination Sequence:
#
# PCOD9453958 Si02
#       8
#     8   8   8   8   8   8   8   8
#     4   9  18  32  49  74 102 130 175 212 267 319
#     4   9  18  31  49  73  99 137 168 216 261 323
#     4   8  16  29  45  68 102 134 169 211 256 312
#     4   9  17  30  49  76 103 139 181 224 264 321
#     4  10  18  31  51  75 102 130 172 217 265 324
#     4  10  20  32  50  80 106 133 174 228 273 318
#     4  10  19  30  49  79 106 132 172 227 269 316
#     4   9  17  30  49  75 102 138 180 221 263 320
#
# _framework density 25.594037
#
# number of rings (size 3 to 8) (size 9 to 14) (size 15 to 20)
#    0.000    2.750    1.250    0.375    0.000    9.000 
#    0.000    0.000    0.000    0.000   32.500    0.000 
#    0.000    0.000    0.000    0.000    0.000    0.000 
#
# Total GULP energy -356553.449628 kJ/mol
# GULP energy per Si atom -5571.147650 kJ/mol
# Density = 2.553578 g / cm^3
# Si number density = 25.594037 Si / 1000 Ang^3
#
#
#
# Elastic Constant Matrix: (Units=GPa)
#
#
# Indices 1 2 3 4 5 6 
#
# 1 69.3393 -0.1293 5.5184 0.0000 0.0000 0.0000
# 2 -0.1293 362.5487 64.1251 0.0000 0.0000 0.0000
# 3 5.5184 64.1251 64.5996 0.0000 0.0000 0.0000
# 4 0.0000 0.0000 0.0000 -32.6351 0.0000 0.0000
# 5 0.0000 0.0000 0.0000 0.0000 35.7744 0.0000
# 6 0.0000 0.0000 0.0000 0.0000 0.0000 -1.3807
#
#
#
# Elastic Compliance Matrix: (Units=1/GPa)
#
#
# Indices 1 2 3 4 5 6 
#
# 1 0.014543 0.000273 -0.001513 0.000000 0.000000 0.000000
# 2 0.000273 0.003351 -0.003349 0.000000 0.000000 0.000000
# 3 -0.001513 -0.003349 0.018934 0.000000 0.000000 0.000000
# 4 0.000000 0.000000 0.000000 -0.030642 0.000000 0.000000
# 5 0.000000 0.000000 0.000000 0.000000 0.027953 0.000000
# 6 0.000000 0.000000 0.000000 0.000000 0.000000 -0.724280
#
#
# Mechanical properties :
#
#
# Convention : Reuss Voigt Hill
#
# Bulk Modulus (GPa) = 36.16889 70.61287 53.39088
# Shear Modulus (GPa) = -7.44330 28.81662 10.68666
#
# Velocity S-wave (km/s) = -1.70720 3.35910 2.04561
# Velocity P-wave (km/s) = 3.20568 6.53408 5.14639
#
# Compressibility (1/GPa) = 0.02764807
#
# Stress axis : x y z
#
# Youngs Moduli (GPa) = 68.76274 298.43808 52.81473
#
# Poissons Ratio (x) = -0.08142 0.07992
# Poissons Ratio (y) = -0.01876 0.17690
# Poissons Ratio (z) = 0.10405 0.99961
#
# Static dielectric constant tensor:
#      x y z
#    x 1.960850 0.000000 0.000000 
#    y 0.000000 2.342920 0.000000 
#    z 0.000000 0.000000 2.134210 
# 
# From -- ./inp_files/25370.got.cif
#   From: 2010.05.17/outbox.cif.g08.bks.cpg/sg60_13_cif.got.tgz:25370.got - 2010.06.03 14:59:27.
