data_PCOD9453266
_publ_section_title
;
Structure prediction by ZEFSAII (Michael W. Deem and Ramdas Pophale) SiO2 
 PCOD9453266
Probable space group: P M M N
;
_chemical_formula_sum "Si O2"
_cell_formula_units_Z 40
_cell_length_a 31.063884
_cell_length_b 7.334010
_cell_length_c 7.241179
_cell_angle_alpha 90.000000
_cell_angle_beta 90.000000
_cell_angle_gamma 90.000000
_cell_volume 1649.705935
_symmetry_space_group_name_H-M "P M M N"
_symmetry_group_IT_number 59
_space_group.IT_coordinate_system_code '2'
_symmetry_cell_setting 'orthorhombic'
loop_
_space_group_symop_operation_xyz
x,y,z
1/2-x,1/2-y,z
1/2+x,-y,-z
-x,1/2+y,-z
-x,-y,-z
1/2+x,1/2+y,-z
1/2-x,y,z
x,1/2-y,z
loop_
_atom_site_type_symbol
_atom_site_label
_atom_site_fract_x
_atom_site_fract_y
_atom_site_fract_z
Si Si1 0.852576 0.961903 0.922679
Si Si2 0.966578 0.540346 0.279246
Si Si3 0.201811 0.472979 0.400887
Si Si4 0.445981 0.969352 0.151610
Si Si5 0.625310 0.526067 0.330220
O O1 0.843069 0.750000 0.953312
O O2 0.813844 0.035209 0.800876
O O3 0.897295 0.973297 0.808090
O O4 0.862325 0.037792 0.123989
O O5 0.969884 0.750000 0.335263
O O6 0.923487 0.461033 0.370582
O O7 0.015032 0.463438 0.281879
O O8 0.955499 0.535901 0.058062
O O9 0.250000 0.531228 0.447289
O O10 0.201742 0.250000 0.402037
O O11 0.163965 0.529610 0.538329
O O12 0.447488 0.750000 0.147949
O O13 0.623122 0.750000 0.330816
#
# Coordination Sequence:
#
# PCOD9453266 Si02
#       5
#     8   8   8   8   8
#     4   9  17  29  45  66  92 118 144 179 223 265
#     4   8  14  25  42  65  92 121 150 181 219 259
#     4   9  17  28  44  67  89 110 144 188 227 264
#     4   9  15  24  42  66  91 120 152 181 212 260
#     4   8  14  26  43  62  87 116 142 175 220 261
#
# _framework density 24.246748
#
# number of rings (size 3 to 8) (size 9 to 14) (size 15 to 20)
#    0.000    3.400    0.000    1.800    0.000    1.600 
#    0.000    5.000    0.000    5.400    0.000    0.000 
#    0.000    0.000    0.000    0.000    0.000    0.000 
#
# Total GULP energy -223282.762994 kJ/mol
# GULP energy per Si atom -5582.069075 kJ/mol
# Density = 2.419156 g / cm^3
# Si number density = 24.246748 Si / 1000 Ang^3
#
#
#
# Elastic Constant Matrix: (Units=GPa)
#
#
# Indices 1 2 3 4 5 6 
#
# 1 149.8941 -15.2547 50.1294 0.0000 0.0000 0.0000
# 2 -15.2547 105.7837 2.4455 0.0000 0.0000 0.0000
# 3 50.1294 2.4455 68.3305 0.0000 0.0000 0.0000
# 4 0.0000 0.0000 0.0000 -2.5290 0.0000 0.0000
# 5 0.0000 0.0000 0.0000 0.0000 41.4639 0.0000
# 6 0.0000 0.0000 0.0000 0.0000 0.0000 7.8698
#
#
#
# Elastic Compliance Matrix: (Units=1/GPa)
#
#
# Indices 1 2 3 4 5 6 
#
# 1 0.009061 0.001461 -0.006699 0.000000 0.000000 0.000000
# 2 0.001461 0.009697 -0.001419 0.000000 0.000000 0.000000
# 3 -0.006699 -0.001419 0.019600 0.000000 0.000000 0.000000
# 4 0.000000 0.000000 0.000000 -0.395413 0.000000 0.000000
# 5 0.000000 0.000000 0.000000 0.000000 0.024117 0.000000
# 6 0.000000 0.000000 0.000000 0.000000 0.000000 0.127069
#
#
# Mechanical properties :
#
#
# Convention : Reuss Voigt Hill
#
# Bulk Modulus (GPa) = 39.93051 44.29428 42.11239
# Shear Modulus (GPa) = -27.14345 28.47347 0.66501
#
# Velocity S-wave (km/s) = -3.34947 3.43055 0.52427
# Velocity P-wave (km/s) = 1.24319 5.83090 4.21574
#
# Compressibility (1/GPa) = 0.02504351
#
# Stress axis : x y z
#
# Youngs Moduli (GPa) = 110.36761 103.12667 51.01913
#
# Poissons Ratio (x) = -0.15072 0.34180
# Poissons Ratio (y) = -0.16130 0.07241
# Poissons Ratio (z) = 0.73940 0.14636
#
# Static dielectric constant tensor:
#      x y z
#    x 1.925860 0.000000 0.000000 
#    y 0.000000 1.948150 0.000000 
#    z 0.000000 0.000000 1.954560 
# 
# From -- ./inp_files/5849.got.cif
#   From: 2010.05.17/outbox.cif.g08.bks.cpg/sg59_3_cif.got.tgz:5849.got - 2010.06.03 14:40:33.
