data_PCOD9453242
_publ_section_title
;
Structure prediction by ZEFSAII (Michael W. Deem and Ramdas Pophale) SiO2 
 PCOD9453242
Probable space group: P M M N
;
_chemical_formula_sum "Si O2"
_cell_formula_units_Z 56
_cell_length_a 14.205536
_cell_length_b 7.604101
_cell_length_c 30.602989
_cell_angle_alpha 90.000000
_cell_angle_beta 90.000000
_cell_angle_gamma 90.000000
_cell_volume 3305.744986
_symmetry_space_group_name_H-M "P M M N"
_symmetry_group_IT_number 59
_space_group.IT_coordinate_system_code '2'
_symmetry_cell_setting 'orthorhombic'
loop_
_space_group_symop_operation_xyz
x,y,z
1/2-x,1/2-y,z
1/2+x,-y,-z
-x,1/2+y,-z
-x,-y,-z
1/2+x,1/2+y,-z
1/2-x,y,z
x,1/2-y,z
loop_
_atom_site_type_symbol
_atom_site_label
_atom_site_fract_x
_atom_site_fract_y
_atom_site_fract_z
Si Si1 0.857710 0.959436 0.153901
Si Si2 0.041770 0.960200 0.567771
Si Si3 0.143924 0.538190 0.479859
Si Si4 0.639691 0.464790 0.344714
Si Si5 0.141037 0.538641 0.750684
Si Si6 0.644476 0.037673 0.980662
Si Si7 0.962496 0.960260 0.069022
O O1 0.750000 0.030258 0.152475
O O2 0.850571 0.750000 0.147666
O O3 0.920617 0.030302 0.114313
O O4 0.899267 0.986883 0.202397
O O5 0.054890 0.750000 0.568403
O O6 0.101740 0.027627 0.526168
O O7 0.080279 0.027824 0.613869
O O8 0.932950 0.994063 0.556796
O O9 0.250000 0.474277 0.472511
O O10 0.147378 0.750000 0.482476
O O11 0.750000 0.513488 0.349335
O O12 0.637756 0.250000 0.344918
O O13 0.604044 0.521302 0.296615
O O14 0.250000 0.477971 0.751743
O O15 0.141281 0.750000 0.749821
O O16 0.750000 0.973065 0.972507
O O17 0.645757 0.250000 0.977767
O O18 0.563405 0.971223 0.947822
O O19 0.610089 0.992636 0.029471
O O20 0.972856 0.750000 0.073665
#
# Coordination Sequence:
#
# PCOD9453242 Si02
#       7
#     8   8   8   8   8   8   8
#     4   9  16  25  37  54  77 103 128 154 186 226
#     4   9  16  26  42  61  78 101 135 166 191 226
#     4   9  17  28  40  56  81 109 132 158 195 234
#     4   8  13  23  40  60  80 102 129 160 193 230
#     4   8  14  24  38  56  77 100 125 154 189 228
#     4   9  17  28  41  58  79 101 128 163 195 222
#     4   9  17  28  41  57  78 105 133 157 188 230
#
# _framework density 16.940204000000001
#
# number of rings (size 3 to 8) (size 9 to 14) (size 15 to 20)
#    0.000    3.286    0.000    1.714    0.000    3.429 
#    0.000    2.143    0.000    2.143    0.000    1.000 
#    0.000    3.429    0.000    0.000    0.000    0.000 
#
# Total GULP energy -311802.982725 kJ/mol
# GULP energy per Si atom -5567.910406 kJ/mol
# Density = 1.690165 g / cm^3
# Si number density = 16.940204 Si / 1000 Ang^3
#
#
#
# Elastic Constant Matrix: (Units=GPa)
#
#
# Indices 1 2 3 4 5 6 
#
# 1 108.8089 0.5383 81.9888 0.0000 0.0000 0.0000
# 2 0.5383 31.3617 4.5531 0.0000 0.0000 0.0000
# 3 81.9888 4.5531 175.6030 0.0000 0.0000 0.0000
# 4 0.0000 0.0000 0.0000 14.1798 0.0000 0.0000
# 5 0.0000 0.0000 0.0000 0.0000 24.8388 0.0000
# 6 0.0000 0.0000 0.0000 0.0000 0.0000 11.5848
#
#
#
# Elastic Compliance Matrix: (Units=1/GPa)
#
#
# Indices 1 2 3 4 5 6 
#
# 1 0.014195 0.000721 -0.006646 0.000000 0.000000 0.000000
# 2 0.000721 0.032043 -0.001168 0.000000 0.000000 0.000000
# 3 -0.006646 -0.001168 0.008828 0.000000 0.000000 0.000000
# 4 0.000000 0.000000 0.000000 0.070523 0.000000 0.000000
# 5 0.000000 0.000000 0.000000 0.000000 0.040260 0.000000
# 6 0.000000 0.000000 0.000000 0.000000 0.000000 0.086320
#
#
# Mechanical properties :
#
#
# Convention : Reuss Voigt Hill
#
# Bulk Modulus (GPa) = 24.46124 54.43708 39.44916
# Shear Modulus (GPa) = 17.85835 25.36691 21.61263
#
# Velocity S-wave (km/s) = 3.25037 3.87387 3.57574
# Velocity P-wave (km/s) = 5.34393 7.22591 6.35497
#
# Compressibility (1/GPa) = 0.04088101
#
# Stress axis : x y z
#
# Youngs Moduli (GPa) = 70.44780 31.20787 113.27498
#
# Poissons Ratio (x) = -0.02251 0.75286
# Poissons Ratio (y) = -0.05081 0.13226
# Poissons Ratio (z) = 0.46822 0.03644
#
# Static dielectric constant tensor:
#      x y z
#    x 1.564720 0.000000 0.000000 
#    y 0.000000 1.633150 0.000000 
#    z 0.000000 0.000000 1.599050 
# 
# From -- ./inp_files/33181.got.cif
#   From: 2010.05.17/outbox.cif.g08.bks.cpg/sg59_17_cif.got.tgz:33181.got - 2010.06.03 14:40:33.
