data_PCOD9453474
_publ_section_title
;
Structure prediction by ZEFSAII (Michael W. Deem and Ramdas Pophale) SiO2 
 PCOD9453474
Probable space group: P M M N
;
_chemical_formula_sum "Si O2"
_cell_formula_units_Z 64
_cell_length_a 21.000000
_cell_length_b 9.000000
_cell_length_c 18.000000
_cell_angle_alpha 90.000000
_cell_angle_beta 90.000000
_cell_angle_gamma 90.000000
_cell_volume 3402.000000
_symmetry_space_group_name_H-M "P M M N"
_symmetry_group_IT_number 59
_space_group.IT_coordinate_system_code '2'
_symmetry_cell_setting 'orthorhombic'
loop_
_space_group_symop_operation_xyz
x,y,z
1/2-x,1/2-y,z
1/2+x,-y,-z
-x,1/2+y,-z
-x,-y,-z
1/2+x,1/2+y,-z
1/2-x,y,z
x,1/2-y,z
loop_
_atom_site_type_symbol
_atom_site_label
_atom_site_fract_x
_atom_site_fract_y
_atom_site_fract_z
Si Si1 0.677101 0.919252 0.900805
Si Si2 0.426722 0.923427 0.185153
Si Si3 0.933008 0.424332 0.323936
Si Si4 0.072310 0.424191 0.342119
Si Si5 0.679797 0.077503 0.566065
Si Si6 0.318478 0.071352 0.923131
Si Si7 0.437558 0.072375 0.835479
Si Si8 0.678183 0.923142 0.409174
O O1 0.750000 0.925764 0.875520
O O2 0.653704 0.750000 0.887114
O O3 0.634816 0.040074 0.861427
O O4 0.676436 0.945391 0.988821
O O5 0.429659 0.750000 0.207593
O O6 0.490683 0.960284 0.139086
O O7 0.426148 0.029872 0.256165
O O8 0.932217 0.250000 0.306987
O O9 0.932982 0.515564 0.248085
O O10 0.872416 0.474590 0.369303
O O11 0.999487 0.453410 0.366468
O O12 0.086597 0.250000 0.352203
O O13 0.123246 0.525695 0.382272
O O14 0.750000 0.062683 0.601758
O O15 0.672696 0.250000 0.543869
O O16 0.678872 0.972683 0.494487
O O17 0.250000 0.011486 0.897441
O O18 0.317024 0.250000 0.910573
O O19 0.379980 0.008298 0.882884
O O20 0.431745 0.250000 0.835544
O O21 0.750000 0.943190 0.379768
O O22 0.661229 0.750000 0.401765
#
# Coordination Sequence:
#
# PCOD9453474 Si02
#       8
#     8   8   8   8   8   8   8   8
#     4   9  18  33  52  73  98 131 171 212 253 302
#     4  10  20  33  50  74 104 135 167 209 259 305
#     4  10  21  36  54  78 107 138 173 215 261 304
#     4  10  21  37  56  77 103 138 177 213 253 307
#     4  10  21  37  57  81 108 136 168 212 263 307
#     4   8  15  30  52  75  99 130 169 210 251 300
#     4   9  18  33  52  75 103 134 170 211 254 305
#     4  10  21  37  57  80 106 139 177 212 250 303
#
# _framework density 18.812463000000001
#
# number of rings (size 3 to 8) (size 9 to 14) (size 15 to 20)
#    0.000    2.500    0.000    2.625    0.000    5.750 
#    0.000    1.875    0.000    0.750    0.000    0.000 
#    0.000    0.000    0.000    0.000    0.000    0.000 
#
# Total GULP energy -356444.222865 kJ/mol
# GULP energy per Si atom -5569.440982 kJ/mol
# Density = 1.876965 g / cm^3
# Si number density = 18.812463 Si / 1000 Ang^3
#
#
#
# Elastic Constant Matrix: (Units=GPa)
#
#
# Indices 1 2 3 4 5 6 
#
# 1 54.7699 -5.2035 12.8551 0.0000 0.0000 0.0000
# 2 -5.2035 -18.2825 -22.2041 0.0000 0.0000 0.0000
# 3 12.8551 -22.2041 -6.0781 0.0000 0.0000 0.0000
# 4 0.0000 0.0000 0.0000 15.5354 0.0000 0.0000
# 5 0.0000 0.0000 0.0000 0.0000 37.5594 0.0000
# 6 0.0000 0.0000 0.0000 0.0000 0.0000 25.4922
#
#
#
# Elastic Compliance Matrix: (Units=1/GPa)
#
#
# Indices 1 2 3 4 5 6 
#
# 1 0.025874 0.021481 -0.023751 0.000000 0.000000 0.000000
# 2 0.021481 0.033750 -0.077860 0.000000 0.000000 0.000000
# 3 -0.023751 -0.077860 0.069675 0.000000 0.000000 0.000000
# 4 0.000000 0.000000 0.000000 0.064369 0.000000 0.000000
# 5 0.000000 0.000000 0.000000 0.000000 0.026624 0.000000
# 6 0.000000 0.000000 0.000000 0.000000 0.000000 0.039228
#
#
# Mechanical properties :
#
#
# Convention : Reuss Voigt Hill
#
# Bulk Modulus (GPa) = -32.29865 0.14493 -16.07686
# Shear Modulus (GPa) = 12.21126 18.71488 15.46307
#
# Velocity S-wave (km/s) = 2.55052 3.15749 2.87009
# Velocity P-wave (km/s) = 2.92104 3.65652 1.55526
#
# Compressibility (1/GPa) = -0.03096105
#
# Stress axis : x y z
#
# Youngs Moduli (GPa) = 38.64946 29.62986 14.35238
#
# Poissons Ratio (x) = -0.63648 0.34088
# Poissons Ratio (y) = -0.83023 1.11748
# Poissons Ratio (z) = 0.91795 2.30698
#
# Static dielectric constant tensor:
#      x y z
#    x 1.713280 0.000000 0.000000 
#    y 0.000000 1.554620 0.000000 
#    z 0.000000 0.000000 1.623870 
# 
# From -- ./inp_files/28231.got.cif
#   From: 2010.05.17/outbox.ucp.g08.bks.cvg/sg59_15_cif.got.tgz:28231.got - 2010.06.11 16:43:56.
