data_PCOD9453290
_publ_section_title
;
Structure prediction by ZEFSAII (Michael W. Deem and Ramdas Pophale) SiO2 
 PCOD9453290
Probable space group: P M M N
;
_chemical_formula_sum "Si O2"
_cell_formula_units_Z 40
_cell_length_a 20.071976
_cell_length_b 7.635907
_cell_length_c 13.458098
_cell_angle_alpha 90.000000
_cell_angle_beta 90.000000
_cell_angle_gamma 90.000000
_cell_volume 2062.692293
_symmetry_space_group_name_H-M "P M M N"
_symmetry_group_IT_number 59
_space_group.IT_coordinate_system_code '2'
_symmetry_cell_setting 'orthorhombic'
loop_
_space_group_symop_operation_xyz
x,y,z
1/2-x,1/2-y,z
1/2+x,-y,-z
-x,1/2+y,-z
-x,-y,-z
1/2+x,1/2+y,-z
1/2-x,y,z
x,1/2-y,z
loop_
_atom_site_type_symbol
_atom_site_label
_atom_site_fract_x
_atom_site_fract_y
_atom_site_fract_z
Si Si1 0.325743 0.040034 0.111836
Si Si2 0.421258 0.542223 0.494118
Si Si3 0.921138 0.465239 0.289098
Si Si4 0.573495 0.955518 0.723815
Si Si5 0.174021 0.960783 0.887539
O O1 0.250000 0.971351 0.122117
O O2 0.322165 0.250000 0.124363
O O3 0.376753 0.969580 0.193975
O O4 0.348291 0.005632 0.999066
O O5 0.500000 0.500000 0.500000
O O6 0.412498 0.750000 0.489455
O O7 0.395257 0.480122 0.601432
O O8 0.398224 0.470401 0.388194
O O9 0.922135 0.250000 0.290280
O O10 0.874778 0.523517 0.198974
O O11 0.997748 0.526103 0.275790
O O12 0.566325 0.750000 0.745906
O O13 0.250000 0.025688 0.875713
O O14 0.175812 0.750000 0.880660
#
# Coordination Sequence:
#
# PCOD9453290 Si02
#       5
#     8   8   8   8   8
#     4   9  18  32  47  63  87 118 148 181 225 269
#     4   9  16  28  46  67  92 119 146 179 220 264
#     4   8  15  28  45  65  88 113 142 177 217 258
#     4   9  17  30  47  65  88 118 149 182 220 263
#     4   9  17  30  47  64  85 115 147 178 216 264
#
# _framework density 19.392130999999999
#
# number of rings (size 3 to 8) (size 9 to 14) (size 15 to 20)
#    0.000    3.200    0.000    1.800    0.000    1.600 
#    0.000    6.000    0.000    1.200    0.000    0.000 
#    0.000    0.000    0.000    0.000    0.000    0.000 
#
# Total GULP energy -222775.222244 kJ/mol
# GULP energy per Si atom -5569.380556 kJ/mol
# Density = 1.934799 g / cm^3
# Si number density = 19.392131 Si / 1000 Ang^3
#
#
#
# Elastic Constant Matrix: (Units=GPa)
#
#
# Indices 1 2 3 4 5 6 
#
# 1 68.8708 2.7543 96.9169 0.0000 0.0000 0.0000
# 2 2.7543 32.3394 -9.7525 0.0000 0.0000 0.0000
# 3 96.9169 -9.7525 205.2076 0.0000 0.0000 0.0000
# 4 0.0000 0.0000 0.0000 22.9848 0.0000 0.0000
# 5 0.0000 0.0000 0.0000 0.0000 -28.7098 0.0000
# 6 0.0000 0.0000 0.0000 0.0000 0.0000 1.7401
#
#
#
# Elastic Compliance Matrix: (Units=1/GPa)
#
#
# Indices 1 2 3 4 5 6 
#
# 1 0.046732 -0.010791 -0.022584 0.000000 0.000000 0.000000
# 2 -0.010791 0.033863 0.006706 0.000000 0.000000 0.000000
# 3 -0.022584 0.006706 0.015858 0.000000 0.000000 0.000000
# 4 0.000000 0.000000 0.000000 0.043507 0.000000 0.000000
# 5 0.000000 0.000000 0.000000 0.000000 -0.034831 0.000000
# 6 0.000000 0.000000 0.000000 0.000000 0.000000 0.574678
#
#
# Mechanical properties :
#
#
# Convention : Reuss Voigt Hill
#
# Bulk Modulus (GPa) = 23.19347 54.02835 38.61091
# Shear Modulus (GPa) = 6.68883 13.63630 10.16256
#
# Velocity S-wave (km/s) = 1.85923 2.65464 2.29171
# Velocity P-wave (km/s) = 4.07372 6.10882 5.19196
#
# Compressibility (1/GPa) = 0.04311558
#
# Stress axis : x y z
#
# Youngs Moduli (GPa) = 21.39872 29.53057 63.06068
#
# Poissons Ratio (x) = 0.31865 1.42414
# Poissons Ratio (y) = 0.23090 -0.42286
# Poissons Ratio (z) = 0.48326 -0.19802
#
# Static dielectric constant tensor:
#      x y z
#    x 1.669700 0.000000 0.000000 
#    y 0.000000 1.716620 0.000000 
#    z 0.000000 0.000000 1.693040 
# 
# From -- ./inp_files/14045.got.cif
#   From: 2010.05.17/outbox.cif.g08.bks.cpg/sg59_8_cif.got.tgz:14045.got - 2010.06.03 14:40:33.
