data_PCOD9453640
_publ_section_title
;
Structure prediction by ZEFSAII (Michael W. Deem and Ramdas Pophale) SiO2 
 PCOD9453640
Probable space group: P M M N
;
_chemical_formula_sum "Si O2"
_cell_formula_units_Z 56
_cell_length_a 9.000000
_cell_length_b 21.000000
_cell_length_c 15.000000
_cell_angle_alpha 90.000000
_cell_angle_beta 90.000000
_cell_angle_gamma 90.000000
_cell_volume 2835.000000
_symmetry_space_group_name_H-M "P M M N"
_symmetry_group_IT_number 59
_space_group.IT_coordinate_system_code '2'
_symmetry_cell_setting 'orthorhombic'
loop_
_space_group_symop_operation_xyz
x,y,z
1/2-x,1/2-y,z
1/2+x,-y,-z
-x,1/2+y,-z
-x,-y,-z
1/2+x,1/2+y,-z
1/2-x,y,z
x,1/2-y,z
loop_
_atom_site_type_symbol
_atom_site_label
_atom_site_fract_x
_atom_site_fract_y
_atom_site_fract_z
Si Si1 0.419693 0.559468 0.238271
Si Si2 0.074037 0.180680 0.507455
Si Si3 0.429010 0.173758 0.845633
Si Si4 0.583173 0.446571 0.555590
Si Si5 0.076499 0.679452 0.681461
Si Si6 0.073871 0.070940 0.001591
Si Si7 0.574313 0.431763 0.178303
O O1 0.250000 0.559339 0.202378
O O2 0.488818 0.630334 0.228757
O O3 0.412984 0.537948 0.340504
O O4 0.519331 0.504129 0.194440
O O5 0.250000 0.175884 0.517648
O O6 0.025412 0.250000 0.542472
O O7 0.995878 0.120909 0.549833
O O8 0.028754 0.178124 0.403845
O O9 0.250000 0.172310 0.832644
O O10 0.469452 0.250000 0.851638
O O11 0.463570 0.126907 0.930426
O O12 0.500000 0.500000 0.500000
O O13 0.750000 0.441203 0.520392
O O14 0.250000 0.676824 0.652773
O O15 0.057227 0.750000 0.725070
O O16 0.050180 0.617429 0.741015
O O17 0.250000 0.061588 0.996661
O O18 0.019185 0.095584 0.096673
O O19 0.000000 0.000000 0.000000
O O20 0.750000 0.433076 0.159017
#
# Coordination Sequence:
#
# PCOD9453640 Si02
#       7
#     8   8   8   8   8   8   8
#     4  11  24  40  60  87 118 155 199 247 298 353
#     4  10  21  37  58  84 115 154 198 243 297 359
#     4  10  23  43  65  90 121 158 200 246 298 356
#     4  11  24  40  60  88 120 155 200 252 304 359
#     4   9  19  36  57  83 117 156 198 245 297 352
#     4  11  22  38  62  89 119 155 197 242 292 352
#     4  11  22  36  59  88 119 156 197 240 294 355
#
# _framework density 19.753086
#
# number of rings (size 3 to 8) (size 9 to 14) (size 15 to 20)
#    0.000    1.571    1.429    3.000    0.000    8.571 
#    0.000    2.857    0.000    0.000    0.000    0.000 
#    0.000    0.000    0.000    0.000    0.000    0.000 
#
# Total GULP energy -312213.493323 kJ/mol
# GULP energy per Si atom -5575.240952 kJ/mol
# Density = 1.970813 g / cm^3
# Si number density = 19.753086 Si / 1000 Ang^3
#
#
#
# Elastic Constant Matrix: (Units=GPa)
#
#
# Indices 1 2 3 4 5 6 
#
# 1 60.8702 43.6769 21.8321 0.0000 0.0000 0.0000
# 2 43.6769 129.0405 26.5487 0.0000 0.0000 0.0000
# 3 21.8321 26.5487 47.1165 0.0000 0.0000 0.0000
# 4 0.0000 0.0000 0.0000 30.0716 0.0000 0.0000
# 5 0.0000 0.0000 0.0000 0.0000 26.0310 0.0000
# 6 0.0000 0.0000 0.0000 0.0000 0.0000 32.4807
#
#
#
# Elastic Compliance Matrix: (Units=1/GPa)
#
#
# Indices 1 2 3 4 5 6 
#
# 1 0.023739 -0.006529 -0.007321 0.000000 0.000000 0.000000
# 2 -0.006529 0.010561 -0.002926 0.000000 0.000000 0.000000
# 3 -0.007321 -0.002926 0.026265 0.000000 0.000000 0.000000
# 4 0.000000 0.000000 0.000000 0.033254 0.000000 0.000000
# 5 0.000000 0.000000 0.000000 0.000000 0.038416 0.000000
# 6 0.000000 0.000000 0.000000 0.000000 0.000000 0.030787
#
#
# Mechanical properties :
#
#
# Convention : Reuss Voigt Hill
#
# Bulk Modulus (GPa) = 37.01788 46.79362 41.90575
# Shear Modulus (GPa) = 24.32169 27.38130 25.85150
#
# Velocity S-wave (km/s) = 3.51277 3.72718 3.62156
# Velocity P-wave (km/s) = 5.93580 6.50102 6.22483
#
# Compressibility (1/GPa) = 0.02701397
#
# Stress axis : x y z
#
# Youngs Moduli (GPa) = 42.12498 94.68550 38.07374
#
# Poissons Ratio (x) = 0.61818 0.27874
# Poissons Ratio (y) = 0.27503 0.11139
# Poissons Ratio (z) = 0.30840 0.27703
#
# Static dielectric constant tensor:
#      x y z
#    x 1.688910 0.000000 0.000000 
#    y 0.000000 1.682420 0.000000 
#    z 0.000000 0.000000 1.784520 
# 
# From -- ./inp_files/21071.got.cif
#   From: 2010.05.17/outbox.ucp.g08.bks.cvg/sg59_11_cif.got.tgz:21071.got - 2010.06.11 16:43:56.
