data_PCOD9453128
_publ_section_title
;
Structure prediction by ZEFSAII (Michael W. Deem and Ramdas Pophale) SiO2 
 PCOD9453128
Probable space group: P M M N
;
_chemical_formula_sum "Si O2"
_cell_formula_units_Z 32
_cell_length_a 15.088653
_cell_length_b 8.490477
_cell_length_c 12.863278
_cell_angle_alpha 90.000000
_cell_angle_beta 90.000000
_cell_angle_gamma 90.000000
_cell_volume 1647.912760
_symmetry_space_group_name_H-M "P M M N"
_symmetry_group_IT_number 59
_space_group.IT_coordinate_system_code '2'
_symmetry_cell_setting 'orthorhombic'
loop_
_space_group_symop_operation_xyz
x,y,z
1/2-x,1/2-y,z
1/2+x,-y,-z
-x,1/2+y,-z
-x,-y,-z
1/2+x,1/2+y,-z
1/2-x,y,z
x,1/2-y,z
loop_
_atom_site_type_symbol
_atom_site_label
_atom_site_fract_x
_atom_site_fract_y
_atom_site_fract_z
Si Si1 0.601154 0.938707 0.502883
Si Si2 0.750000 0.442483 0.882636
Si Si3 0.103539 0.440215 0.725742
Si Si4 0.398064 0.939685 0.277675
Si Si5 0.250000 0.938037 0.880010
O O1 0.602223 0.750000 0.507348
O O2 0.637952 0.986257 0.389832
O O3 0.500000 0.000000 0.500000
O O4 0.638263 0.003871 0.610664
O O5 0.750000 0.250000 0.884001
O O6 0.664088 0.492115 0.816544
O O7 0.750000 0.497323 0.001288
O O8 0.105521 0.250000 0.730112
O O9 0.164640 0.505705 0.815939
O O10 0.000561 0.490899 0.734575
O O11 0.398537 0.750000 0.280021
O O12 0.250000 0.750000 0.883071
#
# Coordination Sequence:
#
# PCOD9453128 Si02
#       5
#     8   4   8   8   4
#     4   9  17  31  53  81 110 137 169 210 259 315
#     4   9  20  38  55  76 106 137 176 223 266 307
#     4   9  19  35  54  77 108 141 168 208 266 314
#     4   9  18  35  58  80 106 139 170 210 266 317
#     4  11  23  36  53  76 102 139 186 225 254 301
#
# _framework density 19.418503999999999
#
# number of rings (size 3 to 8) (size 9 to 14) (size 15 to 20)
#    0.000    2.750    0.000    2.625    0.000    7.000 
#    0.000    5.625    0.000    0.000    0.000    0.000 
#    0.000    0.000    0.000    0.000    0.000    0.000 
#
# Total GULP energy -178440.398190 kJ/mol
# GULP energy per Si atom -5576.262443 kJ/mol
# Density = 1.937431 g / cm^3
# Si number density = 19.418504 Si / 1000 Ang^3
#
#
#
# Elastic Constant Matrix: (Units=GPa)
#
#
# Indices 1 2 3 4 5 6 
#
# 1 110.7671 18.5066 95.1117 0.0000 0.0000 0.0000
# 2 18.5066 8.5285 28.5664 0.0000 0.0000 0.0000
# 3 95.1117 28.5664 233.7940 0.0000 0.0000 0.0000
# 4 0.0000 0.0000 0.0000 29.4301 0.0000 0.0000
# 5 0.0000 0.0000 0.0000 0.0000 34.0109 0.0000
# 6 0.0000 0.0000 0.0000 0.0000 0.0000 18.3121
#
#
#
# Elastic Compliance Matrix: (Units=1/GPa)
#
#
# Indices 1 2 3 4 5 6 
#
# 1 0.015958 -0.021809 -0.003827 0.000000 0.000000 0.000000
# 2 -0.021809 0.228293 -0.019022 0.000000 0.000000 0.000000
# 3 -0.003827 -0.019022 0.008159 0.000000 0.000000 0.000000
# 4 0.000000 0.000000 0.000000 0.033979 0.000000 0.000000
# 5 0.000000 0.000000 0.000000 0.000000 0.029402 0.000000
# 6 0.000000 0.000000 0.000000 0.000000 0.000000 0.054609
#
#
# Mechanical properties :
#
#
# Convention : Reuss Voigt Hill
#
# Bulk Modulus (GPa) = 6.13147 70.82879 38.48013
# Shear Modulus (GPa) = 9.72611 30.41095 20.06853
#
# Velocity S-wave (km/s) = 2.24044 3.96167 3.21826
# Velocity P-wave (km/s) = 3.13961 7.58159 5.80248
#
# Compressibility (1/GPa) = 0.16309308
#
# Stress axis : x y z
#
# Youngs Moduli (GPa) = 62.66416 4.38034 122.57146
#
# Poissons Ratio (x) = 0.09553 0.46912
# Poissons Ratio (y) = 1.36664 2.33155
# Poissons Ratio (z) = 0.23983 0.08332
#
# Static dielectric constant tensor:
#      x y z
#    x 1.689600 0.000000 0.000000 
#    y 0.000000 1.666510 0.000000 
#    z 0.000000 0.000000 1.689010 
# 
# From -- ./inp_files/13661.got.cif
#   From: 2010.05.17/outbox.cif.g08.bks.cpg/sg59_7_cif.got.tgz:13661.got - 2010.06.03 14:40:33.
