data_PCOD9453829
_publ_section_title
;
Structure prediction by ZEFSAII (Michael W. Deem and Ramdas Pophale) SiO2 
 PCOD9453829
Probable space group: P B C N
;
_chemical_formula_sum "Si O2"
_cell_formula_units_Z 56
_cell_length_a 9.898746
_cell_length_b 20.569742
_cell_length_c 13.059834
_cell_angle_alpha 90.000000
_cell_angle_beta 90.000000
_cell_angle_gamma 90.000000
_cell_volume 2659.173547
_symmetry_space_group_name_H-M "P B C N"
_symmetry_group_IT_number 60
_symmetry_cell_setting 'orthorhombic'
loop_
_space_group_symop_operation_xyz
x,y,z
1/2-x,1/2-y,1/2+z
1/2+x,1/2-y,-z
-x,y,1/2-z
-x,-y,-z
1/2+x,1/2+y,1/2-z
1/2-x,1/2+y,z
x,-y,1/2+z
loop_
_atom_site_type_symbol
_atom_site_label
_atom_site_fract_x
_atom_site_fract_y
_atom_site_fract_z
Si Si1 0.487467 0.289238 0.109864
Si Si2 0.257957 0.847449 0.418321
Si Si3 0.355873 0.603941 0.301356
Si Si4 0.261323 0.197430 0.154766
Si Si5 0.777903 0.119416 0.973950
Si Si6 0.038567 0.710072 0.598128
Si Si7 0.148741 0.007333 0.946850
O O1 0.637105 0.310390 0.139211
O O2 0.396741 0.238097 0.170302
O O3 0.397555 0.354394 0.097614
O O4 0.501280 0.255923 0.998014
O O5 0.259569 0.822144 0.535532
O O6 0.402260 0.827819 0.370713
O O7 0.211892 0.922295 0.431120
O O8 0.500000 0.616098 0.250000
O O9 0.750378 0.633453 0.277092
O O10 0.326496 0.638004 0.410539
O O11 0.353128 0.529134 0.336973
O O12 0.129855 0.243743 0.170745
O O13 0.643716 0.156377 0.943376
O O14 0.764052 0.041811 0.981753
O O15 0.000000 0.000000 0.000000
#
# Coordination Sequence:
#
# PCOD9453829 Si02
#       7
#     8   8   8   8   8   8   8
#     4   9  16  31  54  80 113 142 192 233 281 353
#     4  10  17  32  56  87 114 155 192 238 291 348
#     4  10  19  32  55  82 112 155 198 241 295 351
#     4   9  18  33  55  86 108 153 189 240 294 352
#     4   9  19  32  52  87 112 145 195 241 279 352
#     4   9  18  31  55  88 115 143 189 241 291 351
#     4  10  19  32  56  83 115 154 207 239 284 358
#
# _framework density 21.059173999999999
#
# number of rings (size 3 to 8) (size 9 to 14) (size 15 to 20)
#    0.857    1.714    1.429    3.429    0.000    0.571 
#    0.000    2.857    0.000   12.000    3.714    0.000 
#    0.000    0.000    0.000    0.000    0.000    0.000 
#
# Total GULP energy -311899.050739 kJ/mol
# GULP energy per Si atom -5569.625906 kJ/mol
# Density = 2.101124 g / cm^3
# Si number density = 21.059174 Si / 1000 Ang^3
#
#
#
# Elastic Constant Matrix: (Units=GPa)
#
#
# Indices 1 2 3 4 5 6 
#
# 1 151.3649 67.0655 23.8907 0.0000 0.0000 0.0000
# 2 67.0655 124.4222 20.8337 0.0000 0.0000 0.0000
# 3 23.8907 20.8337 56.7211 0.0000 0.0000 0.0000
# 4 0.0000 0.0000 0.0000 37.6873 0.0000 0.0000
# 5 0.0000 0.0000 0.0000 0.0000 11.8467 0.0000
# 6 0.0000 0.0000 0.0000 0.0000 0.0000 26.5663
#
#
#
# Elastic Compliance Matrix: (Units=1/GPa)
#
#
# Indices 1 2 3 4 5 6 
#
# 1 0.008912 -0.004449 -0.002120 0.000000 0.000000 0.000000
# 2 -0.004449 0.010785 -0.002087 0.000000 0.000000 0.000000
# 3 -0.002120 -0.002087 0.019290 0.000000 0.000000 0.000000
# 4 0.000000 0.000000 0.000000 0.026534 0.000000 0.000000
# 5 0.000000 0.000000 0.000000 0.000000 0.084412 0.000000
# 6 0.000000 0.000000 0.000000 0.000000 0.000000 0.037642
#
#
# Mechanical properties :
#
#
# Convention : Reuss Voigt Hill
#
# Bulk Modulus (GPa) = 46.13697 61.78758 53.96228
# Shear Modulus (GPa) = 23.57256 29.93462 26.75359
#
# Velocity S-wave (km/s) = 3.34930 3.77431 3.56813
# Velocity P-wave (km/s) = 6.07560 6.95683 6.53109
#
# Compressibility (1/GPa) = 0.02167459
#
# Stress axis : x y z
#
# Youngs Moduli (GPa) = 112.20422 92.72384 51.84132
#
# Poissons Ratio (x) = 0.41252 0.10989
# Poissons Ratio (y) = 0.49919 0.10821
# Poissons Ratio (z) = 0.23784 0.19355
#
# Static dielectric constant tensor:
#      x y z
#    x 1.783370 0.000000 0.000000 
#    y 0.000000 1.778150 0.000000 
#    z 0.000000 0.000000 1.793270 
# 
# From -- ./inp_files/19732.got.cif
#   From: 2010.05.17/outbox.cif.g08.bks.cpg/sg60_10_cif.got.tgz:19732.got - 2010.06.03 14:59:27.
