data_PCOD9453135
_publ_section_title
;
Structure prediction by ZEFSAII (Michael W. Deem and Ramdas Pophale) SiO2 
 PCOD9453135
Probable space group: P M M N
;
_chemical_formula_sum "Si O2"
_cell_formula_units_Z 64
_cell_length_a 7.738451
_cell_length_b 19.574038
_cell_length_c 21.612039
_cell_angle_alpha 90.000000
_cell_angle_beta 90.000000
_cell_angle_gamma 90.000000
_cell_volume 3273.634633
_symmetry_space_group_name_H-M "P M M N"
_symmetry_group_IT_number 59
_space_group.IT_coordinate_system_code '2'
_symmetry_cell_setting 'orthorhombic'
loop_
_space_group_symop_operation_xyz
x,y,z
1/2-x,1/2-y,z
1/2+x,-y,-z
-x,1/2+y,-z
-x,-y,-z
1/2+x,1/2+y,-z
1/2-x,y,z
x,1/2-y,z
loop_
_atom_site_type_symbol
_atom_site_label
_atom_site_fract_x
_atom_site_fract_y
_atom_site_fract_z
Si Si1 0.953648 0.079309 0.002477
Si Si2 0.457869 0.828153 0.886470
Si Si3 0.457897 0.172482 0.886866
Si Si4 0.041428 0.419178 0.365637
Si Si5 0.957572 0.919346 0.499650
Si Si6 0.958189 0.671926 0.747665
Si Si7 0.960929 0.828840 0.252240
Si Si8 0.958283 0.920554 0.364993
O O1 0.750000 0.081488 0.010387
O O2 0.028378 0.121643 0.060742
O O3 0.995231 0.119283 0.939563
O O4 0.000000 0.000000 0.000000
O O5 0.250000 0.824890 0.891760
O O6 0.523413 0.750000 0.893696
O O7 0.497413 0.851873 0.816827
O O8 0.250000 0.175384 0.884574
O O9 0.519483 0.250000 0.900980
O O10 0.517688 0.153371 0.817577
O O11 0.250000 0.413974 0.366348
O O12 0.978407 0.393991 0.433456
O O13 0.976373 0.375718 0.307609
O O14 0.998698 0.499192 0.358974
O O15 0.750000 0.911006 0.499557
O O16 0.022067 0.894852 0.432554
O O17 0.000000 0.000000 0.500000
O O18 0.750000 0.673491 0.743591
O O19 0.021502 0.750000 0.741412
O O20 0.750000 0.831637 0.252281
O O21 0.008431 0.750000 0.263718
O O22 0.023941 0.877950 0.306569
O O23 0.750000 0.914254 0.365695
#
# Coordination Sequence:
#
# PCOD9453135 Si02
#       8
#     8   8   8   8   8   8   8   8
#     4  11  23  37  53  75 103 129 157 198 243 284
#     4   9  19  36  55  72  92 122 158 194 233 278
#     4   9  18  34  55  75  97 129 164 195 235 289
#     4   9  17  29  44  64  93 124 153 190 236 278
#     4   8  14  25  41  62  88 119 154 190 228 272
#     4   9  18  32  49  69  94 124 156 190 230 279
#     4   8  15  29  48  70  96 123 152 190 233 275
#     4   9  16  27  46  69  90 118 159 197 228 270
#
# _framework density 19.550135999999998
#
# number of rings (size 3 to 8) (size 9 to 14) (size 15 to 20)
#    0.000    3.000    0.000    1.500    0.000    3.250 
#    0.000    6.250    0.000    4.875    0.000    0.000 
#    0.000   10.000    0.000    0.000    0.000    0.000 
#
# Total GULP energy -356633.297260 kJ/mol
# GULP energy per Si atom -5572.395270 kJ/mol
# Density = 1.950564 g / cm^3
# Si number density = 19.550136 Si / 1000 Ang^3
#
#
#
# Elastic Constant Matrix: (Units=GPa)
#
#
# Indices 1 2 3 4 5 6 
#
# 1 30.2197 4.7225 8.5111 0.0000 0.0000 0.0000
# 2 4.7225 95.8146 123.8354 0.0000 0.0000 0.0000
# 3 8.5111 123.8354 233.2291 0.0000 0.0000 0.0000
# 4 0.0000 0.0000 0.0000 44.2695 0.0000 0.0000
# 5 0.0000 0.0000 0.0000 0.0000 10.2211 0.0000
# 6 0.0000 0.0000 0.0000 0.0000 0.0000 19.9390
#
#
#
# Elastic Compliance Matrix: (Units=1/GPa)
#
#
# Indices 1 2 3 4 5 6 
#
# 1 0.033436 -0.000226 -0.001100 0.000000 0.000000 0.000000
# 2 -0.000226 0.033265 -0.017654 0.000000 0.000000 0.000000
# 3 -0.001100 -0.017654 0.013701 0.000000 0.000000 0.000000
# 4 0.000000 0.000000 0.000000 0.022589 0.000000 0.000000
# 5 0.000000 0.000000 0.000000 0.000000 0.097837 0.000000
# 6 0.000000 0.000000 0.000000 0.000000 0.000000 0.050153
#
#
# Mechanical properties :
#
#
# Convention : Reuss Voigt Hill
#
# Bulk Modulus (GPa) = 23.56169 70.37793 46.96981
# Shear Modulus (GPa) = 16.49674 29.69886 23.09780
#
# Velocity S-wave (km/s) = 2.90800 3.90181 3.44097
# Velocity P-wave (km/s) = 4.83254 7.50837 6.31384
#
# Compressibility (1/GPa) = 0.04244177
#
# Stress axis : x y z
#
# Youngs Moduli (GPa) = 29.90775 30.06143 72.98475
#
# Poissons Ratio (x) = 0.00680 0.08029
# Poissons Ratio (y) = 0.00677 1.28849
# Poissons Ratio (z) = 0.03290 0.53071
#
# Static dielectric constant tensor:
#      x y z
#    x 1.723050 0.000000 0.000000 
#    y 0.000000 1.628760 0.000000 
#    z 0.000000 0.000000 1.724200 
# 
# From -- ./inp_files/29409.got.cif
#   From: 2010.05.17/outbox.cif.g08.bks.cpg/sg59_15_cif.got.tgz:29409.got - 2010.06.03 14:40:33.
