data_PCOD9453733
_publ_section_title
;
Structure prediction by ZEFSAII (Michael W. Deem and Ramdas Pophale) SiO2 
 PCOD9453733
Probable space group: P B C N
;
_chemical_formula_sum "Si O2"
_cell_formula_units_Z 64
_cell_length_a 22.710618
_cell_length_b 5.351108
_cell_length_c 27.970000
_cell_angle_alpha 90.000000
_cell_angle_beta 90.000000
_cell_angle_gamma 90.000000
_cell_volume 3399.109342
_symmetry_space_group_name_H-M "P B C N"
_symmetry_group_IT_number 60
_symmetry_cell_setting 'orthorhombic'
loop_
_space_group_symop_operation_xyz
x,y,z
1/2-x,1/2-y,1/2+z
1/2+x,1/2-y,-z
-x,y,1/2-z
-x,-y,-z
1/2+x,1/2+y,1/2-z
1/2-x,1/2+y,z
x,-y,1/2+z
loop_
_atom_site_type_symbol
_atom_site_label
_atom_site_fract_x
_atom_site_fract_y
_atom_site_fract_z
Si Si1 0.192436 0.927756 0.664231
Si Si2 0.043850 0.088686 0.704661
Si Si3 0.165627 0.038752 0.762065
Si Si4 0.004214 0.588854 0.807643
Si Si5 0.789111 0.486475 0.582456
Si Si6 0.710336 0.023011 0.475801
Si Si7 0.823679 0.572663 0.374363
Si Si8 0.856408 0.460599 0.179865
O O1 0.252756 0.901228 0.634456
O O2 0.160277 0.662276 0.658738
O O3 0.210306 0.999467 0.718242
O O4 0.155462 0.155188 0.641713
O O5 0.035245 0.352008 0.678373
O O6 0.000000 0.116256 0.750000
O O7 0.105321 0.038776 0.730952
O O8 0.020839 0.852953 0.674745
O O9 0.166944 0.299417 0.790186
O O10 0.165498 0.799289 0.796542
O O11 0.072611 0.543914 0.818896
O O12 0.000000 0.613642 0.750000
O O13 0.756653 0.218428 0.586182
O O14 0.815924 0.507322 0.529107
O O15 0.833407 0.514655 0.626196
O O16 0.745958 0.284607 0.472356
O O17 0.667925 0.015805 0.429999
#
# Coordination Sequence:
#
# PCOD9453733 Si02
#       8
#     8   8   8   8   8   8   8   8
#     4  10  20  30  46  73  92 124 170 190 234 295
#     4  10  16  30  48  68  89 127 165 200 244 268
#     4  12  21  32  48  69 105 138 158 201 234 293
#     4  10  16  30  51  69  88 127 170 205 240 271
#     4  10  23  38  49  74  99 132 174 200 239 301
#     4  10  16  32  59  68  85 122 158 214 261 270
#     4  10  17  35  49  68  92 122 157 215 244 274
#     4  12  21  35  50  69 104 142 165 202 236 285
#
# _framework density 18.828464
#
# number of rings (size 3 to 8) (size 9 to 14) (size 15 to 20)
#    0.000    1.500    7.500    1.500    0.000    0.000 
#   13.500    0.000    0.000    0.000    0.000    0.000 
#    0.000    6.000    0.000    0.000    0.000    0.000 
#
# Total GULP energy -356850.155576 kJ/mol
# GULP energy per Si atom -5575.783681 kJ/mol
# Density = 1.878561 g / cm^3
# Si number density = 18.828464 Si / 1000 Ang^3
#
#
#
# Elastic Constant Matrix: (Units=GPa)
#
#
# Indices 1 2 3 4 5 6 
#
# 1 21.6754 -9.8188 6.9884 0.0000 0.0000 0.0000
# 2 -9.8188 149.9761 6.8821 0.0000 0.0000 0.0000
# 3 6.9884 6.8821 78.6118 0.0000 0.0000 0.0000
# 4 0.0000 0.0000 0.0000 28.6147 0.0000 0.0000
# 5 0.0000 0.0000 0.0000 0.0000 -3.1051 0.0000
# 6 0.0000 0.0000 0.0000 0.0000 0.0000 12.7990
#
#
#
# Elastic Compliance Matrix: (Units=1/GPa)
#
#
# Indices 1 2 3 4 5 6 
#
# 1 0.049199 0.003435 -0.004674 0.000000 0.000000 0.000000
# 2 0.003435 0.006935 -0.000912 0.000000 0.000000 0.000000
# 3 -0.004674 -0.000912 0.013216 0.000000 0.000000 0.000000
# 4 0.000000 0.000000 0.000000 0.034947 0.000000 0.000000
# 5 0.000000 0.000000 0.000000 0.000000 -0.322052 0.000000
# 6 0.000000 0.000000 0.000000 0.000000 0.000000 0.078131
#
#
# Mechanical properties :
#
#
# Convention : Reuss Voigt Hill
#
# Bulk Modulus (GPa) = 15.37359 28.70740 22.04050
# Shear Modulus (GPa) = -43.99872 24.07582 -9.96145
#
# Velocity S-wave (km/s) = -4.83931 3.57976 -2.30263
# Velocity P-wave (km/s) = 4.80025 5.68913 2.15914
#
# Compressibility (1/GPa) = 0.06504660
#
# Stress axis : x y z
#
# Youngs Moduli (GPa) = 20.32574 144.20603 75.66488
#
# Poissons Ratio (x) = -0.49542 0.35369
# Poissons Ratio (y) = -0.06983 0.06904
# Poissons Ratio (z) = 0.09501 0.13159
#
# Static dielectric constant tensor:
#      x y z
#    x 1.721960 0.000000 0.000000 
#    y 0.000000 1.791390 0.000000 
#    z 0.000000 0.000000 1.650810 
# 
# From -- ./inp_files/23354.got.cif
#   From: 2010.05.17/outbox.cif.g08.bks.cpg/sg60_12_cif.got.tgz:23354.got - 2010.06.03 14:59:27.
