data_PCOD9453846
_publ_section_title
;
Structure prediction by ZEFSAII (Michael W. Deem and Ramdas Pophale) SiO2 
 PCOD9453846
Probable space group: P B C N
;
_chemical_formula_sum "Si O2"
_cell_formula_units_Z 48
_cell_length_a 19.339170
_cell_length_b 23.879127
_cell_length_c 5.389886
_cell_angle_alpha 90.000000
_cell_angle_beta 90.000000
_cell_angle_gamma 90.000000
_cell_volume 2489.062811
_symmetry_space_group_name_H-M "P B C N"
_symmetry_group_IT_number 60
_symmetry_cell_setting 'orthorhombic'
loop_
_space_group_symop_operation_xyz
x,y,z
1/2-x,1/2-y,1/2+z
1/2+x,1/2-y,-z
-x,y,1/2-z
-x,-y,-z
1/2+x,1/2+y,1/2-z
1/2-x,1/2+y,z
x,-y,1/2+z
loop_
_atom_site_type_symbol
_atom_site_label
_atom_site_fract_x
_atom_site_fract_y
_atom_site_fract_z
Si Si1 0.454708 0.347671 0.500051
Si Si2 0.608702 0.120246 0.376009
Si Si3 0.076086 0.269617 0.878948
Si Si4 0.000000 0.339190 0.250000
Si Si5 0.382779 0.533493 0.010756
Si Si6 0.500000 0.037364 0.250000
Si Si7 0.783100 0.466677 0.016823
O O1 0.500000 0.335225 0.750000
O O2 0.405395 0.294396 0.434493
O O3 0.415742 0.405657 0.540878
O O4 0.500000 0.354916 0.250000
O O5 0.618708 0.182941 0.267803
O O6 0.546121 0.125039 0.569631
O O7 0.569333 0.075423 0.203352
O O8 0.676638 0.091323 0.479333
O O9 0.000000 0.267202 0.750000
O O10 0.057649 0.299185 0.133895
O O11 0.402442 0.496003 0.250246
O O12 0.299664 0.539996 0.000088
O O13 0.500000 0.000000 0.500000
O O14 0.801097 0.506530 0.782739
#
# Coordination Sequence:
#
# PCOD9453846 Si02
#       7
#     8   8   8   4   8   4   8
#     4  11  22  37  65  94 118 148 190 237 296 368
#     4  11  21  34  55  78 114 155 198 242 288 336
#     4   9  19  34  54  81 115 153 185 233 294 339
#     4  10  17  34  54  78 112 149 192 236 292 328
#     4  10  22  42  63  87 121 153 187 240 297 356
#     4  12  23  30  46  78 108 137 188 246 274 310
#     4  10  23  40  59  80 114 161 199 235 294 354
#
# _framework density 19.284368000000001
#
# number of rings (size 3 to 8) (size 9 to 14) (size 15 to 20)
#    0.000    1.667    3.333    2.500    2.333    2.000 
#    0.000    0.000    3.667    0.000    0.000    0.000 
#    0.000    0.000    0.000    0.000    0.000    0.000 
#
# Total GULP energy -267302.193516 kJ/mol
# GULP energy per Si atom -5568.795698 kJ/mol
# Density = 1.924048 g / cm^3
# Si number density = 19.284368 Si / 1000 Ang^3
#
#
#
# Elastic Constant Matrix: (Units=GPa)
#
#
# Indices 1 2 3 4 5 6 
#
# 1 18.1283 26.0779 10.7174 0.0000 0.0000 0.0000
# 2 26.0779 143.2142 32.5580 0.0000 0.0000 0.0000
# 3 10.7174 32.5580 97.8224 0.0000 0.0000 0.0000
# 4 0.0000 0.0000 0.0000 21.1513 0.0000 0.0000
# 5 0.0000 0.0000 0.0000 0.0000 8.8603 0.0000
# 6 0.0000 0.0000 0.0000 0.0000 0.0000 17.7776
#
#
#
# Elastic Compliance Matrix: (Units=1/GPa)
#
#
# Indices 1 2 3 4 5 6 
#
# 1 0.076184 -0.012955 -0.004035 0.000000 0.000000 0.000000
# 2 -0.012955 0.009757 -0.001828 0.000000 0.000000 0.000000
# 3 -0.004035 -0.001828 0.011273 0.000000 0.000000 0.000000
# 4 0.000000 0.000000 0.000000 0.047278 0.000000 0.000000
# 5 0.000000 0.000000 0.000000 0.000000 0.112862 0.000000
# 6 0.000000 0.000000 0.000000 0.000000 0.000000 0.056251
#
#
# Mechanical properties :
#
#
# Convention : Reuss Voigt Hill
#
# Bulk Modulus (GPa) = 16.78469 44.20796 30.49633
# Shear Modulus (GPa) = 13.47341 22.21195 17.84268
#
# Velocity S-wave (km/s) = 2.64610 3.39752 3.04508
# Velocity P-wave (km/s) = 4.24953 6.19394 5.31147
#
# Compressibility (1/GPa) = 0.05957810
#
# Stress axis : x y z
#
# Youngs Moduli (GPa) = 13.12612 102.48914 88.70662
#
# Poissons Ratio (x) = 1.32775 0.35792
# Poissons Ratio (y) = 0.17005 0.16216
# Poissons Ratio (z) = 0.05296 0.18736
#
# Static dielectric constant tensor:
#      x y z
#    x 1.667250 0.000000 0.000000 
#    y 0.000000 1.722600 0.000000 
#    z 0.000000 0.000000 2.029650 
# 
# From -- ./inp_files/2072.got.cif
#   From: 2010.05.17/outbox.cif.g08.bks.cpg/sg60_2_cif.got.tgz:2072.got - 2010.06.03 14:59:27.
