data_PCOD9453952
_publ_section_title
;
Structure prediction by ZEFSAII (Michael W. Deem and Ramdas Pophale) SiO2 
 PCOD9453952
Probable space group: P B C N
;
_chemical_formula_sum "Si O2"
_cell_formula_units_Z 36
_cell_length_a 20.724919
_cell_length_b 8.651237
_cell_length_c 7.824178
_cell_angle_alpha 90.000000
_cell_angle_beta 90.000000
_cell_angle_gamma 90.000000
_cell_volume 1402.845275
_symmetry_space_group_name_H-M "P B C N"
_symmetry_group_IT_number 60
_symmetry_cell_setting 'orthorhombic'
loop_
_space_group_symop_operation_xyz
x,y,z
1/2-x,1/2-y,1/2+z
1/2+x,1/2-y,-z
-x,y,1/2-z
-x,-y,-z
1/2+x,1/2+y,1/2-z
1/2-x,1/2+y,z
x,-y,1/2+z
loop_
_atom_site_type_symbol
_atom_site_label
_atom_site_fract_x
_atom_site_fract_y
_atom_site_fract_z
Si Si1 0.392660 0.549555 0.552015
Si Si2 0.893681 0.314719 0.519146
Si Si3 0.341596 0.788134 0.314144
Si Si4 0.000000 0.753263 0.250000
Si Si5 0.298140 0.775550 0.679674
O O1 0.398227 0.370864 0.514400
O O2 0.385575 0.644886 0.375063
O O3 0.450401 0.634846 0.650500
O O4 0.326643 0.602978 0.646499
O O5 0.880525 0.379739 0.330750
O O6 0.835918 0.336488 0.655031
O O7 0.959786 0.349143 0.616385
O O8 0.317305 0.852980 0.497996
O O9 0.276618 0.734276 0.219398
#
# Coordination Sequence:
#
# PCOD9453952 Si02
#       5
#     8   8   8   4   8
#     4   9  20  30  46  67  94 132 157 189 221 267
#     4  11  18  33  44  67  98 123 165 181 223 267
#     4  10  18  31  48  59  87 125 158 201 230 260
#     4  10  20  30  42  68  98 130 166 178 210 270
#     4   9  19  30  45  65  81 124 163 193 237 259
#
# _framework density 25.662133999999998
#
# number of rings (size 3 to 8) (size 9 to 14) (size 15 to 20)
#    1.333    0.889    2.222    3.333    0.000    0.889 
#    0.000    0.000    0.000    0.000    0.000    0.000 
#    0.000    0.000    0.000  452.000    0.000    0.000 
#
# Total GULP energy -201064.705261 kJ/mol
# GULP energy per Si atom -5585.130702 kJ/mol
# Density = 2.560373 g / cm^3
# Si number density = 25.662134 Si / 1000 Ang^3
#
#
#
# Elastic Constant Matrix: (Units=GPa)
#
#
# Indices 1 2 3 4 5 6 
#
# 1 121.1952 13.7558 52.9298 0.0000 0.0000 0.0000
# 2 13.7558 66.1423 31.9107 0.0000 0.0000 0.0000
# 3 52.9298 31.9107 211.1819 0.0000 0.0000 0.0000
# 4 0.0000 0.0000 0.0000 63.5834 0.0000 0.0000
# 5 0.0000 0.0000 0.0000 0.0000 50.7168 0.0000
# 6 0.0000 0.0000 0.0000 0.0000 0.0000 2.7704
#
#
#
# Elastic Compliance Matrix: (Units=1/GPa)
#
#
# Indices 1 2 3 4 5 6 
#
# 1 0.009312 -0.000874 -0.002202 0.000000 0.000000 0.000000
# 2 -0.000874 0.016390 -0.002257 0.000000 0.000000 0.000000
# 3 -0.002202 -0.002257 0.005628 0.000000 0.000000 0.000000
# 4 0.000000 0.000000 0.000000 0.015727 0.000000 0.000000
# 5 0.000000 0.000000 0.000000 0.000000 0.019717 0.000000
# 6 0.000000 0.000000 0.000000 0.000000 0.000000 0.360958
#
#
# Mechanical properties :
#
#
# Convention : Reuss Voigt Hill
#
# Bulk Modulus (GPa) = 48.39606 66.19022 57.29314
# Shear Modulus (GPa) = 11.22870 43.40901 27.31886
#
# Velocity S-wave (km/s) = 2.09406 4.11732 3.26630
# Velocity P-wave (km/s) = 4.97460 6.96075 6.04974
#
# Compressibility (1/GPa) = 0.02066284
#
# Stress axis : x y z
#
# Youngs Moduli (GPa) = 107.38842 61.01330 177.67617
#
# Poissons Ratio (x) = 0.05335 0.39121
# Poissons Ratio (y) = 0.09390 0.40109
# Poissons Ratio (z) = 0.23645 0.13773
#
# Static dielectric constant tensor:
#      x y z
#    x 1.967620 0.000000 0.000000 
#    y 0.000000 2.016650 0.000000 
#    z 0.000000 0.000000 2.112560 
# 
# From -- ./inp_files/7800.got.cif
#   From: 2010.05.17/outbox.cif.g08.bks.cpg/sg60_4_cif.got.tgz:7800.got - 2010.06.03 14:59:27.
