data_PCOD9453580
_publ_section_title
;
Structure prediction by ZEFSAII (Michael W. Deem and Ramdas Pophale) SiO2 
 PCOD9453580
Probable space group: P M M N
;
_chemical_formula_sum "Si O2"
_cell_formula_units_Z 48
_cell_length_a 9.000000
_cell_length_b 30.000000
_cell_length_c 9.000000
_cell_angle_alpha 90.000000
_cell_angle_beta 90.000000
_cell_angle_gamma 90.000000
_cell_volume 2430.000000
_symmetry_space_group_name_H-M "P M M N"
_symmetry_group_IT_number 59
_space_group.IT_coordinate_system_code '2'
_symmetry_cell_setting 'orthorhombic'
loop_
_space_group_symop_operation_xyz
x,y,z
1/2-x,1/2-y,z
1/2+x,-y,-z
-x,1/2+y,-z
-x,-y,-z
1/2+x,1/2+y,-z
1/2-x,y,z
x,1/2-y,z
loop_
_atom_site_type_symbol
_atom_site_label
_atom_site_fract_x
_atom_site_fract_y
_atom_site_fract_z
Si Si1 0.082805 0.301815 0.191343
Si Si2 0.420957 0.365007 0.469737
Si Si3 0.576910 0.357010 0.963457
Si Si4 0.071882 0.300348 0.717245
Si Si5 0.571676 0.044392 0.570950
Si Si6 0.572328 0.456863 0.923801
O O1 0.250000 0.302101 0.120465
O O2 0.062112 0.250000 0.240438
O O3 0.085949 0.341238 0.311508
O O4 0.953267 0.319644 0.086840
O O5 0.250000 0.375266 0.514475
O O6 0.480223 0.323463 0.566387
O O7 0.511880 0.410281 0.493721
O O8 0.750000 0.358347 0.921607
O O9 0.477839 0.337087 0.833693
O O10 0.532740 0.408466 0.995045
O O11 0.250000 0.297155 0.713099
O O12 0.015199 0.250000 0.743233
O O13 0.750000 0.042453 0.556039
O O14 0.535803 0.045866 0.747710
O O15 0.500000 0.000000 0.500000
O O16 0.750000 0.461859 0.936493
O O17 0.500000 0.500000 0.000000
#
# Coordination Sequence:
#
# PCOD9453580 Si02
#       6
#     8   8   8   8   8   8
#     4  10  22  40  61  88 123 162 204 248 294 349
#     4  10  21  39  63  90 120 157 199 247 299 353
#     4  11  23  40  59  87 123 158 198 247 298 354
#     4  10  20  36  61  90 118 154 199 244 293 353
#     4  11  24  43  64  91 123 156 197 247 302 362
#     4  10  24  43  63  88 120 156 198 246 300 357
#
# _framework density 19.753086
#
# number of rings (size 3 to 8) (size 9 to 14) (size 15 to 20)
#    0.000    1.667    1.667    2.000    2.333    8.000 
#    0.000    0.000    0.000    3.000    0.000    0.000 
#    0.000    0.000    0.000    0.000    0.000    0.000 
#
# Total GULP energy -267343.192919 kJ/mol
# GULP energy per Si atom -5569.649852 kJ/mol
# Density = 1.970813 g / cm^3
# Si number density = 19.753086 Si / 1000 Ang^3
#
#
#
# Elastic Constant Matrix: (Units=GPa)
#
#
# Indices 1 2 3 4 5 6 
#
# 1 33.3639 60.4622 16.2690 0.0000 0.0000 0.0000
# 2 60.4622 153.1514 12.7266 0.0000 0.0000 0.0000
# 3 16.2690 12.7266 22.6173 0.0000 0.0000 0.0000
# 4 0.0000 0.0000 0.0000 32.8558 0.0000 0.0000
# 5 0.0000 0.0000 0.0000 0.0000 -53.1316 0.0000
# 6 0.0000 0.0000 0.0000 0.0000 0.0000 43.7223
#
#
#
# Elastic Compliance Matrix: (Units=1/GPa)
#
#
# Indices 1 2 3 4 5 6 
#
# 1 0.275525 -0.096832 -0.143702 0.000000 0.000000 0.000000
# 2 -0.096832 0.040881 0.046649 0.000000 0.000000 0.000000
# 3 -0.143702 0.046649 0.121332 0.000000 0.000000 0.000000
# 4 0.000000 0.000000 0.000000 0.030436 0.000000 0.000000
# 5 0.000000 0.000000 0.000000 0.000000 -0.018821 0.000000
# 6 0.000000 0.000000 0.000000 0.000000 0.000000 0.022872
#
#
# Mechanical properties :
#
#
# Convention : Reuss Voigt Hill
#
# Bulk Modulus (GPa) = 20.01304 43.11647 31.56475
# Shear Modulus (GPa) = 5.70353 12.66761 9.18557
#
# Velocity S-wave (km/s) = 1.70108 2.53513 2.15877
# Velocity P-wave (km/s) = 3.74324 5.51764 4.71467
#
# Compressibility (1/GPa) = 0.04996741
#
# Stress axis : x y z
#
# Youngs Moduli (GPa) = 3.62944 24.46122 8.24186
#
# Poissons Ratio (x) = 2.36863 1.18437
# Poissons Ratio (y) = 0.35145 -0.38448
# Poissons Ratio (z) = 0.52156 -1.14110
#
# Static dielectric constant tensor:
#      x y z
#    x 1.689630 0.000000 0.000000 
#    y 0.000000 1.660440 0.000000 
#    z 0.000000 0.000000 1.662770 
# 
# From -- ./inp_files/6195.got.cif
#   From: 2010.05.17/outbox.ucp.g08.bks.cvg/sg59_4_cif.got.tgz:6195.got - 2010.06.11 16:43:56.
