data_PCOD9453002
_publ_section_title
;
Structure prediction by ZEFSAII (Michael W. Deem and Ramdas Pophale) SiO2 
 PCOD9453002
Probable space group: P M M N
;
_chemical_formula_sum "Si O2"
_cell_formula_units_Z 48
_cell_length_a 15.103913
_cell_length_b 17.004157
_cell_length_c 7.596599
_cell_angle_alpha 90.000000
_cell_angle_beta 90.000000
_cell_angle_gamma 90.000000
_cell_volume 1951.029264
_symmetry_space_group_name_H-M "P M M N"
_symmetry_group_IT_number 59
_space_group.IT_coordinate_system_code '2'
_symmetry_cell_setting 'orthorhombic'
loop_
_space_group_symop_operation_xyz
x,y,z
1/2-x,1/2-y,z
1/2+x,-y,-z
-x,1/2+y,-z
-x,-y,-z
1/2+x,1/2+y,-z
1/2-x,y,z
x,1/2-y,z
loop_
_atom_site_type_symbol
_atom_site_label
_atom_site_fract_x
_atom_site_fract_y
_atom_site_fract_z
Si Si1 0.142550 0.166490 0.248124
Si Si2 0.151334 0.499385 0.231579
Si Si3 0.908679 0.999010 0.395832
Si Si4 0.143862 0.163959 0.669171
Si Si5 0.852546 0.334649 0.261426
Si Si6 0.146656 0.833159 0.159810
O O1 0.250000 0.164813 0.227643
O O2 0.110029 0.250000 0.174695
O O3 0.125914 0.167609 0.458007
O O4 0.109094 0.083410 0.173664
O O5 0.250000 0.504184 0.149816
O O6 0.159652 0.492650 0.442039
O O7 0.105385 0.583083 0.205476
O O8 0.897547 0.084096 0.311246
O O9 0.895117 0.921051 0.278106
O O10 0.000000 0.000000 0.500000
O O11 0.250000 0.160332 0.695746
O O12 0.114927 0.250000 0.740854
O O13 0.750000 0.338911 0.320234
O O14 0.889383 0.250000 0.325942
O O15 0.852026 0.330889 0.050615
O O16 0.250000 0.835101 0.220643
O O17 0.108369 0.750000 0.225034
#
# Coordination Sequence:
#
# PCOD9453002 Si02
#       6
#     8   8   8   8   8   8
#     4   7  10  18  35  59  82 104 136 180 226 267
#     4   9  16  28  47  69  92 121 162 207 244 282
#     4  11  21  30  44  73 106 133 159 196 246 299
#     4   8  14  27  46  63  83 118 161 199 232 272
#     4   9  18  34  54  73  96 129 167 206 251 301
#     4   8  15  29  50  73  93 119 161 210 254 293
#
# _framework density 24.602398999999998
#
# number of rings (size 3 to 8) (size 9 to 14) (size 15 to 20)
#    0.000    3.333    0.000    4.500    0.000    1.333 
#    0.000    2.500    0.000    1.000    0.000    4.667 
#    0.000    0.000    0.000    0.000    0.000    0.333 
#
# Total GULP energy -267398.077374 kJ/mol
# GULP energy per Si atom -5570.793279 kJ/mol
# Density = 2.454640 g / cm^3
# Si number density = 24.602399 Si / 1000 Ang^3
#
#
#
# Elastic Constant Matrix: (Units=GPa)
#
#
# Indices 1 2 3 4 5 6 
#
# 1 73.6016 25.1971 -1.2506 0.0000 0.0000 0.0000
# 2 25.1971 342.4993 20.0937 0.0000 0.0000 0.0000
# 3 -1.2506 20.0937 40.0033 0.0000 0.0000 0.0000
# 4 0.0000 0.0000 0.0000 102.0362 0.0000 0.0000
# 5 0.0000 0.0000 0.0000 0.0000 6.2815 0.0000
# 6 0.0000 0.0000 0.0000 0.0000 0.0000 -19.4584
#
#
#
# Elastic Compliance Matrix: (Units=1/GPa)
#
#
# Indices 1 2 3 4 5 6 
#
# 1 0.013975 -0.001086 0.000982 0.000000 0.000000 0.000000
# 2 -0.001086 0.003093 -0.001587 0.000000 0.000000 0.000000
# 3 0.000982 -0.001587 0.025826 0.000000 0.000000 0.000000
# 4 0.000000 0.000000 0.000000 0.009800 0.000000 0.000000
# 5 0.000000 0.000000 0.000000 0.000000 0.159197 0.000000
# 6 0.000000 0.000000 0.000000 0.000000 0.000000 -0.051392
#
#
# Mechanical properties :
#
#
# Convention : Reuss Voigt Hill
#
# Bulk Modulus (GPa) = 25.30880 60.46497 42.88689
# Shear Modulus (GPa) = 28.24031 45.24280 36.74156
#
# Velocity S-wave (km/s) = 3.39170 4.29296 3.86866
# Velocity P-wave (km/s) = 5.06435 7.01448 6.11762
#
# Compressibility (1/GPa) = 0.03951194
#
# Stress axis : x y z
#
# Youngs Moduli (GPa) = 71.55608 323.33988 38.72067
#
# Poissons Ratio (x) = 0.35107 -0.03803
# Poissons Ratio (y) = 0.07769 0.06147
# Poissons Ratio (z) = -0.07029 0.51328
#
# Static dielectric constant tensor:
#      x y z
#    x 1.925210 0.000000 0.000000 
#    y 0.000000 2.105860 0.000000 
#    z 0.000000 0.000000 1.948930 
# 
# From -- ./inp_files/16799.got.cif
#   From: 2010.05.17/outbox.cif.g08.bks.cpg/sg59_9_cif.got.tgz:16799.got - 2010.06.03 14:40:33.
