data_PCOD9453789
_publ_section_title
;
Structure prediction by ZEFSAII (Michael W. Deem and Ramdas Pophale) SiO2 
 PCOD9453789
Probable space group: P B C N
;
_chemical_formula_sum "Si O2"
_cell_formula_units_Z 60
_cell_length_a 5.566098
_cell_length_b 29.384655
_cell_length_c 17.300456
_cell_angle_alpha 90.000000
_cell_angle_beta 90.000000
_cell_angle_gamma 90.000000
_cell_volume 2829.625723
_symmetry_space_group_name_H-M "P B C N"
_symmetry_group_IT_number 60
_symmetry_cell_setting 'orthorhombic'
loop_
_space_group_symop_operation_xyz
x,y,z
1/2-x,1/2-y,1/2+z
1/2+x,1/2-y,-z
-x,y,1/2-z
-x,-y,-z
1/2+x,1/2+y,1/2-z
1/2-x,1/2+y,z
x,-y,1/2+z
loop_
_atom_site_type_symbol
_atom_site_label
_atom_site_fract_x
_atom_site_fract_y
_atom_site_fract_z
Si Si1 0.287230 0.329496 0.627583
Si Si2 0.325503 0.253920 0.879343
Si Si3 0.295145 0.938671 0.451907
Si Si4 0.000000 0.269529 0.750000
Si Si5 0.271105 0.065160 0.138438
Si Si6 0.940090 0.305747 0.494584
Si Si7 0.274759 0.537427 0.378345
Si Si8 0.797419 0.898544 0.470861
O O1 0.534477 0.301704 0.631523
O O2 0.286968 0.381834 0.651212
O O3 0.122324 0.301791 0.686933
O O4 0.164068 0.326577 0.542785
O O5 0.496887 0.215109 0.911971
O O6 0.191969 0.242139 0.800430
O O7 0.149167 0.264546 0.951160
O O8 0.296018 0.943063 0.545342
O O9 0.552588 0.916769 0.430530
O O10 0.053253 0.910283 0.432955
O O11 0.267564 0.988425 0.416182
O O12 0.535414 0.051589 0.167022
O O13 0.033512 0.038059 0.162516
O O14 0.746113 0.345463 0.485558
O O15 0.300289 0.575205 0.446684
#
# Coordination Sequence:
#
# PCOD9453789 Si02
#       8
#     8   8   8   4   8   8   8   8
#     4  11  21  39  55  81 115 157 196 253 303 377
#     4  11  22  39  58  85 111 161 201 263 316 383
#     4  10  17  28  45  71 117 154 183 227 297 354
#     4  10  26  40  58  80 116 162 204 250 322 380
#     4  10  18  28  49  72 108 150 194 225 284 352
#     4  11  21  33  58  83 114 149 207 252 311 364
#     4  10  17  28  44  75 111 157 182 230 290 356
#     4  10  18  28  44  75 108 153 183 236 288 358
#
# _framework density 21.204218999999998
#
# number of rings (size 3 to 8) (size 9 to 14) (size 15 to 20)
#    0.000    1.600    4.000    6.000    1.867    0.000 
#    0.000    0.000    0.000    0.000    0.000    0.000 
#    0.000    6.400    0.000    0.000    0.000    0.000 
#
# Total GULP energy -334966.690753 kJ/mol
# GULP energy per Si atom -5582.778179 kJ/mol
# Density = 2.115596 g / cm^3
# Si number density = 21.204219 Si / 1000 Ang^3
#
#
#
# Elastic Constant Matrix: (Units=GPa)
#
#
# Indices 1 2 3 4 5 6 
#
# 1 127.3593 -9.1390 -5.1532 0.0000 0.0000 0.0000
# 2 -9.1390 45.3655 0.5255 0.0000 0.0000 0.0000
# 3 -5.1532 0.5255 24.6376 0.0000 0.0000 0.0000
# 4 0.0000 0.0000 0.0000 5.7500 0.0000 0.0000
# 5 0.0000 0.0000 0.0000 0.0000 0.7353 0.0000
# 6 0.0000 0.0000 0.0000 0.0000 0.0000 22.9228
#
#
#
# Elastic Compliance Matrix: (Units=1/GPa)
#
#
# Indices 1 2 3 4 5 6 
#
# 1 0.008033 0.001599 0.001646 0.000000 0.000000 0.000000
# 2 0.001599 0.022367 -0.000143 0.000000 0.000000 0.000000
# 3 0.001646 -0.000143 0.040936 0.000000 0.000000 0.000000
# 4 0.000000 0.000000 0.000000 0.173914 0.000000 0.000000
# 5 0.000000 0.000000 0.000000 0.000000 1.359964 0.000000
# 6 0.000000 0.000000 0.000000 0.000000 0.000000 0.043625
#
#
# Mechanical properties :
#
#
# Convention : Reuss Voigt Hill
#
# Bulk Modulus (GPa) = 12.89633 18.86988 15.88310
# Shear Modulus (GPa) = 2.99674 19.95689 11.47681
#
# Velocity S-wave (km/s) = 1.19010 3.07119 2.32900
# Velocity P-wave (km/s) = 2.82553 4.63624 3.83916
#
# Compressibility (1/GPa) = 0.07754146
#
# Stress axis : x y z
#
# Youngs Moduli (GPa) = 124.48393 44.70869 24.42852
#
# Poissons Ratio (x) = -0.07150 -0.04021
# Poissons Ratio (y) = -0.19908 0.00348
# Poissons Ratio (z) = -0.20492 0.00638
#
# Static dielectric constant tensor:
#      x y z
#    x 1.915010 0.000000 0.000000 
#    y 0.000000 1.718100 0.000000 
#    z 0.000000 0.000000 1.735740 
# 
# From -- ./inp_files/18839.got.cif
#   From: 2010.05.17/outbox.cif.g08.bks.cpg/sg60_10_cif.got.tgz:18839.got - 2010.06.03 14:59:27.
