data_PCOD9453121
_publ_section_title
;
Structure prediction by ZEFSAII (Michael W. Deem and Ramdas Pophale) SiO2 
 PCOD9453121
Probable space group: P M M N
;
_chemical_formula_sum "Si O2"
_cell_formula_units_Z 24
_cell_length_a 10.452485
_cell_length_b 20.749433
_cell_length_c 4.907402
_cell_angle_alpha 90.000000
_cell_angle_beta 90.000000
_cell_angle_gamma 90.000000
_cell_volume 1064.332741
_symmetry_space_group_name_H-M "P M M N"
_symmetry_group_IT_number 59
_space_group.IT_coordinate_system_code '2'
_symmetry_cell_setting 'orthorhombic'
loop_
_space_group_symop_operation_xyz
x,y,z
1/2-x,1/2-y,z
1/2+x,-y,-z
-x,1/2+y,-z
-x,-y,-z
1/2+x,1/2+y,-z
1/2-x,y,z
x,1/2-y,z
loop_
_atom_site_type_symbol
_atom_site_label
_atom_site_fract_x
_atom_site_fract_y
_atom_site_fract_z
Si Si1 0.597341 0.946206 0.383717
Si Si2 0.389212 0.750000 0.665219
Si Si3 0.121239 0.250000 0.748368
Si Si4 0.035585 0.137909 0.109523
O O1 0.750000 0.963409 0.351738
O O2 0.588619 0.888942 0.607160
O O3 0.500000 0.000000 0.500000
O O4 0.535515 0.921293 0.101156
O O5 0.250000 0.750000 0.541986
O O6 0.498348 0.750000 0.439337
O O7 0.412264 0.816745 0.830303
O O8 0.250000 0.250000 0.576270
O O9 0.118943 0.189166 0.945866
#
# Coordination Sequence:
#
# PCOD9453121 Si02
#       4
#     8   4   4   8
#     4  12  26  46  71 101 139 185 236 288 342 410
#     4  11  26  45  72 108 145 181 226 288 354 415
#     4  11  22  41  74 106 137 179 224 284 352 419
#     4  11  25  45  69 103 141 181 227 282 346 417
#
# _framework density 22.549340000000001
#
# number of rings (size 3 to 8) (size 9 to 14) (size 15 to 20)
#    0.000    0.667    3.333    4.000    0.000    9.333 
#    0.000    0.000    0.000    0.000    0.000    0.000 
#    0.000    0.000    0.000    0.000    0.000    0.000 
#
# Total GULP energy -133875.670508 kJ/mol
# GULP energy per Si atom -5578.152938 kJ/mol
# Density = 2.249802 g / cm^3
# Si number density = 22.549340 Si / 1000 Ang^3
#
#
#
# Elastic Constant Matrix: (Units=GPa)
#
#
# Indices 1 2 3 4 5 6 
#
# 1 178.1805 43.3834 31.2877 0.0000 0.0000 0.0000
# 2 43.3834 92.4936 15.7878 0.0000 0.0000 0.0000
# 3 31.2877 15.7878 116.2137 0.0000 0.0000 0.0000
# 4 0.0000 0.0000 0.0000 48.2808 0.0000 0.0000
# 5 0.0000 0.0000 0.0000 0.0000 19.8241 0.0000
# 6 0.0000 0.0000 0.0000 0.0000 0.0000 -74.8113
#
#
#
# Elastic Compliance Matrix: (Units=1/GPa)
#
#
# Indices 1 2 3 4 5 6 
#
# 1 0.006544 -0.002834 -0.001377 0.000000 0.000000 0.000000
# 2 -0.002834 0.012296 -0.000907 0.000000 0.000000 0.000000
# 3 -0.001377 -0.000907 0.009099 0.000000 0.000000 0.000000
# 4 0.000000 0.000000 0.000000 0.020712 0.000000 0.000000
# 5 0.000000 0.000000 0.000000 0.000000 0.050444 0.000000
# 6 0.000000 0.000000 0.000000 0.000000 0.000000 -0.013367
#
#
# Mechanical properties :
#
#
# Convention : Reuss Voigt Hill
#
# Bulk Modulus (GPa) = 56.49176 63.08952 59.79064
# Shear Modulus (GPa) = 49.08437 18.42065 33.75251
#
# Velocity S-wave (km/s) = 4.67063 2.86125 3.87308
# Velocity P-wave (km/s) = 7.36161 6.24138 6.82452
#
# Compressibility (1/GPa) = 0.01770170
#
# Stress axis : x y z
#
# Youngs Moduli (GPa) = 152.80732 81.32772 109.90504
#
# Poissons Ratio (x) = 0.23052 0.15132
# Poissons Ratio (y) = 0.43313 0.09972
# Poissons Ratio (z) = 0.21038 0.07379
#
# Static dielectric constant tensor:
#      x y z
#    x 1.880320 0.000000 0.000000 
#    y 0.000000 1.950210 0.000000 
#    z 0.000000 0.000000 1.850090 
# 
# From -- ./inp_files/431.got.cif
#   From: 2010.05.17/outbox.cif.g08.bks.cpg/sg59_1_cif.got.tgz:431.got - 2010.06.03 14:40:33.
