data_PCOD9453950
_publ_section_title
;
Structure prediction by ZEFSAII (Michael W. Deem and Ramdas Pophale) SiO2 
 PCOD9453950
Probable space group: P B C N
;
_chemical_formula_sum "Si O2"
_cell_formula_units_Z 48
_cell_length_a 24.990667
_cell_length_b 11.505918
_cell_length_c 8.956515
_cell_angle_alpha 90.000000
_cell_angle_beta 90.000000
_cell_angle_gamma 90.000000
_cell_volume 2575.361386
_symmetry_space_group_name_H-M "P B C N"
_symmetry_group_IT_number 60
_symmetry_cell_setting 'orthorhombic'
loop_
_space_group_symop_operation_xyz
x,y,z
1/2-x,1/2-y,1/2+z
1/2+x,1/2-y,-z
-x,y,1/2-z
-x,-y,-z
1/2+x,1/2+y,1/2-z
1/2-x,1/2+y,z
x,-y,1/2+z
loop_
_atom_site_type_symbol
_atom_site_label
_atom_site_fract_x
_atom_site_fract_y
_atom_site_fract_z
Si Si1 0.040027 0.046902 0.623641
Si Si2 0.367892 0.286284 0.010800
Si Si3 0.211326 0.946551 0.181955
Si Si4 0.202318 0.767261 0.451992
Si Si5 0.791150 0.628180 0.335009
Si Si6 0.627310 0.649392 0.313731
O O1 0.079398 0.149840 0.572933
O O2 0.000000 0.089425 0.750000
O O3 0.076354 0.935424 0.670595
O O4 0.000000 0.000000 0.500000
O O5 0.321684 0.380487 0.053649
O O6 0.346969 0.170130 0.092681
O O7 0.374683 0.272879 0.834087
O O8 0.209808 0.870227 0.330850
O O9 0.269597 0.997565 0.144182
O O10 0.175647 0.059455 0.213516
O O11 0.247554 0.790066 0.577041
O O12 0.207673 0.658221 0.341190
O O13 0.145895 0.782571 0.537634
#
# Coordination Sequence:
#
# PCOD9453950 Si02
#       6
#     8   8   8   8   8   8
#     4  11  21  32  50  74  98 141 168 195 248 301
#     4  10  20  33  49  72 103 135 167 204 245 297
#     4   9  18  31  47  67  95 134 167 199 244 292
#     4  10  20  30  47  68  97 135 169 202 244 295
#     4  10  19  31  47  68  96 136 166 204 246 292
#     4  10  18  31  46  67  99 132 169 199 239 288
#
# _framework density 18.638159999999999
#
# number of rings (size 3 to 8) (size 9 to 14) (size 15 to 20)
#    0.000    2.000    1.667    5.000    4.667    2.667 
#    0.000    1.667    0.000    0.000    0.000    0.000 
#    0.000    1.333    2.000    0.500    0.000    0.000 
#
# Total GULP energy -267366.138994 kJ/mol
# GULP energy per Si atom -5570.127896 kJ/mol
# Density = 1.859574 g / cm^3
# Si number density = 18.638160 Si / 1000 Ang^3
#
#
#
# Elastic Constant Matrix: (Units=GPa)
#
#
# Indices 1 2 3 4 5 6 
#
# 1 98.8977 29.9177 40.6489 0.0000 0.0000 0.0000
# 2 29.9177 19.6875 22.3834 0.0000 0.0000 0.0000
# 3 40.6489 22.3834 113.0019 0.0000 0.0000 0.0000
# 4 0.0000 0.0000 0.0000 23.7718 0.0000 0.0000
# 5 0.0000 0.0000 0.0000 0.0000 31.9973 0.0000
# 6 0.0000 0.0000 0.0000 0.0000 0.0000 28.2223
#
#
#
# Elastic Compliance Matrix: (Units=1/GPa)
#
#
# Indices 1 2 3 4 5 6 
#
# 1 0.018892 -0.027082 -0.001432 0.000000 0.000000 0.000000
# 2 -0.027082 0.104379 -0.010933 0.000000 0.000000 0.000000
# 3 -0.001432 -0.010933 0.011530 0.000000 0.000000 0.000000
# 4 0.000000 0.000000 0.000000 0.042067 0.000000 0.000000
# 5 0.000000 0.000000 0.000000 0.000000 0.031253 0.000000
# 6 0.000000 0.000000 0.000000 0.000000 0.000000 0.035433
#
#
# Mechanical properties :
#
#
# Convention : Reuss Voigt Hill
#
# Bulk Modulus (GPa) = 17.88670 46.38743 32.13706
# Shear Modulus (GPa) = 14.65918 26.04076 20.34997
#
# Velocity S-wave (km/s) = 2.80753 3.74193 3.30789
# Velocity P-wave (km/s) = 4.48634 6.60393 5.64531
#
# Compressibility (1/GPa) = 0.05590746
#
# Stress axis : x y z
#
# Youngs Moduli (GPa) = 52.93120 9.58049 86.72976
#
# Poissons Ratio (x) = 0.25946 0.12416
# Poissons Ratio (y) = 1.43348 0.94825
# Poissons Ratio (z) = 0.07578 0.10475
#
# Static dielectric constant tensor:
#      x y z
#    x 1.660160 0.000000 0.000000 
#    y 0.000000 1.726690 0.000000 
#    z 0.000000 0.000000 1.680410 
# 
# From -- ./inp_files/7845.got.cif
#   From: 2010.05.17/outbox.cif.g08.bks.cpg/sg60_4_cif.got.tgz:7845.got - 2010.06.03 14:59:27.
