data_PCOD9453702
_publ_section_title
;
Structure prediction by ZEFSAII (Michael W. Deem and Ramdas Pophale) SiO2 
 PCOD9453702
Probable space group: P B C N
;
_chemical_formula_sum "Si O2"
_cell_formula_units_Z 40
_cell_length_a 21.123673
_cell_length_b 5.594618
_cell_length_c 12.622217
_cell_angle_alpha 90.000000
_cell_angle_beta 90.000000
_cell_angle_gamma 90.000000
_cell_volume 1491.679483
_symmetry_space_group_name_H-M "P B C N"
_symmetry_group_IT_number 60
_symmetry_cell_setting 'orthorhombic'
loop_
_space_group_symop_operation_xyz
x,y,z
1/2-x,1/2-y,1/2+z
1/2+x,1/2-y,-z
-x,y,1/2-z
-x,-y,-z
1/2+x,1/2+y,1/2-z
1/2-x,1/2+y,z
x,-y,1/2+z
loop_
_atom_site_type_symbol
_atom_site_label
_atom_site_fract_x
_atom_site_fract_y
_atom_site_fract_z
Si Si1 0.399592 0.416011 0.016114
Si Si2 0.239908 0.896424 0.517099
Si Si3 0.072261 0.618090 0.208175
Si Si4 0.428614 0.087780 0.498829
Si Si5 0.785328 0.634586 0.241860
O O1 0.330864 0.519157 0.034337
O O2 0.428868 0.346500 0.129328
O O3 0.430462 0.641623 0.957600
O O4 0.395135 0.157487 0.958086
O O5 0.231513 0.635746 0.465556
O O6 0.275902 0.869561 0.628536
O O7 0.088063 0.405597 0.124181
O O8 0.137917 0.641016 0.274663
O O9 0.000000 0.584374 0.250000
O O10 0.500000 0.000000 0.500000
O O11 0.749791 0.384996 0.212879
#
# Coordination Sequence:
#
# PCOD9453702 Si02
#       5
#     8   8   8   8   8
#     4  10  19  32  50  76 107 136 174 220 266 318
#     4  10  15  26  47  72 101 125 171 220 272 300
#     4  10  22  33  53  85 113 137 180 232 273 317
#     4  10  20  35  52  73 108 144 174 210 268 329
#     4  10  17  31  49  72 104 139 176 220 274 316
#
# _framework density 26.815412999999999
#
# number of rings (size 3 to 8) (size 9 to 14) (size 15 to 20)
#    1.200    0.800    4.000    4.200    0.000    0.800 
#    0.000    0.000    0.000    0.000    0.000   16.800 
#    0.000    0.000    0.000    0.000    0.000    0.000 
#
# Total GULP energy -222685.281255 kJ/mol
# GULP energy per Si atom -5567.132031 kJ/mol
# Density = 2.675438 g / cm^3
# Si number density = 26.815413 Si / 1000 Ang^3
#
#
#
# Elastic Constant Matrix: (Units=GPa)
#
#
# Indices 1 2 3 4 5 6 
#
# 1 179.4700 79.6360 17.4327 0.0000 0.0000 0.0000
# 2 79.6360 297.8036 69.5982 0.0000 0.0000 0.0000
# 3 17.4327 69.5982 39.2371 0.0000 0.0000 0.0000
# 4 0.0000 0.0000 0.0000 47.9240 0.0000 0.0000
# 5 0.0000 0.0000 0.0000 0.0000 33.4733 0.0000
# 6 0.0000 0.0000 0.0000 0.0000 0.0000 54.5069
#
#
#
# Elastic Compliance Matrix: (Units=1/GPa)
#
#
# Indices 1 2 3 4 5 6 
#
# 1 0.006325 -0.001767 0.000324 0.000000 0.000000 0.000000
# 2 -0.001767 0.006229 -0.010264 0.000000 0.000000 0.000000
# 3 0.000324 -0.010264 0.043549 0.000000 0.000000 0.000000
# 4 0.000000 0.000000 0.000000 0.020866 0.000000 0.000000
# 5 0.000000 0.000000 0.000000 0.000000 0.029875 0.000000
# 6 0.000000 0.000000 0.000000 0.000000 0.000000 0.018346
#
#
# Mechanical properties :
#
#
# Convention : Reuss Voigt Hill
#
# Bulk Modulus (GPa) = 30.59169 94.42716 62.50942
# Shear Modulus (GPa) = 31.34804 50.50376 40.92590
#
# Velocity S-wave (km/s) = 3.42282 4.34451 3.91091
# Velocity P-wave (km/s) = 5.20134 7.77538 6.61477
#
# Compressibility (1/GPa) = 0.03268862
#
# Stress axis : x y z
#
# Youngs Moduli (GPa) = 158.11398 160.53243 22.96286
#
# Poissons Ratio (x) = 0.28367 -0.00745
# Poissons Ratio (y) = 0.27940 0.23570
# Poissons Ratio (z) = -0.05131 1.64775
#
# Static dielectric constant tensor:
#      x y z
#    x 2.174240 0.000000 0.000000 
#    y 0.000000 2.108390 0.000000 
#    z 0.000000 0.000000 2.252400 
# 
# From -- ./inp_files/23005.got.cif
#   From: 2010.05.17/outbox.cif.g08.bks.cpg/sg60_12_cif.got.tgz:23005.got - 2010.06.03 14:59:27.
