data_PCOD9453253
_publ_section_title
;
Structure prediction by ZEFSAII (Michael W. Deem and Ramdas Pophale) SiO2 
 PCOD9453253
Probable space group: P M M N
;
_chemical_formula_sum "Si O2"
_cell_formula_units_Z 56
_cell_length_a 7.707108
_cell_length_b 25.589573
_cell_length_c 16.932330
_cell_angle_alpha 90.000000
_cell_angle_beta 90.000000
_cell_angle_gamma 90.000000
_cell_volume 3339.421261
_symmetry_space_group_name_H-M "P M M N"
_symmetry_group_IT_number 59
_space_group.IT_coordinate_system_code '2'
_symmetry_cell_setting 'orthorhombic'
loop_
_space_group_symop_operation_xyz
x,y,z
1/2-x,1/2-y,z
1/2+x,-y,-z
-x,1/2+y,-z
-x,-y,-z
1/2+x,1/2+y,-z
1/2-x,y,z
x,1/2-y,z
loop_
_atom_site_type_symbol
_atom_site_label
_atom_site_fract_x
_atom_site_fract_y
_atom_site_fract_z
Si Si1 0.458734 0.985703 0.375486
Si Si2 0.954838 0.007117 0.800456
Si Si3 0.543973 0.554979 0.042887
Si Si4 0.462050 0.690695 0.592776
Si Si5 0.457217 0.096888 0.114203
Si Si6 0.040940 0.916071 0.519401
Si Si7 0.458874 0.691624 0.773720
O O1 0.250000 0.980102 0.374486
O O2 0.526003 0.980445 0.286218
O O3 0.525227 0.943195 0.438933
O O4 0.498468 0.042898 0.410951
O O5 0.750000 0.998369 0.789161
O O6 0.973153 0.050554 0.868683
O O7 0.028361 0.953182 0.837275
O O8 0.750000 0.559683 0.051479
O O9 0.500000 0.500000 0.000000
O O10 0.479069 0.595832 0.976682
O O11 0.250000 0.690804 0.591422
O O12 0.516351 0.750000 0.571602
O O13 0.521877 0.642159 0.539670
O O14 0.515620 0.680361 0.683716
O O15 0.250000 0.089106 0.108361
O O16 0.488240 0.148505 0.163752
O O17 0.250000 0.913445 0.514427
O O18 0.250000 0.692318 0.771758
O O19 0.519485 0.750000 0.794262
#
# Coordination Sequence:
#
# PCOD9453253 Si02
#       7
#     8   8   8   8   8   8   8
#     4   9  17  27  39  58  85 110 133 168 207 241
#     4   9  17  28  40  57  82 109 135 163 198 237
#     4   9  17  28  41  59  81 103 131 162 192 232
#     4   8  14  25  40  58  80 104 133 169 199 228
#     4   9  17  27  39  56  78 103 129 159 195 233
#     4   9  16  26  41  60  80 107 141 167 198 246
#     4   9  17  27  39  57  79 103 132 162 192 230
#
# _framework density 16.769373999999999
#
# number of rings (size 3 to 8) (size 9 to 14) (size 15 to 20)
#    0.000    3.143    0.000    3.000    0.000    3.714 
#    0.000    0.000    0.000    1.286    0.000    1.000 
#    0.000    3.429    0.000    0.000    0.000    0.000 
#
# Total GULP energy -311736.304196 kJ/mol
# GULP energy per Si atom -5566.719718 kJ/mol
# Density = 1.673121 g / cm^3
# Si number density = 16.769374 Si / 1000 Ang^3
#
#
#
# Elastic Constant Matrix: (Units=GPa)
#
#
# Indices 1 2 3 4 5 6 
#
# 1 18.2214 -2.8551 4.9672 0.0000 0.0000 0.0000
# 2 -2.8551 110.0609 73.2067 0.0000 0.0000 0.0000
# 3 4.9672 73.2067 149.6238 0.0000 0.0000 0.0000
# 4 0.0000 0.0000 0.0000 26.0223 0.0000 0.0000
# 5 0.0000 0.0000 0.0000 0.0000 9.5671 0.0000
# 6 0.0000 0.0000 0.0000 0.0000 0.0000 15.2778
#
#
#
# Elastic Compliance Matrix: (Units=1/GPa)
#
#
# Indices 1 2 3 4 5 6 
#
# 1 0.056560 0.004027 -0.003848 0.000000 0.000000 0.000000
# 2 0.004027 0.013756 -0.006864 0.000000 0.000000 0.000000
# 3 -0.003848 -0.006864 0.010170 0.000000 0.000000 0.000000
# 4 0.000000 0.000000 0.000000 0.038429 0.000000 0.000000
# 5 0.000000 0.000000 0.000000 0.000000 0.104525 0.000000
# 6 0.000000 0.000000 0.000000 0.000000 0.000000 0.065454
#
#
# Mechanical properties :
#
#
# Convention : Reuss Voigt Hill
#
# Bulk Modulus (GPa) = 14.89971 47.61595 31.25783
# Shear Modulus (GPa) = 15.40185 23.67927 19.54056
#
# Velocity S-wave (km/s) = 3.03388 3.76181 3.41728
# Velocity P-wave (km/s) = 4.60184 6.87928 5.85241
#
# Compressibility (1/GPa) = 0.06711538
#
# Stress axis : x y z
#
# Youngs Moduli (GPa) = 17.68022 72.69577 98.33263
#
# Poissons Ratio (x) = -0.29272 0.37836
# Poissons Ratio (y) = -0.07119 0.67496
# Poissons Ratio (z) = 0.06803 0.49899
#
# Static dielectric constant tensor:
#      x y z
#    x 1.734680 0.000000 0.000000 
#    y 0.000000 1.563060 0.000000 
#    z 0.000000 0.000000 1.595470 
# 
# From -- ./inp_files/26418.got.cif
#   From: 2010.05.17/outbox.cif.g08.bks.cpg/sg59_14_cif.got.tgz:26418.got - 2010.06.03 14:40:33.
