data_PCOD9453978
_publ_section_title
;
Structure prediction by ZEFSAII (Michael W. Deem and Ramdas Pophale) SiO2 
 PCOD9453978
Probable space group: P B C N
;
_chemical_formula_sum "Si O2"
_cell_formula_units_Z 40
_cell_length_a 6.882629
_cell_length_b 24.592651
_cell_length_c 9.505056
_cell_angle_alpha 90.000000
_cell_angle_beta 90.000000
_cell_angle_gamma 90.000000
_cell_volume 1608.845672
_symmetry_space_group_name_H-M "P B C N"
_symmetry_group_IT_number 60
_symmetry_cell_setting 'orthorhombic'
loop_
_space_group_symop_operation_xyz
x,y,z
1/2-x,1/2-y,1/2+z
1/2+x,1/2-y,-z
-x,y,1/2-z
-x,-y,-z
1/2+x,1/2+y,1/2-z
1/2-x,1/2+y,z
x,-y,1/2+z
loop_
_atom_site_type_symbol
_atom_site_label
_atom_site_fract_x
_atom_site_fract_y
_atom_site_fract_z
Si Si1 0.358767 0.478693 0.624958
Si Si2 0.324460 0.316673 0.040004
Si Si3 0.735606 0.408993 0.281140
Si Si4 0.264108 0.278761 0.742732
Si Si5 0.254674 0.864387 0.512974
O O1 0.500000 0.461074 0.750000
O O2 0.746079 0.425064 0.926237
O O3 0.227314 0.528131 0.683245
O O4 0.500000 0.500000 0.000000
O O5 0.227899 0.373531 0.081009
O O6 0.304470 0.276931 0.172364
O O7 0.224360 0.288184 0.907286
O O8 0.821912 0.325338 0.859897
O O9 0.500000 0.409492 0.250000
O O10 0.544375 0.335181 0.010940
O O11 0.823202 0.377961 0.146459
O O12 0.500000 0.278334 0.750000
#
# Coordination Sequence:
#
# PCOD9453978 Si02
#       5
#     8   8   8   8   8
#     4  11  16  26  42  70 101 128 150 191 254 313
#     4  10  18  32  45  64  95 128 166 201 247 293
#     4   9  17  27  44  68  98 129 154 195 245 305
#     4  10  21  32  49  69  96 133 170 209 244 297
#     4  10  19  31  47  71 102 131 161 203 250 303
#
# _framework density 24.862544
#
# number of rings (size 3 to 8) (size 9 to 14) (size 15 to 20)
#    0.000    2.000    6.000    3.000    0.000    1.600 
#    0.000    0.000    0.000    0.000    0.000    0.000 
#    0.000   83.200    0.000    0.400    0.000   23.200 
#
# Total GULP energy -223301.726752 kJ/mol
# GULP energy per Si atom -5582.543169 kJ/mol
# Density = 2.480596 g / cm^3
# Si number density = 24.862544 Si / 1000 Ang^3
#
#
#
# Elastic Constant Matrix: (Units=GPa)
#
#
# Indices 1 2 3 4 5 6 
#
# 1 82.6406 8.3660 15.9636 0.0000 0.0000 0.0000
# 2 8.3660 152.8800 40.5851 0.0000 0.0000 0.0000
# 3 15.9636 40.5851 150.2850 0.0000 0.0000 0.0000
# 4 0.0000 0.0000 0.0000 71.5404 0.0000 0.0000
# 5 0.0000 0.0000 0.0000 0.0000 14.4878 0.0000
# 6 0.0000 0.0000 0.0000 0.0000 0.0000 3.3098
#
#
#
# Elastic Compliance Matrix: (Units=1/GPa)
#
#
# Indices 1 2 3 4 5 6 
#
# 1 0.012372 -0.000353 -0.001219 0.000000 0.000000 0.000000
# 2 -0.000353 0.007056 -0.001868 0.000000 0.000000 0.000000
# 3 -0.001219 -0.001868 0.007288 0.000000 0.000000 0.000000
# 4 0.000000 0.000000 0.000000 0.013978 0.000000 0.000000
# 5 0.000000 0.000000 0.000000 0.000000 0.069023 0.000000
# 6 0.000000 0.000000 0.000000 0.000000 0.000000 0.302129
#
#
# Mechanical properties :
#
#
# Convention : Reuss Voigt Hill
#
# Bulk Modulus (GPa) = 50.41439 57.29280 53.85360
# Shear Modulus (GPa) = 11.75532 39.26035 25.50784
#
# Velocity S-wave (km/s) = 2.17678 3.97810 3.20653
# Velocity P-wave (km/s) = 5.16131 6.64787 5.95119
#
# Compressibility (1/GPa) = 0.01983560
#
# Stress axis : x y z
#
# Youngs Moduli (GPa) = 80.82905 141.71671 137.21280
#
# Poissons Ratio (x) = 0.05010 0.16722
# Poissons Ratio (y) = 0.02857 0.25632
# Poissons Ratio (z) = 0.09851 0.26473
#
# Static dielectric constant tensor:
#      x y z
#    x 2.119030 0.000000 0.000000 
#    y 0.000000 1.925500 0.000000 
#    z 0.000000 0.000000 2.052060 
# 
# From -- ./inp_files/3994.got.cif
#   From: 2010.05.17/outbox.cif.g08.bks.cpg/sg60_2_cif.got.tgz:3994.got - 2010.06.03 14:59:27.
