data_PCOD9453403
_publ_section_title
;
Structure prediction by ZEFSAII (Michael W. Deem and Ramdas Pophale) SiO2 
 PCOD9453403
Probable space group: P M M N
;
_chemical_formula_sum "Si O2"
_cell_formula_units_Z 64
_cell_length_a 9.000000
_cell_length_b 30.000000
_cell_length_c 12.000000
_cell_angle_alpha 90.000000
_cell_angle_beta 90.000000
_cell_angle_gamma 90.000000
_cell_volume 3240.000000
_symmetry_space_group_name_H-M "P M M N"
_symmetry_group_IT_number 59
_space_group.IT_coordinate_system_code '2'
_symmetry_cell_setting 'orthorhombic'
loop_
_space_group_symop_operation_xyz
x,y,z
1/2-x,1/2-y,z
1/2+x,-y,-z
-x,1/2+y,-z
-x,-y,-z
1/2+x,1/2+y,-z
1/2-x,y,z
x,1/2-y,z
loop_
_atom_site_type_symbol
_atom_site_label
_atom_site_fract_x
_atom_site_fract_y
_atom_site_fract_z
Si Si1 0.073190 0.026812 0.722031
Si Si2 0.070320 0.571049 0.732653
Si Si3 0.584202 0.344443 0.649115
Si Si4 0.580077 0.062268 0.516121
Si Si5 0.924441 0.134727 0.074309
Si Si6 0.574093 0.885097 0.156354
Si Si7 0.919081 0.697097 0.788567
Si Si8 0.084469 0.302731 0.456453
O O1 0.250000 0.031049 0.713532
O O2 0.018044 0.067476 0.796259
O O3 0.009523 0.030326 0.597840
O O4 0.038629 0.979024 0.771953
O O5 0.250000 0.577380 0.726468
O O6 0.016222 0.572960 0.605512
O O7 0.013912 0.604541 0.824710
O O8 0.750000 0.334507 0.687293
O O9 0.584160 0.391517 0.583903
O O10 0.475977 0.349032 0.752971
O O11 0.525503 0.311755 0.555851
O O12 0.750000 0.046190 0.503246
O O13 0.750000 0.128187 0.063464
O O14 0.967910 0.183101 0.117030
O O15 0.002292 0.123899 0.960632
O O16 0.750000 0.886266 0.147644
O O17 0.750000 0.681078 0.809257
O O18 0.900674 0.750000 0.552941
O O19 0.966913 0.681087 0.665037
O O20 0.250000 0.321645 0.479002
O O21 0.087607 0.250000 0.214947
#
# Coordination Sequence:
#
# PCOD9453403 Si02
#       8
#     8   8   8   8   8   8   8   8
#     4   9  18  33  52  73 100 137 177 214 256 307
#     4   9  18  32  50  75 107 138 168 210 263 311
#     4  10  19  32  52  77 104 136 173 212 258 310
#     4   9  17  30  49  74 104 134 166 209 261 312
#     4  11  22  36  55  78 105 138 177 221 265 310
#     4  10  21  37  54  72  99 138 182 224 262 304
#     4   9  19  37  59  82 110 141 170 205 253 308
#     4   9  18  33  54  81 111 139 166 201 251 310
#
# _framework density 19.753086
#
# number of rings (size 3 to 8) (size 9 to 14) (size 15 to 20)
#    0.000    2.500    0.000    3.000    0.000    3.500 
#    0.000    4.375    0.000    3.750    0.000    0.000 
#    0.000    0.000    0.000    0.000    0.000    0.000 
#
# Total GULP energy -356385.398570 kJ/mol
# GULP energy per Si atom -5568.521853 kJ/mol
# Density = 1.970813 g / cm^3
# Si number density = 19.753086 Si / 1000 Ang^3
#
#
#
# Elastic Constant Matrix: (Units=GPa)
#
#
# Indices 1 2 3 4 5 6 
#
# 1 28.1758 23.7570 38.1242 0.0000 0.0000 0.0000
# 2 23.7570 34.6730 39.4820 0.0000 0.0000 0.0000
# 3 38.1242 39.4820 104.8622 0.0000 0.0000 0.0000
# 4 0.0000 0.0000 0.0000 6.2390 0.0000 0.0000
# 5 0.0000 0.0000 0.0000 0.0000 -16.1117 0.0000
# 6 0.0000 0.0000 0.0000 0.0000 0.0000 13.3751
#
#
#
# Elastic Compliance Matrix: (Units=1/GPa)
#
#
# Indices 1 2 3 4 5 6 
#
# 1 0.101506 -0.048186 -0.018761 0.000000 0.000000 0.000000
# 2 -0.048186 0.073360 -0.010102 0.000000 0.000000 0.000000
# 3 -0.018761 -0.010102 0.020161 0.000000 0.000000 0.000000
# 4 0.000000 0.000000 0.000000 0.160281 0.000000 0.000000
# 5 0.000000 0.000000 0.000000 0.000000 -0.062067 0.000000
# 6 0.000000 0.000000 0.000000 0.000000 0.000000 0.074766
#
#
# Mechanical properties :
#
#
# Convention : Reuss Voigt Hill
#
# Bulk Modulus (GPa) = 24.43317 41.15972 32.79645
# Shear Modulus (GPa) = 9.33274 5.12368 7.22821
#
# Velocity S-wave (km/s) = 2.17600 1.61229 1.91500
# Velocity P-wave (km/s) = 4.32544 4.93440 4.63992
#
# Compressibility (1/GPa) = 0.04092797
#
# Stress axis : x y z
#
# Youngs Moduli (GPa) = 9.85165 13.63141 49.60065
#
# Poissons Ratio (x) = 0.65684 0.93058
# Poissons Ratio (y) = 0.47471 0.50109
# Poissons Ratio (z) = 0.18483 0.13771
#
# Static dielectric constant tensor:
#      x y z
#    x 1.702940 0.000000 0.000000 
#    y 0.000000 1.778830 0.000000 
#    z 0.000000 0.000000 1.677130 
# 
# From -- ./inp_files/14979.got.cif
#   From: 2010.05.17/outbox.ucp.g08.bks.cvg/sg59_8_cif.got.tgz:14979.got - 2010.06.11 16:43:56.
