data_PCOD9453334
_publ_section_title
;
Structure prediction by ZEFSAII (Michael W. Deem and Ramdas Pophale) SiO2 
 PCOD9453334
Probable space group: P M M N
;
_chemical_formula_sum "Si O2"
_cell_formula_units_Z 40
_cell_length_a 27.000000
_cell_length_b 9.000000
_cell_length_c 9.000000
_cell_angle_alpha 90.000000
_cell_angle_beta 90.000000
_cell_angle_gamma 90.000000
_cell_volume 2187.000000
_symmetry_space_group_name_H-M "P M M N"
_symmetry_group_IT_number 59
_space_group.IT_coordinate_system_code '2'
_symmetry_cell_setting 'orthorhombic'
loop_
_space_group_symop_operation_xyz
x,y,z
1/2-x,1/2-y,z
1/2+x,-y,-z
-x,1/2+y,-z
-x,-y,-z
1/2+x,1/2+y,-z
1/2-x,y,z
x,1/2-y,z
loop_
_atom_site_type_symbol
_atom_site_label
_atom_site_fract_x
_atom_site_fract_y
_atom_site_fract_z
Si Si1 0.750000 0.071764 0.401622
Si Si2 0.353399 0.573250 0.930661
Si Si3 0.358821 0.924055 0.572834
Si Si4 0.048900 0.071994 0.072159
Si Si5 0.952510 0.574265 0.575857
Si Si6 0.750000 0.927460 0.078020
O O1 0.750000 0.250000 0.361665
O O2 0.802491 0.042698 0.479788
O O3 0.750000 0.975547 0.251747
O O4 0.351880 0.750000 0.959611
O O5 0.358464 0.554050 0.751567
O O6 0.301462 0.498414 0.980065
O O7 0.401237 0.499062 0.004946
O O8 0.368523 0.750000 0.545337
O O9 0.401809 0.016585 0.496905
O O10 0.048794 0.250000 0.047638
O O11 0.047603 0.043343 0.248453
O O12 0.000000 0.000000 0.000000
O O13 0.956145 0.750000 0.554783
O O14 0.000000 0.500000 0.500000
O O15 0.750000 0.750000 0.061516
#
# Coordination Sequence:
#
# PCOD9453334 Si02
#       6
#     4   8   8   8   8   4
#     4   8  16  32  53  80 113 146 182 224 264 314
#     4  10  20  36  58  84 113 147 186 228 271 322
#     4   9  18  34  57  83 111 143 182 224 267 317
#     4  11  24  40  57  81 110 143 184 231 279 330
#     4  11  24  39  56  80 110 142 180 225 275 329
#     4  10  18  30  53  84 115 148 184 224 270 322
#
# _framework density 18.289895000000001
#
# number of rings (size 3 to 8) (size 9 to 14) (size 15 to 20)
#    0.000    2.000    0.000    5.100    0.000   12.000 
#    0.000    1.000    0.000    4.800    0.000    0.000 
#    0.000    0.000    0.000    0.000    0.000    0.000 
#
# Total GULP energy -223312.609693 kJ/mol
# GULP energy per Si atom -5582.815242 kJ/mol
# Density = 1.824827 g / cm^3
# Si number density = 18.289895 Si / 1000 Ang^3
#
#
#
# Elastic Constant Matrix: (Units=GPa)
#
#
# Indices 1 2 3 4 5 6 
#
# 1 226.4799 105.2930 78.6727 0.0000 0.0000 0.0000
# 2 105.2930 108.7339 69.2724 0.0000 0.0000 0.0000
# 3 78.6727 69.2724 59.5429 0.0000 0.0000 0.0000
# 4 0.0000 0.0000 0.0000 27.8252 0.0000 0.0000
# 5 0.0000 0.0000 0.0000 0.0000 31.3473 0.0000
# 6 0.0000 0.0000 0.0000 0.0000 0.0000 43.4024
#
#
#
# Elastic Compliance Matrix: (Units=1/GPa)
#
#
# Indices 1 2 3 4 5 6 
#
# 1 0.008636 -0.004224 -0.006496 0.000000 0.000000 0.000000
# 2 -0.004224 0.037600 -0.038163 0.000000 0.000000 0.000000
# 3 -0.006496 -0.038163 0.069777 0.000000 0.000000 0.000000
# 4 0.000000 0.000000 0.000000 0.035939 0.000000 0.000000
# 5 0.000000 0.000000 0.000000 0.000000 0.031901 0.000000
# 6 0.000000 0.000000 0.000000 0.000000 0.000000 0.023040
#
#
# Mechanical properties :
#
#
# Convention : Reuss Voigt Hill
#
# Bulk Modulus (GPa) = 54.80513 100.13698 77.47106
# Shear Modulus (GPa) = 16.09061 29.94955 23.02008
#
# Velocity S-wave (km/s) = 2.96928 4.05098 3.55156
# Velocity P-wave (km/s) = 6.46415 8.76067 7.69853
#
# Compressibility (1/GPa) = 0.01824647
#
# Stress axis : x y z
#
# Youngs Moduli (GPa) = 115.79861 26.59573 14.33140
#
# Poissons Ratio (x) = 0.11234 0.09310
# Poissons Ratio (y) = 0.48912 0.54693
# Poissons Ratio (z) = 0.75223 1.01498
#
# Static dielectric constant tensor:
#      x y z
#    x 1.624480 0.000000 0.000000 
#    y 0.000000 1.614570 0.000000 
#    z 0.000000 0.000000 1.620620 
# 
# From -- ./inp_files/12391.got.cif
#   From: 2010.05.17/outbox.ucp.g08.bks.cvg/sg59_7_cif.got.tgz:12391.got - 2010.06.11 16:43:56.
