data_PCOD9453072
_publ_section_title
;
Structure prediction by ZEFSAII (Michael W. Deem and Ramdas Pophale) SiO2 
 PCOD9453072
Probable space group: P M M N
;
_chemical_formula_sum "Si O2"
_cell_formula_units_Z 64
_cell_length_a 9.122250
_cell_length_b 19.385907
_cell_length_c 22.182326
_cell_angle_alpha 90.000000
_cell_angle_beta 90.000000
_cell_angle_gamma 90.000000
_cell_volume 3922.791076
_symmetry_space_group_name_H-M "P M M N"
_symmetry_group_IT_number 59
_space_group.IT_coordinate_system_code '2'
_symmetry_cell_setting 'orthorhombic'
loop_
_space_group_symop_operation_xyz
x,y,z
1/2-x,1/2-y,z
1/2+x,-y,-z
-x,1/2+y,-z
-x,-y,-z
1/2+x,1/2+y,-z
1/2-x,y,z
x,1/2-y,z
loop_
_atom_site_type_symbol
_atom_site_label
_atom_site_fract_x
_atom_site_fract_y
_atom_site_fract_z
Si Si1 0.918287 0.392582 0.981213
Si Si2 0.579249 0.170261 0.625829
Si Si3 0.081867 0.458995 0.087213
Si Si4 0.575845 0.537621 0.556931
Si Si5 0.575967 0.538226 0.332596
Si Si6 0.926497 0.672839 0.130143
Si Si7 0.579510 0.330062 0.480916
Si Si8 0.425761 0.031098 0.805869
O O1 0.750000 0.371052 0.988720
O O2 0.918170 0.467906 0.948864
O O3 0.003619 0.343548 0.934927
O O4 0.997709 0.405042 0.044757
O O5 0.750000 0.154486 0.639693
O O6 0.551664 0.250000 0.641176
O O7 0.471970 0.117328 0.657543
O O8 0.562871 0.163096 0.553381
O O9 0.250000 0.438510 0.096183
O O10 0.002264 0.477409 0.149425
O O11 0.500000 0.500000 0.500000
O O12 0.750000 0.528678 0.553725
O O13 0.511991 0.504883 0.617765
O O14 0.527604 0.617011 0.551179
O O15 0.750000 0.530498 0.342104
O O16 0.539950 0.519014 0.263910
O O17 0.750000 0.670928 0.124972
O O18 0.968831 0.750000 0.150492
O O19 0.969239 0.609114 0.173640
O O20 0.750000 0.346739 0.467150
O O21 0.554120 0.250000 0.465895
O O22 0.250000 0.026511 0.813617
#
# Coordination Sequence:
#
# PCOD9453072 Si02
#       8
#     8   8   8   8   8   8   8   8
#     4   9  16  26  43  67  93 120 153 195 238 278
#     4   9  18  32  49  69  96 130 165 205 253 303
#     4   9  16  27  45  67  90 118 154 195 240 283
#     4  12  23  35  53  76 103 132 167 213 264 313
#     4  11  22  34  50  73 100 134 175 215 258 309
#     4   9  17  30  47  67  96 133 169 204 240 279
#     4   9  18  34  55  77 101 127 157 199 254 311
#     4   9  19  33  47  66  95 130 168 206 244 291
#
# _framework density 16.314914999999999
#
# number of rings (size 3 to 8) (size 9 to 14) (size 15 to 20)
#    0.000    2.375    1.250    3.000    0.000    5.250 
#    0.000    2.500    0.000    0.000    0.000    0.875 
#    0.000    1.000    0.000    0.000    0.000    0.000 
#
# Total GULP energy -356882.379617 kJ/mol
# GULP energy per Si atom -5576.287182 kJ/mol
# Density = 1.627778 g / cm^3
# Si number density = 16.314915 Si / 1000 Ang^3
#
#
#
# Elastic Constant Matrix: (Units=GPa)
#
#
# Indices 1 2 3 4 5 6 
#
# 1 76.1690 26.4366 61.4831 0.0000 0.0000 0.0000
# 2 26.4366 28.9264 29.5087 0.0000 0.0000 0.0000
# 3 61.4831 29.5087 107.0252 0.0000 0.0000 0.0000
# 4 0.0000 0.0000 0.0000 14.6384 0.0000 0.0000
# 5 0.0000 0.0000 0.0000 0.0000 23.6200 0.0000
# 6 0.0000 0.0000 0.0000 0.0000 0.0000 24.7482
#
#
#
# Elastic Compliance Matrix: (Units=1/GPa)
#
#
# Indices 1 2 3 4 5 6 
#
# 1 0.027381 -0.012491 -0.012286 0.000000 0.000000 0.000000
# 2 -0.012491 0.053798 -0.007657 0.000000 0.000000 0.000000
# 3 -0.012286 -0.007657 0.018513 0.000000 0.000000 0.000000
# 4 0.000000 0.000000 0.000000 0.068313 0.000000 0.000000
# 5 0.000000 0.000000 0.000000 0.000000 0.042337 0.000000
# 6 0.000000 0.000000 0.000000 0.000000 0.000000 0.040407
#
#
# Mechanical properties :
#
#
# Convention : Reuss Voigt Hill
#
# Bulk Modulus (GPa) = 28.71625 49.66415 39.19020
# Shear Modulus (GPa) = 15.28002 18.91413 17.09708
#
# Velocity S-wave (km/s) = 3.06366 3.40857 3.24070
# Velocity P-wave (km/s) = 5.49128 6.78219 6.17059
#
# Compressibility (1/GPa) = 0.03482348
#
# Stress axis : x y z
#
# Youngs Moduli (GPa) = 36.52171 18.58807 54.01751
#
# Poissons Ratio (x) = 0.23219 0.66364
# Poissons Ratio (y) = 0.45620 0.41362
# Poissons Ratio (z) = 0.44869 0.14233
#
# Static dielectric constant tensor:
#      x y z
#    x 1.547460 0.000000 0.000000 
#    y 0.000000 1.553430 0.000000 
#    z 0.000000 0.000000 1.534080 
# 
# From -- ./inp_files/29705.got.cif
#   From: 2010.05.17/outbox.cif.g08.bks.cpg/sg59_15_cif.got.tgz:29705.got - 2010.06.03 14:40:33.
