data_PCOD9453712
_publ_section_title
;
Structure prediction by ZEFSAII (Michael W. Deem and Ramdas Pophale) SiO2 
 PCOD9453712
Probable space group: P B C N
;
_chemical_formula_sum "Si O2"
_cell_formula_units_Z 48
_cell_length_a 7.079114
_cell_length_b 29.180571
_cell_length_c 8.353841
_cell_angle_alpha 90.000000
_cell_angle_beta 90.000000
_cell_angle_gamma 90.000000
_cell_volume 1725.674561
_symmetry_space_group_name_H-M "P B C N"
_symmetry_group_IT_number 60
_symmetry_cell_setting 'orthorhombic'
loop_
_space_group_symop_operation_xyz
x,y,z
1/2-x,1/2-y,1/2+z
1/2+x,1/2-y,-z
-x,y,1/2-z
-x,-y,-z
1/2+x,1/2+y,1/2-z
1/2-x,1/2+y,z
x,-y,1/2+z
loop_
_atom_site_type_symbol
_atom_site_label
_atom_site_fract_x
_atom_site_fract_y
_atom_site_fract_z
Si Si1 0.719903 0.512604 0.459422
Si Si2 0.771640 0.239303 0.766812
Si Si3 0.692296 0.679176 0.471452
Si Si4 0.227382 0.100220 0.233572
Si Si5 0.260558 0.654210 0.547430
Si Si6 0.270406 0.430589 0.236673
O O1 0.500000 0.500000 0.500000
O O2 0.753783 0.547039 0.309276
O O3 0.791182 0.462942 0.410444
O O4 0.791538 0.542145 0.607309
O O5 0.719055 0.211647 0.606479
O O6 0.691970 0.288710 0.812999
O O7 0.701993 0.205452 0.909290
O O8 0.000000 0.244163 0.750000
O O9 0.786333 0.632134 0.415293
O O10 0.486912 0.662851 0.531102
O O11 0.299570 0.125667 0.391801
O O12 0.000000 0.103491 0.250000
O O13 0.217439 0.620984 0.696557
O O14 0.500000 0.429785 0.250000
#
# Coordination Sequence:
#
# PCOD9453712 Si02
#       6
#     8   8   8   8   8   8
#     4  10  17  24  37  60  92 129 157 182 222 278
#     4  10  20  34  49  68  91 121 160 203 244 287
#     4  10  19  31  46  64  87 119 155 195 237 284
#     4  10  17  27  42  63  89 123 156 187 228 281
#     4  10  19  31  47  66  91 125 160 195 240 287
#     4  10  16  25  38  59  90 127 155 184 225 281
#
# _framework density 27.815207000000001
#
# number of rings (size 3 to 8) (size 9 to 14) (size 15 to 20)
#    0.000    2.000    0.000   10.000    0.000    1.333 
#    0.000    0.000    0.000    0.000    0.000    0.000 
#    0.000    0.000    0.000  220.500    0.000   35.333 
#
# Total GULP energy -268420.951007 kJ/mol
# GULP energy per Si atom -5592.103146 kJ/mol
# Density = 2.775190 g / cm^3
# Si number density = 27.815207 Si / 1000 Ang^3
#
#
#
# Elastic Constant Matrix: (Units=GPa)
#
#
# Indices 1 2 3 4 5 6 
#
# 1 151.3233 12.9513 6.8227 0.0000 0.0000 0.0000
# 2 12.9513 223.5062 36.0116 0.0000 0.0000 0.0000
# 3 6.8227 36.0116 97.2018 0.0000 0.0000 0.0000
# 4 0.0000 0.0000 0.0000 72.3240 0.0000 0.0000
# 5 0.0000 0.0000 0.0000 0.0000 -18.8305 0.0000
# 6 0.0000 0.0000 0.0000 0.0000 0.0000 -12.6822
#
#
#
# Elastic Compliance Matrix: (Units=1/GPa)
#
#
# Indices 1 2 3 4 5 6 
#
# 1 0.006652 -0.000330 -0.000345 0.000000 0.000000 0.000000
# 2 -0.000330 0.004775 -0.001746 0.000000 0.000000 0.000000
# 3 -0.000345 -0.001746 0.010959 0.000000 0.000000 0.000000
# 4 0.000000 0.000000 0.000000 0.013827 0.000000 0.000000
# 5 0.000000 0.000000 0.000000 0.000000 -0.053105 0.000000
# 6 0.000000 0.000000 0.000000 0.000000 0.000000 -0.078851
#
#
# Mechanical properties :
#
#
# Convention : Reuss Voigt Hill
#
# Bulk Modulus (GPa) = 56.99682 64.84470 60.92076
# Shear Modulus (GPa) = -58.78549 35.91199 -11.43675
#
# Velocity S-wave (km/s) = -4.60219 3.59708 -2.02993
# Velocity P-wave (km/s) = 2.77570 6.37301 4.05652
#
# Compressibility (1/GPa) = 0.01754484
#
# Stress axis : x y z
#
# Youngs Moduli (GPa) = 150.32743 209.44427 91.25059
#
# Poissons Ratio (x) = 0.06910 0.03145
# Poissons Ratio (y) = 0.04960 0.15930
# Poissons Ratio (z) = 0.05182 0.36563
#
# Static dielectric constant tensor:
#      x y z
#    x 2.186640 0.000000 0.000000 
#    y 0.000000 2.016170 0.000000 
#    z 0.000000 0.000000 2.266250 
# 
# From -- ./inp_files/5165.got.cif
#   From: 2010.05.17/outbox.cif.g08.bks.cpg/sg60_3_cif.got.tgz:5165.got - 2010.06.03 14:59:27.
