data_PCOD9453820
_publ_section_title
;
Structure prediction by ZEFSAII (Michael W. Deem and Ramdas Pophale) SiO2 
 PCOD9453820
Probable space group: P B C N
;
_chemical_formula_sum "Si O2"
_cell_formula_units_Z 48
_cell_length_a 22.700376
_cell_length_b 20.144237
_cell_length_c 5.833360
_cell_angle_alpha 90.000000
_cell_angle_beta 90.000000
_cell_angle_gamma 90.000000
_cell_volume 2667.489093
_symmetry_space_group_name_H-M "P B C N"
_symmetry_group_IT_number 60
_symmetry_cell_setting 'orthorhombic'
loop_
_space_group_symop_operation_xyz
x,y,z
1/2-x,1/2-y,1/2+z
1/2+x,1/2-y,-z
-x,y,1/2-z
-x,-y,-z
1/2+x,1/2+y,1/2-z
1/2-x,1/2+y,z
x,-y,1/2+z
loop_
_atom_site_type_symbol
_atom_site_label
_atom_site_fract_x
_atom_site_fract_y
_atom_site_fract_z
Si Si1 0.820423 0.533839 0.993745
Si Si2 0.638267 0.842273 0.002836
Si Si3 0.335383 0.733773 0.115719
Si Si4 0.560556 0.086504 0.835891
Si Si5 0.942485 0.278292 0.617114
Si Si6 0.236780 0.660539 0.335783
O O1 0.808914 0.500317 0.743385
O O2 0.890585 0.552869 0.997795
O O3 0.780567 0.601178 0.994274
O O4 0.651104 0.789980 0.198948
O O5 0.599805 0.899769 0.111431
O O6 0.599180 0.809570 0.808525
O O7 0.699329 0.859499 0.887252
O O8 0.302306 0.675150 0.248616
O O9 0.399713 0.724465 0.002551
O O10 0.290091 0.770247 0.938329
O O11 0.500000 0.053698 0.750000
O O12 0.543747 0.158408 0.950787
O O13 0.000000 0.253877 0.750000
#
# Coordination Sequence:
#
# PCOD9453820 Si02
#       6
#     8   8   8   8   8   8
#     4  12  27  41  56  77 114 161 203 250 286 330
#     4  10  17  32  50  79 104 139 183 230 299 341
#     4  10  20  30  57  83  99 143 177 249 295 359
#     4  11  21  34  54  72 106 154 205 248 279 327
#     4  10  19  31  53  80 111 146 180 234 302 359
#     4  11  20  35  55  78 109 135 196 237 300 348
#
# _framework density 17.994451000000002
#
# number of rings (size 3 to 8) (size 9 to 14) (size 15 to 20)
#    0.000    1.333    8.333    1.000    0.000    0.667 
#    0.000    0.000    0.000    0.000    0.000    0.000 
#    0.000    1.333    0.000    0.000    0.000    0.000 
#
# Total GULP energy -267270.335222 kJ/mol
# GULP energy per Si atom -5568.131984 kJ/mol
# Density = 1.795350 g / cm^3
# Si number density = 17.994451 Si / 1000 Ang^3
#
#
#
# Elastic Constant Matrix: (Units=GPa)
#
#
# Indices 1 2 3 4 5 6 
#
# 1 80.1732 36.1462 21.9495 0.0000 0.0000 0.0000
# 2 36.1462 47.7710 15.9356 0.0000 0.0000 0.0000
# 3 21.9495 15.9356 75.1554 0.0000 0.0000 0.0000
# 4 0.0000 0.0000 0.0000 13.6499 0.0000 0.0000
# 5 0.0000 0.0000 0.0000 0.0000 39.8790 0.0000
# 6 0.0000 0.0000 0.0000 0.0000 0.0000 13.5565
#
#
#
# Elastic Compliance Matrix: (Units=1/GPa)
#
#
# Indices 1 2 3 4 5 6 
#
# 1 0.019447 -0.013796 -0.002754 0.000000 0.000000 0.000000
# 2 -0.013796 0.032313 -0.002822 0.000000 0.000000 0.000000
# 3 -0.002754 -0.002822 0.014709 0.000000 0.000000 0.000000
# 4 0.000000 0.000000 0.000000 0.073261 0.000000 0.000000
# 5 0.000000 0.000000 0.000000 0.000000 0.025076 0.000000
# 6 0.000000 0.000000 0.000000 0.000000 0.000000 0.073765
#
#
# Mechanical properties :
#
#
# Convention : Reuss Voigt Hill
#
# Bulk Modulus (GPa) = 36.07022 39.01803 37.54412
# Shear Modulus (GPa) = 17.44852 22.02165 19.73508
#
# Velocity S-wave (km/s) = 3.11732 3.50208 3.31529
# Velocity P-wave (km/s) = 5.74853 6.17116 5.96359
#
# Compressibility (1/GPa) = 0.02772370
#
# Stress axis : x y z
#
# Youngs Moduli (GPa) = 51.42195 30.94686 67.98722
#
# Poissons Ratio (x) = 0.42694 0.18726
# Poissons Ratio (y) = 0.70941 0.19189
# Poissons Ratio (z) = 0.14163 0.08735
#
# Static dielectric constant tensor:
#      x y z
#    x 1.702400 0.000000 0.000000 
#    y 0.000000 1.669490 0.000000 
#    z 0.000000 0.000000 1.702170 
# 
# From -- ./inp_files/2058.got.cif
#   From: 2010.05.17/outbox.cif.g08.bks.cpg/sg60_2_cif.got.tgz:2058.got - 2010.06.03 14:59:27.
