data_PCOD9453508
_publ_section_title
;
Structure prediction by ZEFSAII (Michael W. Deem and Ramdas Pophale) SiO2 
 PCOD9453508
Probable space group: P M M N
;
_chemical_formula_sum "Si O2"
_cell_formula_units_Z 64
_cell_length_a 15.000000
_cell_length_b 9.000000
_cell_length_c 24.000000
_cell_angle_alpha 90.000000
_cell_angle_beta 90.000000
_cell_angle_gamma 90.000000
_cell_volume 3240.000000
_symmetry_space_group_name_H-M "P M M N"
_symmetry_group_IT_number 59
_space_group.IT_coordinate_system_code '2'
_symmetry_cell_setting 'orthorhombic'
loop_
_space_group_symop_operation_xyz
x,y,z
1/2-x,1/2-y,z
1/2+x,-y,-z
-x,1/2+y,-z
-x,-y,-z
1/2+x,1/2+y,-z
1/2-x,y,z
x,1/2-y,z
loop_
_atom_site_type_symbol
_atom_site_label
_atom_site_fract_x
_atom_site_fract_y
_atom_site_fract_z
Si Si1 0.852992 0.428097 0.722959
Si Si2 0.851347 0.074026 0.510573
Si Si3 0.646966 0.570899 0.149136
Si Si4 0.473545 0.074094 0.184868
Si Si5 0.358075 0.418467 0.977445
Si Si6 0.152828 0.428929 0.610036
Si Si7 0.143505 0.925328 0.089496
Si Si8 0.041677 0.570088 0.384572
O O1 0.750000 0.463197 0.732853
O O2 0.864265 0.250000 0.731500
O O3 0.916777 0.516456 0.763487
O O4 0.884107 0.464945 0.660814
O O5 0.750000 0.063621 0.533825
O O6 0.866105 0.250000 0.498421
O O7 0.923475 0.019548 0.555271
O O8 0.852692 0.980671 0.454106
O O9 0.750000 0.526743 0.159057
O O10 0.643282 0.750000 0.153635
O O11 0.571987 0.496393 0.186213
O O12 0.620723 0.533349 0.085164
O O13 0.479576 0.250000 0.182794
O O14 0.417641 0.013771 0.132098
O O15 0.250000 0.410860 0.978136
O O16 0.391189 0.250000 0.986910
O O17 0.383398 0.526974 0.027092
O O18 0.250000 0.482037 0.631875
O O19 0.154261 0.250000 0.613656
O O20 0.057222 0.480741 0.633499
O O21 0.250000 0.957669 0.097006
O O22 0.131438 0.750000 0.097883
O O23 0.038181 0.750000 0.388092
#
# Coordination Sequence:
#
# PCOD9453508 Si02
#       8
#     8   8   8   8   8   8   8   8
#     4  10  21  39  61  80 100 131 176 229 277 321
#     4   9  16  27  46  73 103 135 172 212 256 307
#     4   9  19  38  62  84 108 140 178 219 261 311
#     4  12  25  38  55  79 108 142 177 219 273 327
#     4   8  15  30  53  81 111 140 171 213 265 315
#     4   9  17  29  46  72 107 141 170 204 250 307
#     4  10  20  34  54  80 110 145 184 223 264 317
#     4   9  17  31  52  75  99 132 176 221 263 311
#
# _framework density 19.753086
#
# number of rings (size 3 to 8) (size 9 to 14) (size 15 to 20)
#    0.000    2.500    0.000    3.375    0.000    5.250 
#    0.000    3.125    0.000    3.750    0.000    0.000 
#    0.000    0.000    0.000    0.000    0.000    0.000 
#
# Total GULP energy -356947.272180 kJ/mol
# GULP energy per Si atom -5577.301128 kJ/mol
# Density = 1.970813 g / cm^3
# Si number density = 19.753086 Si / 1000 Ang^3
#
#
#
# Elastic Constant Matrix: (Units=GPa)
#
#
# Indices 1 2 3 4 5 6 
#
# 1 86.4274 26.7448 19.8792 0.0000 0.0000 0.0000
# 2 26.7448 17.3984 11.4165 0.0000 0.0000 0.0000
# 3 19.8792 11.4165 16.6187 0.0000 0.0000 0.0000
# 4 0.0000 0.0000 0.0000 18.1461 0.0000 0.0000
# 5 0.0000 0.0000 0.0000 0.0000 28.5275 0.0000
# 6 0.0000 0.0000 0.0000 0.0000 0.0000 17.8287
#
#
#
# Elastic Compliance Matrix: (Units=1/GPa)
#
#
# Indices 1 2 3 4 5 6 
#
# 1 0.022361 -0.030628 -0.005708 0.000000 0.000000 0.000000
# 2 -0.030628 0.146600 -0.064072 0.000000 0.000000 0.000000
# 3 -0.005708 -0.064072 0.111016 0.000000 0.000000 0.000000
# 4 0.000000 0.000000 0.000000 0.055108 0.000000 0.000000
# 5 0.000000 0.000000 0.000000 0.000000 0.035054 0.000000
# 6 0.000000 0.000000 0.000000 0.000000 0.000000 0.056089
#
#
# Mechanical properties :
#
#
# Convention : Reuss Voigt Hill
#
# Bulk Modulus (GPa) = 12.63240 26.28060 19.45650
# Shear Modulus (GPa) = 7.65191 17.06074 12.35633
#
# Velocity S-wave (km/s) = 1.97033 2.94207 2.50379
# Velocity P-wave (km/s) = 3.40372 4.98743 4.26964
#
# Compressibility (1/GPa) = 0.07916152
#
# Stress axis : x y z
#
# Youngs Moduli (GPa) = 44.72080 6.82129 9.00768
#
# Poissons Ratio (x) = 0.20892 0.05142
# Poissons Ratio (y) = 1.36970 0.57714
# Poissons Ratio (z) = 0.25526 0.43705
#
# Static dielectric constant tensor:
#      x y z
#    x 1.738240 0.000000 0.000000 
#    y 0.000000 1.652070 0.000000 
#    z 0.000000 0.000000 1.718760 
# 
# From -- ./inp_files/32159.got.cif
#   From: 2010.05.17/outbox.ucp.g08.bks.cvg/sg59_17_cif.got.tgz:32159.got - 2010.06.11 16:43:56.
