data_PCOD9453923
_publ_section_title
;
Structure prediction by ZEFSAII (Michael W. Deem and Ramdas Pophale) SiO2 
 PCOD9453923
Probable space group: P B C N
;
_chemical_formula_sum "Si O2"
_cell_formula_units_Z 64
_cell_length_a 17.016933
_cell_length_b 30.631905
_cell_length_c 5.500512
_cell_angle_alpha 90.000000
_cell_angle_beta 90.000000
_cell_angle_gamma 90.000000
_cell_volume 2867.202798
_symmetry_space_group_name_H-M "P B C N"
_symmetry_group_IT_number 60
_symmetry_cell_setting 'orthorhombic'
loop_
_space_group_symop_operation_xyz
x,y,z
1/2-x,1/2-y,1/2+z
1/2+x,1/2-y,-z
-x,y,1/2-z
-x,-y,-z
1/2+x,1/2+y,1/2-z
1/2-x,1/2+y,z
x,-y,1/2+z
loop_
_atom_site_type_symbol
_atom_site_label
_atom_site_fract_x
_atom_site_fract_y
_atom_site_fract_z
Si Si1 0.293872 0.675626 0.213942
Si Si2 0.093425 0.311488 0.218467
Si Si3 0.843761 0.267170 0.784545
Si Si4 0.830612 0.018702 0.114527
Si Si5 0.328724 0.393464 0.076323
Si Si6 0.190119 0.390670 0.389734
Si Si7 0.650340 0.015384 0.541921
Si Si8 0.413467 0.676420 0.835189
O O1 0.248363 0.720830 0.222977
O O2 0.292416 0.649819 0.461624
O O3 0.240463 0.643978 0.045799
O O4 0.382637 0.676855 0.113131
O O5 0.123288 0.285381 0.459293
O O6 0.129539 0.360332 0.243973
O O7 0.000000 0.312660 0.250000
O O8 0.118095 0.290311 0.957295
O O9 0.860995 0.216192 0.767279
O O10 0.846137 0.070473 0.123056
O O11 0.864212 0.997373 0.357163
O O12 0.737865 0.005834 0.090363
O O13 0.258336 0.413267 0.231138
O O14 0.396568 0.372329 0.236845
O O15 0.153466 0.432782 0.518545
O O16 0.613402 0.991424 0.309160
O O17 0.500000 0.688021 0.750000
#
# Coordination Sequence:
#
# PCOD9453923 Si02
#       8
#     8   8   8   8   8   8   8   8
#     4  10  23  38  66  92 125 163 220 273 316 375
#     4  11  23  41  65  92 130 173 219 270 325 387
#     4  11  25  44  68  94 126 171 229 270 315 380
#     4  10  19  32  59  90 120 154 207 267 320 372
#     4  11  21  38  62  91 126 164 213 269 325 382
#     4  10  20  35  57  93 124 160 214 272 320 379
#     4  10  18  29  53  85 122 155 204 262 319 368
#     4  11  27  43  62  94 136 177 211 264 338 399
#
# _framework density 22.321406
#
# number of rings (size 3 to 8) (size 9 to 14) (size 15 to 20)
#    0.000    1.500    3.750    2.625    5.250    0.500 
#    0.000    0.000    0.000    1.500    0.000    0.000 
#    0.000    0.000    0.000    0.000    0.000    0.000 
#
# Total GULP energy -356800.160768 kJ/mol
# GULP energy per Si atom -5575.002512 kJ/mol
# Density = 2.227060 g / cm^3
# Si number density = 22.321406 Si / 1000 Ang^3
#
#
#
# Elastic Constant Matrix: (Units=GPa)
#
#
# Indices 1 2 3 4 5 6 
#
# 1 53.4780 11.5941 21.3886 0.0000 0.0000 0.0000
# 2 11.5941 127.9586 23.5361 0.0000 0.0000 0.0000
# 3 21.3886 23.5361 109.4092 0.0000 0.0000 0.0000
# 4 0.0000 0.0000 0.0000 28.2185 0.0000 0.0000
# 5 0.0000 0.0000 0.0000 0.0000 24.4285 0.0000
# 6 0.0000 0.0000 0.0000 0.0000 0.0000 4.0686
#
#
#
# Elastic Compliance Matrix: (Units=1/GPa)
#
#
# Indices 1 2 3 4 5 6 
#
# 1 0.020450 -0.001164 -0.003748 0.000000 0.000000 0.000000
# 2 -0.001164 0.008203 -0.001537 0.000000 0.000000 0.000000
# 3 -0.003748 -0.001537 0.010203 0.000000 0.000000 0.000000
# 4 0.000000 0.000000 0.000000 0.035438 0.000000 0.000000
# 5 0.000000 0.000000 0.000000 0.000000 0.040936 0.000000
# 6 0.000000 0.000000 0.000000 0.000000 0.000000 0.245786
#
#
# Mechanical properties :
#
#
# Convention : Reuss Voigt Hill
#
# Bulk Modulus (GPa) = 38.52066 44.87593 41.69829
# Shear Modulus (GPa) = 13.06963 26.96492 20.01727
#
# Velocity S-wave (km/s) = 2.42238 3.47944 2.99787
# Velocity P-wave (km/s) = 5.01185 6.02413 5.54115
#
# Compressibility (1/GPa) = 0.02596010
#
# Stress axis : x y z
#
# Youngs Moduli (GPa) = 48.89877 121.90355 98.00758
#
# Poissons Ratio (x) = 0.14185 0.36729
# Poissons Ratio (y) = 0.05690 0.15066
# Poissons Ratio (z) = 0.18325 0.18739
#
# Static dielectric constant tensor:
#      x y z
#    x 1.812170 0.000000 0.000000 
#    y 0.000000 1.844020 0.000000 
#    z 0.000000 0.000000 1.962750 
# 
# From -- ./inp_files/1911.got.cif
#   From: 2010.05.17/outbox.cif.g08.bks.cpg/sg60_1_cif.got.tgz:1911.got - 2010.06.03 14:59:27.
