data_PCOD9453236
_publ_section_title
;
Structure prediction by ZEFSAII (Michael W. Deem and Ramdas Pophale) SiO2 
 PCOD9453236
Probable space group: P M M N
;
_chemical_formula_sum "Si O2"
_cell_formula_units_Z 40
_cell_length_a 7.424319
_cell_length_b 27.610858
_cell_length_c 9.444566
_cell_angle_alpha 90.000000
_cell_angle_beta 90.000000
_cell_angle_gamma 90.000000
_cell_volume 1936.058751
_symmetry_space_group_name_H-M "P M M N"
_symmetry_group_IT_number 59
_space_group.IT_coordinate_system_code '2'
_symmetry_cell_setting 'orthorhombic'
loop_
_space_group_symop_operation_xyz
x,y,z
1/2-x,1/2-y,z
1/2+x,-y,-z
-x,1/2+y,-z
-x,-y,-z
1/2+x,1/2+y,-z
1/2-x,y,z
x,1/2-y,z
loop_
_atom_site_type_symbol
_atom_site_label
_atom_site_fract_x
_atom_site_fract_y
_atom_site_fract_z
Si Si1 0.045849 0.949246 0.690439
Si Si2 0.469787 0.750000 0.845178
Si Si3 0.535701 0.948786 0.360164
Si Si4 0.528870 0.155414 0.326690
Si Si5 0.529177 0.250000 0.830054
Si Si6 0.034502 0.842209 0.347355
O O1 0.250000 0.949642 0.745349
O O2 0.965885 0.897121 0.729889
O O3 0.047646 0.946943 0.517755
O O4 0.967466 0.002699 0.717915
O O5 0.250000 0.750000 0.842681
O O6 0.526783 0.701425 0.764261
O O7 0.527281 0.750000 0.007466
O O8 0.750000 0.954888 0.379672
O O9 0.505566 0.896340 0.292954
O O10 0.750000 0.153837 0.327323
O O11 0.470021 0.161254 0.490019
O O12 0.750000 0.250000 0.829255
O O13 0.468929 0.201811 0.748112
O O14 0.250000 0.837913 0.353432
#
# Coordination Sequence:
#
# PCOD9453236 Si02
#       6
#     8   4   8   8   4   8
#     4   8  14  24  38  59  87 113 134 163 206 246
#     4   9  15  23  39  63  82  98 132 177 208 234
#     4   9  15  23  38  61  85 109 138 168 198 239
#     4   8  13  22  38  59  82 105 128 160 202 242
#     4   9  17  27  40  59  82 106 134 171 210 244
#     4   9  16  27  42  61  85 109 132 164 208 248
#
# _framework density 20.660530000000001
#
# number of rings (size 3 to 8) (size 9 to 14) (size 15 to 20)
#    0.000    3.400    0.000    2.400    0.000    3.200 
#    0.000    0.500    0.000    1.200    0.000   11.200 
#    0.000    0.000    0.000    0.000    0.000    1.800 
#
# Total GULP energy -222800.320003 kJ/mol
# GULP energy per Si atom -5570.008000 kJ/mol
# Density = 2.061351 g / cm^3
# Si number density = 20.660530 Si / 1000 Ang^3
#
#
#
# Elastic Constant Matrix: (Units=GPa)
#
#
# Indices 1 2 3 4 5 6 
#
# 1 71.3542 -0.1342 2.6654 0.0000 0.0000 0.0000
# 2 -0.1342 277.7523 86.0849 0.0000 0.0000 0.0000
# 3 2.6654 86.0849 63.0330 0.0000 0.0000 0.0000
# 4 0.0000 0.0000 0.0000 -4.9282 0.0000 0.0000
# 5 0.0000 0.0000 0.0000 0.0000 -1.6865 0.0000
# 6 0.0000 0.0000 0.0000 0.0000 0.0000 14.1314
#
#
#
# Elastic Compliance Matrix: (Units=1/GPa)
#
#
# Indices 1 2 3 4 5 6 
#
# 1 0.014054 0.000331 -0.001047 0.000000 0.000000 0.000000
# 2 0.000331 0.006251 -0.008550 0.000000 0.000000 0.000000
# 3 -0.001047 -0.008550 0.027586 0.000000 0.000000 0.000000
# 4 0.000000 0.000000 0.000000 -0.202913 0.000000 0.000000
# 5 0.000000 0.000000 0.000000 0.000000 -0.592941 0.000000
# 6 0.000000 0.000000 0.000000 0.000000 0.000000 0.070765
#
#
# Mechanical properties :
#
#
# Convention : Reuss Voigt Hill
#
# Bulk Modulus (GPa) = 34.06042 65.48573 49.77308
# Shear Modulus (GPa) = -7.70559 23.07155 7.68298
#
# Velocity S-wave (km/s) = -1.93332 3.34533 1.93048
# Velocity P-wave (km/s) = 3.39675 6.83275 5.39557
#
# Compressibility (1/GPa) = 0.02935959
#
# Stress axis : x y z
#
# Youngs Moduli (GPa) = 71.15255 159.98515 36.24963
#
# Poissons Ratio (x) = -0.05298 0.03794
# Poissons Ratio (y) = -0.02356 0.30995
# Poissons Ratio (z) = 0.07446 1.36795
#
# Static dielectric constant tensor:
#      x y z
#    x 1.815700 0.000000 0.000000 
#    y 0.000000 1.804750 0.000000 
#    z 0.000000 0.000000 1.662860 
# 
# From -- ./inp_files/5963.got.cif
#   From: 2010.05.17/outbox.cif.g08.bks.cpg/sg59_3_cif.got.tgz:5963.got - 2010.06.03 14:40:33.
