data_PCOD9453181
_publ_section_title
;
Structure prediction by ZEFSAII (Michael W. Deem and Ramdas Pophale) SiO2 
 PCOD9453181
Probable space group: P M M N
;
_chemical_formula_sum "Si O2"
_cell_formula_units_Z 44
_cell_length_a 30.677141
_cell_length_b 7.381925
_cell_length_c 7.438892
_cell_angle_alpha 90.000000
_cell_angle_beta 90.000000
_cell_angle_gamma 90.000000
_cell_volume 1684.584361
_symmetry_space_group_name_H-M "P M M N"
_symmetry_group_IT_number 59
_space_group.IT_coordinate_system_code '2'
_symmetry_cell_setting 'orthorhombic'
loop_
_space_group_symop_operation_xyz
x,y,z
1/2-x,1/2-y,z
1/2+x,-y,-z
-x,1/2+y,-z
-x,-y,-z
1/2+x,1/2+y,-z
1/2-x,y,z
x,1/2-y,z
loop_
_atom_site_type_symbol
_atom_site_label
_atom_site_fract_x
_atom_site_fract_y
_atom_site_fract_z
Si Si1 0.023151 0.962792 0.311135
Si Si2 0.964765 0.750000 0.944068
Si Si3 0.202720 0.959265 0.930251
Si Si4 0.703781 0.533256 0.495146
Si Si5 0.106280 0.972504 0.896638
Si Si6 0.390360 0.959570 0.477186
O O1 0.018407 0.750000 0.258746
O O2 0.072477 0.034141 0.349784
O O3 0.006135 0.094910 0.162571
O O4 0.000000 0.000000 0.500000
O O5 0.931527 0.590866 0.020338
O O6 0.250000 0.041129 0.984061
O O7 0.203484 0.750000 0.985553
O O8 0.154258 0.027087 0.974758
O O9 0.202724 0.965135 0.710879
O O10 0.750000 0.473382 0.575404
O O11 0.703336 0.750000 0.487969
O O12 0.659116 0.476127 0.586543
O O13 0.102576 0.750000 0.915627
O O14 0.107159 0.020755 0.683160
O O15 0.402423 0.750000 0.482484
#
# Coordination Sequence:
#
# PCOD9453181 Si02
#       6
#     8   4   8   8   8   8
#     4  11  24  45  68  89 115 155 209 246 299 375
#     4  12  24  38  65  88 118 158 183 250 304 356
#     4   8  14  26  46  75 115 159 197 238 286 343
#     4   9  16  24  44  83 120 149 191 244 293 343
#     4   9  19  36  58  91 124 152 198 247 300 353
#     4   9  20  37  62  86 117 159 199 247 297 354
#
# _framework density 26.119204
#
# number of rings (size 3 to 8) (size 9 to 14) (size 15 to 20)
#    0.000    2.545    0.909    2.182    6.364    1.091 
#    0.000    0.909    0.000    2.182    0.000    2.545 
#    0.000    0.000    0.000    0.000    0.000    0.000 
#
# Total GULP energy -244966.182037 kJ/mol
# GULP energy per Si atom -5567.413228 kJ/mol
# Density = 2.605976 g / cm^3
# Si number density = 26.119204 Si / 1000 Ang^3
#
#
#
# Elastic Constant Matrix: (Units=GPa)
#
#
# Indices 1 2 3 4 5 6 
#
# 1 145.8465 27.5245 23.5780 0.0000 0.0000 0.0000
# 2 27.5245 156.8974 27.2044 0.0000 0.0000 0.0000
# 3 23.5780 27.2044 75.9487 0.0000 0.0000 0.0000
# 4 0.0000 0.0000 0.0000 -6.8969 0.0000 0.0000
# 5 0.0000 0.0000 0.0000 0.0000 13.9360 0.0000
# 6 0.0000 0.0000 0.0000 0.0000 0.0000 4.4322
#
#
#
# Elastic Compliance Matrix: (Units=1/GPa)
#
#
# Indices 1 2 3 4 5 6 
#
# 1 0.007350 -0.000953 -0.001940 0.000000 0.000000 0.000000
# 2 -0.000953 0.006919 -0.002183 0.000000 0.000000 0.000000
# 3 -0.001940 -0.002183 0.014551 0.000000 0.000000 0.000000
# 4 0.000000 0.000000 0.000000 -0.144992 0.000000 0.000000
# 5 0.000000 0.000000 0.000000 0.000000 0.071757 0.000000
# 6 0.000000 0.000000 0.000000 0.000000 0.000000 0.225621
#
#
# Mechanical properties :
#
#
# Convention : Reuss Voigt Hill
#
# Bulk Modulus (GPa) = 53.56686 59.47849 56.52267
# Shear Modulus (GPa) = 25.30623 22.31997 23.81310
#
# Velocity S-wave (km/s) = 3.11605 2.92643 3.02273
# Velocity P-wave (km/s) = 5.78788 5.85150 5.81977
#
# Compressibility (1/GPa) = 0.01866826
#
# Stress axis : x y z
#
# Youngs Moduli (GPa) = 136.05313 144.52518 68.72391
#
# Poissons Ratio (x) = 0.13773 0.13336
# Poissons Ratio (y) = 0.12965 0.15000
# Poissons Ratio (z) = 0.26400 0.31544
#
# Static dielectric constant tensor:
#      x y z
#    x 2.162670 0.000000 0.000000 
#    y 0.000000 2.030090 0.000000 
#    z 0.000000 0.000000 2.162210 
# 
# From -- ./inp_files/12832.got.cif
#   From: 2010.05.17/outbox.cif.g08.bks.cpg/sg59_7_cif.got.tgz:12832.got - 2010.06.03 14:40:33.
