data_PCOD9453957
_publ_section_title
;
Structure prediction by ZEFSAII (Michael W. Deem and Ramdas Pophale) SiO2 
 PCOD9453957
Probable space group: P B C N
;
_chemical_formula_sum "Si O2"
_cell_formula_units_Z 64
_cell_length_a 21.577346
_cell_length_b 22.729526
_cell_length_c 5.767115
_cell_angle_alpha 90.000000
_cell_angle_beta 90.000000
_cell_angle_gamma 90.000000
_cell_volume 2828.440299
_symmetry_space_group_name_H-M "P B C N"
_symmetry_group_IT_number 60
_symmetry_cell_setting 'orthorhombic'
loop_
_space_group_symop_operation_xyz
x,y,z
1/2-x,1/2-y,1/2+z
1/2+x,1/2-y,-z
-x,y,1/2-z
-x,-y,-z
1/2+x,1/2+y,1/2-z
1/2-x,1/2+y,z
x,-y,1/2+z
loop_
_atom_site_type_symbol
_atom_site_label
_atom_site_fract_x
_atom_site_fract_y
_atom_site_fract_z
Si Si1 0.096024 0.343596 0.696037
Si Si2 0.521842 0.614524 0.500266
Si Si3 0.359137 0.222146 0.585355
Si Si4 0.711645 0.138829 0.636908
Si Si5 0.849630 0.840405 0.154390
Si Si6 0.071055 0.781298 0.991719
Si Si7 0.289689 0.985220 0.157570
Si Si8 0.070283 0.472152 0.623039
O O1 0.163822 0.351124 0.574126
O O2 0.066560 0.280835 0.626518
O O3 0.059942 0.401915 0.623024
O O4 0.107644 0.333481 0.967169
O O5 0.500000 0.587354 0.750000
O O6 0.595164 0.625938 0.521009
O O7 0.489844 0.679377 0.499949
O O8 0.500000 0.588547 0.250000
O O9 0.299928 0.197299 0.715578
O O10 0.339472 0.272513 0.412754
O O11 0.405942 0.256185 0.750377
O O12 0.784378 0.130294 0.599282
O O13 0.694288 0.082214 0.789540
O O14 0.877655 0.828159 0.410933
O O15 0.259301 0.007919 0.401034
O O16 0.354711 0.019396 0.132229
O O17 0.051821 0.502007 0.377252
#
# Coordination Sequence:
#
# PCOD9453957 Si02
#       8
#     8   8   8   8   8   8   8   8
#     4  10  20  32  50  77 108 151 186 221 273 333
#     4  10  19  39  57  72 102 140 184 232 264 309
#     4  10  20  32  48  73 113 146 179 216 270 329
#     4  11  22  31  50  77 114 148 188 218 273 345
#     4  10  22  34  51  77 108 151 181 222 274 324
#     4   9  20  35  52  75 103 144 187 230 268 318
#     4  10  19  35  51  71 102 151 183 228 267 312
#     4  10  18  31  51  72 104 148 183 224 267 320
#
# _framework density 22.627313000000001
#
# number of rings (size 3 to 8) (size 9 to 14) (size 15 to 20)
#    0.000    2.000    3.750    1.500    7.000    0.000 
#    0.000    0.000    0.000    0.000    0.000    0.000 
#    0.000   59.000    0.000    0.000    0.000    0.000 
#
# Total GULP energy -356311.211636 kJ/mol
# GULP energy per Si atom -5567.362682 kJ/mol
# Density = 2.257581 g / cm^3
# Si number density = 22.627313 Si / 1000 Ang^3
#
#
#
# Elastic Constant Matrix: (Units=GPa)
#
#
# Indices 1 2 3 4 5 6 
#
# 1 73.8622 -19.2358 7.9892 0.0000 0.0000 0.0000
# 2 -19.2358 19.0519 -2.6669 0.0000 0.0000 0.0000
# 3 7.9892 -2.6669 129.0552 0.0000 0.0000 0.0000
# 4 0.0000 0.0000 0.0000 -7.2816 0.0000 0.0000
# 5 0.0000 0.0000 0.0000 0.0000 11.4514 0.0000
# 6 0.0000 0.0000 0.0000 0.0000 0.0000 -2.7975
#
#
#
# Elastic Compliance Matrix: (Units=1/GPa)
#
#
# Indices 1 2 3 4 5 6 
#
# 1 0.018442 0.018514 -0.000759 0.000000 0.000000 0.000000
# 2 0.018514 0.071227 0.000326 0.000000 0.000000 0.000000
# 3 -0.000759 0.000326 0.007802 0.000000 0.000000 0.000000
# 4 0.000000 0.000000 0.000000 -0.137333 0.000000 0.000000
# 5 0.000000 0.000000 0.000000 0.000000 0.087326 0.000000
# 6 0.000000 0.000000 0.000000 0.000000 0.000000 -0.357457
#
#
# Mechanical properties :
#
#
# Convention : Reuss Voigt Hill
#
# Bulk Modulus (GPa) = 7.48316 21.57137 14.52726
# Shear Modulus (GPa) = -16.57771 15.99997 -0.28887
#
# Velocity S-wave (km/s) = -2.70967 2.66204 -0.35769
# Velocity P-wave (km/s) = 2.54469 4.35920 2.50272
#
# Compressibility (1/GPa) = 0.13363340
#
# Stress axis : x y z
#
# Youngs Moduli (GPa) = 54.22272 14.03965 128.16662
#
# Poissons Ratio (x) = -0.25993 0.09729
# Poissons Ratio (y) = -1.00389 -0.04175
# Poissons Ratio (z) = 0.04116 -0.00457
#
# Static dielectric constant tensor:
#      x y z
#    x 1.929580 0.000000 0.000000 
#    y 0.000000 1.821430 0.000000 
#    z 0.000000 0.000000 2.039900 
# 
# From -- ./inp_files/2229.got.cif
#   From: 2010.05.17/outbox.cif.g08.bks.cpg/sg60_2_cif.got.tgz:2229.got - 2010.06.03 14:59:27.
