data_PCOD9453484
_publ_section_title
;
Structure prediction by ZEFSAII (Michael W. Deem and Ramdas Pophale) SiO2 
 PCOD9453484
Probable space group: P M M N
;
_chemical_formula_sum "Si O2"
_cell_formula_units_Z 64
_cell_length_a 15.000000
_cell_length_b 9.000000
_cell_length_c 24.000000
_cell_angle_alpha 90.000000
_cell_angle_beta 90.000000
_cell_angle_gamma 90.000000
_cell_volume 3240.000000
_symmetry_space_group_name_H-M "P M M N"
_symmetry_group_IT_number 59
_space_group.IT_coordinate_system_code '2'
_symmetry_cell_setting 'orthorhombic'
loop_
_space_group_symop_operation_xyz
x,y,z
1/2-x,1/2-y,z
1/2+x,-y,-z
-x,1/2+y,-z
-x,-y,-z
1/2+x,1/2+y,-z
1/2-x,y,z
x,1/2-y,z
loop_
_atom_site_type_symbol
_atom_site_label
_atom_site_fract_x
_atom_site_fract_y
_atom_site_fract_z
Si Si1 0.115200 0.919896 0.457235
Si Si2 0.846750 0.071267 0.097385
Si Si3 0.149006 0.928991 0.684387
Si Si4 0.908775 0.072308 0.979591
Si Si5 0.031798 0.572308 0.135747
Si Si6 0.403139 0.079561 0.568370
Si Si7 0.152663 0.078077 0.345194
Si Si8 0.979858 0.928984 0.749590
O O1 0.140932 0.750000 0.463863
O O2 0.008852 0.925370 0.444708
O O3 0.138203 0.006021 0.513501
O O4 0.154697 0.991461 0.402383
O O5 0.750000 0.031811 0.121650
O O6 0.859141 0.250000 0.104330
O O7 0.844373 0.038758 0.030846
O O8 0.932643 0.988325 0.121210
O O9 0.250000 0.974621 0.695958
O O10 0.145573 0.750000 0.679936
O O11 0.080665 0.971146 0.733242
O O12 0.118544 0.994327 0.625112
O O13 0.917234 0.250000 0.978799
O O14 0.901918 0.027263 0.915012
O O15 0.000000 0.000000 0.000000
O O16 0.029906 0.750000 0.139390
O O17 0.054732 0.501610 0.194455
O O18 0.375529 0.250000 0.574101
O O19 0.250000 0.072320 0.318221
O O20 0.131681 0.250000 0.358267
O O21 0.079155 0.022180 0.302788
O O22 0.974657 0.750000 0.754309
#
# Coordination Sequence:
#
# PCOD9453484 Si02
#       8
#     8   8   8   8   8   8   8   8
#     4  10  20  34  56  83 110 140 175 218 271 330
#     4   9  17  31  53  79 107 140 178 218 262 316
#     4  10  21  37  57  79 104 139 182 225 271 322
#     4   8  15  29  48  72 100 131 166 206 250 300
#     4  10  20  33  52  77 107 141 179 220 266 317
#     4  10  20  34  55  82 111 142 175 215 269 330
#     4  10  21  38  60  82 104 136 180 228 277 325
#     4  10  21  38  57  77 107 145 185 229 271 317
#
# _framework density 19.753086
#
# number of rings (size 3 to 8) (size 9 to 14) (size 15 to 20)
#    0.000    2.375    1.250    1.125    0.000    4.250 
#    0.000    1.875    0.000    0.750    0.000    0.000 
#    0.000    0.000    0.000    0.000    0.000    0.000 
#
# Total GULP energy -356668.848979 kJ/mol
# GULP energy per Si atom -5572.950765 kJ/mol
# Density = 1.970813 g / cm^3
# Si number density = 19.753086 Si / 1000 Ang^3
#
#
#
# Elastic Constant Matrix: (Units=GPa)
#
#
# Indices 1 2 3 4 5 6 
#
# 1 37.3228 14.2507 -2.8810 0.0000 0.0000 0.0000
# 2 14.2507 9.3780 13.9562 0.0000 0.0000 0.0000
# 3 -2.8810 13.9562 75.0977 0.0000 0.0000 0.0000
# 4 0.0000 0.0000 0.0000 34.5075 0.0000 0.0000
# 5 0.0000 0.0000 0.0000 0.0000 1.3044 0.0000
# 6 0.0000 0.0000 0.0000 0.0000 0.0000 6.7711
#
#
#
# Elastic Compliance Matrix: (Units=1/GPa)
#
#
# Indices 1 2 3 4 5 6 
#
# 1 0.200520 -0.437019 0.088908 0.000000 0.000000 0.000000
# 2 -0.437019 1.099850 -0.221162 0.000000 0.000000 0.000000
# 3 0.088908 -0.221162 0.057828 0.000000 0.000000 0.000000
# 4 0.000000 0.000000 0.000000 0.028979 0.000000 0.000000
# 5 0.000000 0.000000 0.000000 0.000000 0.766612 0.000000
# 6 0.000000 0.000000 0.000000 0.000000 0.000000 0.147687
#
#
# Mechanical properties :
#
#
# Convention : Reuss Voigt Hill
#
# Bulk Modulus (GPa) = 4.55265 19.16112 11.85689
# Shear Modulus (GPa) = 1.42319 14.94811 8.18565
#
# Velocity S-wave (km/s) = 0.84974 2.75389 2.03789
# Velocity P-wave (km/s) = 1.80901 4.45345 3.39895
#
# Compressibility (1/GPa) = 0.21965213
#
# Stress axis : x y z
#
# Youngs Moduli (GPa) = 4.98704 0.90921 17.29273
#
# Poissons Ratio (x) = 0.39734 -1.53747
# Poissons Ratio (y) = 2.17943 3.82450
# Poissons Ratio (z) = -0.44339 0.20108
#
# Static dielectric constant tensor:
#      x y z
#    x 1.760500 0.000000 0.000000 
#    y 0.000000 1.665240 0.000000 
#    z 0.000000 0.000000 1.685830 
# 
# From -- ./inp_files/32214.got.cif
#   From: 2010.05.17/outbox.ucp.g08.bks.cvg/sg59_17_cif.got.tgz:32214.got - 2010.06.11 16:43:56.
