data_PCOD9453515
_publ_section_title
;
Structure prediction by ZEFSAII (Michael W. Deem and Ramdas Pophale) SiO2 
 PCOD9453515
Probable space group: P M M N
;
_chemical_formula_sum "Si O2"
_cell_formula_units_Z 64
_cell_length_a 15.000000
_cell_length_b 9.000000
_cell_length_c 24.000000
_cell_angle_alpha 90.000000
_cell_angle_beta 90.000000
_cell_angle_gamma 90.000000
_cell_volume 3240.000000
_symmetry_space_group_name_H-M "P M M N"
_symmetry_group_IT_number 59
_space_group.IT_coordinate_system_code '2'
_symmetry_cell_setting 'orthorhombic'
loop_
_space_group_symop_operation_xyz
x,y,z
1/2-x,1/2-y,z
1/2+x,-y,-z
-x,1/2+y,-z
-x,-y,-z
1/2+x,1/2+y,-z
1/2-x,y,z
x,1/2-y,z
loop_
_atom_site_type_symbol
_atom_site_label
_atom_site_fract_x
_atom_site_fract_y
_atom_site_fract_z
Si Si1 0.486261 0.071880 0.440236
Si Si2 0.354567 0.428928 0.966805
Si Si3 0.145891 0.917652 0.151744
Si Si4 0.354317 0.930169 0.359911
Si Si5 0.978861 0.923693 0.927415
Si Si6 0.849673 0.927676 0.375257
Si Si7 0.848752 0.071422 0.252579
Si Si8 0.528370 0.420458 0.744247
O O1 0.484490 0.250000 0.441407
O O2 0.500000 0.000000 0.500000
O O3 0.395004 0.007628 0.414097
O O4 0.571249 0.012449 0.405659
O O5 0.250000 0.477938 0.965990
O O6 0.353026 0.250000 0.963356
O O7 0.425633 0.494514 0.922928
O O8 0.410884 0.471785 0.022424
O O9 0.250000 0.949943 0.145980
O O10 0.129698 0.750000 0.128299
O O11 0.112360 0.914040 0.214536
O O12 0.083068 0.038014 0.123995
O O13 0.250000 0.967186 0.349370
O O14 0.359401 0.750000 0.363655
O O15 0.425641 0.977295 0.312211
O O16 0.996323 0.750000 0.934804
O O17 0.750000 0.951748 0.399411
O O18 0.865851 0.750000 0.374617
O O19 0.846986 0.993438 0.312966
O O20 0.750000 0.037163 0.226324
O O21 0.853908 0.250000 0.256631
O O22 0.943945 0.009908 0.231001
O O23 0.497553 0.250000 0.735987
#
# Coordination Sequence:
#
# PCOD9453515 Si02
#       8
#     8   8   8   8   8   8   8   8
#     4  12  25  40  59  83 114 148 184 227 277 334
#     4   9  18  34  56  81 112 152 197 242 291 349
#     4  10  21  37  57  83 115 153 196 239 284 338
#     4  10  21  39  62  86 114 148 185 228 279 333
#     4  10  20  34  54  83 117 151 191 242 296 347
#     4  10  20  36  59  84 109 139 177 221 269 324
#     4  10  20  34  55  84 114 143 177 221 274 329
#     4  10  20  36  60  86 114 149 191 234 277 330
#
# _framework density 19.753086
#
# number of rings (size 3 to 8) (size 9 to 14) (size 15 to 20)
#    0.000    1.875    1.250    3.000    0.000    5.750 
#    0.000    0.625    0.000    3.000    0.000    0.000 
#    0.000    0.000    0.000    0.000    0.000    0.000 
#
# Total GULP energy -356546.118504 kJ/mol
# GULP energy per Si atom -5571.033102 kJ/mol
# Density = 1.970813 g / cm^3
# Si number density = 19.753086 Si / 1000 Ang^3
#
#
#
# Elastic Constant Matrix: (Units=GPa)
#
#
# Indices 1 2 3 4 5 6 
#
# 1 162.6710 39.0587 12.9440 0.0000 0.0000 0.0000
# 2 39.0587 43.1531 -2.3741 0.0000 0.0000 0.0000
# 3 12.9440 -2.3741 25.9302 0.0000 0.0000 0.0000
# 4 0.0000 0.0000 0.0000 18.5381 0.0000 0.0000
# 5 0.0000 0.0000 0.0000 0.0000 24.7976 0.0000
# 6 0.0000 0.0000 0.0000 0.0000 0.0000 32.0742
#
#
#
# Elastic Compliance Matrix: (Units=1/GPa)
#
#
# Indices 1 2 3 4 5 6 
#
# 1 0.008440 -0.007910 -0.004937 0.000000 0.000000 0.000000
# 2 -0.007910 0.030705 0.006760 0.000000 0.000000 0.000000
# 3 -0.004937 0.006760 0.041649 0.000000 0.000000 0.000000
# 4 0.000000 0.000000 0.000000 0.053943 0.000000 0.000000
# 5 0.000000 0.000000 0.000000 0.000000 0.040327 0.000000
# 6 0.000000 0.000000 0.000000 0.000000 0.000000 0.031178
#
#
# Mechanical properties :
#
#
# Convention : Reuss Voigt Hill
#
# Bulk Modulus (GPa) = 14.57341 36.77905 25.67623
# Shear Modulus (GPa) = 20.72209 27.22368 23.97289
#
# Velocity S-wave (km/s) = 3.24243 3.71644 3.48749
# Velocity P-wave (km/s) = 4.62726 6.08898 5.40774
#
# Compressibility (1/GPa) = 0.06861812
#
# Stress axis : x y z
#
# Youngs Moduli (GPa) = 118.48883 32.56785 24.01044
#
# Poissons Ratio (x) = 0.25763 0.11854
# Poissons Ratio (y) = 0.93730 -0.16231
# Poissons Ratio (z) = 0.58500 -0.22016
#
# Static dielectric constant tensor:
#      x y z
#    x 1.710540 0.000000 0.000000 
#    y 0.000000 1.681980 0.000000 
#    z 0.000000 0.000000 1.897960 
# 
# From -- ./inp_files/32243.got.cif
#   From: 2010.05.17/outbox.ucp.g08.bks.cvg/sg59_17_cif.got.tgz:32243.got - 2010.06.11 16:43:56.
