data_PCOD9453685
_publ_section_title
;
Structure prediction by ZEFSAII (Michael W. Deem and Ramdas Pophale) SiO2 
 PCOD9453685
Probable space group: P M M N
;
_chemical_formula_sum "Si O2"
_cell_formula_units_Z 56
_cell_length_a 21.000000
_cell_length_b 9.000000
_cell_length_c 15.000000
_cell_angle_alpha 90.000000
_cell_angle_beta 90.000000
_cell_angle_gamma 90.000000
_cell_volume 2835.000000
_symmetry_space_group_name_H-M "P M M N"
_symmetry_group_IT_number 59
_space_group.IT_coordinate_system_code '2'
_symmetry_cell_setting 'orthorhombic'
loop_
_space_group_symop_operation_xyz
x,y,z
1/2-x,1/2-y,z
1/2+x,-y,-z
-x,1/2+y,-z
-x,-y,-z
1/2+x,1/2+y,-z
1/2-x,y,z
x,1/2-y,z
loop_
_atom_site_type_symbol
_atom_site_label
_atom_site_fract_x
_atom_site_fract_y
_atom_site_fract_z
Si Si1 0.319375 0.069833 0.186904
Si Si2 0.042846 0.570329 0.423359
Si Si3 0.460318 0.429103 0.238982
Si Si4 0.180805 0.430056 0.978738
Si Si5 0.820087 0.429340 0.510838
Si Si6 0.823706 0.427830 0.300316
Si Si7 0.420792 0.428749 0.836651
O O1 0.250000 0.016998 0.222035
O O2 0.318554 0.250000 0.193122
O O3 0.386883 0.021788 0.226076
O O4 0.322283 0.030514 0.082347
O O5 0.039435 0.750000 0.423956
O O6 0.018834 0.501213 0.331726
O O7 0.116613 0.522224 0.438267
O O8 0.000000 0.500000 0.500000
O O9 0.463053 0.250000 0.240264
O O10 0.510766 0.493102 0.168660
O O11 0.250000 0.481634 0.943675
O O12 0.181226 0.250000 0.974406
O O13 0.120202 0.477708 0.922604
O O14 0.750000 0.486638 0.538831
O O15 0.817995 0.250000 0.518637
O O16 0.828831 0.460986 0.405750
O O17 0.750000 0.460447 0.274996
O O18 0.833958 0.250000 0.288820
O O19 0.875301 0.517982 0.244383
O O20 0.427835 0.250000 0.835181
#
# Coordination Sequence:
#
# PCOD9453685 Si02
#       7
#     8   8   8   8   8   8   8
#     4   8  16  34  58  80 104 139 183 227 272 325
#     4  11  22  37  58  81 108 142 179 220 267 323
#     4  11  23  37  54  78 108 142 180 224 274 324
#     4   8  15  30  53  80 108 139 177 222 270 317
#     4   8  16  32  53  75  98 129 169 211 259 315
#     4   9  17  31  52  77 107 142 177 215 264 323
#     4  11  21  32  50  78 111 144 182 225 268 320
#
# _framework density 19.753086
#
# number of rings (size 3 to 8) (size 9 to 14) (size 15 to 20)
#    0.000    2.571    0.000    4.286    0.000    3.143 
#    0.000    0.714    0.000    6.857    0.000    8.000 
#    0.000    0.000    0.000    0.000    0.000    0.000 
#
# Total GULP energy -312246.604083 kJ/mol
# GULP energy per Si atom -5575.832216 kJ/mol
# Density = 1.970813 g / cm^3
# Si number density = 19.753086 Si / 1000 Ang^3
#
#
#
# Elastic Constant Matrix: (Units=GPa)
#
#
# Indices 1 2 3 4 5 6 
#
# 1 125.8440 25.3895 30.9542 0.0000 0.0000 0.0000
# 2 25.3895 39.8927 5.7378 0.0000 0.0000 0.0000
# 3 30.9542 5.7378 52.2326 0.0000 0.0000 0.0000
# 4 0.0000 0.0000 0.0000 12.9008 0.0000 0.0000
# 5 0.0000 0.0000 0.0000 0.0000 35.3185 0.0000
# 6 0.0000 0.0000 0.0000 0.0000 0.0000 29.3318
#
#
#
# Elastic Compliance Matrix: (Units=1/GPa)
#
#
# Indices 1 2 3 4 5 6 
#
# 1 0.010506 -0.005884 -0.005580 0.000000 0.000000 0.000000
# 2 -0.005884 0.028765 0.000327 0.000000 0.000000 0.000000
# 3 -0.005580 0.000327 0.022416 0.000000 0.000000 0.000000
# 4 0.000000 0.000000 0.000000 0.077515 0.000000 0.000000
# 5 0.000000 0.000000 0.000000 0.000000 0.028314 0.000000
# 6 0.000000 0.000000 0.000000 0.000000 0.000000 0.034093
#
#
# Mechanical properties :
#
#
# Convention : Reuss Voigt Hill
#
# Bulk Modulus (GPa) = 25.37187 38.01470 31.69328
# Shear Modulus (GPa) = 21.09537 25.90273 23.49905
#
# Velocity S-wave (km/s) = 3.27150 3.62515 3.45286
# Velocity P-wave (km/s) = 5.20986 6.06704 5.65472
#
# Compressibility (1/GPa) = 0.03941373
#
# Stress axis : x y z
#
# Youngs Moduli (GPa) = 95.18467 34.76449 44.61127
#
# Poissons Ratio (x) = 0.20455 0.24892
# Poissons Ratio (y) = 0.56006 -0.01459
# Poissons Ratio (z) = 0.53110 -0.01137
#
# Static dielectric constant tensor:
#      x y z
#    x 1.739500 0.000000 0.000000 
#    y 0.000000 1.652830 0.000000 
#    z 0.000000 0.000000 1.727550 
# 
# From -- ./inp_files/24266.got.cif
#   From: 2010.05.17/outbox.ucp.g08.bks.cvg/sg59_13_cif.got.tgz:24266.got - 2010.06.11 16:43:56.
