data_PCOD9453009
_publ_section_title
;
Structure prediction by ZEFSAII (Michael W. Deem and Ramdas Pophale) SiO2 
 PCOD9453009
Probable space group: P M M N
;
_chemical_formula_sum "Si O2"
_cell_formula_units_Z 48
_cell_length_a 7.624836
_cell_length_b 14.838517
_cell_length_c 18.400802
_cell_angle_alpha 90.000000
_cell_angle_beta 90.000000
_cell_angle_gamma 90.000000
_cell_volume 2081.889898
_symmetry_space_group_name_H-M "P M M N"
_symmetry_group_IT_number 59
_space_group.IT_coordinate_system_code '2'
_symmetry_cell_setting 'orthorhombic'
loop_
_space_group_symop_operation_xyz
x,y,z
1/2-x,1/2-y,z
1/2+x,-y,-z
-x,1/2+y,-z
-x,-y,-z
1/2+x,1/2+y,-z
1/2-x,y,z
x,1/2-y,z
loop_
_atom_site_type_symbol
_atom_site_label
_atom_site_fract_x
_atom_site_fract_y
_atom_site_fract_z
Si Si1 0.538604 0.353248 0.546231
Si Si2 0.545722 0.530518 0.314845
Si Si3 0.541798 0.105016 0.985260
Si Si4 0.035410 0.648084 0.619070
Si Si5 0.454773 0.953524 0.162111
Si Si6 0.952364 0.845994 0.858766
O O1 0.750000 0.356519 0.546494
O O2 0.485202 0.250000 0.560233
O O3 0.474408 0.416979 0.609832
O O4 0.482110 0.375221 0.463896
O O5 0.750000 0.522669 0.298989
O O6 0.471766 0.430131 0.328065
O O7 0.466294 0.578251 0.244638
O O8 0.750000 0.124134 0.990333
O O9 0.478696 0.112329 0.901585
O O10 0.456166 0.153974 0.053212
O O11 0.500000 0.000000 0.000000
O O12 0.250000 0.647502 0.619993
O O13 0.979575 0.750000 0.635567
O O14 0.250000 0.965256 0.143099
O O15 0.532160 0.055912 0.160699
O O16 0.750000 0.846558 0.834452
O O17 0.031704 0.750000 0.833585
#
# Coordination Sequence:
#
# PCOD9453009 Si02
#       6
#     8   8   8   8   8   8
#     4   9  18  35  57  74  94 132 175 212 256 312
#     4  11  21  31  50  79 107 135 168 213 261 299
#     4   9  17  31  51  71  92 123 162 201 239 283
#     4   8  16  32  52  75 103 134 169 208 253 307
#     4   9  19  34  49  68 100 138 168 195 237 301
#     4   9  18  33  53  76 101 129 162 204 252 298
#
# _framework density 23.055973999999999
#
# number of rings (size 3 to 8) (size 9 to 14) (size 15 to 20)
#    0.000    2.833    0.000    3.500    0.000    4.667 
#    0.000    1.667    0.000    4.500    0.000    0.000 
#    0.000    0.000    0.000    0.000    0.000    0.000 
#
# Total GULP energy -267656.000852 kJ/mol
# GULP energy per Si atom -5576.166684 kJ/mol
# Density = 2.300350 g / cm^3
# Si number density = 23.055974 Si / 1000 Ang^3
#
#
#
# Elastic Constant Matrix: (Units=GPa)
#
#
# Indices 1 2 3 4 5 6 
#
# 1 55.6529 -1.5838 -0.1834 0.0000 0.0000 0.0000
# 2 -1.5838 24.8969 7.8170 0.0000 0.0000 0.0000
# 3 -0.1834 7.8170 100.1699 0.0000 0.0000 0.0000
# 4 0.0000 0.0000 0.0000 5.8310 0.0000 0.0000
# 5 0.0000 0.0000 0.0000 0.0000 15.1735 0.0000
# 6 0.0000 0.0000 0.0000 0.0000 0.0000 9.7760
#
#
#
# Elastic Compliance Matrix: (Units=1/GPa)
#
#
# Indices 1 2 3 4 5 6 
#
# 1 0.018001 0.001163 -0.000058 0.000000 0.000000 0.000000
# 2 0.001163 0.041250 -0.003217 0.000000 0.000000 0.000000
# 3 -0.000058 -0.003217 0.010234 0.000000 0.000000 0.000000
# 4 0.000000 0.000000 0.000000 0.171497 0.000000 0.000000
# 5 0.000000 0.000000 0.000000 0.000000 0.065905 0.000000
# 6 0.000000 0.000000 0.000000 0.000000 0.000000 0.102292
#
#
# Mechanical properties :
#
#
# Convention : Reuss Voigt Hill
#
# Bulk Modulus (GPa) = 15.32279 21.42437 18.37358
# Shear Modulus (GPa) = 11.49015 17.80074 14.64545
#
# Velocity S-wave (km/s) = 2.23482 2.78162 2.52308
# Velocity P-wave (km/s) = 3.64960 4.43047 4.05886
#
# Compressibility (1/GPa) = 0.06526225
#
# Stress axis : x y z
#
# Youngs Moduli (GPa) = 55.55112 24.24259 97.71380
#
# Poissons Ratio (x) = -0.02820 0.00565
# Poissons Ratio (y) = -0.06462 0.31434
# Poissons Ratio (z) = 0.00321 0.07799
#
# Static dielectric constant tensor:
#      x y z
#    x 1.871020 0.000000 0.000000 
#    y 0.000000 1.911600 0.000000 
#    z 0.000000 0.000000 1.894220 
# 
# From -- ./inp_files/25484.got.cif
#   From: 2010.05.17/outbox.cif.g08.bks.cpg/sg59_13_cif.got.tgz:25484.got - 2010.06.03 14:40:33.
