data_PCOD9453016
_publ_section_title
;
Structure prediction by ZEFSAII (Michael W. Deem and Ramdas Pophale) SiO2 
 PCOD9453016
Probable space group: P M M N
;
_chemical_formula_sum "Si O2"
_cell_formula_units_Z 64
_cell_length_a 8.644266
_cell_length_b 20.553569
_cell_length_c 20.466588
_cell_angle_alpha 90.000000
_cell_angle_beta 90.000000
_cell_angle_gamma 90.000000
_cell_volume 3636.309285
_symmetry_space_group_name_H-M "P M M N"
_symmetry_group_IT_number 59
_space_group.IT_coordinate_system_code '2'
_symmetry_cell_setting 'orthorhombic'
loop_
_space_group_symop_operation_xyz
x,y,z
1/2-x,1/2-y,z
1/2+x,-y,-z
-x,1/2+y,-z
-x,-y,-z
1/2+x,1/2+y,-z
1/2-x,y,z
x,1/2-y,z
loop_
_atom_site_type_symbol
_atom_site_label
_atom_site_fract_x
_atom_site_fract_y
_atom_site_fract_z
Si Si1 0.438537 0.176664 0.109621
Si Si2 0.435872 0.887342 0.385069
Si Si3 0.935804 0.963343 0.653955
Si Si4 0.065056 0.929969 0.522193
Si Si5 0.060770 0.056819 0.197592
Si Si6 0.563488 0.676003 0.041117
Si Si7 0.434300 0.915733 0.152131
Si Si8 0.433700 0.176282 0.737699
O O1 0.250000 0.176378 0.110583
O O2 0.487691 0.250000 0.127504
O O3 0.491514 0.120159 0.158023
O O4 0.483323 0.164510 0.034179
O O5 0.250000 0.879837 0.378888
O O6 0.477762 0.883127 0.461750
O O7 0.520315 0.838685 0.336678
O O8 0.474786 0.960917 0.360817
O O9 0.750000 0.959132 0.651370
O O10 0.988202 0.944863 0.726626
O O11 0.002666 0.920166 0.595016
O O12 0.250000 0.933428 0.523788
O O13 0.000000 0.000000 0.500000
O O14 0.250000 0.056789 0.198015
O O15 0.011516 0.989896 0.162513
O O16 0.750000 0.674989 0.043710
O O17 0.514897 0.750000 0.059262
O O18 0.501248 0.622230 0.090191
O O19 0.250000 0.916898 0.146924
O O20 0.481489 0.874789 0.215927
O O21 0.250000 0.169400 0.746488
O O22 0.477376 0.250000 0.755285
#
# Coordination Sequence:
#
# PCOD9453016 Si02
#       8
#     8   8   8   8   8   8   8   8
#     4   8  15  30  53  76  97 127 164 201 248 302
#     4   9  17  31  48  68  95 128 165 203 245 293
#     4   9  16  29  47  70 100 130 159 198 246 288
#     4   9  17  28  45  70  97 125 161 200 239 287
#     4   9  17  30  48  72 103 132 162 205 248 291
#     4   9  18  33  51  72  99 129 166 210 247 287
#     4  11  21  33  49  71 100 133 166 203 248 298
#     4  11  23  35  48  69  98 132 170 212 253 295
#
# _framework density 17.600263000000002
#
# number of rings (size 3 to 8) (size 9 to 14) (size 15 to 20)
#    0.000    2.625    1.250    3.000    0.000    5.750 
#    0.000    0.000    0.000    2.250    0.000    1.750 
#    0.000    0.000    0.000    0.000    0.000    0.000 
#
# Total GULP energy -356713.937676 kJ/mol
# GULP energy per Si atom -5573.655276 kJ/mol
# Density = 1.756020 g / cm^3
# Si number density = 17.600263 Si / 1000 Ang^3
#
#
#
# Elastic Constant Matrix: (Units=GPa)
#
#
# Indices 1 2 3 4 5 6 
#
# 1 8.5926 16.7675 19.2848 0.0000 0.0000 0.0000
# 2 16.7675 97.1699 77.5598 0.0000 0.0000 0.0000
# 3 19.2848 77.5598 135.3561 0.0000 0.0000 0.0000
# 4 0.0000 0.0000 0.0000 17.7257 0.0000 0.0000
# 5 0.0000 0.0000 0.0000 0.0000 22.5192 0.0000
# 6 0.0000 0.0000 0.0000 0.0000 0.0000 14.9036
#
#
#
# Elastic Compliance Matrix: (Units=1/GPa)
#
#
# Indices 1 2 3 4 5 6 
#
# 1 0.191382 -0.020751 -0.015376 0.000000 0.000000 0.000000
# 2 -0.020751 0.021215 -0.009200 0.000000 0.000000 0.000000
# 3 -0.015376 -0.009200 0.014850 0.000000 0.000000 0.000000
# 4 0.000000 0.000000 0.000000 0.056415 0.000000 0.000000
# 5 0.000000 0.000000 0.000000 0.000000 0.044407 0.000000
# 6 0.000000 0.000000 0.000000 0.000000 0.000000 0.067098
#
#
# Mechanical properties :
#
#
# Convention : Reuss Voigt Hill
#
# Bulk Modulus (GPa) = 7.31035 52.03806 29.67420
# Shear Modulus (GPa) = 9.40520 19.53013 14.46767
#
# Velocity S-wave (km/s) = 2.31417 3.33475 2.87019
# Velocity P-wave (km/s) = 3.36200 6.66770 5.28022
#
# Compressibility (1/GPa) = 0.13679242
#
# Stress axis : x y z
#
# Youngs Moduli (GPa) = 5.22515 47.13562 67.33856
#
# Poissons Ratio (x) = 0.97812 1.03543
# Poissons Ratio (y) = 0.10843 0.61952
# Poissons Ratio (z) = 0.08034 0.43365
#
# Static dielectric constant tensor:
#      x y z
#    x 1.596280 0.000000 0.000000 
#    y 0.000000 1.593370 0.000000 
#    z 0.000000 0.000000 1.634330 
# 
# From -- ./inp_files/29769.got.cif
#   From: 2010.05.17/outbox.cif.g08.bks.cpg/sg59_15_cif.got.tgz:29769.got - 2010.06.03 14:40:33.
