data_PCOD9453852
_publ_section_title
;
Structure prediction by ZEFSAII (Michael W. Deem and Ramdas Pophale) SiO2 
 PCOD9453852
Probable space group: P B C N
;
_chemical_formula_sum "Si O2"
_cell_formula_units_Z 48
_cell_length_a 10.635370
_cell_length_b 7.781431
_cell_length_c 26.801117
_cell_angle_alpha 90.000000
_cell_angle_beta 90.000000
_cell_angle_gamma 90.000000
_cell_volume 2218.017503
_symmetry_space_group_name_H-M "P B C N"
_symmetry_group_IT_number 60
_symmetry_cell_setting 'orthorhombic'
loop_
_space_group_symop_operation_xyz
x,y,z
1/2-x,1/2-y,1/2+z
1/2+x,1/2-y,-z
-x,y,1/2-z
-x,-y,-z
1/2+x,1/2+y,1/2-z
1/2-x,1/2+y,z
x,-y,1/2+z
loop_
_atom_site_type_symbol
_atom_site_label
_atom_site_fract_x
_atom_site_fract_y
_atom_site_fract_z
Si Si1 0.608659 0.655654 0.289582
Si Si2 0.350456 0.361011 0.461733
Si Si3 0.206311 0.041199 0.851406
Si Si4 0.449760 0.189808 0.868149
Si Si5 0.076461 0.255875 0.480508
Si Si6 0.369250 0.709419 0.746706
O O1 0.500000 0.705093 0.250000
O O2 0.574988 0.766282 0.338060
O O3 0.747605 0.691852 0.270660
O O4 0.603484 0.448670 0.291489
O O5 0.327733 0.356063 0.402265
O O6 0.215571 0.333456 0.488484
O O7 0.461956 0.235997 0.480362
O O8 0.393338 0.554406 0.472874
O O9 0.358501 0.036212 0.850887
O O10 0.163814 0.127745 0.800262
O O11 0.136225 0.859498 0.856581
O O12 0.470751 0.176404 0.926962
O O13 0.500000 0.810947 0.750000
#
# Coordination Sequence:
#
# PCOD9453852 Si02
#       6
#     8   8   8   8   8   8
#     4  11  21  37  55  77 109 140 177 221 256 312
#     4   9  19  34  56  79 106 137 176 219 264 315
#     4  10  17  34  58  76 104 141 178 211 265 317
#     4  10  19  36  57  78 106 141 181 217 264 314
#     4   9  19  36  56  80 105 140 176 221 265 316
#     4  11  21  36  54  79 108 143 175 220 262 310
#
# _framework density 21.640946
#
# number of rings (size 3 to 8) (size 9 to 14) (size 15 to 20)
#    0.000    2.000    5.000    0.000    0.000    1.333 
#    6.000    0.000    0.000    0.000    0.000    0.000 
#    0.000    0.000    0.000    0.000    0.000    0.000 
#
# Total GULP energy -267845.620129 kJ/mol
# GULP energy per Si atom -5580.117086 kJ/mol
# Density = 2.159169 g / cm^3
# Si number density = 21.640946 Si / 1000 Ang^3
#
#
#
# Elastic Constant Matrix: (Units=GPa)
#
#
# Indices 1 2 3 4 5 6 
#
# 1 147.1153 14.8920 26.3925 0.0000 0.0000 0.0000
# 2 14.8920 20.0585 2.7038 0.0000 0.0000 0.0000
# 3 26.3925 2.7038 38.2712 0.0000 0.0000 0.0000
# 4 0.0000 0.0000 0.0000 14.5961 0.0000 0.0000
# 5 0.0000 0.0000 0.0000 0.0000 37.3638 0.0000
# 6 0.0000 0.0000 0.0000 0.0000 0.0000 28.5031
#
#
#
# Elastic Compliance Matrix: (Units=1/GPa)
#
#
# Indices 1 2 3 4 5 6 
#
# 1 0.008308 -0.005447 -0.005344 0.000000 0.000000 0.000000
# 2 -0.005447 0.053905 -0.000052 0.000000 0.000000 0.000000
# 3 -0.005344 -0.000052 0.029818 0.000000 0.000000 0.000000
# 4 0.000000 0.000000 0.000000 0.068511 0.000000 0.000000
# 5 0.000000 0.000000 0.000000 0.000000 0.026764 0.000000
# 6 0.000000 0.000000 0.000000 0.000000 0.000000 0.035084
#
#
# Mechanical properties :
#
#
# Convention : Reuss Voigt Hill
#
# Bulk Modulus (GPa) = 14.21569 32.60238 23.40903
# Shear Modulus (GPa) = 18.68981 26.85639 22.77310
#
# Velocity S-wave (km/s) = 2.94195 3.52660 3.24746
# Velocity P-wave (km/s) = 4.25714 5.62854 4.99017
#
# Compressibility (1/GPa) = 0.07034483
#
# Stress axis : x y z
#
# Youngs Moduli (GPa) = 120.37233 18.55101 33.53631
#
# Poissons Ratio (x) = 0.10105 0.17922
# Poissons Ratio (y) = 0.65571 0.00173
# Poissons Ratio (z) = 0.64329 0.00096
#
# Static dielectric constant tensor:
#      x y z
#    x 1.832140 0.000000 0.000000 
#    y 0.000000 1.849900 0.000000 
#    z 0.000000 0.000000 1.806400 
# 
# From -- ./inp_files/25948.got.cif
#   From: 2010.05.17/outbox.cif.g08.bks.cpg/sg60_13_cif.got.tgz:25948.got - 2010.06.03 14:59:27.
