data_PCOD9453479
_publ_section_title
;
Structure prediction by ZEFSAII (Michael W. Deem and Ramdas Pophale) SiO2 
 PCOD9453479
Probable space group: P M M N
;
_chemical_formula_sum "Si O2"
_cell_formula_units_Z 64
_cell_length_a 18.000000
_cell_length_b 9.000000
_cell_length_c 21.000000
_cell_angle_alpha 90.000000
_cell_angle_beta 90.000000
_cell_angle_gamma 90.000000
_cell_volume 3402.000000
_symmetry_space_group_name_H-M "P M M N"
_symmetry_group_IT_number 59
_space_group.IT_coordinate_system_code '2'
_symmetry_cell_setting 'orthorhombic'
loop_
_space_group_symop_operation_xyz
x,y,z
1/2-x,1/2-y,z
1/2+x,-y,-z
-x,1/2+y,-z
-x,-y,-z
1/2+x,1/2+y,-z
1/2-x,y,z
x,1/2-y,z
loop_
_atom_site_type_symbol
_atom_site_label
_atom_site_fract_x
_atom_site_fract_y
_atom_site_fract_z
Si Si1 0.660899 0.919975 0.609855
Si Si2 0.560385 0.928585 0.240702
Si Si3 0.399146 0.069268 0.255858
Si Si4 0.334893 0.071957 0.643619
Si Si5 0.840731 0.080861 0.484392
Si Si6 0.619013 0.928832 0.881257
Si Si7 0.331657 0.070557 0.984327
Si Si8 0.444185 0.927503 0.889823
O O1 0.750000 0.917497 0.606586
O O2 0.634730 0.750000 0.603539
O O3 0.639171 0.977469 0.679112
O O4 0.632364 0.014011 0.550738
O O5 0.554484 0.750000 0.237536
O O6 0.615748 0.971600 0.296863
O O7 0.481113 0.002459 0.254180
O O8 0.586024 0.993800 0.173495
O O9 0.402500 0.250000 0.255179
O O10 0.360897 0.020404 0.189743
O O11 0.250000 0.020046 0.651818
O O12 0.333920 0.250000 0.640215
O O13 0.364484 0.010570 0.577076
O O14 0.750000 0.074899 0.485741
O O15 0.863341 0.250000 0.477608
O O16 0.625486 0.750000 0.880167
O O17 0.532006 0.963654 0.893155
O O18 0.664427 0.978414 0.942084
O O19 0.250000 0.035665 0.957851
O O20 0.341289 0.250000 0.981444
O O21 0.397763 0.991558 0.947789
O O22 0.437910 0.750000 0.885521
#
# Coordination Sequence:
#
# PCOD9453479 Si02
#       8
#     8   8   8   8   8   8   8   8
#     4   9  17  30  50  74 100 133 170 206 246 294
#     4  10  20  34  53  76 101 130 165 205 251 301
#     4   9  18  33  52  75 103 133 167 207 249 294
#     4   9  18  33  52  72  95 125 162 204 248 296
#     4   9  17  29  47  72 100 129 163 204 248 295
#     4   8  16  32  52  73  97 129 167 203 242 290
#     4  10  20  33  51  76 104 131 162 205 252 295
#     4  10  20  35  54  73  98 133 170 206 244 294
#
# _framework density 18.812463000000001
#
# number of rings (size 3 to 8) (size 9 to 14) (size 15 to 20)
#    0.000    2.750    0.000    2.250    0.000    4.250 
#    0.000    6.875    0.000    0.000    0.000    1.750 
#    0.000    0.000    0.000    0.000    0.000    0.000 
#
# Total GULP energy -356548.905174 kJ/mol
# GULP energy per Si atom -5571.076643 kJ/mol
# Density = 1.876965 g / cm^3
# Si number density = 18.812463 Si / 1000 Ang^3
#
#
#
# Elastic Constant Matrix: (Units=GPa)
#
#
# Indices 1 2 3 4 5 6 
#
# 1 2.3533 6.5603 19.9747 0.0000 0.0000 0.0000
# 2 6.5603 -0.8891 15.7214 0.0000 0.0000 0.0000
# 3 19.9747 15.7214 108.3236 0.0000 0.0000 0.0000
# 4 0.0000 0.0000 0.0000 17.0469 0.0000 0.0000
# 5 0.0000 0.0000 0.0000 0.0000 30.2658 0.0000
# 6 0.0000 0.0000 0.0000 0.0000 0.0000 4.5602
#
#
#
# Elastic Compliance Matrix: (Units=1/GPa)
#
#
# Indices 1 2 3 4 5 6 
#
# 1 0.345088 0.398479 -0.121466 0.000000 0.000000 0.000000
# 2 0.398479 0.144748 -0.094487 0.000000 0.000000 0.000000
# 3 -0.121466 -0.094487 0.045343 0.000000 0.000000 0.000000
# 4 0.000000 0.000000 0.000000 0.058662 0.000000 0.000000
# 5 0.000000 0.000000 0.000000 0.000000 0.033041 0.000000
# 6 0.000000 0.000000 0.000000 0.000000 0.000000 0.219287
#
#
# Mechanical properties :
#
#
# Convention : Reuss Voigt Hill
#
# Bulk Modulus (GPa) = 1.11082 21.58895 11.34989
# Shear Modulus (GPa) = 6.40046 14.87668 10.63857
#
# Velocity S-wave (km/s) = 1.84652 2.81515 2.38062
# Velocity P-wave (km/s) = 2.26670 4.69761 3.68819
#
# Compressibility (1/GPa) = 0.90023219
#
# Stress axis : x y z
#
# Youngs Moduli (GPa) = 2.89781 6.90854 22.05417
#
# Poissons Ratio (x) = -2.75291 2.67884
# Poissons Ratio (y) = -1.15472 2.08382
# Poissons Ratio (z) = 0.35199 0.65276
#
# Static dielectric constant tensor:
#      x y z
#    x 1.646800 0.000000 0.000000 
#    y 0.000000 1.629470 0.000000 
#    z 0.000000 0.000000 1.682110 
# 
# From -- ./inp_files/30654.got.cif
#   From: 2010.05.17/outbox.ucp.g08.bks.cvg/sg59_16_cif.got.tgz:30654.got - 2010.06.11 16:43:56.
