data_PCOD9453244
_publ_section_title
;
Structure prediction by ZEFSAII (Michael W. Deem and Ramdas Pophale) SiO2 
 PCOD9453244
Probable space group: P M M N
;
_chemical_formula_sum "Si O2"
_cell_formula_units_Z 56
_cell_length_a 7.454947
_cell_length_b 19.226590
_cell_length_c 18.899757
_cell_angle_alpha 90.000000
_cell_angle_beta 90.000000
_cell_angle_gamma 90.000000
_cell_volume 2708.962828
_symmetry_space_group_name_H-M "P M M N"
_symmetry_group_IT_number 59
_space_group.IT_coordinate_system_code '2'
_symmetry_cell_setting 'orthorhombic'
loop_
_space_group_symop_operation_xyz
x,y,z
1/2-x,1/2-y,z
1/2+x,-y,-z
-x,1/2+y,-z
-x,-y,-z
1/2+x,1/2+y,-z
1/2-x,y,z
x,1/2-y,z
loop_
_atom_site_type_symbol
_atom_site_label
_atom_site_fract_x
_atom_site_fract_y
_atom_site_fract_z
Si Si1 0.031256 0.668872 0.347033
Si Si2 0.965256 0.169565 0.498375
Si Si3 0.530003 0.579658 0.788172
Si Si4 0.030293 0.580155 0.212135
Si Si5 0.464533 0.829196 0.080019
Si Si6 0.462195 0.329323 0.343439
Si Si7 0.535638 0.829197 0.920032
O O1 0.250000 0.668739 0.346275
O O2 0.978247 0.750000 0.339218
O O3 0.974433 0.642329 0.425061
O O4 0.971995 0.622156 0.281771
O O5 0.750000 0.170025 0.500056
O O6 0.027695 0.250000 0.496233
O O7 0.015585 0.139573 0.422233
O O8 0.750000 0.579161 0.787963
O O9 0.472963 0.499736 0.787038
O O10 0.468802 0.622248 0.719179
O O11 0.470455 0.620077 0.858664
O O12 0.250000 0.580458 0.212194
O O13 0.969969 0.620529 0.141725
O O14 0.250000 0.825483 0.087873
O O15 0.534250 0.750000 0.086980
O O16 0.500331 0.853268 0.000047
O O17 0.250000 0.323232 0.331626
O O18 0.536114 0.250000 0.341734
O O19 0.750000 0.825330 0.911923
O O20 0.465598 0.750000 0.912933
#
# Coordination Sequence:
#
# PCOD9453244 Si02
#       7
#     8   8   8   8   8   8   8
#     4   8  13  23  41  63  85 110 140 172 207 249
#     4   8  14  25  42  64  86 107 136 174 212 250
#     4   9  17  28  42  61  84 112 146 176 203 244
#     4   9  16  26  42  64  88 112 139 173 210 246
#     4   9  17  29  46  68  89 107 134 174 214 249
#     4   9  16  27  44  63  83 109 142 178 211 243
#     4   9  17  30  47  64  84 112 143 173 207 248
#
# _framework density 20.672118999999999
#
# number of rings (size 3 to 8) (size 9 to 14) (size 15 to 20)
#    0.000    3.286    0.000    1.714    0.000    4.000 
#    0.000    1.429    0.000    5.143    0.000    4.000 
#    0.000    0.000    0.000    0.000    0.000    0.000 
#
# Total GULP energy -312239.396393 kJ/mol
# GULP energy per Si atom -5575.703507 kJ/mol
# Density = 2.062507 g / cm^3
# Si number density = 20.672119 Si / 1000 Ang^3
#
#
#
# Elastic Constant Matrix: (Units=GPa)
#
#
# Indices 1 2 3 4 5 6 
#
# 1 59.6241 5.6822 1.7627 0.0000 0.0000 0.0000
# 2 5.6822 115.9698 132.2665 0.0000 0.0000 0.0000
# 3 1.7627 132.2665 255.2443 0.0000 0.0000 0.0000
# 4 0.0000 0.0000 0.0000 -139.3670 0.0000 0.0000
# 5 0.0000 0.0000 0.0000 0.0000 22.1337 0.0000
# 6 0.0000 0.0000 0.0000 0.0000 0.0000 -0.5939
#
#
#
# Elastic Compliance Matrix: (Units=1/GPa)
#
#
# Indices 1 2 3 4 5 6 
#
# 1 0.016911 -0.001700 0.000764 0.000000 0.000000 0.000000
# 2 -0.001700 0.021255 -0.011002 0.000000 0.000000 0.000000
# 3 0.000764 -0.011002 0.009614 0.000000 0.000000 0.000000
# 4 0.000000 0.000000 0.000000 -0.007175 0.000000 0.000000
# 5 0.000000 0.000000 0.000000 0.000000 0.045180 0.000000
# 6 0.000000 0.000000 0.000000 0.000000 0.000000 -1.683812
#
#
# Mechanical properties :
#
#
# Convention : Reuss Voigt Hill
#
# Bulk Modulus (GPa) = 41.83559 78.91789 60.37674
# Shear Modulus (GPa) = -3.19248 -4.15699 -3.67473
#
# Velocity S-wave (km/s) = -1.24406 -1.41961 -1.33472
# Velocity P-wave (km/s) = 4.26826 5.96421 5.18603
#
# Compressibility (1/GPa) = 0.02390309
#
# Stress axis : x y z
#
# Youngs Moduli (GPa) = 59.13242 47.04840 104.01592
#
# Poissons Ratio (x) = 0.08000 -0.07950
# Poissons Ratio (y) = 0.10054 1.14442
# Poissons Ratio (z) = -0.04520 0.51764
#
# Static dielectric constant tensor:
#      x y z
#    x 1.796350 0.000000 0.000000 
#    y 0.000000 1.695290 0.000000 
#    z 0.000000 0.000000 1.740670 
# 
# From -- ./inp_files/16005.got.cif
#   From: 2010.05.17/outbox.cif.g08.bks.cpg/sg59_9_cif.got.tgz:16005.got - 2010.06.03 14:40:33.
