data_PCOD9453623
_publ_section_title
;
Structure prediction by ZEFSAII (Michael W. Deem and Ramdas Pophale) SiO2 
 PCOD9453623
Probable space group: P M M N
;
_chemical_formula_sum "Si O2"
_cell_formula_units_Z 48
_cell_length_a 9.000000
_cell_length_b 9.000000
_cell_length_c 30.000000
_cell_angle_alpha 90.000000
_cell_angle_beta 90.000000
_cell_angle_gamma 90.000000
_cell_volume 2430.000000
_symmetry_space_group_name_H-M "P M M N"
_symmetry_group_IT_number 59
_space_group.IT_coordinate_system_code '2'
_symmetry_cell_setting 'orthorhombic'
loop_
_space_group_symop_operation_xyz
x,y,z
1/2-x,1/2-y,z
1/2+x,-y,-z
-x,1/2+y,-z
-x,-y,-z
1/2+x,1/2+y,-z
1/2-x,y,z
x,1/2-y,z
loop_
_atom_site_type_symbol
_atom_site_label
_atom_site_fract_x
_atom_site_fract_y
_atom_site_fract_z
Si Si1 0.957493 0.923055 0.110227
Si Si2 0.577020 0.573062 0.807032
Si Si3 0.571749 0.922423 0.542069
Si Si4 0.250000 0.572747 0.959286
Si Si5 0.922504 0.427382 0.633457
Si Si6 0.923691 0.572500 0.274726
Si Si7 0.750000 0.079309 0.942530
O O1 0.915066 0.750000 0.112976
O O2 0.118553 0.939520 0.090728
O O3 0.879067 0.009571 0.070763
O O4 0.963236 0.997946 0.158105
O O5 0.750000 0.529077 0.814171
O O6 0.568374 0.750000 0.811514
O O7 0.524901 0.517898 0.759134
O O8 0.750000 0.937767 0.539402
O O9 0.533541 0.750000 0.542163
O O10 0.500000 0.000000 0.500000
O O11 0.525134 0.996138 0.588408
O O12 0.250000 0.750000 0.957599
O O13 0.250000 0.504197 0.009095
O O14 0.750000 0.470131 0.642269
O O15 0.924943 0.250000 0.627139
O O16 0.024123 0.463013 0.675453
O O17 0.750000 0.540242 0.268213
O O18 0.946085 0.750000 0.267651
O O19 0.750000 0.250000 0.956483
#
# Coordination Sequence:
#
# PCOD9453623 Si02
#       7
#     8   8   8   4   8   8   4
#     4  11  22  40  63  88 116 154 197 237 285 346
#     4  11  24  41  61  86 115 151 194 242 295 347
#     4  10  21  36  56  84 118 157 200 246 295 347
#     4  11  23  39  59  89 125 155 187 237 292 341
#     4   9  18  35  58  83 115 156 200 243 290 346
#     4  10  22  39  61  89 119 152 191 237 291 352
#     4   9  20  39  63  89 117 151 197 241 282 339
#
# _framework density 19.753086
#
# number of rings (size 3 to 8) (size 9 to 14) (size 15 to 20)
#    0.000    1.833    0.833    2.750    1.167    4.333 
#    0.000    5.833    0.000    0.000    0.000    0.000 
#    0.000    0.000    0.000    0.000    0.000    0.000 
#
# Total GULP energy -267312.096971 kJ/mol
# GULP energy per Si atom -5569.002020 kJ/mol
# Density = 1.970813 g / cm^3
# Si number density = 19.753086 Si / 1000 Ang^3
#
#
#
# Elastic Constant Matrix: (Units=GPa)
#
#
# Indices 1 2 3 4 5 6 
#
# 1 47.3725 21.1840 14.1091 0.0000 0.0000 0.0000
# 2 21.1840 22.0329 49.8867 0.0000 0.0000 0.0000
# 3 14.1091 49.8867 122.9967 0.0000 0.0000 0.0000
# 4 0.0000 0.0000 0.0000 50.8169 0.0000 0.0000
# 5 0.0000 0.0000 0.0000 0.0000 44.3703 0.0000
# 6 0.0000 0.0000 0.0000 0.0000 0.0000 23.3816
#
#
#
# Elastic Compliance Matrix: (Units=1/GPa)
#
#
# Indices 1 2 3 4 5 6 
#
# 1 -0.011479 0.098647 -0.038694 0.000000 0.000000 0.000000
# 2 0.098647 -0.291919 0.107085 0.000000 0.000000 0.000000
# 3 -0.038694 0.107085 -0.030864 0.000000 0.000000 0.000000
# 4 0.000000 0.000000 0.000000 0.019678 0.000000 0.000000
# 5 0.000000 0.000000 0.000000 0.000000 0.022538 0.000000
# 6 0.000000 0.000000 0.000000 0.000000 0.000000 0.042769
#
#
# Mechanical properties :
#
#
# Convention : Reuss Voigt Hill
#
# Bulk Modulus (GPa) = -5353.58232 40.30685 -2656.63774
# Shear Modulus (GPa) = -8.57024 30.86191 11.14583
#
# Velocity S-wave (km/s) = -2.08521 3.95699 2.37799
# Velocity P-wave (km/s) = 52.17214 6.42858 36.61015
#
# Compressibility (1/GPa) = -0.00018679
#
# Stress axis : x y z
#
# Youngs Moduli (GPa) = -87.11473 -3.42561 -32.40026
#
# Poissons Ratio (x) = 0.33792 -1.25368
# Poissons Ratio (y) = 8.59357 3.46957
# Poissons Ratio (z) = -3.37079 0.36683
#
# Static dielectric constant tensor:
#      x y z
#    x 1.706120 0.000000 0.000000 
#    y 0.000000 1.666590 0.000000 
#    z 0.000000 0.000000 1.743530 
# 
# From -- ./inp_files/33085.got.cif
#   From: 2010.05.17/outbox.ucp.g08.bks.cvg/sg59_17_cif.got.tgz:33085.got - 2010.06.11 16:43:56.
