data_PCOD9453213
_publ_section_title
;
Structure prediction by ZEFSAII (Michael W. Deem and Ramdas Pophale) SiO2 
 PCOD9453213
Probable space group: P M M N
;
_chemical_formula_sum "Si O2"
_cell_formula_units_Z 64
_cell_length_a 14.431885
_cell_length_b 7.312300
_cell_length_c 24.095084
_cell_angle_alpha 90.000000
_cell_angle_beta 90.000000
_cell_angle_gamma 90.000000
_cell_volume 2542.760785
_symmetry_space_group_name_H-M "P M M N"
_symmetry_group_IT_number 59
_space_group.IT_coordinate_system_code '2'
_symmetry_cell_setting 'orthorhombic'
loop_
_space_group_symop_operation_xyz
x,y,z
1/2-x,1/2-y,z
1/2+x,-y,-z
-x,1/2+y,-z
-x,-y,-z
1/2+x,1/2+y,-z
1/2-x,y,z
x,1/2-y,z
loop_
_atom_site_type_symbol
_atom_site_label
_atom_site_fract_x
_atom_site_fract_y
_atom_site_fract_z
Si Si1 0.442443 0.473453 0.368520
Si Si2 0.392686 0.465347 0.485916
Si Si3 0.106164 0.028890 0.891068
Si Si4 0.441113 0.026310 0.246554
Si Si5 0.651333 0.459065 0.392648
Si Si6 0.608534 0.541915 0.871403
Si Si7 0.889821 0.531951 0.990385
Si Si8 0.151715 0.537999 0.768743
O O1 0.444923 0.250000 0.371229
O O2 0.384100 0.532293 0.422581
O O3 0.406024 0.523666 0.307713
O O4 0.550492 0.535025 0.375396
O O5 0.500000 0.500000 0.500000
O O6 0.371774 0.250000 0.486307
O O7 0.346536 0.544776 0.540374
O O8 0.101533 0.250000 0.892309
O O9 0.155190 0.972092 0.835263
O O10 0.146856 0.968034 0.950066
O O11 0.002044 0.955895 0.882495
O O12 0.441987 0.250000 0.242912
O O13 0.386928 0.963253 0.191061
O O14 0.549301 0.964439 0.245091
O O15 0.750000 0.541979 0.375167
O O16 0.650472 0.250000 0.372922
O O17 0.643313 0.750000 0.868292
O O18 0.641581 0.458924 0.930287
O O19 0.874274 0.750000 0.987152
O O20 0.000000 0.500000 0.000000
O O21 0.250000 0.459641 0.748504
O O22 0.149595 0.750000 0.752089
#
# Coordination Sequence:
#
# PCOD9453213 Si02
#       8
#     8   8   8   8   8   8   8   8
#     4   8  14  24  39  60  82 104 132 164 197 234
#     4   9  16  27  43  61  82 107 134 165 202 242
#     4   9  15  22  33  48  66  89 116 146 181 217
#     4   8  13  22  37  55  73  95 125 157 186 219
#     4   9  17  28  42  61  84 108 135 168 202 236
#     4   8  13  22  35  50  69  91 114 142 175 212
#     4   8  13  20  31  48  67  86 109 137 171 210
#     4   9  17  27  37  49  67  94 127 159 188 220
#
# _framework density 25.169492999999999
#
# number of rings (size 3 to 8) (size 9 to 14) (size 15 to 20)
#    0.000    3.500    0.000    2.250    0.000    1.500 
#    0.000    2.500    0.000   15.000    0.000    7.000 
#    0.000    1.000    0.000   12.500    0.000    3.625 
#
# Total GULP energy -356502.072903 kJ/mol
# GULP energy per Si atom -5570.344889 kJ/mol
# Density = 2.511221 g / cm^3
# Si number density = 25.169493 Si / 1000 Ang^3
#
#
#
# Elastic Constant Matrix: (Units=GPa)
#
#
# Indices 1 2 3 4 5 6 
#
# 1 54.5147 -1.8638 10.3871 0.0000 0.0000 0.0000
# 2 -1.8638 113.9989 9.7503 0.0000 0.0000 0.0000
# 3 10.3871 9.7503 293.9573 0.0000 0.0000 0.0000
# 4 0.0000 0.0000 0.0000 -2.8222 0.0000 0.0000
# 5 0.0000 0.0000 0.0000 0.0000 28.6914 0.0000
# 6 0.0000 0.0000 0.0000 0.0000 0.0000 -14.0760
#
#
#
# Elastic Compliance Matrix: (Units=1/GPa)
#
#
# Indices 1 2 3 4 5 6 
#
# 1 0.018483 0.000359 -0.000665 0.000000 0.000000 0.000000
# 2 0.000359 0.008804 -0.000305 0.000000 0.000000 0.000000
# 3 -0.000665 -0.000305 0.003435 0.000000 0.000000 0.000000
# 4 0.000000 0.000000 0.000000 -0.354328 0.000000 0.000000
# 5 0.000000 0.000000 0.000000 0.000000 0.034854 0.000000
# 6 0.000000 0.000000 0.000000 0.000000 0.000000 -0.071043
#
#
# Mechanical properties :
#
#
# Convention : Reuss Voigt Hill
#
# Bulk Modulus (GPa) = 33.89741 55.44644 44.67192
# Shear Modulus (GPa) = -14.33732 31.97179 8.81723
#
# Velocity S-wave (km/s) = -2.38928 3.56794 1.87370
# Velocity P-wave (km/s) = 2.42597 6.24905 4.74004
#
# Compressibility (1/GPa) = 0.02950078
#
# Stress axis : x y z
#
# Youngs Moduli (GPa) = 54.10475 113.58543 291.08185
#
# Poissons Ratio (x) = -0.04078 0.19357
# Poissons Ratio (y) = -0.01943 0.08869
# Poissons Ratio (z) = 0.03598 0.03461
#
# Static dielectric constant tensor:
#      x y z
#    x 1.975810 0.000000 0.000000 
#    y 0.000000 1.969710 0.000000 
#    z 0.000000 0.000000 2.043930 
# 
# From -- ./inp_files/32343.got.cif
#   From: 2010.05.17/outbox.cif.g08.bks.cpg/sg59_17_cif.got.tgz:32343.got - 2010.06.03 14:40:33.
