data_PCOD9453004
_publ_section_title
;
Structure prediction by ZEFSAII (Michael W. Deem and Ramdas Pophale) SiO2 
 PCOD9453004
Probable space group: P M M N
;
_chemical_formula_sum "Si O2"
_cell_formula_units_Z 56
_cell_length_a 9.504990
_cell_length_b 15.121726
_cell_length_c 18.948527
_cell_angle_alpha 90.000000
_cell_angle_beta 90.000000
_cell_angle_gamma 90.000000
_cell_volume 2723.506924
_symmetry_space_group_name_H-M "P M M N"
_symmetry_group_IT_number 59
_space_group.IT_coordinate_system_code '2'
_symmetry_cell_setting 'orthorhombic'
loop_
_space_group_symop_operation_xyz
x,y,z
1/2-x,1/2-y,z
1/2+x,-y,-z
-x,1/2+y,-z
-x,-y,-z
1/2+x,1/2+y,-z
1/2-x,y,z
x,1/2-y,z
loop_
_atom_site_type_symbol
_atom_site_label
_atom_site_fract_x
_atom_site_fract_y
_atom_site_fract_z
Si Si1 0.907162 0.856115 0.628318
Si Si2 0.088620 0.893386 0.069962
Si Si3 0.586245 0.142282 0.502734
Si Si4 0.090129 0.855287 0.342092
Si Si5 0.582590 0.594180 0.205725
Si Si6 0.908339 0.889975 0.938229
Si Si7 0.917126 0.915614 0.786439
O O1 0.750000 0.890396 0.616102
O O2 0.904768 0.750000 0.622492
O O3 0.943149 0.875736 0.709485
O O4 0.004915 0.890846 0.565835
O O5 0.250000 0.865821 0.078572
O O6 0.994299 0.866045 0.136806
O O7 0.088353 0.001733 0.066315
O O8 0.019592 0.862633 0.996881
O O9 0.750000 0.120367 0.497088
O O10 0.575430 0.250000 0.501796
O O11 0.539426 0.112414 0.580927
O O12 0.250000 0.889473 0.328027
O O13 0.102735 0.750000 0.348265
O O14 0.985166 0.872187 0.278337
O O15 0.750000 0.604144 0.202696
O O16 0.530183 0.493018 0.205469
O O17 0.750000 0.865650 0.960239
O O18 0.932409 0.858931 0.857918
O O19 0.750000 0.944226 0.787981
#
# Coordination Sequence:
#
# PCOD9453004 Si02
#       7
#     8   8   8   8   8   8   8
#     4   9  17  30  50  74  97 123 157 196 236 278
#     4   9  16  27  44  65  91 123 156 191 235 282
#     4   8  15  29  49  71  93 120 155 192 230 277
#     4   9  18  34  54  72  93 124 158 191 234 287
#     4  11  21  31  47  72  99 124 156 198 238 277
#     4   8  14  25  42  64  89 120 158 196 231 270
#     4   9  18  32  48  68  98 131 159 191 237 288
#
# _framework density 20.561724000000002
#
# number of rings (size 3 to 8) (size 9 to 14) (size 15 to 20)
#    0.000    3.000    0.000    3.429    0.000    4.857 
#    0.000    2.143    0.000    0.857    0.000    2.000 
#    0.000    0.000    0.000    0.000    0.000    0.000 
#
# Total GULP energy -312080.666753 kJ/mol
# GULP energy per Si atom -5572.869049 kJ/mol
# Density = 2.051492 g / cm^3
# Si number density = 20.561724 Si / 1000 Ang^3
#
#
#
# Elastic Constant Matrix: (Units=GPa)
#
#
# Indices 1 2 3 4 5 6 
#
# 1 138.7025 13.4105 126.0595 0.0000 0.0000 0.0000
# 2 13.4105 29.0467 9.3694 0.0000 0.0000 0.0000
# 3 126.0595 9.3694 228.5073 0.0000 0.0000 0.0000
# 4 0.0000 0.0000 0.0000 20.8424 0.0000 0.0000
# 5 0.0000 0.0000 0.0000 0.0000 41.9368 0.0000
# 6 0.0000 0.0000 0.0000 0.0000 0.0000 8.3789
#
#
#
# Elastic Compliance Matrix: (Units=1/GPa)
#
#
# Indices 1 2 3 4 5 6 
#
# 1 0.014972 -0.004305 -0.008083 0.000000 0.000000 0.000000
# 2 -0.004305 0.036127 0.000894 0.000000 0.000000 0.000000
# 3 -0.008083 0.000894 0.008799 0.000000 0.000000 0.000000
# 4 0.000000 0.000000 0.000000 0.047979 0.000000 0.000000
# 5 0.000000 0.000000 0.000000 0.000000 0.023845 0.000000
# 6 0.000000 0.000000 0.000000 0.000000 0.000000 0.119348
#
#
# Mechanical properties :
#
#
# Convention : Reuss Voigt Hill
#
# Bulk Modulus (GPa) = 27.09398 77.10390 52.09894
# Shear Modulus (GPa) = 17.46040 30.72609 24.09324
#
# Velocity S-wave (km/s) = 2.91721 3.86986 3.42680
# Velocity P-wave (km/s) = 4.95503 7.58603 6.40704
#
# Compressibility (1/GPa) = 0.03690856
#
# Stress axis : x y z
#
# Youngs Moduli (GPa) = 66.79009 27.68035 113.65214
#
# Poissons Ratio (x) = 0.11917 0.91867
# Poissons Ratio (y) = 0.28754 -0.10157
# Poissons Ratio (z) = 0.53987 -0.02474
#
# Static dielectric constant tensor:
#      x y z
#    x 1.693850 0.000000 0.000000 
#    y 0.000000 1.813300 0.000000 
#    z 0.000000 0.000000 1.770250 
# 
# From -- ./inp_files/26126.got.cif
#   From: 2010.05.17/outbox.cif.g08.bks.cpg/sg59_14_cif.got.tgz:26126.got - 2010.06.03 14:40:33.
