data_PCOD9453364
_publ_section_title
;
Structure prediction by ZEFSAII (Michael W. Deem and Ramdas Pophale) SiO2 
 PCOD9453364
Probable space group: P M M N
;
_chemical_formula_sum "Si O2"
_cell_formula_units_Z 56
_cell_length_a 15.000000
_cell_length_b 15.000000
_cell_length_c 12.000000
_cell_angle_alpha 90.000000
_cell_angle_beta 90.000000
_cell_angle_gamma 90.000000
_cell_volume 2700.000000
_symmetry_space_group_name_H-M "P M M N"
_symmetry_group_IT_number 59
_space_group.IT_coordinate_system_code '2'
_symmetry_cell_setting 'orthorhombic'
loop_
_space_group_symop_operation_xyz
x,y,z
1/2-x,1/2-y,z
1/2+x,-y,-z
-x,1/2+y,-z
-x,-y,-z
1/2+x,1/2+y,-z
1/2-x,y,z
x,1/2-y,z
loop_
_atom_site_type_symbol
_atom_site_label
_atom_site_fract_x
_atom_site_fract_y
_atom_site_fract_z
Si Si1 0.348444 0.049494 0.329904
Si Si2 0.149712 0.647841 0.000028
Si Si3 0.091673 0.040182 0.098070
Si Si4 0.353903 0.847031 0.382783
Si Si5 0.101972 0.540376 0.792987
Si Si6 0.474784 0.852844 0.598970
Si Si7 0.643922 0.647075 0.120273
O O1 0.250000 0.065076 0.378478
O O2 0.348964 0.075085 0.199868
O O3 0.428187 0.100220 0.393227
O O4 0.365221 0.942467 0.324672
O O5 0.250000 0.654654 0.044519
O O6 0.112045 0.750000 0.002229
O O7 0.154533 0.607327 0.874720
O O8 0.108563 0.563094 0.065127
O O9 0.994370 0.043550 0.149337
O O10 0.102942 0.104973 0.992632
O O11 0.250000 0.847316 0.422807
O O12 0.364521 0.750000 0.322943
O O13 0.427432 0.848900 0.479695
O O14 0.089727 0.586297 0.674564
O O15 0.129279 0.436022 0.793629
O O16 0.481679 0.750000 0.639991
O O17 0.750000 0.651548 0.104161
O O18 0.613619 0.750000 0.144249
#
# Coordination Sequence:
#
# PCOD9453364 Si02
#       7
#     8   8   8   8   8   8   8
#     4  10  20  35  55  79 108 140 175 217 265 316
#     4  10  19  30  46  69  98 131 166 208 257 305
#     4  10  20  32  48  72 101 133 171 212 255 308
#     4   9  19  36  58  82 106 135 173 217 266 320
#     4  10  20  33  50  73 101 134 173 216 258 305
#     4  10  21  36  55  81 109 139 178 220 266 317
#     4  10  20  34  52  73 101 139 179 218 261 312
#
# _framework density 20.740741
#
# number of rings (size 3 to 8) (size 9 to 14) (size 15 to 20)
#    0.000    2.143    0.000    5.143    0.000    6.571 
#    0.000    5.000    0.000    0.857    0.000    0.000 
#    0.000    0.000    0.000    0.000    0.000    0.000 
#
# Total GULP energy -311825.261195 kJ/mol
# GULP energy per Si atom -5568.308236 kJ/mol
# Density = 2.069353 g / cm^3
# Si number density = 20.740741 Si / 1000 Ang^3
#
#
#
# Elastic Constant Matrix: (Units=GPa)
#
#
# Indices 1 2 3 4 5 6 
#
# 1 62.7263 7.5350 2.5206 0.0000 0.0000 0.0000
# 2 7.5350 143.7286 3.4771 0.0000 0.0000 0.0000
# 3 2.5206 3.4771 21.1502 0.0000 0.0000 0.0000
# 4 0.0000 0.0000 0.0000 18.8113 0.0000 0.0000
# 5 0.0000 0.0000 0.0000 0.0000 0.1558 0.0000
# 6 0.0000 0.0000 0.0000 0.0000 0.0000 99.9854
#
#
#
# Elastic Compliance Matrix: (Units=1/GPa)
#
#
# Indices 1 2 3 4 5 6 
#
# 1 0.016110 -0.000801 -0.001788 0.000000 0.000000 0.000000
# 2 -0.000801 0.007025 -0.001059 0.000000 0.000000 0.000000
# 3 -0.001788 -0.001059 0.047668 0.000000 0.000000 0.000000
# 4 0.000000 0.000000 0.000000 0.053159 0.000000 0.000000
# 5 0.000000 0.000000 0.000000 0.000000 6.419539 0.000000
# 6 0.000000 0.000000 0.000000 0.000000 0.000000 0.010001
#
#
# Mechanical properties :
#
#
# Convention : Reuss Voigt Hill
#
# Bulk Modulus (GPa) = 15.74660 28.29671 22.02166
# Shear Modulus (GPa) = 0.75965 38.06200 19.41083
#
# Velocity S-wave (km/s) = 0.60585 4.28849 3.06253
# Velocity P-wave (km/s) = 2.84570 6.18015 4.81104
#
# Compressibility (1/GPa) = 0.06350578
#
# Stress axis : x y z
#
# Youngs Moduli (GPa) = 62.07171 142.34476 20.97836
#
# Poissons Ratio (x) = 0.11407 0.03751
# Poissons Ratio (y) = 0.04974 0.02223
# Poissons Ratio (z) = 0.11100 0.15080
#
# Static dielectric constant tensor:
#      x y z
#    x 1.757720 0.000000 0.000000 
#    y 0.000000 1.757880 0.000000 
#    z 0.000000 0.000000 1.788000 
# 
# From -- ./inp_files/16986.got.cif
#   From: 2010.05.17/outbox.ucp.g08.bks.cvg/sg59_9_cif.got.tgz:16986.got - 2010.06.11 16:43:56.
