data_PCOD9453532
_publ_section_title
;
Structure prediction by ZEFSAII (Michael W. Deem and Ramdas Pophale) SiO2 
 PCOD9453532
Probable space group: P M M N
;
_chemical_formula_sum "Si O2"
_cell_formula_units_Z 64
_cell_length_a 30.000000
_cell_length_b 9.000000
_cell_length_c 12.000000
_cell_angle_alpha 90.000000
_cell_angle_beta 90.000000
_cell_angle_gamma 90.000000
_cell_volume 3240.000000
_symmetry_space_group_name_H-M "P M M N"
_symmetry_group_IT_number 59
_space_group.IT_coordinate_system_code '2'
_symmetry_cell_setting 'orthorhombic'
loop_
_space_group_symop_operation_xyz
x,y,z
1/2-x,1/2-y,z
1/2+x,-y,-z
-x,1/2+y,-z
-x,-y,-z
1/2+x,1/2+y,-z
1/2-x,y,z
x,1/2-y,z
loop_
_atom_site_type_symbol
_atom_site_label
_atom_site_fract_x
_atom_site_fract_y
_atom_site_fract_z
Si Si1 0.872639 0.431908 0.388775
Si Si2 0.954861 0.426289 0.250947
Si Si3 0.621414 0.579677 0.854463
Si Si4 0.048157 0.574657 0.997738
Si Si5 0.623463 0.418571 0.628537
Si Si6 0.301336 0.580952 0.033791
Si Si7 0.202429 0.572977 0.769258
Si Si8 0.517566 0.416724 0.608458
O O1 0.874568 0.250000 0.389068
O O2 0.920876 0.478695 0.345770
O O3 0.857859 0.474136 0.511569
O O4 0.838155 0.489087 0.298720
O O5 0.961540 0.250000 0.260819
O O6 0.935282 0.453515 0.128929
O O7 0.000816 0.505349 0.279057
O O8 0.609073 0.750000 0.859813
O O9 0.629957 0.525644 0.730244
O O10 0.666816 0.541105 0.916963
O O11 0.582432 0.487483 0.913521
O O12 0.043391 0.750000 0.013169
O O13 0.000000 0.500000 0.000000
O O14 0.638893 0.250000 0.653065
O O15 0.570543 0.411803 0.607173
O O16 0.250000 0.568629 0.069394
O O17 0.316907 0.750000 0.060525
O O18 0.302657 0.564401 0.900927
O O19 0.250000 0.508401 0.736664
O O20 0.203346 0.750000 0.744777
O O21 0.500000 0.500000 0.500000
O O22 0.500190 0.250000 0.606489
#
# Coordination Sequence:
#
# PCOD9453532 Si02
#       8
#     8   8   8   8   8   8   8   8
#     4   9  16  30  51  76 106 137 174 221 273 325
#     4  10  20  35  55  79 104 138 182 229 282 330
#     4  12  25  39  57  82 117 157 198 242 293 351
#     4  11  23  39  60  84 116 152 191 239 290 348
#     4  10  21  37  55  75 107 150 193 236 279 331
#     4   9  18  36  63  91 116 146 189 238 291 353
#     4   8  14  27  53  87 114 135 167 218 278 337
#     4  11  21  34  53  77 108 145 185 231 276 329
#
# _framework density 19.753086
#
# number of rings (size 3 to 8) (size 9 to 14) (size 15 to 20)
#    0.000    2.000    1.250    4.125    0.000    6.250 
#    0.000    0.625    0.000    3.000    0.000    0.000 
#    0.000    0.000    0.000    0.000    0.000    0.000 
#
# Total GULP energy -356758.506357 kJ/mol
# GULP energy per Si atom -5574.351662 kJ/mol
# Density = 1.970813 g / cm^3
# Si number density = 19.753086 Si / 1000 Ang^3
#
#
#
# Elastic Constant Matrix: (Units=GPa)
#
#
# Indices 1 2 3 4 5 6 
#
# 1 39.3491 14.5970 24.3455 0.0000 0.0000 0.0000
# 2 14.5970 31.3205 34.2254 0.0000 0.0000 0.0000
# 3 24.3455 34.2254 34.4573 0.0000 0.0000 0.0000
# 4 0.0000 0.0000 0.0000 6.6089 0.0000 0.0000
# 5 0.0000 0.0000 0.0000 0.0000 -16.6897 0.0000
# 6 0.0000 0.0000 0.0000 0.0000 0.0000 16.7492
#
#
#
# Elastic Compliance Matrix: (Units=1/GPa)
#
#
# Indices 1 2 3 4 5 6 
#
# 1 0.017701 -0.063431 0.050498 0.000000 0.000000 0.000000
# 2 -0.063431 -0.146572 0.190402 0.000000 0.000000 0.000000
# 3 0.050498 0.190402 -0.195779 0.000000 0.000000 0.000000
# 4 0.000000 0.000000 0.000000 0.151310 0.000000 0.000000
# 5 0.000000 0.000000 0.000000 0.000000 -0.059917 0.000000
# 6 0.000000 0.000000 0.000000 0.000000 0.000000 0.059704
#
#
# Mechanical properties :
#
#
# Convention : Reuss Voigt Hill
#
# Bulk Modulus (GPa) = 33.01571 27.94031 30.47801
# Shear Modulus (GPa) = -9.64515 3.46428 -3.09044
#
# Velocity S-wave (km/s) = -2.21212 1.32574 -1.25217
# Velocity P-wave (km/s) = 3.19779 4.06435 3.65683
#
# Compressibility (1/GPa) = 0.03028861
#
# Stress axis : x y z
#
# Youngs Moduli (GPa) = 56.49549 -6.82258 -5.10781
#
# Poissons Ratio (x) = -0.43276 0.25793
# Poissons Ratio (y) = 3.58356 0.97254
# Poissons Ratio (z) = -2.85290 1.29904
#
# Static dielectric constant tensor:
#      x y z
#    x 2.087800 0.000000 0.000000 
#    y 0.000000 1.668020 0.000000 
#    z 0.000000 0.000000 1.722460 
# 
# From -- ./inp_files/19237.got.cif
#   From: 2010.05.17/outbox.ucp.g08.bks.cvg/sg59_10_cif.got.tgz:19237.got - 2010.06.11 16:43:56.
