data_PCOD9453615
_publ_section_title
;
Structure prediction by ZEFSAII (Michael W. Deem and Ramdas Pophale) SiO2 
 PCOD9453615
Probable space group: P M M N
;
_chemical_formula_sum "Si O2"
_cell_formula_units_Z 48
_cell_length_a 9.000000
_cell_length_b 9.000000
_cell_length_c 30.000000
_cell_angle_alpha 90.000000
_cell_angle_beta 90.000000
_cell_angle_gamma 90.000000
_cell_volume 2430.000000
_symmetry_space_group_name_H-M "P M M N"
_symmetry_group_IT_number 59
_space_group.IT_coordinate_system_code '2'
_symmetry_cell_setting 'orthorhombic'
loop_
_space_group_symop_operation_xyz
x,y,z
1/2-x,1/2-y,z
1/2+x,-y,-z
-x,1/2+y,-z
-x,-y,-z
1/2+x,1/2+y,-z
1/2-x,y,z
x,1/2-y,z
loop_
_atom_site_type_symbol
_atom_site_label
_atom_site_fract_x
_atom_site_fract_y
_atom_site_fract_z
Si Si1 0.585805 0.072115 0.219827
Si Si2 0.921547 0.571271 0.866670
Si Si3 0.928322 0.079888 0.958554
Si Si4 0.416702 0.920991 0.294938
Si Si5 0.424767 0.416279 0.614204
Si Si6 0.084343 0.423833 0.460169
O O1 0.750000 0.014758 0.231232
O O2 0.592257 0.250000 0.218584
O O3 0.530217 0.019365 0.172001
O O4 0.464672 0.024952 0.255347
O O5 0.750000 0.528371 0.857064
O O6 0.925500 0.750000 0.868918
O O7 0.967198 0.504324 0.913446
O O8 0.750000 0.075336 0.962680
O O9 0.976028 0.250000 0.956338
O O10 0.000000 0.000000 0.000000
O O11 0.250000 0.951272 0.311264
O O12 0.421755 0.750000 0.279680
O O13 0.531435 0.936992 0.334916
O O14 0.250000 0.421578 0.607715
O O15 0.477083 0.250000 0.600821
O O16 0.502114 0.539282 0.585093
O O17 0.250000 0.484064 0.457566
O O18 0.089050 0.250000 0.468303
O O19 0.000000 0.500000 0.500000
#
# Coordination Sequence:
#
# PCOD9453615 Si02
#       6
#     8   8   8   8   8   8
#     4  10  21  36  55  81 112 145 181 223 272 324
#     4   9  18  34  54  75 104 143 183 223 268 319
#     4  10  21  36  55  80 109 141 178 221 269 322
#     4  10  21  37  58  83 111 146 186 227 273 324
#     4  10  21  38  60  85 113 146 185 229 277 328
#     4  11  24  40  59  85 115 148 187 229 275 328
#
# _framework density 19.753086
#
# number of rings (size 3 to 8) (size 9 to 14) (size 15 to 20)
#    0.000    2.000    0.000    3.000    0.000    9.333 
#    0.000    3.333    0.000    0.000    0.000    0.000 
#    0.000    0.000    0.000    0.000    0.000    0.000 
#
# Total GULP energy -267759.266494 kJ/mol
# GULP energy per Si atom -5578.318052 kJ/mol
# Density = 1.970813 g / cm^3
# Si number density = 19.753086 Si / 1000 Ang^3
#
#
#
# Elastic Constant Matrix: (Units=GPa)
#
#
# Indices 1 2 3 4 5 6 
#
# 1 42.2284 26.6911 28.1414 0.0000 0.0000 0.0000
# 2 26.6911 11.4927 35.0208 0.0000 0.0000 0.0000
# 3 28.1414 35.0208 34.0518 0.0000 0.0000 0.0000
# 4 0.0000 0.0000 0.0000 29.5941 0.0000 0.0000
# 5 0.0000 0.0000 0.0000 0.0000 30.9426 0.0000
# 6 0.0000 0.0000 0.0000 0.0000 0.0000 20.4778
#
#
#
# Elastic Compliance Matrix: (Units=1/GPa)
#
#
# Indices 1 2 3 4 5 6 
#
# 1 0.052143 -0.004786 -0.038170 0.000000 0.000000 0.000000
# 2 -0.004786 -0.040336 0.045439 0.000000 0.000000 0.000000
# 3 -0.038170 0.045439 0.014180 0.000000 0.000000 0.000000
# 4 0.000000 0.000000 0.000000 0.033790 0.000000 0.000000
# 5 0.000000 0.000000 0.000000 0.000000 0.032318 0.000000
# 6 0.000000 0.000000 0.000000 0.000000 0.000000 0.048833
#
#
# Mechanical properties :
#
#
# Convention : Reuss Voigt Hill
#
# Bulk Modulus (GPa) = 32.30755 29.71994 31.01375
# Shear Modulus (GPa) = 34.18113 16.06421 25.12267
#
# Velocity S-wave (km/s) = 4.16434 2.85485 3.57015
# Velocity P-wave (km/s) = 6.28598 5.09365 5.72096
#
# Compressibility (1/GPa) = 0.03095252
#
# Stress axis : x y z
#
# Youngs Moduli (GPa) = 19.17815 -24.79170 70.52298
#
# Poissons Ratio (x) = -0.11865 2.69187
# Poissons Ratio (y) = 0.09179 -3.20450
# Poissons Ratio (z) = 0.73203 1.12651
#
# Static dielectric constant tensor:
#      x y z
#    x 1.724860 0.000000 0.000000 
#    y 0.000000 1.674530 0.000000 
#    z 0.000000 0.000000 1.676280 
# 
# From -- ./inp_files/32789.got.cif
#   From: 2010.05.17/outbox.ucp.g08.bks.cvg/sg59_17_cif.got.tgz:32789.got - 2010.06.11 16:43:56.
