data_PCOD9453352
_publ_section_title
;
Structure prediction by ZEFSAII (Michael W. Deem and Ramdas Pophale) SiO2 
 PCOD9453352
Probable space group: P M M N
;
_chemical_formula_sum "Si O2"
_cell_formula_units_Z 48
_cell_length_a 9.000000
_cell_length_b 18.000000
_cell_length_c 15.000000
_cell_angle_alpha 90.000000
_cell_angle_beta 90.000000
_cell_angle_gamma 90.000000
_cell_volume 2430.000000
_symmetry_space_group_name_H-M "P M M N"
_symmetry_group_IT_number 59
_space_group.IT_coordinate_system_code '2'
_symmetry_cell_setting 'orthorhombic'
loop_
_space_group_symop_operation_xyz
x,y,z
1/2-x,1/2-y,z
1/2+x,-y,-z
-x,1/2+y,-z
-x,-y,-z
1/2+x,1/2+y,-z
1/2-x,y,z
x,1/2-y,z
loop_
_atom_site_type_symbol
_atom_site_label
_atom_site_fract_x
_atom_site_fract_y
_atom_site_fract_z
Si Si1 0.081819 0.006786 0.141247
Si Si2 0.927849 0.536305 0.318346
Si Si3 0.429664 0.627891 0.628529
Si Si4 0.916034 0.111141 0.017762
Si Si5 0.076873 0.250000 0.037117
Si Si6 0.428660 0.666814 0.429559
Si Si7 0.430113 0.750000 0.769073
O O1 0.250000 0.029568 0.163964
O O2 0.001913 0.966369 0.221787
O O3 0.089906 0.950894 0.057981
O O4 0.983707 0.074953 0.106476
O O5 0.750000 0.538622 0.311958
O O6 0.973136 0.457669 0.362385
O O7 0.989462 0.604519 0.373867
O O8 0.250000 0.630625 0.630542
O O9 0.474115 0.659647 0.532999
O O10 0.478900 0.678775 0.710597
O O11 0.750000 0.138724 0.034686
O O12 0.021444 0.176979 0.987777
O O13 0.250000 0.250000 0.049286
O O14 0.997945 0.250000 0.133332
O O15 0.250000 0.655683 0.424858
O O16 0.460949 0.750000 0.397714
O O17 0.250000 0.750000 0.774569
#
# Coordination Sequence:
#
# PCOD9453352 Si02
#       7
#     8   8   8   8   4   8   4
#     4  10  21  39  62  87 115 150 193 239 289 347
#     4  11  22  35  56  87 119 151 192 238 289 351
#     4   9  18  34  58  85 111 148 194 237 287 346
#     4  10  21  39  62  85 115 154 192 237 292 348
#     4  12  24  36  54  87 122 153 192 239 288 343
#     4  10  20  38  60  80 109 152 199 244 289 339
#     4  10  18  34  60  85 114 151 194 241 292 351
#
# _framework density 19.753086
#
# number of rings (size 3 to 8) (size 9 to 14) (size 15 to 20)
#    0.000    1.833    0.833    3.750    0.000    3.667 
#    1.500    2.500    0.000    0.000    0.000    0.000 
#    0.000    0.000    0.000    0.000    0.000    0.000 
#
# Total GULP energy -267966.450093 kJ/mol
# GULP energy per Si atom -5582.634377 kJ/mol
# Density = 1.970813 g / cm^3
# Si number density = 19.753086 Si / 1000 Ang^3
#
#
#
# Elastic Constant Matrix: (Units=GPa)
#
#
# Indices 1 2 3 4 5 6 
#
# 1 72.9294 40.0844 16.5713 0.0000 0.0000 0.0000
# 2 40.0844 75.1475 28.3873 0.0000 0.0000 0.0000
# 3 16.5713 28.3873 32.4110 0.0000 0.0000 0.0000
# 4 0.0000 0.0000 0.0000 11.6427 0.0000 0.0000
# 5 0.0000 0.0000 0.0000 0.0000 20.1369 0.0000
# 6 0.0000 0.0000 0.0000 0.0000 0.0000 27.2965
#
#
#
# Elastic Compliance Matrix: (Units=1/GPa)
#
#
# Indices 1 2 3 4 5 6 
#
# 1 0.019435 -0.009883 -0.001281 0.000000 0.000000 0.000000
# 2 -0.009883 0.024912 -0.016767 0.000000 0.000000 0.000000
# 3 -0.001281 -0.016767 0.046194 0.000000 0.000000 0.000000
# 4 0.000000 0.000000 0.000000 0.085891 0.000000 0.000000
# 5 0.000000 0.000000 0.000000 0.000000 0.049660 0.000000
# 6 0.000000 0.000000 0.000000 0.000000 0.000000 0.036635
#
#
# Mechanical properties :
#
#
# Convention : Reuss Voigt Hill
#
# Bulk Modulus (GPa) = 28.83479 38.95266 33.89372
# Shear Modulus (GPa) = 15.14473 18.17822 16.66148
#
# Velocity S-wave (km/s) = 2.77194 3.03689 2.90744
# Velocity P-wave (km/s) = 4.98740 5.66211 5.33543
#
# Compressibility (1/GPa) = 0.03468033
#
# Stress axis : x y z
#
# Youngs Moduli (GPa) = 51.45387 40.14051 21.64791
#
# Poissons Ratio (x) = 0.39671 0.02773
# Poissons Ratio (y) = 0.50851 0.36296
# Poissons Ratio (z) = 0.06590 0.67302
#
# Static dielectric constant tensor:
#      x y z
#    x 1.676200 0.000000 0.000000 
#    y 0.000000 2.207240 0.000000 
#    z 0.000000 0.000000 1.675360 
# 
# From -- ./inp_files/20583.got.cif
#   From: 2010.05.17/outbox.ucp.g08.bks.cvg/sg59_11_cif.got.tgz:20583.got - 2010.06.11 16:43:56.
