data_PCOD9453693
_publ_section_title
;
Structure prediction by ZEFSAII (Michael W. Deem and Ramdas Pophale) SiO2 
 PCOD9453693
Probable space group: P B C N
;
_chemical_formula_sum "Si O2"
_cell_formula_units_Z 52
_cell_length_a 20.626302
_cell_length_b 7.048733
_cell_length_c 14.966777
_cell_angle_alpha 90.000000
_cell_angle_beta 90.000000
_cell_angle_gamma 90.000000
_cell_volume 2176.009165
_symmetry_space_group_name_H-M "P B C N"
_symmetry_group_IT_number 60
_symmetry_cell_setting 'orthorhombic'
loop_
_space_group_symop_operation_xyz
x,y,z
1/2-x,1/2-y,1/2+z
1/2+x,1/2-y,-z
-x,y,1/2-z
-x,-y,-z
1/2+x,1/2+y,1/2-z
1/2-x,1/2+y,z
x,-y,1/2+z
loop_
_atom_site_type_symbol
_atom_site_label
_atom_site_fract_x
_atom_site_fract_y
_atom_site_fract_z
Si Si1 0.904229 0.757582 0.893879
Si Si2 0.889367 0.634474 0.617990
Si Si3 0.913988 0.213683 0.589181
Si Si4 0.435214 0.806276 0.574474
Si Si5 0.500000 0.752120 0.250000
Si Si6 0.699517 0.131677 0.760935
Si Si7 0.347077 0.697729 0.732745
O O1 0.927833 0.536125 0.909204
O O2 0.836664 0.741390 0.840955
O O3 0.958287 0.844517 0.827732
O O4 0.900423 0.857599 0.989337
O O5 0.878861 0.418551 0.588813
O O6 0.916474 0.729735 0.528694
O O7 0.825228 0.714307 0.665829
O O8 0.944898 0.636508 0.694548
O O9 0.887483 0.124666 0.681000
O O10 0.990715 0.251079 0.592921
O O11 0.388233 0.697929 0.642416
O O12 0.775680 0.111551 0.771060
O O13 0.669574 0.921537 0.759201
#
# Coordination Sequence:
#
# PCOD9453693 Si02
#       7
#     8   8   8   8   4   8   8
#     4   9  16  25  46  70 103 115 156 201 256 278
#     4   9  16  25  46  70 103 115 156 201 256 278
#     4  10  16  27  46  76  95 124 153 213 249 285
#     4  10  16  27  46  76  95 124 153 213 249 285
#     4  10  12  22  40  68  96 124 138 200 246 292
#     4   9  20  33  46  73  96 136 163 195 238 291
#     4  10  21  32  49  69 104 130 167 191 241 290
#
# _framework density 23.896958999999999
#
# number of rings (size 3 to 8) (size 9 to 14) (size 15 to 20)
#    0.000    2.462    3.077    2.308    0.000    1.231 
#    0.000    0.000    0.000    0.000   16.000    2.154 
#    0.000    0.000    0.000    0.000    0.000    0.000 
#
# Total GULP energy -290452.520232 kJ/mol
# GULP energy per Si atom -5585.625389 kJ/mol
# Density = 2.384257 g / cm^3
# Si number density = 23.896959 Si / 1000 Ang^3
#
#
#
# Elastic Constant Matrix: (Units=GPa)
#
#
# Indices 1 2 3 4 5 6 
#
# 1 149.6183 10.1907 90.5477 0.0000 0.0000 0.0000
# 2 10.1907 69.2376 18.4490 0.0000 0.0000 0.0000
# 3 90.5477 18.4490 206.2261 0.0000 0.0000 0.0000
# 4 0.0000 0.0000 0.0000 12.9837 0.0000 0.0000
# 5 0.0000 0.0000 0.0000 0.0000 29.7990 0.0000
# 6 0.0000 0.0000 0.0000 0.0000 0.0000 16.0689
#
#
#
# Elastic Compliance Matrix: (Units=1/GPa)
#
#
# Indices 1 2 3 4 5 6 
#
# 1 0.009108 -0.000282 -0.003974 0.000000 0.000000 0.000000
# 2 -0.000282 0.014804 -0.001201 0.000000 0.000000 0.000000
# 3 -0.003974 -0.001201 0.006701 0.000000 0.000000 0.000000
# 4 0.000000 0.000000 0.000000 0.077020 0.000000 0.000000
# 5 0.000000 0.000000 0.000000 0.000000 0.033558 0.000000
# 6 0.000000 0.000000 0.000000 0.000000 0.000000 0.062232
#
#
# Mechanical properties :
#
#
# Convention : Reuss Voigt Hill
#
# Bulk Modulus (GPa) = 50.75861 73.71742 62.23801
# Shear Modulus (GPa) = 22.63440 32.16328 27.39884
#
# Velocity S-wave (km/s) = 3.08095 3.67265 3.38973
# Velocity P-wave (km/s) = 5.82606 6.99282 6.43594
#
# Compressibility (1/GPa) = 0.01970109
#
# Stress axis : x y z
#
# Youngs Moduli (GPa) = 109.79685 67.54734 149.22676
#
# Poissons Ratio (x) = 0.01903 0.59299
# Poissons Ratio (y) = 0.03093 0.17918
# Poissons Ratio (z) = 0.43630 0.08111
#
# Static dielectric constant tensor:
#      x y z
#    x 1.879570 0.000000 0.000000 
#    y 0.000000 2.056120 0.000000 
#    z 0.000000 0.000000 1.955050 
# 
# From -- ./inp_files/17783.got.cif
#   From: 2010.05.17/outbox.cif.g08.bks.cpg/sg60_9_cif.got.tgz:17783.got - 2010.06.03 14:59:27.
