data_PCOD9453112
_publ_section_title
;
Structure prediction by ZEFSAII (Michael W. Deem and Ramdas Pophale) SiO2 
 PCOD9453112
Probable space group: P M M N
;
_chemical_formula_sum "Si O2"
_cell_formula_units_Z 32
_cell_length_a 7.518542
_cell_length_b 17.794947
_cell_length_c 12.718443
_cell_angle_alpha 90.000000
_cell_angle_beta 90.000000
_cell_angle_gamma 90.000000
_cell_volume 1701.626643
_symmetry_space_group_name_H-M "P M M N"
_symmetry_group_IT_number 59
_space_group.IT_coordinate_system_code '2'
_symmetry_cell_setting 'orthorhombic'
loop_
_space_group_symop_operation_xyz
x,y,z
1/2-x,1/2-y,z
1/2+x,-y,-z
-x,1/2+y,-z
-x,-y,-z
1/2+x,1/2+y,-z
1/2-x,y,z
x,1/2-y,z
loop_
_atom_site_type_symbol
_atom_site_label
_atom_site_fract_x
_atom_site_fract_y
_atom_site_fract_z
Si Si1 0.033745 0.336388 0.228913
Si Si2 0.750000 0.339863 0.863863
Si Si3 0.250000 0.658299 0.376901
Si Si4 0.953819 0.841739 0.539491
Si Si5 0.539054 0.912205 0.988439
O O1 0.250000 0.335228 0.233293
O O2 0.974869 0.250000 0.214433
O O3 0.978058 0.364144 0.344430
O O4 0.983523 0.384391 0.127851
O O5 0.750000 0.250000 0.863924
O O6 0.750000 0.367301 0.743210
O O7 0.577809 0.369144 0.925821
O O8 0.250000 0.750000 0.375089
O O9 0.420839 0.634342 0.444564
O O10 0.750000 0.865996 0.525570
O O11 0.953827 0.750000 0.541985
O O12 0.750000 0.897946 0.000435
O O13 0.500000 0.000000 0.000000
#
# Coordination Sequence:
#
# PCOD9453112 Si02
#       5
#     8   4   4   8   8
#     4   8  15  29  53  84 110 136 184 242 287 335
#     4  11  24  39  59  89 118 151 199 238 275 348
#     4   9  18  31  49  79 115 145 179 228 280 334
#     4   8  14  27  48  76 108 138 173 228 290 332
#     4  11  22  39  59  83 116 160 192 236 298 350
#
# _framework density 18.805537000000001
#
# number of rings (size 3 to 8) (size 9 to 14) (size 15 to 20)
#    0.000    2.750    1.250    2.250    0.000    3.500 
#    0.000    5.000    0.000    1.500    0.000    0.000 
#    0.000    0.000    0.000    0.000    0.000    0.000 
#
# Total GULP energy -178488.358937 kJ/mol
# GULP energy per Si atom -5577.761217 kJ/mol
# Density = 1.876273 g / cm^3
# Si number density = 18.805537 Si / 1000 Ang^3
#
#
#
# Elastic Constant Matrix: (Units=GPa)
#
#
# Indices 1 2 3 4 5 6 
#
# 1 113.6255 19.5512 83.4692 0.0000 0.0000 0.0000
# 2 19.5512 44.2271 40.6757 0.0000 0.0000 0.0000
# 3 83.4692 40.6757 198.8096 0.0000 0.0000 0.0000
# 4 0.0000 0.0000 0.0000 -9.9087 0.0000 0.0000
# 5 0.0000 0.0000 0.0000 0.0000 46.6598 0.0000
# 6 0.0000 0.0000 0.0000 0.0000 0.0000 16.1281
#
#
#
# Elastic Compliance Matrix: (Units=1/GPa)
#
#
# Indices 1 2 3 4 5 6 
#
# 1 0.012753 -0.000879 -0.005175 0.000000 0.000000 0.000000
# 2 -0.000879 0.027912 -0.005342 0.000000 0.000000 0.000000
# 3 -0.005175 -0.005342 0.008295 0.000000 0.000000 0.000000
# 4 0.000000 0.000000 0.000000 -0.100921 0.000000 0.000000
# 5 0.000000 0.000000 0.000000 0.000000 0.021432 0.000000
# 6 0.000000 0.000000 0.000000 0.000000 0.000000 0.062004
#
#
# Mechanical properties :
#
#
# Convention : Reuss Voigt Hill
#
# Bulk Modulus (GPa) = 38.21113 71.56163 54.88638
# Shear Modulus (GPa) = 79.38001 24.77357 52.07679
#
# Velocity S-wave (km/s) = 6.50405 3.63348 5.26805
# Velocity P-wave (km/s) = 8.76166 7.46585 8.13958
#
# Compressibility (1/GPa) = 0.02617039
#
# Stress axis : x y z
#
# Youngs Moduli (GPa) = 78.41097 35.82715 120.54886
#
# Poissons Ratio (x) = 0.03148 0.62380
# Poissons Ratio (y) = 0.06890 0.64394
# Poissons Ratio (z) = 0.40575 0.19138
#
# Static dielectric constant tensor:
#      x y z
#    x 1.672180 0.000000 0.000000 
#    y 0.000000 1.606910 0.000000 
#    z 0.000000 0.000000 1.652490 
# 
# From -- ./inp_files/13773.got.cif
#   From: 2010.05.17/outbox.cif.g08.bks.cpg/sg59_7_cif.got.tgz:13773.got - 2010.06.03 14:40:33.
