data_PCOD9453569
_publ_section_title
;
Structure prediction by ZEFSAII (Michael W. Deem and Ramdas Pophale) SiO2 
 PCOD9453569
Probable space group: P M M N
;
_chemical_formula_sum "Si O2"
_cell_formula_units_Z 64
_cell_length_a 30.000000
_cell_length_b 9.000000
_cell_length_c 12.000000
_cell_angle_alpha 90.000000
_cell_angle_beta 90.000000
_cell_angle_gamma 90.000000
_cell_volume 3240.000000
_symmetry_space_group_name_H-M "P M M N"
_symmetry_group_IT_number 59
_space_group.IT_coordinate_system_code '2'
_symmetry_cell_setting 'orthorhombic'
loop_
_space_group_symop_operation_xyz
x,y,z
1/2-x,1/2-y,z
1/2+x,-y,-z
-x,1/2+y,-z
-x,-y,-z
1/2+x,1/2+y,-z
1/2-x,y,z
x,1/2-y,z
loop_
_atom_site_type_symbol
_atom_site_label
_atom_site_fract_x
_atom_site_fract_y
_atom_site_fract_z
Si Si1 0.644914 0.916676 0.104861
Si Si2 0.122658 0.076150 0.368638
Si Si3 0.565120 0.923145 0.281872
Si Si4 0.600729 0.918805 0.868664
Si Si5 0.011021 0.575455 0.117106
Si Si6 0.451745 0.925126 0.497530
Si Si7 0.697093 0.411172 0.259959
Si Si8 0.800090 0.572692 0.476610
O O1 0.663616 0.750000 0.114269
O O2 0.604064 0.929085 0.191254
O O3 0.679685 0.038279 0.141725
O O4 0.626211 0.938131 0.982821
O O5 0.115723 0.250000 0.399039
O O6 0.131687 0.069865 0.238202
O O7 0.163992 0.014747 0.437325
O O8 0.078139 0.989487 0.398959
O O9 0.559981 0.750000 0.316589
O O10 0.520980 0.975365 0.216750
O O11 0.572387 0.023300 0.388933
O O12 0.581411 0.750000 0.868830
O O13 0.561452 0.035320 0.858507
O O14 0.003159 0.750000 0.106034
O O15 0.000000 0.500000 0.000000
O O16 0.456080 0.750000 0.489848
O O17 0.500000 0.000000 0.500000
O O18 0.750000 0.406175 0.257959
O O19 0.679345 0.250000 0.291989
O O20 0.684706 0.530729 0.352981
O O21 0.750000 0.514279 0.494026
O O22 0.798370 0.750000 0.486758
#
# Coordination Sequence:
#
# PCOD9453569 Si02
#       8
#     8   8   8   8   8   8   8   8
#     4  10  20  36  56  80 110 142 179 222 270 325
#     4  10  21  38  60  84 115 151 188 235 286 336
#     4  10  21  37  56  80 111 143 180 228 276 323
#     4  10  21  38  56  80 112 148 188 229 273 326
#     4  11  21  35  55  79 109 146 186 230 275 324
#     4  12  25  39  56  80 112 149 191 235 282 338
#     4  10  21  36  55  82 113 142 177 225 276 328
#     4   9  18  35  60  88 115 146 184 227 282 342
#
# _framework density 19.753086
#
# number of rings (size 3 to 8) (size 9 to 14) (size 15 to 20)
#    0.000    1.750    1.250    3.375    0.000    8.750 
#    0.000    0.625    0.000    2.250    0.000    1.750 
#    0.000    0.000    0.000    0.000    0.000    0.000 
#
# Total GULP energy -357087.215049 kJ/mol
# GULP energy per Si atom -5579.487735 kJ/mol
# Density = 1.970813 g / cm^3
# Si number density = 19.753086 Si / 1000 Ang^3
#
#
#
# Elastic Constant Matrix: (Units=GPa)
#
#
# Indices 1 2 3 4 5 6 
#
# 1 52.2069 27.7539 25.1715 0.0000 0.0000 0.0000
# 2 27.7539 31.2247 26.2508 0.0000 0.0000 0.0000
# 3 25.1715 26.2508 77.2253 0.0000 0.0000 0.0000
# 4 0.0000 0.0000 0.0000 12.5823 0.0000 0.0000
# 5 0.0000 0.0000 0.0000 0.0000 11.3255 0.0000
# 6 0.0000 0.0000 0.0000 0.0000 0.0000 18.2470
#
#
#
# Elastic Compliance Matrix: (Units=1/GPa)
#
#
# Indices 1 2 3 4 5 6 
#
# 1 0.036394 -0.031329 -0.001213 0.000000 0.000000 0.000000
# 2 -0.031329 0.071809 -0.014198 0.000000 0.000000 0.000000
# 3 -0.001213 -0.014198 0.018171 0.000000 0.000000 0.000000
# 4 0.000000 0.000000 0.000000 0.079477 0.000000 0.000000
# 5 0.000000 0.000000 0.000000 0.000000 0.088297 0.000000
# 6 0.000000 0.000000 0.000000 0.000000 0.000000 0.054804
#
#
# Mechanical properties :
#
#
# Convention : Reuss Voigt Hill
#
# Bulk Modulus (GPa) = 30.40093 35.44547 32.92320
# Shear Modulus (GPa) = 11.02789 13.86299 12.44544
#
# Velocity S-wave (km/s) = 2.36537 2.65205 2.51280
# Velocity P-wave (km/s) = 4.78371 5.23078 5.01223
#
# Compressibility (1/GPa) = 0.03289373
#
# Stress axis : x y z
#
# Youngs Moduli (GPa) = 27.47677 13.92587 55.03336
#
# Poissons Ratio (x) = 0.43628 0.06677
# Poissons Ratio (y) = 0.86082 0.78136
# Poissons Ratio (z) = 0.03334 0.19772
#
# Static dielectric constant tensor:
#      x y z
#    x 1.721560 0.000000 0.000000 
#    y 0.000000 1.604160 0.000000 
#    z 0.000000 0.000000 2.519460 
# 
# From -- ./inp_files/19228.got.cif
#   From: 2010.05.17/outbox.ucp.g08.bks.cvg/sg59_10_cif.got.tgz:19228.got - 2010.06.11 16:43:56.
