data_PCOD9453369
_publ_section_title
;
Structure prediction by ZEFSAII (Michael W. Deem and Ramdas Pophale) SiO2 
 PCOD9453369
Probable space group: P M M N
;
_chemical_formula_sum "Si O2"
_cell_formula_units_Z 64
_cell_length_a 9.000000
_cell_length_b 30.000000
_cell_length_c 15.000000
_cell_angle_alpha 90.000000
_cell_angle_beta 90.000000
_cell_angle_gamma 90.000000
_cell_volume 4050.000000
_symmetry_space_group_name_H-M "P M M N"
_symmetry_group_IT_number 59
_space_group.IT_coordinate_system_code '2'
_symmetry_cell_setting 'orthorhombic'
loop_
_space_group_symop_operation_xyz
x,y,z
1/2-x,1/2-y,z
1/2+x,-y,-z
-x,1/2+y,-z
-x,-y,-z
1/2+x,1/2+y,-z
1/2-x,y,z
x,1/2-y,z
loop_
_atom_site_type_symbol
_atom_site_label
_atom_site_fract_x
_atom_site_fract_y
_atom_site_fract_z
Si Si1 0.927196 0.472915 0.644759
Si Si2 0.570506 0.431363 0.352458
Si Si3 0.570964 0.802555 0.146897
Si Si4 0.069925 0.883213 0.033825
Si Si5 0.573424 0.472179 0.855660
Si Si6 0.929657 0.197919 0.656801
Si Si7 0.570949 0.067810 0.145400
Si Si8 0.430435 0.614531 0.467591
O O1 0.750000 0.478813 0.630676
O O2 0.951208 0.464282 0.750109
O O3 0.975131 0.429476 0.589052
O O4 0.008098 0.519509 0.623247
O O5 0.750000 0.433393 0.353659
O O6 0.525738 0.421993 0.248760
O O7 0.524392 0.396065 0.429607
O O8 0.750000 0.806944 0.149276
O O9 0.536979 0.750000 0.124842
O O10 0.503733 0.839337 0.078446
O O11 0.503847 0.810643 0.246353
O O12 0.250000 0.878121 0.038742
O O13 0.029186 0.927899 0.090216
O O14 0.029624 0.896197 0.931137
O O15 0.750000 0.478498 0.869959
O O16 0.492707 0.518732 0.878449
O O17 0.750000 0.194599 0.666828
O O18 0.962788 0.250000 0.632233
O O19 0.976167 0.160193 0.583871
O O20 0.750000 0.064885 0.144136
O O21 0.250000 0.615752 0.467388
#
# Coordination Sequence:
#
# PCOD9453369 Si02
#       8
#     8   8   8   8   8   8   8   8
#     4   9  16  26  40  60  87 117 151 187 221 262
#     4   9  17  29  43  61  90 123 152 186 223 255
#     4  10  21  35  50  71  96 117 141 181 232 278
#     4  10  19  31  48  68  91 123 159 189 223 271
#     4   9  17  28  43  64  91 122 155 191 228 268
#     4   9  17  31  51  71  90 115 146 177 216 272
#     4   9  18  30  44  65  93 124 158 194 228 262
#     4   9  16  27  45  66  89 119 151 183 220 261
#
# _framework density 15.802469
#
# number of rings (size 3 to 8) (size 9 to 14) (size 15 to 20)
#    0.000    2.750    0.000    1.875    0.000    3.750 
#    0.000    3.750    0.000    0.750    0.000    3.500 
#    0.000    2.000    0.000    0.000    0.000    0.000 
#
# Total GULP energy -356553.174637 kJ/mol
# GULP energy per Si atom -5571.143354 kJ/mol
# Density = 1.576650 g / cm^3
# Si number density = 15.802469 Si / 1000 Ang^3
#
#
#
# Elastic Constant Matrix: (Units=GPa)
#
#
# Indices 1 2 3 4 5 6 
#
# 1 21.9419 27.6182 26.1247 0.0000 0.0000 0.0000
# 2 27.6182 131.0071 87.7510 0.0000 0.0000 0.0000
# 3 26.1247 87.7510 117.3116 0.0000 0.0000 0.0000
# 4 0.0000 0.0000 0.0000 37.5447 0.0000 0.0000
# 5 0.0000 0.0000 0.0000 0.0000 16.8470 0.0000
# 6 0.0000 0.0000 0.0000 0.0000 0.0000 27.5785
#
#
#
# Elastic Compliance Matrix: (Units=1/GPa)
#
#
# Indices 1 2 3 4 5 6 
#
# 1 0.066111 -0.008168 -0.008613 0.000000 0.000000 0.000000
# 2 -0.008168 0.016307 -0.010379 0.000000 0.000000 0.000000
# 3 -0.008613 -0.010379 0.018206 0.000000 0.000000 0.000000
# 4 0.000000 0.000000 0.000000 0.026635 0.000000 0.000000
# 5 0.000000 0.000000 0.000000 0.000000 0.059358 0.000000
# 6 0.000000 0.000000 0.000000 0.000000 0.000000 0.036260
#
#
# Mechanical properties :
#
#
# Convention : Reuss Voigt Hill
#
# Bulk Modulus (GPa) = 21.59628 61.47205 41.53416
# Shear Modulus (GPa) = 17.08634 24.97847 21.03240
#
# Velocity S-wave (km/s) = 3.29180 3.98008 3.65219
# Velocity P-wave (km/s) = 5.30509 7.75281 6.64267
#
# Compressibility (1/GPa) = 0.04630426
#
# Stress axis : x y z
#
# Youngs Moduli (GPa) = 15.12613 61.32232 54.92696
#
# Poissons Ratio (x) = 0.50090 0.47306
# Poissons Ratio (y) = 0.12355 0.57009
# Poissons Ratio (z) = 0.13027 0.63647
#
# Static dielectric constant tensor:
#      x y z
#    x 1.531840 0.000000 0.000000 
#    y 0.000000 1.514560 0.000000 
#    z 0.000000 0.000000 1.558020 
# 
# From -- ./inp_files/21897.got.cif
#   From: 2010.05.17/outbox.ucp.g08.bks.cvg/sg59_11_cif.got.tgz:21897.got - 2010.06.11 16:43:56.
