data_PCOD9453538
_publ_section_title
;
Structure prediction by ZEFSAII (Michael W. Deem and Ramdas Pophale) SiO2 
 PCOD9453538
Probable space group: P M M N
;
_chemical_formula_sum "Si O2"
_cell_formula_units_Z 64
_cell_length_a 9.000000
_cell_length_b 21.000000
_cell_length_c 18.000000
_cell_angle_alpha 90.000000
_cell_angle_beta 90.000000
_cell_angle_gamma 90.000000
_cell_volume 3402.000000
_symmetry_space_group_name_H-M "P M M N"
_symmetry_group_IT_number 59
_space_group.IT_coordinate_system_code '2'
_symmetry_cell_setting 'orthorhombic'
loop_
_space_group_symop_operation_xyz
x,y,z
1/2-x,1/2-y,z
1/2+x,-y,-z
-x,1/2+y,-z
-x,-y,-z
1/2+x,1/2+y,-z
1/2-x,y,z
x,1/2-y,z
loop_
_atom_site_type_symbol
_atom_site_label
_atom_site_fract_x
_atom_site_fract_y
_atom_site_fract_z
Si Si1 0.431127 0.959867 0.434348
Si Si2 0.571502 0.539145 0.712472
Si Si3 0.423052 0.067525 0.986620
Si Si4 0.079249 0.819691 0.251626
Si Si5 0.577890 0.181962 0.569676
Si Si6 0.929608 0.821506 0.752842
Si Si7 0.572797 0.177086 0.083709
Si Si8 0.420925 0.441384 0.811549
O O1 0.250000 0.958668 0.435573
O O2 0.486689 0.887366 0.446203
O O3 0.500000 0.000000 0.500000
O O4 0.474220 0.994699 0.357167
O O5 0.750000 0.537741 0.714969
O O6 0.526088 0.613736 0.709211
O O7 0.509957 0.503764 0.785449
O O8 0.250000 0.065701 0.009012
O O9 0.431630 0.074721 0.898095
O O10 0.503733 0.124354 0.029939
O O11 0.500000 0.000000 0.000000
O O12 0.250000 0.829007 0.226722
O O13 0.027753 0.750000 0.224609
O O14 0.082066 0.816980 0.340770
O O15 0.983351 0.879350 0.228960
O O16 0.750000 0.181757 0.544073
O O17 0.510325 0.250000 0.544956
O O18 0.750000 0.822275 0.758166
O O19 0.971449 0.750000 0.724531
O O20 0.999103 0.827884 0.834913
O O21 0.750000 0.167804 0.089854
O O22 0.546262 0.250000 0.057410
O O23 0.250000 0.452639 0.792291
#
# Coordination Sequence:
#
# PCOD9453538 Si02
#       8
#     8   8   8   8   8   8   8   8
#     4  10  20  35  55  81 112 144 180 222 270 323
#     4  10  20  36  57  79 106 141 182 223 268 330
#     4  11  24  39  54  76 107 145 185 229 280 332
#     4   9  17  32  55  79 103 136 177 215 254 309
#     4   8  14  29  54  78 102 137 179 216 249 299
#     4   9  18  34  58  84 107 138 180 226 278 332
#     4  10  21  37  57  81 110 145 186 231 276 327
#     4  11  23  35  51  78 110 139 174 225 279 322
#
# _framework density 18.812463000000001
#
# number of rings (size 3 to 8) (size 9 to 14) (size 15 to 20)
#    0.000    2.250    1.250    2.625    0.000    6.500 
#    0.000    3.125    0.000    1.125    0.000    0.000 
#    0.000    0.000    0.000    0.000    0.000    0.000 
#
# Total GULP energy -356634.606246 kJ/mol
# GULP energy per Si atom -5572.415723 kJ/mol
# Density = 1.876965 g / cm^3
# Si number density = 18.812463 Si / 1000 Ang^3
#
#
#
# Elastic Constant Matrix: (Units=GPa)
#
#
# Indices 1 2 3 4 5 6 
#
# 1 7.8999 23.8491 13.7293 0.0000 0.0000 0.0000
# 2 23.8491 185.9662 36.5500 0.0000 0.0000 0.0000
# 3 13.7293 36.5500 20.8992 0.0000 0.0000 0.0000
# 4 0.0000 0.0000 0.0000 25.4656 0.0000 0.0000
# 5 0.0000 0.0000 0.0000 0.0000 19.1599 0.0000
# 6 0.0000 0.0000 0.0000 0.0000 0.0000 21.4086
#
#
#
# Elastic Compliance Matrix: (Units=1/GPa)
#
#
# Indices 1 2 3 4 5 6 
#
# 1 -0.893237 -0.001183 0.588864 0.000000 0.000000 0.000000
# 2 -0.001183 0.008192 -0.013550 0.000000 0.000000 0.000000
# 3 0.588864 -0.013550 -0.315297 0.000000 0.000000 0.000000
# 4 0.000000 0.000000 0.000000 0.039269 0.000000 0.000000
# 5 0.000000 0.000000 0.000000 0.000000 0.052192 0.000000
# 6 0.000000 0.000000 0.000000 0.000000 0.000000 0.046710
#
#
# Mechanical properties :
#
#
# Convention : Reuss Voigt Hill
#
# Bulk Modulus (GPa) = -19.20123 40.33579 10.56728
# Shear Modulus (GPa) = -2.24437 22.58261 10.16912
#
# Velocity S-wave (km/s) = -1.09344 3.46845 2.32750
# Velocity P-wave (km/s) = 3.43845 6.12599 3.58502
#
# Compressibility (1/GPa) = -0.05208001
#
# Stress axis : x y z
#
# Youngs Moduli (GPa) = -1.11952 122.06839 -3.17161
#
# Poissons Ratio (x) = 0.14444 1.86765
# Poissons Ratio (y) = -0.00132 -0.04297
# Poissons Ratio (z) = 0.65925 1.65398
#
# Static dielectric constant tensor:
#      x y z
#    x 1.632020 0.000000 0.000000 
#    y 0.000000 1.702880 0.000000 
#    z 0.000000 0.000000 1.653260 
# 
# From -- ./inp_files/26363.got.cif
#   From: 2010.05.17/outbox.ucp.g08.bks.cvg/sg59_14_cif.got.tgz:26363.got - 2010.06.11 16:43:56.
