data_PCOD9453457
_publ_section_title
;
Structure prediction by ZEFSAII (Michael W. Deem and Ramdas Pophale) SiO2 
 PCOD9453457
Probable space group: P M M N
;
_chemical_formula_sum "Si O2"
_cell_formula_units_Z 64
_cell_length_a 18.000000
_cell_length_b 15.000000
_cell_length_c 12.000000
_cell_angle_alpha 90.000000
_cell_angle_beta 90.000000
_cell_angle_gamma 90.000000
_cell_volume 3240.000000
_symmetry_space_group_name_H-M "P M M N"
_symmetry_group_IT_number 59
_space_group.IT_coordinate_system_code '2'
_symmetry_cell_setting 'orthorhombic'
loop_
_space_group_symop_operation_xyz
x,y,z
1/2-x,1/2-y,z
1/2+x,-y,-z
-x,1/2+y,-z
-x,-y,-z
1/2+x,1/2+y,-z
1/2-x,y,z
x,1/2-y,z
loop_
_atom_site_type_symbol
_atom_site_label
_atom_site_fract_x
_atom_site_fract_y
_atom_site_fract_z
Si Si1 0.839849 0.650757 0.590906
Si Si2 0.901484 0.356087 0.047919
Si Si3 0.166633 0.352081 0.789922
Si Si4 0.663311 0.513690 0.416328
Si Si5 0.338945 0.456401 0.190984
Si Si6 0.160041 0.646154 0.718020
Si Si7 0.070585 0.143397 0.005188
Si Si8 0.663290 0.150008 0.811214
O O1 0.750000 0.654023 0.572502
O O2 0.868609 0.750000 0.569951
O O3 0.871261 0.573346 0.512565
O O4 0.851394 0.618378 0.715872
O O5 0.905135 0.250000 0.064853
O O6 0.871866 0.390728 0.165210
O O7 0.984447 0.383421 0.014928
O O8 0.846954 0.367063 0.943638
O O9 0.250000 0.359781 0.840708
O O10 0.160969 0.250000 0.746631
O O11 0.162111 0.422785 0.691676
O O12 0.104067 0.365308 0.882091
O O13 0.750000 0.497669 0.447071
O O14 0.632922 0.418026 0.380490
O O15 0.250000 0.462245 0.170596
O O16 0.382094 0.420851 0.084116
O O17 0.364334 0.554630 0.234573
O O18 0.250000 0.641045 0.725174
O O19 0.140875 0.750000 0.701677
O O20 0.077814 0.250000 0.034201
O O21 0.750000 0.155878 0.782353
O O22 0.630771 0.250000 0.788055
#
# Coordination Sequence:
#
# PCOD9453457 Si02
#       8
#     8   8   8   8   8   8   8   8
#     4   9  17  31  51  74 100 130 165 205 245 291
#     4   9  18  32  49  71 100 136 170 204 246 296
#     4   9  17  29  45  68 100 132 161 200 247 295
#     4   9  17  29  48  72  96 124 163 204 249 296
#     4  10  20  32  50  75 102 133 170 204 243 294
#     4   9  17  30  49  73  99 127 164 210 254 292
#     4  10  20  32  47  73 105 135 164 199 251 304
#     4   9  18  33  51  71  98 133 172 209 245 289
#
# _framework density 19.753086
#
# number of rings (size 3 to 8) (size 9 to 14) (size 15 to 20)
#    0.000    2.750    0.000    1.500    1.750    4.750 
#    0.000    0.625    0.000    4.500    0.000    0.000 
#    0.000    0.000    0.000    0.000    0.000    0.000 
#
# Total GULP energy -356415.148072 kJ/mol
# GULP energy per Si atom -5568.986689 kJ/mol
# Density = 1.970813 g / cm^3
# Si number density = 19.753086 Si / 1000 Ang^3
#
#
#
# Elastic Constant Matrix: (Units=GPa)
#
#
# Indices 1 2 3 4 5 6 
#
# 1 7.7348 3.0115 1.2980 0.0000 0.0000 0.0000
# 2 3.0115 60.1913 1.0100 0.0000 0.0000 0.0000
# 3 1.2980 1.0100 10.6165 0.0000 0.0000 0.0000
# 4 0.0000 0.0000 0.0000 21.6011 0.0000 0.0000
# 5 0.0000 0.0000 0.0000 0.0000 -10.1887 0.0000
# 6 0.0000 0.0000 0.0000 0.0000 0.0000 12.3155
#
#
#
# Elastic Compliance Matrix: (Units=1/GPa)
#
#
# Indices 1 2 3 4 5 6 
#
# 1 0.134458 -0.006462 -0.015825 0.000000 0.000000 0.000000
# 2 -0.006462 0.016951 -0.000823 0.000000 0.000000 0.000000
# 3 -0.015825 -0.000823 0.096206 0.000000 0.000000 0.000000
# 4 0.000000 0.000000 0.000000 0.046294 0.000000 0.000000
# 5 0.000000 0.000000 0.000000 0.000000 -0.098148 0.000000
# 6 0.000000 0.000000 0.000000 0.000000 0.000000 0.081198
#
#
# Mechanical properties :
#
#
# Convention : Reuss Voigt Hill
#
# Bulk Modulus (GPa) = 4.96533 9.90908 7.43721
# Shear Modulus (GPa) = 12.81035 9.62712 11.21874
#
# Velocity S-wave (km/s) = 2.54938 2.21005 2.38575
# Velocity P-wave (km/s) = 3.34439 3.39702 3.37081
#
# Compressibility (1/GPa) = 0.20139640
#
# Stress axis : x y z
#
# Youngs Moduli (GPa) = 7.43729 58.99429 10.39436
#
# Poissons Ratio (x) = 0.38120 0.16449
# Poissons Ratio (y) = 0.04806 0.00855
# Poissons Ratio (z) = 0.11769 0.04853
#
# Static dielectric constant tensor:
#      x y z
#    x 1.676050 0.000000 0.000000 
#    y 0.000000 1.769950 0.000000 
#    z 0.000000 0.000000 1.708330 
# 
# From -- ./inp_files/17875.got.cif
#   From: 2010.05.17/outbox.ucp.g08.bks.cvg/sg59_9_cif.got.tgz:17875.got - 2010.06.11 16:43:56.
