data_PCOD9453306
_publ_section_title
;
Structure prediction by ZEFSAII (Michael W. Deem and Ramdas Pophale) SiO2 
 PCOD9453306
Probable space group: P M M N
;
_chemical_formula_sum "Si O2"
_cell_formula_units_Z 64
_cell_length_a 16.498551
_cell_length_b 7.390637
_cell_length_c 24.050130
_cell_angle_alpha 90.000000
_cell_angle_beta 90.000000
_cell_angle_gamma 90.000000
_cell_volume 2932.547827
_symmetry_space_group_name_H-M "P M M N"
_symmetry_group_IT_number 59
_space_group.IT_coordinate_system_code '2'
_symmetry_cell_setting 'orthorhombic'
loop_
_space_group_symop_operation_xyz
x,y,z
1/2-x,1/2-y,z
1/2+x,-y,-z
-x,1/2+y,-z
-x,-y,-z
1/2+x,1/2+y,-z
1/2-x,y,z
x,1/2-y,z
loop_
_atom_site_type_symbol
_atom_site_label
_atom_site_fract_x
_atom_site_fract_y
_atom_site_fract_z
Si Si1 0.160113 0.963217 0.922262
Si Si2 0.660726 0.529421 0.528013
Si Si3 0.840496 0.967997 0.946667
Si Si4 0.161278 0.032620 0.690395
Si Si5 0.574453 0.969323 0.420051
Si Si6 0.592401 0.955059 0.637740
Si Si7 0.991031 0.527681 0.871130
Si Si8 0.010032 0.463111 0.254190
O O1 0.250000 0.038074 0.908107
O O2 0.163065 0.750000 0.909445
O O3 0.079167 0.034144 0.892874
O O4 0.149420 0.982913 0.988635
O O5 0.750000 0.484537 0.507465
O O6 0.655051 0.750000 0.530395
O O7 0.597446 0.468817 0.481539
O O8 0.649177 0.461269 0.590749
O O9 0.750000 0.030042 0.929220
O O10 0.840154 0.750000 0.943561
O O11 0.916453 0.030710 0.910111
O O12 0.250000 0.965361 0.707692
O O13 0.162939 0.250000 0.692802
O O14 0.141821 0.984348 0.626338
O O15 0.083590 0.978091 0.726615
O O16 0.566688 0.750000 0.420269
O O17 0.492202 0.049291 0.396124
O O18 0.621367 0.750000 0.648237
O O19 0.567199 0.039346 0.696693
O O20 0.991923 0.750000 0.872033
O O21 0.978865 0.466936 0.807759
O O22 0.028038 0.250000 0.252369
#
# Coordination Sequence:
#
# PCOD9453306 Si02
#       8
#     8   8   8   8   8   8   8   8
#     4   9  17  29  46  68  92 117 145 177 214 259
#     4   9  16  26  42  64  86 108 138 176 217 261
#     4   9  17  30  48  69  92 117 145 180 222 261
#     4   9  17  29  44  63  87 113 143 181 221 260
#     4   9  16  27  45  64  82 109 142 173 212 266
#     4   9  17  29  44  62  85 111 140 178 218 251
#     4   9  17  30  47  66  90 120 152 182 212 255
#     4   9  18  31  45  62  86 117 151 181 210 250
#
# _framework density 21.824024999999999
#
# number of rings (size 3 to 8) (size 9 to 14) (size 15 to 20)
#    0.000    3.000    0.000    1.125    0.000    2.250 
#    0.000    3.125    0.000    7.500    0.000    0.000 
#    0.000    1.000    0.000    0.000    0.000    0.000 
#
# Total GULP energy -356922.100778 kJ/mol
# GULP energy per Si atom -5576.907825 kJ/mol
# Density = 2.177435 g / cm^3
# Si number density = 21.824025 Si / 1000 Ang^3
#
#
#
# Elastic Constant Matrix: (Units=GPa)
#
#
# Indices 1 2 3 4 5 6 
#
# 1 70.8510 1.2816 39.7569 0.0000 0.0000 0.0000
# 2 1.2816 75.9462 -0.1191 0.0000 0.0000 0.0000
# 3 39.7569 -0.1191 101.9725 0.0000 0.0000 0.0000
# 4 0.0000 0.0000 0.0000 36.1643 0.0000 0.0000
# 5 0.0000 0.0000 0.0000 0.0000 8.4229 0.0000
# 6 0.0000 0.0000 0.0000 0.0000 0.0000 -1.5180
#
#
#
# Elastic Compliance Matrix: (Units=1/GPa)
#
#
# Indices 1 2 3 4 5 6 
#
# 1 0.018074 -0.000316 -0.007047 0.000000 0.000000 0.000000
# 2 -0.000316 0.013173 0.000139 0.000000 0.000000 0.000000
# 3 -0.007047 0.000139 0.012554 0.000000 0.000000 0.000000
# 4 0.000000 0.000000 0.000000 0.027652 0.000000 0.000000
# 5 0.000000 0.000000 0.000000 0.000000 0.118724 0.000000
# 6 0.000000 0.000000 0.000000 0.000000 0.000000 -0.658765
#
#
# Mechanical properties :
#
#
# Convention : Reuss Voigt Hill
#
# Bulk Modulus (GPa) = 34.06913 36.73429 35.40171
# Shear Modulus (GPa) = -11.25226 22.47052 5.60913
#
# Velocity S-wave (km/s) = -2.27313 3.21226 1.60491
# Velocity P-wave (km/s) = 2.95893 5.53414 4.43745
#
# Compressibility (1/GPa) = 0.02935209
#
# Stress axis : x y z
#
# Youngs Moduli (GPa) = 55.32742 75.91424 79.65432
#
# Poissons Ratio (x) = 0.02399 0.56133
# Poissons Ratio (y) = 0.01749 -0.01104
# Poissons Ratio (z) = 0.38990 -0.01052
#
# Static dielectric constant tensor:
#      x y z
#    x 1.807150 0.000000 0.000000 
#    y 0.000000 1.840920 0.000000 
#    z 0.000000 0.000000 1.785500 
# 
# From -- ./inp_files/32233.got.cif
#   From: 2010.05.17/outbox.cif.g08.bks.cpg/sg59_17_cif.got.tgz:32233.got - 2010.06.03 14:40:33.
