data_PCOD9453288
_publ_section_title
;
Structure prediction by ZEFSAII (Michael W. Deem and Ramdas Pophale) SiO2 
 PCOD9453288
Probable space group: P M M N
;
_chemical_formula_sum "Si O2"
_cell_formula_units_Z 64
_cell_length_a 17.671932
_cell_length_b 7.476899
_cell_length_c 24.191503
_cell_angle_alpha 90.000000
_cell_angle_beta 90.000000
_cell_angle_gamma 90.000000
_cell_volume 3196.453548
_symmetry_space_group_name_H-M "P M M N"
_symmetry_group_IT_number 59
_space_group.IT_coordinate_system_code '2'
_symmetry_cell_setting 'orthorhombic'
loop_
_space_group_symop_operation_xyz
x,y,z
1/2-x,1/2-y,z
1/2+x,-y,-z
-x,1/2+y,-z
-x,-y,-z
1/2+x,1/2+y,-z
1/2-x,y,z
x,1/2-y,z
loop_
_atom_site_type_symbol
_atom_site_label
_atom_site_fract_x
_atom_site_fract_y
_atom_site_fract_z
Si Si1 0.932170 0.043231 0.134862
Si Si2 0.512029 0.970142 0.632606
Si Si3 0.489278 0.039557 0.243020
Si Si4 0.663752 0.030873 0.037237
Si Si5 0.333299 0.965598 0.184832
Si Si6 0.085826 0.533591 0.074121
Si Si7 0.078824 0.538510 0.531483
Si Si8 0.833948 0.957999 0.573642
O O1 0.912391 0.250000 0.145498
O O2 0.866855 0.965939 0.096284
O O3 0.959156 0.963104 0.193296
O O4 0.006207 0.038234 0.095650
O O5 0.513489 0.750000 0.631240
O O6 0.502772 0.032019 0.695308
O O7 0.442539 0.025727 0.592899
O O8 0.593095 0.031086 0.607035
O O9 0.506671 0.250000 0.246292
O O10 0.402510 0.024633 0.222962
O O11 0.750000 0.979244 0.027377
O O12 0.660997 0.250000 0.037711
O O13 0.611739 0.972796 0.986043
O O14 0.250000 0.030385 0.200582
O O15 0.332682 0.750000 0.186699
O O16 0.353987 0.015936 0.121806
O O17 0.080619 0.750000 0.073603
O O18 0.091380 0.750000 0.533874
O O19 0.143423 0.465066 0.491301
O O20 0.000000 0.500000 0.500000
O O21 0.750000 0.035780 0.582901
O O22 0.829961 0.750000 0.589315
#
# Coordination Sequence:
#
# PCOD9453288 Si02
#       8
#     8   8   8   8   8   8   8   8
#     4   9  17  28  43  63  85 107 135 176 215 243
#     4   8  15  28  45  63  84 114 148 175 200 243
#     4   9  17  29  44  61  82 111 145 174 203 241
#     4   9  16  26  42  63  83 105 136 172 211 256
#     4   9  17  28  40  57  83 111 139 173 210 247
#     4   9  16  27  44  61  79 108 141 169 205 258
#     4   9  16  28  46  65  86 113 144 175 208 246
#     4   9  17  29  45  66  91 115 139 171 212 255
#
# _framework density 20.022189000000001
#
# number of rings (size 3 to 8) (size 9 to 14) (size 15 to 20)
#    0.000    3.125    0.000    1.875    0.000    2.500 
#    0.000    4.375    0.000    3.000    0.000    3.500 
#    0.000    0.000    0.000    0.000    0.000    0.000 
#
# Total GULP energy -356599.047032 kJ/mol
# GULP energy per Si atom -5571.860110 kJ/mol
# Density = 1.997662 g / cm^3
# Si number density = 20.022189 Si / 1000 Ang^3
#
#
#
# Elastic Constant Matrix: (Units=GPa)
#
#
# Indices 1 2 3 4 5 6 
#
# 1 14.7082 -3.9517 14.3854 0.0000 0.0000 0.0000
# 2 -3.9517 55.7069 0.3740 0.0000 0.0000 0.0000
# 3 14.3854 0.3740 140.4677 0.0000 0.0000 0.0000
# 4 0.0000 0.0000 0.0000 -8.7990 0.0000 0.0000
# 5 0.0000 0.0000 0.0000 0.0000 11.8940 0.0000
# 6 0.0000 0.0000 0.0000 0.0000 0.0000 8.5874
#
#
#
# Elastic Compliance Matrix: (Units=1/GPa)
#
#
# Indices 1 2 3 4 5 6 
#
# 1 0.077225 0.005531 -0.007923 0.000000 0.000000 0.000000
# 2 0.005531 0.018348 -0.000615 0.000000 0.000000 0.000000
# 3 -0.007923 -0.000615 0.007932 0.000000 0.000000 0.000000
# 4 0.000000 0.000000 0.000000 -0.113650 0.000000 0.000000
# 5 0.000000 0.000000 0.000000 0.000000 0.084076 0.000000
# 6 0.000000 0.000000 0.000000 0.000000 0.000000 0.116449
#
#
# Mechanical properties :
#
#
# Convention : Reuss Voigt Hill
#
# Bulk Modulus (GPa) = 10.25750 25.83314 18.04532
# Shear Modulus (GPa) = 21.84441 15.67483 18.75962
#
# Velocity S-wave (km/s) = 3.30663 2.80102 3.06427
# Velocity P-wave (km/s) = 4.43988 4.83645 4.64240
#
# Compressibility (1/GPa) = 0.09748964
#
# Stress axis : x y z
#
# Youngs Moduli (GPa) = 12.94923 54.50305 126.06923
#
# Poissons Ratio (x) = -0.30147 0.99889
# Poissons Ratio (y) = -0.07163 0.07757
# Poissons Ratio (z) = 0.10260 0.03354
#
# Static dielectric constant tensor:
#      x y z
#    x 1.692920 0.000000 0.000000 
#    y 0.000000 1.783640 0.000000 
#    z 0.000000 0.000000 1.733080 
# 
# From -- ./inp_files/31758.got.cif
#   From: 2010.05.17/outbox.cif.g08.bks.cpg/sg59_16_cif.got.tgz:31758.got - 2010.06.03 14:40:33.
