data_PCOD9453579
_publ_section_title
;
Structure prediction by ZEFSAII (Michael W. Deem and Ramdas Pophale) SiO2 
 PCOD9453579
Probable space group: P M M N
;
_chemical_formula_sum "Si O2"
_cell_formula_units_Z 64
_cell_length_a 24.000000
_cell_length_b 9.000000
_cell_length_c 15.000000
_cell_angle_alpha 90.000000
_cell_angle_beta 90.000000
_cell_angle_gamma 90.000000
_cell_volume 3240.000000
_symmetry_space_group_name_H-M "P M M N"
_symmetry_group_IT_number 59
_space_group.IT_coordinate_system_code '2'
_symmetry_cell_setting 'orthorhombic'
loop_
_space_group_symop_operation_xyz
x,y,z
1/2-x,1/2-y,z
1/2+x,-y,-z
-x,1/2+y,-z
-x,-y,-z
1/2+x,1/2+y,-z
1/2-x,y,z
x,1/2-y,z
loop_
_atom_site_type_symbol
_atom_site_label
_atom_site_fract_x
_atom_site_fract_y
_atom_site_fract_z
Si Si1 0.814476 0.925022 0.758602
Si Si2 0.392437 0.573489 0.096521
Si Si3 0.514540 0.922619 0.648000
Si Si4 0.129907 0.925404 0.398236
Si Si5 0.606162 0.426855 0.401200
Si Si6 0.187321 0.072447 0.739848
Si Si7 0.376985 0.426804 0.917641
Si Si8 0.508032 0.077302 0.140379
O O1 0.750000 0.949129 0.782307
O O2 0.827042 0.750000 0.766330
O O3 0.856448 0.015597 0.820744
O O4 0.826725 0.981028 0.659150
O O5 0.397452 0.750000 0.097767
O O6 0.453463 0.498860 0.099433
O O7 0.363438 0.513285 0.007601
O O8 0.526351 0.750000 0.623483
O O9 0.458366 0.976556 0.599412
O O10 0.500555 0.925236 0.753055
O O11 0.568078 0.021971 0.629657
O O12 0.136474 0.750000 0.381184
O O13 0.133609 0.953037 0.503314
O O14 0.603930 0.250000 0.384717
O O15 0.642241 0.501515 0.325079
O O16 0.250000 0.017694 0.723472
O O17 0.186575 0.250000 0.727040
O O18 0.167823 0.044537 0.840676
O O19 0.380448 0.250000 0.933551
O O20 0.436445 0.488806 0.884243
O O21 0.512550 0.250000 0.112056
#
# Coordination Sequence:
#
# PCOD9453579 Si02
#       8
#     8   8   8   8   8   8   8   8
#     4  11  25  45  66  87 117 160 207 253 302 357
#     4  12  25  41  64  93 125 158 199 249 304 366
#     4  10  20  36  61  89 124 162 200 243 299 363
#     4  11  23  38  62  93 126 159 199 247 302 361
#     4  10  22  40  61  91 125 161 200 247 301 356
#     4  10  23  42  63  88 118 157 205 253 298 351
#     4  11  23  40  63  91 125 162 203 250 304 363
#     4  11  21  37  63  92 125 161 201 247 301 364
#
# _framework density 19.753086
#
# number of rings (size 3 to 8) (size 9 to 14) (size 15 to 20)
#    0.000    1.250    2.500    3.375    0.000    4.750 
#    0.000    3.750    0.000    0.000    0.000    0.000 
#    0.000    0.000    0.000    0.000    0.000    0.000 
#
# Total GULP energy -357862.564676 kJ/mol
# GULP energy per Si atom -5591.602573 kJ/mol
# Density = 1.970813 g / cm^3
# Si number density = 19.753086 Si / 1000 Ang^3
#
#
#
# Elastic Constant Matrix: (Units=GPa)
#
#
# Indices 1 2 3 4 5 6 
#
# 1 46.6438 10.4249 -1.5515 0.0000 0.0000 0.0000
# 2 10.4249 51.2499 15.3786 0.0000 0.0000 0.0000
# 3 -1.5515 15.3786 44.9420 0.0000 0.0000 0.0000
# 4 0.0000 0.0000 0.0000 28.9446 0.0000 0.0000
# 5 0.0000 0.0000 0.0000 0.0000 4.6440 0.0000
# 6 0.0000 0.0000 0.0000 0.0000 0.0000 10.6189
#
#
#
# Elastic Compliance Matrix: (Units=1/GPa)
#
#
# Indices 1 2 3 4 5 6 
#
# 1 0.022738 -0.005417 0.002639 0.000000 0.000000 0.000000
# 2 -0.005417 0.023036 -0.008069 0.000000 0.000000 0.000000
# 3 0.002639 -0.008069 0.025103 0.000000 0.000000 0.000000
# 4 0.000000 0.000000 0.000000 0.034549 0.000000 0.000000
# 5 0.000000 0.000000 0.000000 0.000000 0.215331 0.000000
# 6 0.000000 0.000000 0.000000 0.000000 0.000000 0.094171
#
#
# Mechanical properties :
#
#
# Convention : Reuss Voigt Hill
#
# Bulk Modulus (GPa) = 20.33319 21.25998 20.79659
# Shear Modulus (GPa) = 11.03712 16.74708 13.89210
#
# Velocity S-wave (km/s) = 2.36636 2.91490 2.65483
# Velocity P-wave (km/s) = 4.21690 4.70266 4.46639
#
# Compressibility (1/GPa) = 0.04918068
#
# Stress axis : x y z
#
# Youngs Moduli (GPa) = 43.98014 43.41123 39.83546
#
# Poissons Ratio (x) = 0.23515 -0.10511
# Poissons Ratio (y) = 0.23824 0.32145
# Poissons Ratio (z) = -0.11604 0.35031
#
# Static dielectric constant tensor:
#      x y z
#    x 1.670780 0.000000 0.000000 
#    y 0.000000 1.659050 0.000000 
#    z 0.000000 0.000000 1.719500 
# 
# From -- ./inp_files/24696.got.cif
#   From: 2010.05.17/outbox.ucp.g08.bks.cvg/sg59_13_cif.got.tgz:24696.got - 2010.06.11 16:43:56.
