data_PCOD9453109
_publ_section_title
;
Structure prediction by ZEFSAII (Michael W. Deem and Ramdas Pophale) SiO2 
 PCOD9453109
Probable space group: P M M N
;
_chemical_formula_sum "Si O2"
_cell_formula_units_Z 48
_cell_length_a 8.518062
_cell_length_b 19.162981
_cell_length_c 13.612452
_cell_angle_alpha 90.000000
_cell_angle_beta 90.000000
_cell_angle_gamma 90.000000
_cell_volume 2221.980418
_symmetry_space_group_name_H-M "P M M N"
_symmetry_group_IT_number 59
_space_group.IT_coordinate_system_code '2'
_symmetry_cell_setting 'orthorhombic'
loop_
_space_group_symop_operation_xyz
x,y,z
1/2-x,1/2-y,z
1/2+x,-y,-z
-x,1/2+y,-z
-x,-y,-z
1/2+x,1/2+y,-z
1/2-x,y,z
x,1/2-y,z
loop_
_atom_site_type_symbol
_atom_site_label
_atom_site_fract_x
_atom_site_fract_y
_atom_site_fract_z
Si Si1 0.561875 0.033981 0.899740
Si Si2 0.440687 0.671899 0.003799
Si Si3 0.936331 0.169580 0.598812
Si Si4 0.565391 0.967264 0.310705
Si Si5 0.932076 0.165864 0.215161
Si Si6 0.932246 0.900852 0.593320
O O1 0.750000 0.026199 0.893648
O O2 0.484614 0.009973 0.798804
O O3 0.520014 0.115563 0.915064
O O4 0.500000 0.000000 0.000000
O O5 0.250000 0.674364 0.997871
O O6 0.497431 0.750000 0.023295
O O7 0.490929 0.648369 0.894513
O O8 0.750000 0.169031 0.615513
O O9 0.991238 0.250000 0.608686
O O10 0.012878 0.111977 0.669446
O O11 0.972559 0.140239 0.489907
O O12 0.750000 0.973474 0.322425
O O13 0.483782 0.019592 0.387491
O O14 0.750000 0.142282 0.226745
O O15 0.930508 0.250000 0.218996
O O16 0.034379 0.136514 0.302933
O O17 0.750000 0.898274 0.566676
#
# Coordination Sequence:
#
# PCOD9453109 Si02
#       6
#     8   8   8   8   8   8
#     4  11  22  38  62  92 125 163 209 258 312 371
#     4   8  16  32  55  82 113 153 200 248 299 359
#     4  11  25  46  70  95 125 162 204 250 306 374
#     4  12  26  44  65  90 125 165 208 260 314 367
#     4   9  17  32  56  87 123 163 207 254 308 369
#     4  12  24  39  62  92 126 162 205 256 311 372
#
# _framework density 21.602350000000001
#
# number of rings (size 3 to 8) (size 9 to 14) (size 15 to 20)
#    0.000    1.500    0.000    7.000    0.000    5.667 
#    0.000    2.500    0.000    3.500    0.000    0.000 
#    0.000    0.000    0.000    0.000    0.000    0.000 
#
# Total GULP energy -268446.305862 kJ/mol
# GULP energy per Si atom -5592.631372 kJ/mol
# Density = 2.155318 g / cm^3
# Si number density = 21.602350 Si / 1000 Ang^3
#
#
#
# Elastic Constant Matrix: (Units=GPa)
#
#
# Indices 1 2 3 4 5 6 
#
# 1 37.5314 -4.4668 -17.5289 0.0000 0.0000 0.0000
# 2 -4.4668 86.0019 3.3158 0.0000 0.0000 0.0000
# 3 -17.5289 3.3158 55.0373 0.0000 0.0000 0.0000
# 4 0.0000 0.0000 0.0000 34.7519 0.0000 0.0000
# 5 0.0000 0.0000 0.0000 0.0000 22.6070 0.0000
# 6 0.0000 0.0000 0.0000 0.0000 0.0000 27.2351
#
#
#
# Elastic Compliance Matrix: (Units=1/GPa)
#
#
# Indices 1 2 3 4 5 6 
#
# 1 0.031434 0.001250 0.009936 0.000000 0.000000 0.000000
# 2 0.001250 0.011704 -0.000307 0.000000 0.000000 0.000000
# 3 0.009936 -0.000307 0.021353 0.000000 0.000000 0.000000
# 4 0.000000 0.000000 0.000000 0.028775 0.000000 0.000000
# 5 0.000000 0.000000 0.000000 0.000000 0.044234 0.000000
# 6 0.000000 0.000000 0.000000 0.000000 0.000000 0.036717
#
#
# Mechanical properties :
#
#
# Convention : Reuss Voigt Hill
#
# Bulk Modulus (GPa) = 11.59454 15.69007 13.64231
# Shear Modulus (GPa) = 27.59234 30.06883 28.83059
#
# Velocity S-wave (km/s) = 3.57779 3.73490 3.65719
# Velocity P-wave (km/s) = 4.73776 5.08706 4.91551
#
# Compressibility (1/GPa) = 0.08624749
#
# Stress axis : x y z
#
# Youngs Moduli (GPa) = 31.81304 85.43797 46.83279
#
# Poissons Ratio (x) = -0.10676 -0.46533
# Poissons Ratio (y) = -0.03975 0.01439
# Poissons Ratio (z) = -0.31610 0.02624
#
# Static dielectric constant tensor:
#      x y z
#    x 1.705460 0.000000 0.000000 
#    y 0.000000 1.824490 0.000000 
#    z 0.000000 0.000000 1.761900 
# 
# From -- ./inp_files/20482.got.cif
#   From: 2010.05.17/outbox.cif.g08.bks.cpg/sg59_11_cif.got.tgz:20482.got - 2010.06.03 14:40:33.
