data_PCOD9453456
_publ_section_title
;
Structure prediction by ZEFSAII (Michael W. Deem and Ramdas Pophale) SiO2 
 PCOD9453456
Probable space group: P M M N
;
_chemical_formula_sum "Si O2"
_cell_formula_units_Z 64
_cell_length_a 24.000000
_cell_length_b 9.000000
_cell_length_c 18.000000
_cell_angle_alpha 90.000000
_cell_angle_beta 90.000000
_cell_angle_gamma 90.000000
_cell_volume 3888.000000
_symmetry_space_group_name_H-M "P M M N"
_symmetry_group_IT_number 59
_space_group.IT_coordinate_system_code '2'
_symmetry_cell_setting 'orthorhombic'
loop_
_space_group_symop_operation_xyz
x,y,z
1/2-x,1/2-y,z
1/2+x,-y,-z
-x,1/2+y,-z
-x,-y,-z
1/2+x,1/2+y,-z
1/2-x,y,z
x,1/2-y,z
loop_
_atom_site_type_symbol
_atom_site_label
_atom_site_fract_x
_atom_site_fract_y
_atom_site_fract_z
Si Si1 0.901951 0.428804 0.977898
Si Si2 0.183480 0.571389 0.739155
Si Si3 0.401748 0.069889 0.857367
Si Si4 0.817502 0.922209 0.418886
Si Si5 0.972763 0.429164 0.835278
Si Si6 0.316006 0.571259 0.424031
Si Si7 0.369285 0.930054 0.266232
Si Si8 0.315308 0.078022 0.127537
O O1 0.904213 0.250000 0.987016
O O2 0.949675 0.474952 0.917246
O O3 0.847057 0.479888 0.933333
O O4 0.901791 0.507176 0.058118
O O5 0.250000 0.539615 0.749714
O O6 0.176817 0.750000 0.739646
O O7 0.146109 0.498399 0.804295
O O8 0.166836 0.506923 0.657542
O O9 0.396824 0.250000 0.858934
O O10 0.463092 0.027479 0.825766
O O11 0.750000 0.924927 0.419797
O O12 0.835509 0.750000 0.415620
O O13 0.833987 0.996372 0.497839
O O14 0.971309 0.250000 0.836615
O O15 0.929816 0.472645 0.769285
O O16 0.250000 0.535447 0.410973
O O17 0.319427 0.750000 0.432659
O O18 0.352396 0.529998 0.350902
O O19 0.364453 0.750000 0.260950
O O20 0.327758 0.007633 0.208071
O O21 0.250000 0.076735 0.113275
O O22 0.334995 0.250000 0.125149
#
# Coordination Sequence:
#
# PCOD9453456 Si02
#       8
#     8   8   8   8   8   8   8   8
#     4  10  20  35  53  72  96 128 168 207 244 290
#     4  10  21  37  55  75 100 128 160 199 244 296
#     4  11  21  34  54  77 100 125 158 202 250 296
#     4   9  17  30  49  73 101 131 161 197 243 290
#     4   8  17  33  52  74  99 129 164 204 246 285
#     4   9  16  26  45  74 104 134 166 198 234 280
#     4   9  17  31  50  72 100 134 171 204 237 284
#     4  10  20  32  46  68 100 134 166 203 249 294
#
# _framework density 16.460905
#
# number of rings (size 3 to 8) (size 9 to 14) (size 15 to 20)
#    0.000    2.500    0.000    3.375    0.000    4.750 
#    0.000    6.875    0.000    0.750    0.000    0.000 
#    0.000    0.000    0.000    0.000    0.000    0.000 
#
# Total GULP energy -356578.789768 kJ/mol
# GULP energy per Si atom -5571.543590 kJ/mol
# Density = 1.642344 g / cm^3
# Si number density = 16.460905 Si / 1000 Ang^3
#
#
#
# Elastic Constant Matrix: (Units=GPa)
#
#
# Indices 1 2 3 4 5 6 
#
# 1 83.0272 32.0351 58.9313 0.0000 0.0000 0.0000
# 2 32.0351 69.3770 48.4231 0.0000 0.0000 0.0000
# 3 58.9313 48.4231 147.0896 0.0000 0.0000 0.0000
# 4 0.0000 0.0000 0.0000 30.9053 0.0000 0.0000
# 5 0.0000 0.0000 0.0000 0.0000 21.3581 0.0000
# 6 0.0000 0.0000 0.0000 0.0000 0.0000 16.4895
#
#
#
# Elastic Compliance Matrix: (Units=1/GPa)
#
#
# Indices 1 2 3 4 5 6 
#
# 1 0.017721 -0.004190 -0.005721 0.000000 0.000000 0.000000
# 2 -0.004190 0.019705 -0.004808 0.000000 0.000000 0.000000
# 3 -0.005721 -0.004808 0.010673 0.000000 0.000000 0.000000
# 4 0.000000 0.000000 0.000000 0.032357 0.000000 0.000000
# 5 0.000000 0.000000 0.000000 0.000000 0.046821 0.000000
# 6 0.000000 0.000000 0.000000 0.000000 0.000000 0.060645
#
#
# Mechanical properties :
#
#
# Convention : Reuss Voigt Hill
#
# Bulk Modulus (GPa) = 53.58565 64.25253 58.91909
# Shear Modulus (GPa) = 22.36335 24.42421 23.39378
#
# Velocity S-wave (km/s) = 3.68988 3.85615 3.77393
# Velocity P-wave (km/s) = 7.12584 7.67755 7.40683
#
# Compressibility (1/GPa) = 0.01866171
#
# Stress axis : x y z
#
# Youngs Moduli (GPa) = 56.42912 50.74909 93.69048
#
# Poissons Ratio (x) = 0.21264 0.53597
# Poissons Ratio (y) = 0.23644 0.45048
# Poissons Ratio (z) = 0.32281 0.24401
#
# Static dielectric constant tensor:
#      x y z
#    x 1.566280 0.000000 0.000000 
#    y 0.000000 1.558140 0.000000 
#    z 0.000000 0.000000 1.539800 
# 
# From -- ./inp_files/28474.got.cif
#   From: 2010.05.17/outbox.ucp.g08.bks.cvg/sg59_15_cif.got.tgz:28474.got - 2010.06.11 16:43:56.
