data_PCOD9453594
_publ_section_title
;
Structure prediction by ZEFSAII (Michael W. Deem and Ramdas Pophale) SiO2 
 PCOD9453594
Probable space group: P M M N
;
_chemical_formula_sum "Si O2"
_cell_formula_units_Z 64
_cell_length_a 24.000000
_cell_length_b 15.000000
_cell_length_c 9.000000
_cell_angle_alpha 90.000000
_cell_angle_beta 90.000000
_cell_angle_gamma 90.000000
_cell_volume 3240.000000
_symmetry_space_group_name_H-M "P M M N"
_symmetry_group_IT_number 59
_space_group.IT_coordinate_system_code '2'
_symmetry_cell_setting 'orthorhombic'
loop_
_space_group_symop_operation_xyz
x,y,z
1/2-x,1/2-y,z
1/2+x,-y,-z
-x,1/2+y,-z
-x,-y,-z
1/2+x,1/2+y,-z
1/2-x,y,z
x,1/2-y,z
loop_
_atom_site_type_symbol
_atom_site_label
_atom_site_fract_x
_atom_site_fract_y
_atom_site_fract_z
Si Si1 0.491057 0.469041 0.166197
Si Si2 0.815786 0.503945 0.927511
Si Si3 0.883335 0.643855 0.763494
Si Si4 0.970868 0.349478 0.657703
Si Si5 0.887698 0.013346 0.225010
Si Si6 0.688718 0.348061 0.377179
Si Si7 0.588481 0.647628 0.435672
Si Si8 0.344321 0.652198 0.302084
O O1 0.441312 0.399458 0.181099
O O2 0.476996 0.561292 0.248166
O O3 0.552086 0.439603 0.218379
O O4 0.500000 0.500000 0.000000
O O5 0.750000 0.500278 0.962144
O O6 0.833209 0.595697 0.847395
O O7 0.832065 0.424774 0.813994
O O8 0.856359 0.495342 0.068800
O O9 0.883704 0.750000 0.781097
O O10 0.881692 0.622128 0.587857
O O11 0.980394 0.250000 0.727787
O O12 0.905876 0.351204 0.623480
O O13 0.021124 0.356864 0.539710
O O14 0.848623 0.072455 0.325238
O O15 0.897139 0.917718 0.301870
O O16 0.750000 0.355339 0.309248
O O17 0.665892 0.250000 0.338510
O O18 0.693419 0.352513 0.554125
O O19 0.602055 0.750000 0.400522
O O20 0.338854 0.750000 0.229963
#
# Coordination Sequence:
#
# PCOD9453594 Si02
#       8
#     8   8   8   8   8   8   8   8
#     4  11  21  38  59  92 126 155 195 247 312 372
#     4  12  25  43  63  88 124 167 217 262 309 366
#     4  11  24  42  64  92 127 164 209 260 313 372
#     4   9  18  33  58  88 122 156 192 237 300 372
#     4  11  23  38  65  90 123 159 201 255 312 370
#     4  10  22  39  58  86 123 163 205 246 295 358
#     4   9  21  39  62  93 125 160 200 253 316 373
#     4  10  20  37  63  92 125 163 206 251 302 367
#
# _framework density 19.753086
#
# number of rings (size 3 to 8) (size 9 to 14) (size 15 to 20)
#    0.000    1.625    2.500    1.500    1.750    4.000 
#    0.000    0.625    0.000    2.625    0.000    0.000 
#    0.000    0.000    0.000    0.000    0.000    0.000 
#
# Total GULP energy -356632.873189 kJ/mol
# GULP energy per Si atom -5572.388644 kJ/mol
# Density = 1.970813 g / cm^3
# Si number density = 19.753086 Si / 1000 Ang^3
#
#
#
# Elastic Constant Matrix: (Units=GPa)
#
#
# Indices 1 2 3 4 5 6 
#
# 1 94.9854 28.5787 11.0537 0.0000 0.0000 0.0000
# 2 28.5787 68.0435 26.2491 0.0000 0.0000 0.0000
# 3 11.0537 26.2491 35.0536 0.0000 0.0000 0.0000
# 4 0.0000 0.0000 0.0000 54.7438 0.0000 0.0000
# 5 0.0000 0.0000 0.0000 0.0000 345.4055 0.0000
# 6 0.0000 0.0000 0.0000 0.0000 0.0000 -24.9106
#
#
#
# Elastic Compliance Matrix: (Units=1/GPa)
#
#
# Indices 1 2 3 4 5 6 
#
# 1 0.012051 -0.005056 -0.000014 0.000000 0.000000 0.000000
# 2 -0.005056 0.022788 -0.015470 0.000000 0.000000 0.000000
# 3 -0.000014 -0.015470 0.040116 0.000000 0.000000 0.000000
# 4 0.000000 0.000000 0.000000 0.018267 0.000000 0.000000
# 5 0.000000 0.000000 0.000000 0.000000 0.002895 0.000000
# 6 0.000000 0.000000 0.000000 0.000000 0.000000 -0.040144
#
#
# Mechanical properties :
#
#
# Convention : Reuss Voigt Hill
#
# Bulk Modulus (GPa) = 29.51995 36.64951 33.08473
# Shear Modulus (GPa) = 46.14881 83.86112 65.00497
#
# Velocity S-wave (km/s) = 4.83876 6.52280 5.74284
# Velocity P-wave (km/s) = 6.79669 8.67890 7.79481
#
# Compressibility (1/GPa) = 0.03387539
#
# Stress axis : x y z
#
# Youngs Moduli (GPa) = 82.98210 43.88300 24.92744
#
# Poissons Ratio (x) = 0.22187 0.00035
# Poissons Ratio (y) = 0.41956 0.38562
# Poissons Ratio (z) = 0.00116 0.67886
#
# Static dielectric constant tensor:
#      x y z
#    x 1.709820 0.000000 0.000000 
#    y 0.000000 1.672630 0.000000 
#    z 0.000000 0.000000 1.691360 
# 
# From -- ./inp_files/12190.got.cif
#   From: 2010.05.17/outbox.ucp.g08.bks.cvg/sg59_7_cif.got.tgz:12190.got - 2010.06.11 16:43:56.
