data_PCOD9453801
_publ_section_title
;
Structure prediction by ZEFSAII (Michael W. Deem and Ramdas Pophale) SiO2 
 PCOD9453801
Probable space group: P B C N
;
_chemical_formula_sum "Si O2"
_cell_formula_units_Z 52
_cell_length_a 13.091688
_cell_length_b 15.179280
_cell_length_c 10.333636
_cell_angle_alpha 90.000000
_cell_angle_beta 90.000000
_cell_angle_gamma 90.000000
_cell_volume 2053.524924
_symmetry_space_group_name_H-M "P B C N"
_symmetry_group_IT_number 60
_symmetry_cell_setting 'orthorhombic'
loop_
_space_group_symop_operation_xyz
x,y,z
1/2-x,1/2-y,1/2+z
1/2+x,1/2-y,-z
-x,y,1/2-z
-x,-y,-z
1/2+x,1/2+y,1/2-z
1/2-x,1/2+y,z
x,-y,1/2+z
loop_
_atom_site_type_symbol
_atom_site_label
_atom_site_fract_x
_atom_site_fract_y
_atom_site_fract_z
Si Si1 0.000000 0.612319 0.750000
Si Si2 0.354875 0.218206 0.377223
Si Si3 0.632879 0.054101 0.287021
Si Si4 0.640883 0.500724 0.809063
Si Si5 0.137416 0.649599 0.966447
Si Si6 0.280678 0.305482 0.122811
Si Si7 0.879071 0.097343 0.561621
O O1 0.092265 0.543171 0.734211
O O2 0.050337 0.667238 0.862530
O O3 0.399075 0.130467 0.312606
O O4 0.312922 0.193452 0.520313
O O5 0.420936 0.306413 0.400532
O O6 0.274715 0.256155 0.264075
O O7 0.600593 0.076943 0.432036
O O8 0.754598 0.050431 0.275177
O O9 0.592659 0.527941 0.672469
O O10 0.675183 0.596724 0.864141
O O11 0.594272 0.441151 0.922230
O O12 0.148082 0.738425 0.046644
O O13 0.254074 0.614130 0.937113
#
# Coordination Sequence:
#
# PCOD9453801 Si02
#       7
#     4   8   8   8   8   8   8
#     4  12  20  32  50  70 108 146 178 200 250 332
#     4   9  18  32  46  70 101 136 164 221 260 304
#     4  10  20  31  47  72 105 141 178 208 255 319
#     4  10  17  29  50  72  97 131 170 216 258 304
#     4   9  19  33  44  70 102 141 175 211 255 306
#     4   9  18  31  51  69  98 131 174 219 264 298
#     4   9  17  30  49  72 100 129 168 213 263 301
#
# _framework density 25.322310999999999
#
# number of rings (size 3 to 8) (size 9 to 14) (size 15 to 20)
#    0.000    2.462    1.538    2.308    2.154    0.000 
#    0.000    0.000    0.000    0.000    0.000    1.077 
#    0.000   17.231    0.000    0.154    0.000    0.000 
#
# Total GULP energy -289991.180390 kJ/mol
# GULP energy per Si atom -5576.753469 kJ/mol
# Density = 2.526468 g / cm^3
# Si number density = 25.322311 Si / 1000 Ang^3
#
#
#
# Elastic Constant Matrix: (Units=GPa)
#
#
# Indices 1 2 3 4 5 6 
#
# 1 62.6776 7.1052 35.9199 0.0000 0.0000 0.0000
# 2 7.1052 90.2505 36.5511 0.0000 0.0000 0.0000
# 3 35.9199 36.5511 99.7041 0.0000 0.0000 0.0000
# 4 0.0000 0.0000 0.0000 68.5341 0.0000 0.0000
# 5 0.0000 0.0000 0.0000 0.0000 35.8956 0.0000
# 6 0.0000 0.0000 0.0000 0.0000 0.0000 -17.3614
#
#
#
# Elastic Compliance Matrix: (Units=1/GPa)
#
#
# Indices 1 2 3 4 5 6 
#
# 1 0.020301 0.001602 -0.007901 0.000000 0.000000 0.000000
# 2 0.001602 0.013139 -0.005394 0.000000 0.000000 0.000000
# 3 -0.007901 -0.005394 0.014853 0.000000 0.000000 0.000000
# 4 0.000000 0.000000 0.000000 0.014591 0.000000 0.000000
# 5 0.000000 0.000000 0.000000 0.000000 0.027859 0.000000
# 6 0.000000 0.000000 0.000000 0.000000 0.000000 -0.057599
#
#
# Mechanical properties :
#
#
# Convention : Reuss Voigt Hill
#
# Bulk Modulus (GPa) = 40.14898 45.75386 42.95142
# Shear Modulus (GPa) = 77.12245 28.95072 53.03658
#
# Velocity S-wave (km/s) = 5.52471 3.38492 4.58149
# Velocity P-wave (km/s) = 7.52238 5.77795 6.70712
#
# Compressibility (1/GPa) = 0.02490723
#
# Stress axis : x y z
#
# Youngs Moduli (GPa) = 49.25856 76.11195 67.32491
#
# Poissons Ratio (x) = -0.12190 0.53193
# Poissons Ratio (y) = -0.07889 0.36312
# Poissons Ratio (z) = 0.38919 0.41051
#
# Static dielectric constant tensor:
#      x y z
#    x 2.138370 0.000000 0.000000 
#    y 0.000000 1.956320 0.000000 
#    z 0.000000 0.000000 0.077400 
# 
# From -- ./inp_files/6849.got.cif
#   From: 2010.05.17/outbox.cif.g08.bks.cpg/sg60_4_cif.got.tgz:6849.got - 2010.06.03 14:59:27.
