data_PCOD9453666
_publ_section_title
;
Structure prediction by ZEFSAII (Michael W. Deem and Ramdas Pophale) SiO2 
 PCOD9453666
Probable space group: P M M N
;
_chemical_formula_sum "Si O2"
_cell_formula_units_Z 56
_cell_length_a 15.000000
_cell_length_b 21.000000
_cell_length_c 9.000000
_cell_angle_alpha 90.000000
_cell_angle_beta 90.000000
_cell_angle_gamma 90.000000
_cell_volume 2835.000000
_symmetry_space_group_name_H-M "P M M N"
_symmetry_group_IT_number 59
_space_group.IT_coordinate_system_code '2'
_symmetry_cell_setting 'orthorhombic'
loop_
_space_group_symop_operation_xyz
x,y,z
1/2-x,1/2-y,z
1/2+x,-y,-z
-x,1/2+y,-z
-x,-y,-z
1/2+x,1/2+y,-z
1/2-x,y,z
x,1/2-y,z
loop_
_atom_site_type_symbol
_atom_site_label
_atom_site_fract_x
_atom_site_fract_y
_atom_site_fract_z
Si Si1 0.022368 0.820556 0.879831
Si Si2 0.857714 0.674690 0.673222
Si Si3 0.406072 0.035915 0.460081
Si Si4 0.149720 0.581375 0.265729
Si Si5 0.850569 0.932391 0.224745
Si Si6 0.645261 0.437393 0.088845
Si Si7 0.503125 0.823492 0.232482
O O1 0.055354 0.750000 0.828902
O O2 0.084051 0.881567 0.840205
O O3 0.921458 0.826717 0.818352
O O4 0.019997 0.818843 0.057936
O O5 0.750000 0.665440 0.691790
O O6 0.867028 0.750000 0.616944
O O7 0.897283 0.611279 0.588170
O O8 0.351826 0.036168 0.612815
O O9 0.500000 0.000000 0.500000
O O10 0.366438 0.987582 0.338939
O O11 0.250000 0.603018 0.302247
O O12 0.075591 0.634435 0.307780
O O13 0.143315 0.572338 0.088226
O O14 0.750000 0.916603 0.178023
O O15 0.910388 0.869230 0.235774
O O16 0.886636 0.990495 0.123540
O O17 0.750000 0.432859 0.135498
O O18 0.513043 0.750000 0.286741
#
# Coordination Sequence:
#
# PCOD9453666 Si02
#       7
#     8   8   8   8   8   8   8
#     4   9  19  35  58  87 119 154 195 244 294 345
#     4  10  22  39  60  88 123 163 205 245 291 356
#     4  12  23  40  61  88 118 155 196 250 298 350
#     4  10  21  39  64  89 115 155 200 247 297 351
#     4  11  23  38  57  86 120 155 192 240 298 350
#     4   9  20  37  60  89 119 154 199 245 294 354
#     4  10  22  38  57  86 119 155 197 241 295 354
#
# _framework density 19.753086
#
# number of rings (size 3 to 8) (size 9 to 14) (size 15 to 20)
#    0.000    1.857    1.429    2.143    2.000    3.143 
#    0.000    4.286    0.000    0.000    0.000    2.000 
#    0.000    0.000    0.000    0.000    0.000    0.000 
#
# Total GULP energy -311900.892392 kJ/mol
# GULP energy per Si atom -5569.658793 kJ/mol
# Density = 1.970813 g / cm^3
# Si number density = 19.753086 Si / 1000 Ang^3
#
#
#
# Elastic Constant Matrix: (Units=GPa)
#
#
# Indices 1 2 3 4 5 6 
#
# 1 110.3662 78.4487 7.2295 0.0000 0.0000 0.0000
# 2 78.4487 193.1316 15.4199 0.0000 0.0000 0.0000
# 3 7.2295 15.4199 22.8005 0.0000 0.0000 0.0000
# 4 0.0000 0.0000 0.0000 24.7207 0.0000 0.0000
# 5 0.0000 0.0000 0.0000 0.0000 24.1384 0.0000
# 6 0.0000 0.0000 0.0000 0.0000 0.0000 35.8460
#
#
#
# Elastic Compliance Matrix: (Units=1/GPa)
#
#
# Indices 1 2 3 4 5 6 
#
# 1 0.012746 -0.005132 -0.000571 0.000000 0.000000 0.000000
# 2 -0.005132 0.007539 -0.003472 0.000000 0.000000 0.000000
# 3 -0.000571 -0.003472 0.046388 0.000000 0.000000 0.000000
# 4 0.000000 0.000000 0.000000 0.040452 0.000000 0.000000
# 5 0.000000 0.000000 0.000000 0.000000 0.041428 0.000000
# 6 0.000000 0.000000 0.000000 0.000000 0.000000 0.027897
#
#
# Mechanical properties :
#
#
# Convention : Reuss Voigt Hill
#
# Bulk Modulus (GPa) = 20.69355 58.72160 39.70757
# Shear Modulus (GPa) = 23.70723 31.95439 27.83081
#
# Velocity S-wave (km/s) = 3.46812 4.02642 3.75765
# Velocity P-wave (km/s) = 5.15131 7.16996 6.24277
#
# Compressibility (1/GPa) = 0.04832425
#
# Stress axis : x y z
#
# Youngs Moduli (GPa) = 78.45761 132.63564 21.55749
#
# Poissons Ratio (x) = 0.68064 0.01231
# Poissons Ratio (y) = 0.40262 0.07484
# Poissons Ratio (z) = 0.04479 0.46048
#
# Static dielectric constant tensor:
#      x y z
#    x 1.729810 0.000000 0.000000 
#    y 0.000000 1.717400 0.000000 
#    z 0.000000 0.000000 1.718050 
# 
# From -- ./inp_files/9385.got.cif
#   From: 2010.05.17/outbox.ucp.g08.bks.cvg/sg59_5_cif.got.tgz:9385.got - 2010.06.11 16:43:56.
