data_PCOD9453247
_publ_section_title
;
Structure prediction by ZEFSAII (Michael W. Deem and Ramdas Pophale) SiO2 
 PCOD9453247
Probable space group: P M M N
;
_chemical_formula_sum "Si O2"
_cell_formula_units_Z 56
_cell_length_a 25.777351
_cell_length_b 7.624395
_cell_length_c 16.750183
_cell_angle_alpha 90.000000
_cell_angle_beta 90.000000
_cell_angle_gamma 90.000000
_cell_volume 3292.025793
_symmetry_space_group_name_H-M "P M M N"
_symmetry_group_IT_number 59
_space_group.IT_coordinate_system_code '2'
_symmetry_cell_setting 'orthorhombic'
loop_
_space_group_symop_operation_xyz
x,y,z
1/2-x,1/2-y,z
1/2+x,-y,-z
-x,1/2+y,-z
-x,-y,-z
1/2+x,1/2+y,-z
1/2-x,y,z
x,1/2-y,z
loop_
_atom_site_type_symbol
_atom_site_label
_atom_site_fract_x
_atom_site_fract_y
_atom_site_fract_z
Si Si1 0.403395 0.956537 0.630215
Si Si2 0.692384 0.462101 0.269019
Si Si3 0.583200 0.960888 0.021260
Si Si4 0.985975 0.960774 0.874491
Si Si5 0.192071 0.459628 0.917457
Si Si6 0.057412 0.457943 0.466215
Si Si7 0.014891 0.465533 0.305575
O O1 0.404499 0.750000 0.647748
O O2 0.353242 0.030005 0.674484
O O3 0.457625 0.025585 0.666063
O O4 0.404310 0.974573 0.534491
O O5 0.750000 0.525286 0.290968
O O6 0.693067 0.250000 0.273801
O O7 0.683378 0.508989 0.176686
O O8 0.586312 0.750000 0.014870
O O9 0.641237 0.028415 0.036890
O O10 0.543892 0.999156 0.094143
O O11 0.554086 0.027684 0.941698
O O12 0.981488 0.750000 0.873033
O O13 0.976006 0.024008 0.784795
O O14 0.250000 0.528640 0.937353
O O15 0.193660 0.250000 0.930032
O O16 0.063736 0.250000 0.464307
O O17 0.000000 0.500000 0.500000
O O18 0.055159 0.521918 0.374716
O O19 0.014967 0.250000 0.306110
#
# Coordination Sequence:
#
# PCOD9453247 Si02
#       7
#     8   8   8   8   8   8   8
#     4   9  16  26  39  56  79 103 127 158 194 230
#     4   9  17  28  42  60  80 104 136 167 192 227
#     4   9  17  27  39  58  80 102 131 162 194 235
#     4   9  16  27  42  57  77 105 131 159 197 237
#     4   9  17  28  40  56  81 108 132 162 198 234
#     4   9  16  26  39  56  77 100 128 158 189 228
#     4   8  14  24  38  55  74  99 128 154 184 225
#
# _framework density 17.010802000000002
#
# number of rings (size 3 to 8) (size 9 to 14) (size 15 to 20)
#    0.000    3.143    0.000    2.143    0.000    2.286 
#    0.000    5.000    0.000    0.000    0.000    1.000 
#    0.000    3.429    0.000    0.000    0.000    0.000 
#
# Total GULP energy -311795.296623 kJ/mol
# GULP energy per Si atom -5567.773154 kJ/mol
# Density = 1.697208 g / cm^3
# Si number density = 17.010802 Si / 1000 Ang^3
#
#
#
# Elastic Constant Matrix: (Units=GPa)
#
#
# Indices 1 2 3 4 5 6 
#
# 1 111.4221 2.8739 52.2975 0.0000 0.0000 0.0000
# 2 2.8739 30.2489 -6.4158 0.0000 0.0000 0.0000
# 3 52.2975 -6.4158 103.6951 0.0000 0.0000 0.0000
# 4 0.0000 0.0000 0.0000 12.3317 0.0000 0.0000
# 5 0.0000 0.0000 0.0000 0.0000 26.8039 0.0000
# 6 0.0000 0.0000 0.0000 0.0000 0.0000 10.0834
#
#
#
# Elastic Compliance Matrix: (Units=1/GPa)
#
#
# Indices 1 2 3 4 5 6 
#
# 1 0.011934 -0.002442 -0.006170 0.000000 0.000000 0.000000
# 2 -0.002442 0.033999 0.003335 0.000000 0.000000 0.000000
# 3 -0.006170 0.003335 0.012962 0.000000 0.000000 0.000000
# 4 0.000000 0.000000 0.000000 0.081092 0.000000 0.000000
# 5 0.000000 0.000000 0.000000 0.000000 0.037308 0.000000
# 6 0.000000 0.000000 0.000000 0.000000 0.000000 0.099173
#
#
# Mechanical properties :
#
#
# Convention : Reuss Voigt Hill
#
# Bulk Modulus (GPa) = 20.68666 38.09748 29.39207
# Shear Modulus (GPa) = 16.49436 22.95116 19.72276
#
# Velocity S-wave (km/s) = 3.11728 3.67715 3.40873
# Velocity P-wave (km/s) = 5.01437 6.36186 5.72787
#
# Compressibility (1/GPa) = 0.04834034
#
# Stress axis : x y z
#
# Youngs Moduli (GPa) = 83.79595 29.41301 77.15044
#
# Poissons Ratio (x) = 0.07184 0.47600
# Poissons Ratio (y) = 0.20467 -0.25733
# Poissons Ratio (z) = 0.51700 -0.09810
#
# Static dielectric constant tensor:
#      x y z
#    x 1.586930 0.000000 0.000000 
#    y 0.000000 1.635620 0.000000 
#    z 0.000000 0.000000 1.592420 
# 
# From -- ./inp_files/28360.got.cif
#   From: 2010.05.17/outbox.cif.g08.bks.cpg/sg59_15_cif.got.tgz:28360.got - 2010.06.03 14:40:33.
