data_PCOD9453053
_publ_section_title
;
Structure prediction by ZEFSAII (Michael W. Deem and Ramdas Pophale) SiO2 
 PCOD9453053
Probable space group: P M M N
;
_chemical_formula_sum "Si O2"
_cell_formula_units_Z 48
_cell_length_a 15.101407
_cell_length_b 8.390083
_cell_length_c 20.235365
_cell_angle_alpha 90.000000
_cell_angle_beta 90.000000
_cell_angle_gamma 90.000000
_cell_volume 2563.862393
_symmetry_space_group_name_H-M "P M M N"
_symmetry_group_IT_number 59
_space_group.IT_coordinate_system_code '2'
_symmetry_cell_setting 'orthorhombic'
loop_
_space_group_symop_operation_xyz
x,y,z
1/2-x,1/2-y,z
1/2+x,-y,-z
-x,1/2+y,-z
-x,-y,-z
1/2+x,1/2+y,-z
1/2-x,y,z
x,1/2-y,z
loop_
_atom_site_type_symbol
_atom_site_label
_atom_site_fract_x
_atom_site_fract_y
_atom_site_fract_z
Si Si1 0.148840 0.444494 0.084781
Si Si2 0.988280 0.061117 0.173302
Si Si3 0.645031 0.559289 0.064650
Si Si4 0.443449 0.440596 0.437395
Si Si5 0.439960 0.060206 0.682880
Si Si6 0.750000 0.555678 0.368720
Si Si7 0.250000 0.444338 0.477095
O O1 0.250000 0.494945 0.096968
O O2 0.148601 0.250000 0.084310
O O3 0.078988 0.498267 0.139178
O O4 0.122375 0.492926 0.010251
O O5 0.995937 0.250000 0.183619
O O6 0.911942 0.025979 0.120032
O O7 0.966556 0.982880 0.243008
O O8 0.750000 0.532468 0.073425
O O9 0.630121 0.750000 0.069507
O O10 0.500000 0.500000 0.500000
O O11 0.441854 0.250000 0.440167
O O12 0.491643 0.492858 0.370641
O O13 0.341848 0.498247 0.444232
O O14 0.439082 0.250000 0.675216
O O15 0.340583 0.001120 0.665725
O O16 0.750000 0.750000 0.366864
O O17 0.750000 0.509037 0.445707
O O18 0.250000 0.250000 0.475543
#
# Coordination Sequence:
#
# PCOD9453053 Si02
#       7
#     8   8   8   8   8   4   4
#     4   8  16  34  58  80 105 143 191 232 273 337
#     4  11  22  35  54  83 115 146 184 232 283 332
#     4   9  18  34  57  82 108 145 188 227 275 338
#     4  11  21  38  62  88 115 147 188 233 278 332
#     4  11  23  40  59  81 114 152 190 229 273 335
#     4   9  18  36  60  82 106 147 186 215 268 336
#     4   9  18  36  62  86 110 145 186 223 274 340
#
# _framework density 18.721754000000001
#
# number of rings (size 3 to 8) (size 9 to 14) (size 15 to 20)
#    0.000    2.167    1.667    3.000    1.167    0.333 
#    1.500    4.583    0.000    3.500    0.000    0.000 
#    0.000    0.000    0.000    0.000    0.000    0.000 
#
# Total GULP energy -267969.022592 kJ/mol
# GULP energy per Si atom -5582.687971 kJ/mol
# Density = 1.867914 g / cm^3
# Si number density = 18.721754 Si / 1000 Ang^3
#
#
#
# Elastic Constant Matrix: (Units=GPa)
#
#
# Indices 1 2 3 4 5 6 
#
# 1 145.8633 22.8908 95.5919 0.0000 0.0000 0.0000
# 2 22.8908 22.1214 13.8673 0.0000 0.0000 0.0000
# 3 95.5919 13.8673 137.3971 0.0000 0.0000 0.0000
# 4 0.0000 0.0000 0.0000 28.1760 0.0000 0.0000
# 5 0.0000 0.0000 0.0000 0.0000 -8.1092 0.0000
# 6 0.0000 0.0000 0.0000 0.0000 0.0000 25.0022
#
#
#
# Elastic Compliance Matrix: (Units=1/GPa)
#
#
# Indices 1 2 3 4 5 6 
#
# 1 0.014106 -0.009015 -0.008904 0.000000 0.000000 0.000000
# 2 -0.009015 0.054019 0.000820 0.000000 0.000000 0.000000
# 3 -0.008904 0.000820 0.013390 0.000000 0.000000 0.000000
# 4 0.000000 0.000000 0.000000 0.035491 0.000000 0.000000
# 5 0.000000 0.000000 0.000000 0.000000 -0.123317 0.000000
# 6 0.000000 0.000000 0.000000 0.000000 0.000000 0.039997
#
#
# Mechanical properties :
#
#
# Convention : Reuss Voigt Hill
#
# Bulk Modulus (GPa) = 21.13384 63.34242 42.23813
# Shear Modulus (GPa) = 59.76863 20.54926 40.15895
#
# Velocity S-wave (km/s) = 5.65632 3.31662 4.63648
# Velocity P-wave (km/s) = 7.34653 6.96948 7.16049
#
# Compressibility (1/GPa) = 0.04731747
#
# Stress axis : x y z
#
# Youngs Moduli (GPa) = 70.89361 18.51188 74.68128
#
# Poissons Ratio (x) = 0.16688 0.66496
# Poissons Ratio (y) = 0.63907 -0.06121
# Poissons Ratio (z) = 0.63123 -0.01517
#
# Static dielectric constant tensor:
#      x y z
#    x 1.658420 0.000000 0.000000 
#    y 0.000000 1.665480 0.000000 
#    z 0.000000 0.000000 1.606530 
# 
# From -- ./inp_files/27456.got.cif
#   From: 2010.05.17/outbox.cif.g08.bks.cpg/sg59_14_cif.got.tgz:27456.got - 2010.06.03 14:40:33.
