data_PCOD9453446
_publ_section_title
;
Structure prediction by ZEFSAII (Michael W. Deem and Ramdas Pophale) SiO2 
 PCOD9453446
Probable space group: P M M N
;
_chemical_formula_sum "Si O2"
_cell_formula_units_Z 64
_cell_length_a 9.000000
_cell_length_b 30.000000
_cell_length_c 12.000000
_cell_angle_alpha 90.000000
_cell_angle_beta 90.000000
_cell_angle_gamma 90.000000
_cell_volume 3240.000000
_symmetry_space_group_name_H-M "P M M N"
_symmetry_group_IT_number 59
_space_group.IT_coordinate_system_code '2'
_symmetry_cell_setting 'orthorhombic'
loop_
_space_group_symop_operation_xyz
x,y,z
1/2-x,1/2-y,z
1/2+x,-y,-z
-x,1/2+y,-z
-x,-y,-z
1/2+x,1/2+y,-z
1/2-x,y,z
x,1/2-y,z
loop_
_atom_site_type_symbol
_atom_site_label
_atom_site_fract_x
_atom_site_fract_y
_atom_site_fract_z
Si Si1 0.081696 0.928493 0.276106
Si Si2 0.926868 0.951579 0.499842
Si Si3 0.424902 0.799363 0.429704
Si Si4 0.573665 0.638597 0.595402
Si Si5 0.085189 0.672320 0.189210
Si Si6 0.572681 0.198208 0.214873
Si Si7 0.576362 0.644286 0.981171
Si Si8 0.071367 0.456539 0.945101
O O1 0.250000 0.945100 0.297320
O O2 0.093770 0.877641 0.237660
O O3 0.980286 0.931663 0.383300
O O4 0.001430 0.953921 0.176465
O O5 0.750000 0.955929 0.505864
O O6 0.972388 0.913534 0.589548
O O7 0.000000 0.000000 0.500000
O O8 0.250000 0.809919 0.450470
O O9 0.454357 0.750000 0.476699
O O10 0.528441 0.836739 0.481491
O O11 0.444223 0.798427 0.297060
O O12 0.750000 0.639798 0.612330
O O13 0.492726 0.669240 0.684740
O O14 0.250000 0.683489 0.142804
O O15 0.960265 0.669336 0.096526
O O16 0.750000 0.198811 0.222117
O O17 0.521503 0.250000 0.214003
O O18 0.519482 0.170656 0.108075
O O19 0.750000 0.646601 0.953283
O O20 0.537390 0.591571 0.996331
O O21 0.250000 0.460036 0.940305
O O22 0.000000 0.500000 0.000000
#
# Coordination Sequence:
#
# PCOD9453446 Si02
#       8
#     8   8   8   8   8   8   8   8
#     4  10  19  35  59  83 114 156 197 244 302 358
#     4  11  24  40  60  88 120 158 203 252 308 370
#     4  10  20  35  58  88 120 155 196 239 287 349
#     4  11  24  41  62  88 121 157 200 253 308 365
#     4   9  18  34  57  85 118 156 195 238 292 354
#     4  11  25  44  66  90 120 164 214 261 313 378
#     4  10  22  39  61  89 122 158 202 256 310 365
#     4  10  21  37  59  89 124 162 206 255 308 369
#
# _framework density 19.753086
#
# number of rings (size 3 to 8) (size 9 to 14) (size 15 to 20)
#    0.000    1.750    1.250    2.625    0.000    8.250 
#    0.000    2.500    0.000    0.000    0.000    0.000 
#    0.000    0.000    0.000    0.000    0.000    0.000 
#
# Total GULP energy -356944.273281 kJ/mol
# GULP energy per Si atom -5577.254270 kJ/mol
# Density = 1.970813 g / cm^3
# Si number density = 19.753086 Si / 1000 Ang^3
#
#
#
# Elastic Constant Matrix: (Units=GPa)
#
#
# Indices 1 2 3 4 5 6 
#
# 1 52.0063 48.3563 15.2498 0.0000 0.0000 0.0000
# 2 48.3563 85.2988 29.8397 0.0000 0.0000 0.0000
# 3 15.2498 29.8397 51.9516 0.0000 0.0000 0.0000
# 4 0.0000 0.0000 0.0000 18.7638 0.0000 0.0000
# 5 0.0000 0.0000 0.0000 0.0000 56.5137 0.0000
# 6 0.0000 0.0000 0.0000 0.0000 0.0000 25.1581
#
#
#
# Elastic Compliance Matrix: (Units=1/GPa)
#
#
# Indices 1 2 3 4 5 6 
#
# 1 0.040773 -0.023687 0.001637 0.000000 0.000000 0.000000
# 2 -0.023687 0.028432 -0.009378 0.000000 0.000000 0.000000
# 3 0.001637 -0.009378 0.024155 0.000000 0.000000 0.000000
# 4 0.000000 0.000000 0.000000 0.053294 0.000000 0.000000
# 5 0.000000 0.000000 0.000000 0.000000 0.017695 0.000000
# 6 0.000000 0.000000 0.000000 0.000000 0.000000 0.039749
#
#
# Mechanical properties :
#
#
# Convention : Reuss Voigt Hill
#
# Bulk Modulus (GPa) = 32.78268 41.79427 37.28847
# Shear Modulus (GPa) = 18.04261 26.47453 22.25857
#
# Velocity S-wave (km/s) = 3.02554 3.66495 3.36049
# Velocity P-wave (km/s) = 5.37005 6.25407 5.82884
#
# Compressibility (1/GPa) = 0.03050392
#
# Stress axis : x y z
#
# Youngs Moduli (GPa) = 24.52594 35.17117 41.40006
#
# Poissons Ratio (x) = 0.83310 -0.06776
# Poissons Ratio (y) = 0.58095 0.38824
# Poissons Ratio (z) = -0.04014 0.32983
#
# Static dielectric constant tensor:
#      x y z
#    x 1.666350 0.000000 0.000000 
#    y 0.000000 1.714560 0.000000 
#    z 0.000000 0.000000 1.542940 
# 
# From -- ./inp_files/15027.got.cif
#   From: 2010.05.17/outbox.ucp.g08.bks.cvg/sg59_8_cif.got.tgz:15027.got - 2010.06.11 16:43:56.
