data_PCOD9453831
_publ_section_title
;
Structure prediction by ZEFSAII (Michael W. Deem and Ramdas Pophale) SiO2 
 PCOD9453831
Probable space group: P B C N
;
_chemical_formula_sum "Si O2"
_cell_formula_units_Z 52
_cell_length_a 18.179655
_cell_length_b 16.373515
_cell_length_c 7.362752
_cell_angle_alpha 90.000000
_cell_angle_beta 90.000000
_cell_angle_gamma 90.000000
_cell_volume 2191.632498
_symmetry_space_group_name_H-M "P B C N"
_symmetry_group_IT_number 60
_symmetry_cell_setting 'orthorhombic'
loop_
_space_group_symop_operation_xyz
x,y,z
1/2-x,1/2-y,1/2+z
1/2+x,1/2-y,-z
-x,y,1/2-z
-x,-y,-z
1/2+x,1/2+y,1/2-z
1/2-x,1/2+y,z
x,-y,1/2+z
loop_
_atom_site_type_symbol
_atom_site_label
_atom_site_fract_x
_atom_site_fract_y
_atom_site_fract_z
Si Si1 0.828542 0.054671 0.078772
Si Si2 0.942264 0.555292 0.110801
Si Si3 0.714435 0.625127 0.727989
Si Si4 0.069452 0.047895 0.124081
Si Si5 0.062286 0.190400 0.893728
Si Si6 0.000000 0.721985 0.750000
Si Si7 0.623878 0.107674 0.751943
O O1 0.863641 0.089317 0.261532
O O2 0.797145 0.965282 0.133675
O O3 0.781569 0.110139 0.946996
O O4 0.896466 0.036514 0.942276
O O5 0.887610 0.488187 0.201397
O O6 0.000000 0.597144 0.250000
O O7 0.896210 0.608660 0.968221
O O8 0.000000 0.500000 0.000000
O O9 0.648261 0.687026 0.672914
O O10 0.799125 0.644169 0.687254
O O11 0.000000 0.048632 0.250000
O O12 0.052502 0.095307 0.941852
O O13 0.000000 0.214767 0.750000
O O14 0.040376 0.228836 0.089689
O O15 0.939695 0.662013 0.663034
#
# Coordination Sequence:
#
# PCOD9453831 Si02
#       7
#     8   8   8   8   8   4   8
#     4   9  19  32  58  95 134 154 203 269 354 398
#     4   9  17  35  66 101 137 159 196 271 350 416
#     4  10  21  38  63 100 130 171 216 282 340 401
#     4  10  17  32  57  89 120 168 209 265 322 393
#     4  11  25  45  64  85 131 180 233 275 320 382
#     4  12  26  46  66  88 128 184 232 272 322 400
#     4  11  21  41  69 100 133 166 219 272 350 412
#
# _framework density 23.726606
#
# number of rings (size 3 to 8) (size 9 to 14) (size 15 to 20)
#    0.000    1.846    3.077    2.308    0.000    4.923 
#    2.769    0.000    0.000    0.000    0.000    0.000 
#    0.000    0.000    0.000    0.000    0.000    0.000 
#
# Total GULP energy -289534.105834 kJ/mol
# GULP energy per Si atom -5567.963574 kJ/mol
# Density = 2.367260 g / cm^3
# Si number density = 23.726606 Si / 1000 Ang^3
#
#
#
# Elastic Constant Matrix: (Units=GPa)
#
#
# Indices 1 2 3 4 5 6 
#
# 1 173.3487 28.0659 27.5015 0.0000 0.0000 0.0000
# 2 28.0659 42.7666 12.2771 0.0000 0.0000 0.0000
# 3 27.5015 12.2771 103.3533 0.0000 0.0000 0.0000
# 4 0.0000 0.0000 0.0000 12.4445 0.0000 0.0000
# 5 0.0000 0.0000 0.0000 0.0000 30.6477 0.0000
# 6 0.0000 0.0000 0.0000 0.0000 0.0000 13.6760
#
#
#
# Elastic Compliance Matrix: (Units=1/GPa)
#
#
# Indices 1 2 3 4 5 6 
#
# 1 0.006616 -0.003972 -0.001289 0.000000 0.000000 0.000000
# 2 -0.003972 0.026593 -0.002102 0.000000 0.000000 0.000000
# 3 -0.001289 -0.002102 0.010268 0.000000 0.000000 0.000000
# 4 0.000000 0.000000 0.000000 0.080357 0.000000 0.000000
# 5 0.000000 0.000000 0.000000 0.000000 0.032629 0.000000
# 6 0.000000 0.000000 0.000000 0.000000 0.000000 0.073121
#
#
# Mechanical properties :
#
#
# Convention : Reuss Voigt Hill
#
# Bulk Modulus (GPa) = 34.78039 50.57305 42.67672
# Shear Modulus (GPa) = 19.69332 28.12858 23.91095
#
# Velocity S-wave (km/s) = 2.88411 3.44689 3.17798
# Velocity P-wave (km/s) = 5.07754 6.09939 5.61177
#
# Compressibility (1/GPa) = 0.02875184
#
# Stress axis : x y z
#
# Youngs Moduli (GPa) = 151.14279 37.60414 97.38850
#
# Poissons Ratio (x) = 0.14936 0.12551
# Poissons Ratio (y) = 0.60034 0.20471
# Poissons Ratio (z) = 0.19478 0.07904
#
# Static dielectric constant tensor:
#      x y z
#    x 2.079720 0.000000 0.000000 
#    y 0.000000 2.034670 0.000000 
#    z 0.000000 0.000000 2.023940 
# 
# From -- ./inp_files/6870.got.cif
#   From: 2010.05.17/outbox.cif.g08.bks.cpg/sg60_4_cif.got.tgz:6870.got - 2010.06.03 14:59:27.
