data_PCOD9453466
_publ_section_title
;
Structure prediction by ZEFSAII (Michael W. Deem and Ramdas Pophale) SiO2 
 PCOD9453466
Probable space group: P M M N
;
_chemical_formula_sum "Si O2"
_cell_formula_units_Z 48
_cell_length_a 18.000000
_cell_length_b 9.000000
_cell_length_c 15.000000
_cell_angle_alpha 90.000000
_cell_angle_beta 90.000000
_cell_angle_gamma 90.000000
_cell_volume 2430.000000
_symmetry_space_group_name_H-M "P M M N"
_symmetry_group_IT_number 59
_space_group.IT_coordinate_system_code '2'
_symmetry_cell_setting 'orthorhombic'
loop_
_space_group_symop_operation_xyz
x,y,z
1/2-x,1/2-y,z
1/2+x,-y,-z
-x,1/2+y,-z
-x,-y,-z
1/2+x,1/2+y,-z
1/2-x,y,z
x,1/2-y,z
loop_
_atom_site_type_symbol
_atom_site_label
_atom_site_fract_x
_atom_site_fract_y
_atom_site_fract_z
Si Si1 0.664849 0.079639 0.749722
Si Si2 0.899899 0.430632 0.189267
Si Si3 0.560511 0.924462 0.881296
Si Si4 0.588191 0.075010 0.574617
Si Si5 0.169719 0.571105 0.985276
Si Si6 0.932469 0.428979 0.381142
O O1 0.750000 0.065802 0.774669
O O2 0.640930 0.250000 0.772206
O O3 0.653741 0.060044 0.644627
O O4 0.614273 0.962102 0.799249
O O5 0.899809 0.250000 0.191945
O O6 0.838650 0.473231 0.117761
O O7 0.895645 0.484669 0.290302
O O8 0.979191 0.476031 0.147925
O O9 0.557203 0.750000 0.900101
O O10 0.599932 0.008631 0.961783
O O11 0.567864 0.250000 0.571999
O O12 0.605535 0.027664 0.474075
O O13 0.516491 0.987620 0.610142
O O14 0.250000 0.520211 0.019902
O O15 0.167749 0.750000 0.991638
O O16 0.934306 0.250000 0.376539
#
# Coordination Sequence:
#
# PCOD9453466 Si02
#       6
#     8   8   8   8   8   8
#     4  10  20  33  48  71 106 140 169 205 251 302
#     4   9  18  33  53  77 101 128 165 209 251 295
#     4  11  21  34  53  76 100 129 168 213 255 298
#     4   9  17  29  48  73  99 130 165 200 242 291
#     4  10  21  37  54  72  99 134 167 203 253 308
#     4   9  16  30  51  73  99 127 160 204 246 286
#
# _framework density 19.753086
#
# number of rings (size 3 to 8) (size 9 to 14) (size 15 to 20)
#    0.000    2.333    1.667    1.500    0.000    2.667 
#    0.000    2.500    0.000    5.000    0.000    0.000 
#    0.000    4.000    0.000    0.000    0.000    0.000 
#
# Total GULP energy -267404.434348 kJ/mol
# GULP energy per Si atom -5570.925716 kJ/mol
# Density = 1.970813 g / cm^3
# Si number density = 19.753086 Si / 1000 Ang^3
#
#
#
# Elastic Constant Matrix: (Units=GPa)
#
#
# Indices 1 2 3 4 5 6 
#
# 1 26.2609 3.1193 20.8292 0.0000 0.0000 0.0000
# 2 3.1193 2.1944 5.7933 0.0000 0.0000 0.0000
# 3 20.8292 5.7933 143.6370 0.0000 0.0000 0.0000
# 4 0.0000 0.0000 0.0000 17.9842 0.0000 0.0000
# 5 0.0000 0.0000 0.0000 0.0000 59.0891 0.0000
# 6 0.0000 0.0000 0.0000 0.0000 0.0000 11.4670
#
#
#
# Elastic Compliance Matrix: (Units=1/GPa)
#
#
# Indices 1 2 3 4 5 6 
#
# 1 0.048565 -0.056454 -0.004766 0.000000 0.000000 0.000000
# 2 -0.056454 0.575639 -0.015031 0.000000 0.000000 0.000000
# 3 -0.004766 -0.015031 0.008259 0.000000 0.000000 0.000000
# 4 0.000000 0.000000 0.000000 0.055604 0.000000 0.000000
# 5 0.000000 0.000000 0.000000 0.000000 0.016924 0.000000
# 6 0.000000 0.000000 0.000000 0.000000 0.000000 0.087207
#
#
# Mechanical properties :
#
#
# Convention : Reuss Voigt Hill
#
# Bulk Modulus (GPa) = 2.08349 25.73065 13.90707
# Shear Modulus (GPa) = 4.52618 27.19809 15.86213
#
# Velocity S-wave (km/s) = 1.51537 3.71469 2.83684
# Velocity P-wave (km/s) = 2.02950 5.60830 4.21734
#
# Compressibility (1/GPa) = 0.47996316
#
# Stress axis : x y z
#
# Youngs Moduli (GPa) = 20.59098 1.73720 121.07574
#
# Poissons Ratio (x) = 0.09807 0.57700
# Poissons Ratio (y) = 1.16244 1.81985
# Poissons Ratio (z) = 0.09813 0.02611
#
# Static dielectric constant tensor:
#      x y z
#    x 0.522030 0.000000 0.000000 
#    y 0.000000 1.682520 0.000000 
#    z 0.000000 0.000000 1.789920 
# 
# From -- ./inp_files/20406.got.cif
#   From: 2010.05.17/outbox.ucp.g08.bks.cvg/sg59_11_cif.got.tgz:20406.got - 2010.06.11 16:43:56.
