data_PCOD9453207
_publ_section_title
;
Structure prediction by ZEFSAII (Michael W. Deem and Ramdas Pophale) SiO2 
 PCOD9453207
Probable space group: P M M N
;
_chemical_formula_sum "Si O2"
_cell_formula_units_Z 40
_cell_length_a 10.064860
_cell_length_b 7.452065
_cell_length_c 27.137073
_cell_angle_alpha 90.000000
_cell_angle_beta 90.000000
_cell_angle_gamma 90.000000
_cell_volume 2035.388777
_symmetry_space_group_name_H-M "P M M N"
_symmetry_group_IT_number 59
_space_group.IT_coordinate_system_code '2'
_symmetry_cell_setting 'orthorhombic'
loop_
_space_group_symop_operation_xyz
x,y,z
1/2-x,1/2-y,z
1/2+x,-y,-z
-x,1/2+y,-z
-x,-y,-z
1/2+x,1/2+y,-z
1/2-x,y,z
x,1/2-y,z
loop_
_atom_site_type_symbol
_atom_site_label
_atom_site_fract_x
_atom_site_fract_y
_atom_site_fract_z
Si Si1 0.100496 0.535575 0.456039
Si Si2 0.903721 0.970023 0.259083
Si Si3 0.099082 0.465251 0.955470
Si Si4 0.596465 0.468718 0.653982
Si Si5 0.088335 0.457471 0.848703
O O1 0.250000 0.467968 0.466240
O O2 0.109310 0.750000 0.452094
O O3 0.058718 0.472140 0.401433
O O4 0.000000 0.500000 0.500000
O O5 0.750000 0.022034 0.266746
O O6 0.905002 0.750000 0.257825
O O7 0.949075 0.033205 0.204667
O O8 0.998211 0.029607 0.303190
O O9 0.250000 0.530038 0.964974
O O10 0.107501 0.250000 0.950105
O O11 0.050827 0.535530 0.901938
O O12 0.000000 0.500000 0.000000
O O13 0.750000 0.520284 0.662360
O O14 0.592767 0.250000 0.654709
O O15 0.250000 0.457706 0.848925
O O16 0.043545 0.250000 0.848282
#
# Coordination Sequence:
#
# PCOD9453207 Si02
#       5
#     8   8   8   8   8
#     4   9  18  31  45  63  88 116 145 176 210 250
#     4   8  12  19  34  55  76 100 132 166 200 243
#     4   9  17  29  44  62  86 115 144 175 212 252
#     4   8  14  24  36  53  81 110 131 160 206 251
#     4   7  11  21  36  54  78 106 133 164 204 246
#
# _framework density 19.652263999999999
#
# number of rings (size 3 to 8) (size 9 to 14) (size 15 to 20)
#    0.000    3.800    0.000    3.600    0.000    1.600 
#    0.000    3.000    0.000    3.600    0.000    1.400 
#    0.000    1.600    0.000    0.000    0.000    0.000 
#
# Total GULP energy -222692.368956 kJ/mol
# GULP energy per Si atom -5567.309224 kJ/mol
# Density = 1.960753 g / cm^3
# Si number density = 19.652264 Si / 1000 Ang^3
#
#
#
# Elastic Constant Matrix: (Units=GPa)
#
#
# Indices 1 2 3 4 5 6 
#
# 1 89.4083 3.2826 126.5769 0.0000 0.0000 0.0000
# 2 3.2826 57.0711 8.5271 0.0000 0.0000 0.0000
# 3 126.5769 8.5271 260.1814 0.0000 0.0000 0.0000
# 4 0.0000 0.0000 0.0000 12.2502 0.0000 0.0000
# 5 0.0000 0.0000 0.0000 0.0000 40.7093 0.0000
# 6 0.0000 0.0000 0.0000 0.0000 0.0000 7.1727
#
#
#
# Elastic Compliance Matrix: (Units=1/GPa)
#
#
# Indices 1 2 3 4 5 6 
#
# 1 0.035950 0.000548 -0.017508 0.000000 0.000000 0.000000
# 2 0.000548 0.017617 -0.000844 0.000000 0.000000 0.000000
# 3 -0.017508 -0.000844 0.012389 0.000000 0.000000 0.000000
# 4 0.000000 0.000000 0.000000 0.081632 0.000000 0.000000
# 5 0.000000 0.000000 0.000000 0.000000 0.024564 0.000000
# 6 0.000000 0.000000 0.000000 0.000000 0.000000 0.139418
#
#
# Mechanical properties :
#
#
# Convention : Reuss Voigt Hill
#
# Bulk Modulus (GPa) = 32.95074 75.93713 54.44393
# Shear Modulus (GPa) = 13.99414 29.91139 21.95276
#
# Velocity S-wave (km/s) = 2.67139 3.90556 3.34587
# Velocity P-wave (km/s) = 5.13015 7.68519 6.53378
#
# Compressibility (1/GPa) = 0.03034834
#
# Stress axis : x y z
#
# Youngs Moduli (GPa) = 27.81610 56.76472 80.71994
#
# Poissons Ratio (x) = -0.03111 1.41322
# Poissons Ratio (y) = -0.01524 0.06813
# Poissons Ratio (z) = 0.48699 0.04791
#
# Static dielectric constant tensor:
#      x y z
#    x 1.655030 0.000000 0.000000 
#    y 0.000000 1.816180 0.000000 
#    z 0.000000 0.000000 1.725900 
# 
# From -- ./inp_files/28732.got.cif
#   From: 2010.05.17/outbox.cif.g08.bks.cpg/sg59_15_cif.got.tgz:28732.got - 2010.06.03 14:40:33.
