data_PCOD9453989
_publ_section_title
;
Structure prediction by ZEFSAII (Michael W. Deem and Ramdas Pophale) SiO2 
 PCOD9453989
Probable space group: P B C N
;
_chemical_formula_sum "Si O2"
_cell_formula_units_Z 64
_cell_length_a 19.591504
_cell_length_b 9.095787
_cell_length_c 20.610779
_cell_angle_alpha 90.000000
_cell_angle_beta 90.000000
_cell_angle_gamma 90.000000
_cell_volume 3672.843856
_symmetry_space_group_name_H-M "P B C N"
_symmetry_group_IT_number 60
_symmetry_cell_setting 'orthorhombic'
loop_
_space_group_symop_operation_xyz
x,y,z
1/2-x,1/2-y,1/2+z
1/2+x,1/2-y,-z
-x,y,1/2-z
-x,-y,-z
1/2+x,1/2+y,1/2-z
1/2-x,1/2+y,z
x,-y,1/2+z
loop_
_atom_site_type_symbol
_atom_site_label
_atom_site_fract_x
_atom_site_fract_y
_atom_site_fract_z
Si Si1 0.818186 0.469317 0.979274
Si Si2 0.967412 0.030666 0.818503
Si Si3 0.964591 0.607053 0.450070
Si Si4 0.830103 0.856094 0.840875
Si Si5 0.542216 0.413300 0.053919
Si Si6 0.196214 0.478758 0.175667
Si Si7 0.942791 0.622174 0.304715
Si Si8 0.681502 0.311609 0.996637
O O1 0.888183 0.377146 0.978279
O O2 0.806884 0.493801 0.902168
O O3 0.756004 0.379453 0.010348
O O4 0.823640 0.635252 0.007228
O O5 0.942639 0.201388 0.815437
O O6 0.000000 0.995841 0.750000
O O7 0.022807 0.020834 0.876156
O O8 0.903695 0.924991 0.829081
O O9 0.960450 0.552684 0.375343
O O10 0.000000 0.500000 0.500000
O O11 0.008743 0.752661 0.447382
O O12 0.771811 0.961330 0.810601
O O13 0.816253 0.693314 0.813709
O O14 0.826573 0.840094 0.919306
O O15 0.500000 0.500000 0.000000
O O16 0.621117 0.394436 0.034746
O O17 0.133951 0.566779 0.208975
O O18 0.000000 0.590058 0.250000
#
# Coordination Sequence:
#
# PCOD9453989 Si02
#       8
#     8   8   8   8   8   8   8   8
#     4   9  19  31  50  78 111 140 175 219 271 320
#     4  10  21  36  55  76 108 146 177 223 270 323
#     4  10  19  34  54  78 108 142 177 225 272 319
#     4  10  18  32  52  79 107 136 179 223 270 316
#     4  11  21  33  56  81 108 139 182 225 273 323
#     4   9  18  30  53  79 105 137 178 223 262 321
#     4   9  19  34  53  79 105 142 181 217 265 318
#     4  10  19  32  51  79 108 140 177 223 270 322
#
# _framework density 17.425189
#
# number of rings (size 3 to 8) (size 9 to 14) (size 15 to 20)
#    0.000    2.250    2.500    0.750    1.750    3.500 
#    0.000    0.000    2.750    1.500    0.000    0.000 
#    0.000    0.000    0.000    0.000    0.000    0.000 
#
# Total GULP energy -356421.476079 kJ/mol
# GULP energy per Si atom -5569.085564 kJ/mol
# Density = 1.738553 g / cm^3
# Si number density = 17.425189 Si / 1000 Ang^3
#
#
#
# Elastic Constant Matrix: (Units=GPa)
#
#
# Indices 1 2 3 4 5 6 
#
# 1 125.3376 25.1069 30.1071 0.0000 0.0000 0.0000
# 2 25.1069 28.4681 14.2111 0.0000 0.0000 0.0000
# 3 30.1071 14.2111 60.8022 0.0000 0.0000 0.0000
# 4 0.0000 0.0000 0.0000 13.1169 0.0000 0.0000
# 5 0.0000 0.0000 0.0000 0.0000 25.5540 0.0000
# 6 0.0000 0.0000 0.0000 0.0000 0.0000 31.1688
#
#
#
# Elastic Compliance Matrix: (Units=1/GPa)
#
#
# Indices 1 2 3 4 5 6 
#
# 1 0.010262 -0.007374 -0.003358 0.000000 0.000000 0.000000
# 2 -0.007374 0.045066 -0.006882 0.000000 0.000000 0.000000
# 3 -0.003358 -0.006882 0.019718 0.000000 0.000000 0.000000
# 4 0.000000 0.000000 0.000000 0.076238 0.000000 0.000000
# 5 0.000000 0.000000 0.000000 0.000000 0.039133 0.000000
# 6 0.000000 0.000000 0.000000 0.000000 0.000000 0.032083
#
#
# Mechanical properties :
#
#
# Convention : Reuss Voigt Hill
#
# Bulk Modulus (GPa) = 25.11403 39.27313 32.19358
# Shear Modulus (GPa) = 18.45015 23.64680 21.04848
#
# Velocity S-wave (km/s) = 3.25748 3.68781 3.47931
# Velocity P-wave (km/s) = 5.34715 6.38125 5.88695
#
# Compressibility (1/GPa) = 0.03981839
#
# Stress axis : x y z
#
# Youngs Moduli (GPa) = 97.44464 22.18965 50.71531
#
# Poissons Ratio (x) = 0.16363 0.17030
# Poissons Ratio (y) = 0.71859 0.34900
# Poissons Ratio (z) = 0.32721 0.15270
#
# Static dielectric constant tensor:
#      x y z
#    x 1.621770 0.000000 0.000000 
#    y 0.000000 1.581260 0.000000 
#    z 0.000000 0.000000 1.585820 
# 
# From -- ./inp_files/24542.got.cif
#   From: 2010.05.17/outbox.cif.g08.bks.cpg/sg60_13_cif.got.tgz:24542.got - 2010.06.03 14:59:27.
