data_PCOD9453665
_publ_section_title
;
Structure prediction by ZEFSAII (Michael W. Deem and Ramdas Pophale) SiO2 
 PCOD9453665
Probable space group: P M M N
;
_chemical_formula_sum "Si O2"
_cell_formula_units_Z 48
_cell_length_a 15.000000
_cell_length_b 9.000000
_cell_length_c 18.000000
_cell_angle_alpha 90.000000
_cell_angle_beta 90.000000
_cell_angle_gamma 90.000000
_cell_volume 2430.000000
_symmetry_space_group_name_H-M "P M M N"
_symmetry_group_IT_number 59
_space_group.IT_coordinate_system_code '2'
_symmetry_cell_setting 'orthorhombic'
loop_
_space_group_symop_operation_xyz
x,y,z
1/2-x,1/2-y,z
1/2+x,-y,-z
-x,1/2+y,-z
-x,-y,-z
1/2+x,1/2+y,-z
1/2-x,y,z
x,1/2-y,z
loop_
_atom_site_type_symbol
_atom_site_label
_atom_site_fract_x
_atom_site_fract_y
_atom_site_fract_z
Si Si1 0.118002 0.921032 0.057633
Si Si2 0.250000 0.426061 0.168035
Si Si3 0.592574 0.579149 0.092124
Si Si4 0.643210 0.421926 0.244316
Si Si5 0.905738 0.077200 0.409554
Si Si6 0.750000 0.073816 0.670473
Si Si7 0.617225 0.578564 0.560321
O O1 0.146897 0.750000 0.061834
O O2 0.012875 0.924266 0.074937
O O3 0.166744 0.018332 0.119362
O O4 0.134859 0.985341 0.975285
O O5 0.250000 0.250000 0.175789
O O6 0.250000 0.500321 0.248694
O O7 0.623080 0.750000 0.088988
O O8 0.609498 0.512215 0.173308
O O9 0.750000 0.423136 0.242297
O O10 0.612267 0.250000 0.238028
O O11 0.614555 0.477034 0.326195
O O12 0.875964 0.250000 0.413874
O O13 0.011782 0.073221 0.423255
O O14 0.865384 0.985320 0.477917
O O15 0.750000 0.250000 0.677685
O O16 0.833399 0.017822 0.622021
O O17 0.645068 0.750000 0.565054
#
# Coordination Sequence:
#
# PCOD9453665 Si02
#       7
#     8   4   8   8   8   4   8
#     4  10  22  42  65  90 121 160 202 247 303 364
#     4  12  26  42  64  93 124 157 200 254 306 363
#     4  10  22  40  63  91 121 159 205 251 300 355
#     4  10  22  38  59  88 122 162 205 248 300 359
#     4   9  20  39  62  89 121 162 203 246 303 363
#     4  12  26  42  62  89 124 161 202 252 306 365
#     4  10  21  39  62  91 122 157 203 252 302 360
#
# _framework density 19.753086
#
# number of rings (size 3 to 8) (size 9 to 14) (size 15 to 20)
#    0.000    1.833    0.000    3.000    4.667    3.667 
#    0.000    0.000    0.000    0.000    0.000    0.000 
#    0.000    0.000    0.000    0.000    0.000    0.000 
#
# Total GULP energy -268198.112408 kJ/mol
# GULP energy per Si atom -5587.460675 kJ/mol
# Density = 1.970813 g / cm^3
# Si number density = 19.753086 Si / 1000 Ang^3
#
#
#
# Elastic Constant Matrix: (Units=GPa)
#
#
# Indices 1 2 3 4 5 6 
#
# 1 48.1965 29.7529 28.1946 0.0000 0.0000 0.0000
# 2 29.7529 161.0320 97.2720 0.0000 0.0000 0.0000
# 3 28.1946 97.2720 207.0294 0.0000 0.0000 0.0000
# 4 0.0000 0.0000 0.0000 36.7480 0.0000 0.0000
# 5 0.0000 0.0000 0.0000 0.0000 29.2221 0.0000
# 6 0.0000 0.0000 0.0000 0.0000 0.0000 23.1625
#
#
#
# Elastic Compliance Matrix: (Units=1/GPa)
#
#
# Indices 1 2 3 4 5 6 
#
# 1 0.023813 -0.003408 -0.001642 0.000000 0.000000 0.000000
# 2 -0.003408 0.009159 -0.003839 0.000000 0.000000 0.000000
# 3 -0.001642 -0.003839 0.006858 0.000000 0.000000 0.000000
# 4 0.000000 0.000000 0.000000 0.027212 0.000000 0.000000
# 5 0.000000 0.000000 0.000000 0.000000 0.034221 0.000000
# 6 0.000000 0.000000 0.000000 0.000000 0.000000 0.043173
#
#
# Mechanical properties :
#
#
# Convention : Reuss Voigt Hill
#
# Bulk Modulus (GPa) = 45.34884 80.74412 63.04648
# Shear Modulus (GPa) = 29.48759 35.22910 32.35835
#
# Velocity S-wave (km/s) = 3.86788 4.22770 4.05179
# Velocity P-wave (km/s) = 6.55401 8.04964 7.34002
#
# Compressibility (1/GPa) = 0.02205128
#
# Stress axis : x y z
#
# Youngs Moduli (GPa) = 41.99451 109.18708 145.82469
#
# Poissons Ratio (x) = 0.37211 0.23940
# Poissons Ratio (y) = 0.14312 0.55982
# Poissons Ratio (z) = 0.06894 0.41917
#
# Static dielectric constant tensor:
#      x y z
#    x 1.721300 0.000000 0.000000 
#    y 0.000000 1.691180 0.000000 
#    z 0.000000 0.000000 1.644050 
# 
# From -- ./inp_files/27430.got.cif
#   From: 2010.05.17/outbox.ucp.g08.bks.cvg/sg59_14_cif.got.tgz:27430.got - 2010.06.11 16:43:56.
