data_PCOD9453347
_publ_section_title
;
Structure prediction by ZEFSAII (Michael W. Deem and Ramdas Pophale) SiO2 
 PCOD9453347
Probable space group: P M M N
;
_chemical_formula_sum "Si O2"
_cell_formula_units_Z 56
_cell_length_a 15.000000
_cell_length_b 9.000000
_cell_length_c 21.000000
_cell_angle_alpha 90.000000
_cell_angle_beta 90.000000
_cell_angle_gamma 90.000000
_cell_volume 2835.000000
_symmetry_space_group_name_H-M "P M M N"
_symmetry_group_IT_number 59
_space_group.IT_coordinate_system_code '2'
_symmetry_cell_setting 'orthorhombic'
loop_
_space_group_symop_operation_xyz
x,y,z
1/2-x,1/2-y,z
1/2+x,-y,-z
-x,1/2+y,-z
-x,-y,-z
1/2+x,1/2+y,-z
1/2-x,y,z
x,1/2-y,z
loop_
_atom_site_type_symbol
_atom_site_label
_atom_site_fract_x
_atom_site_fract_y
_atom_site_fract_z
Si Si1 0.347681 0.430987 0.655920
Si Si2 0.474366 0.073013 0.149226
Si Si3 0.850167 0.921692 0.622960
Si Si4 0.093712 0.072976 0.516016
Si Si5 0.144951 0.924838 0.040203
Si Si6 0.853376 0.927431 0.097979
Si Si7 0.027438 0.573750 0.278727
O O1 0.250000 0.481713 0.675978
O O2 0.347265 0.250000 0.655227
O O3 0.367293 0.480026 0.583260
O O4 0.427624 0.473995 0.701917
O O5 0.472807 0.250000 0.144434
O O6 0.415305 0.999809 0.093715
O O7 0.574255 0.009379 0.140873
O O8 0.440751 0.016088 0.217446
O O9 0.750000 0.932650 0.647829
O O10 0.881027 0.750000 0.630992
O O11 0.849620 0.952301 0.547542
O O12 0.913179 0.032537 0.660505
O O13 0.082401 0.250000 0.522594
O O14 0.000000 0.000000 0.500000
O O15 0.250000 0.935297 0.056810
O O16 0.122647 0.750000 0.032950
O O17 0.133037 0.009356 0.973323
O O18 0.750000 0.955527 0.115552
O O19 0.867904 0.750000 0.099377
O O20 0.029171 0.750000 0.266199
#
# Coordination Sequence:
#
# PCOD9453347 Si02
#       7
#     8   8   8   8   8   8   8
#     4   9  18  34  57  83 110 144 186 231 283 343
#     4  12  25  40  60  85 119 160 200 243 292 348
#     4  10  21  37  58  83 113 150 190 234 289 351
#     4  10  18  32  57  85 113 144 183 232 287 343
#     4  10  21  39  64  93 123 154 193 242 293 345
#     4  10  21  39  64  93 124 157 195 239 287 342
#     4  11  23  39  58  82 112 150 195 243 290 343
#
# _framework density 19.753086
#
# number of rings (size 3 to 8) (size 9 to 14) (size 15 to 20)
#    0.000    1.714    1.429    3.429    0.000    4.857 
#    0.000    1.429    0.000    4.286    0.000    0.000 
#    0.000    0.000    0.000    0.000    0.000    0.000 
#
# Total GULP energy -312757.175674 kJ/mol
# GULP energy per Si atom -5584.949566 kJ/mol
# Density = 1.970813 g / cm^3
# Si number density = 19.753086 Si / 1000 Ang^3
#
#
#
# Elastic Constant Matrix: (Units=GPa)
#
#
# Indices 1 2 3 4 5 6 
#
# 1 55.8946 20.2913 4.1610 0.0000 0.0000 0.0000
# 2 20.2913 67.6094 14.3051 0.0000 0.0000 0.0000
# 3 4.1610 14.3051 38.5363 0.0000 0.0000 0.0000
# 4 0.0000 0.0000 0.0000 25.8819 0.0000 0.0000
# 5 0.0000 0.0000 0.0000 0.0000 -20.0366 0.0000
# 6 0.0000 0.0000 0.0000 0.0000 0.0000 23.8261
#
#
#
# Elastic Compliance Matrix: (Units=1/GPa)
#
#
# Indices 1 2 3 4 5 6 
#
# 1 0.020079 -0.006042 0.000075 0.000000 0.000000 0.000000
# 2 -0.006042 0.017870 -0.005981 0.000000 0.000000 0.000000
# 3 0.000075 -0.005981 0.028162 0.000000 0.000000 0.000000
# 4 0.000000 0.000000 0.000000 0.038637 0.000000 0.000000
# 5 0.000000 0.000000 0.000000 0.000000 -0.049909 0.000000
# 6 0.000000 0.000000 0.000000 0.000000 0.000000 0.041971
#
#
# Mechanical properties :
#
#
# Convention : Reuss Voigt Hill
#
# Bulk Modulus (GPa) = 23.68899 26.61724 25.15312
# Shear Modulus (GPa) = 37.09839 14.15314 25.62577
#
# Velocity S-wave (km/s) = 4.33841 2.67966 3.60572
# Velocity P-wave (km/s) = 6.09216 4.80399 5.48601
#
# Compressibility (1/GPa) = 0.04221370
#
# Stress axis : x y z
#
# Youngs Moduli (GPa) = 49.80418 55.96067 35.50923
#
# Poissons Ratio (x) = 0.33811 -0.00266
# Poissons Ratio (y) = 0.30091 0.21238
# Poissons Ratio (z) = -0.00373 0.33470
#
# Static dielectric constant tensor:
#      x y z
#    x 1.713530 0.000000 0.000000 
#    y 0.000000 1.661730 0.000000 
#    z 0.000000 0.000000 1.791630 
# 
# From -- ./inp_files/29057.got.cif
#   From: 2010.05.17/outbox.ucp.g08.bks.cvg/sg59_15_cif.got.tgz:29057.got - 2010.06.11 16:43:56.
