data_PCOD9453012
_publ_section_title
;
Structure prediction by ZEFSAII (Michael W. Deem and Ramdas Pophale) SiO2 
 PCOD9453012
Probable space group: P M M N
;
_chemical_formula_sum "Si O2"
_cell_formula_units_Z 56
_cell_length_a 8.691684
_cell_length_b 14.709558
_cell_length_c 24.037224
_cell_angle_alpha 90.000000
_cell_angle_beta 90.000000
_cell_angle_gamma 90.000000
_cell_volume 3073.179037
_symmetry_space_group_name_H-M "P M M N"
_symmetry_group_IT_number 59
_space_group.IT_coordinate_system_code '2'
_symmetry_cell_setting 'orthorhombic'
loop_
_space_group_symop_operation_xyz
x,y,z
1/2-x,1/2-y,z
1/2+x,-y,-z
-x,1/2+y,-z
-x,-y,-z
1/2+x,1/2+y,-z
1/2-x,y,z
x,1/2-y,z
loop_
_atom_site_type_symbol
_atom_site_label
_atom_site_fract_x
_atom_site_fract_y
_atom_site_fract_z
Si Si1 0.931691 0.857453 0.968860
Si Si2 0.433881 0.356119 0.240862
Si Si3 0.437307 0.148183 0.902505
Si Si4 0.067390 0.569390 0.648170
Si Si5 0.066856 0.945927 0.446265
Si Si6 0.926854 0.750000 0.597370
Si Si7 0.073619 0.250000 0.535767
Si Si8 0.566933 0.043729 0.135214
O O1 0.750000 0.880707 0.964610
O O2 0.946040 0.750000 0.956035
O O3 0.027086 0.914976 0.925013
O O4 0.980985 0.868903 0.033014
O O5 0.250000 0.358154 0.245777
O O6 0.483172 0.250000 0.246657
O O7 0.507032 0.417537 0.289298
O O8 0.484337 0.396461 0.181811
O O9 0.250000 0.149662 0.902231
O O10 0.489181 0.250000 0.886469
O O11 0.484820 0.061929 0.866001
O O12 0.250000 0.559355 0.647724
O O13 0.991758 0.491689 0.610545
O O14 0.015130 0.662096 0.618262
O O15 0.250000 0.952049 0.449540
O O16 0.011090 0.842200 0.447504
O O17 0.000000 0.000000 0.500000
O O18 0.750000 0.750000 0.618605
O O19 0.921503 0.750000 0.531170
O O20 0.250000 0.250000 0.556124
O O21 0.750000 0.047053 0.144387
#
# Coordination Sequence:
#
# PCOD9453012 Si02
#       8
#     8   8   8   8   8   4   4   8
#     4   9  17  31  51  75 107 146 182 215 269 338
#     4  11  24  41  60  80 110 149 187 227 281 345
#     4   8  16  32  53  76 104 142 184 225 270 331
#     4  12  24  39  62  89 118 151 194 243 288 340
#     4  12  24  39  61  90 124 161 198 239 290 346
#     4  11  21  35  59  89 124 160 194 233 284 345
#     4  11  23  39  61  91 126 160 198 241 288 343
#     4  11  21  32  52  81 110 139 180 232 282 327
#
# _framework density 18.222173999999999
#
# number of rings (size 3 to 8) (size 9 to 14) (size 15 to 20)
#    0.000    1.429    2.143    5.571    0.000    3.429 
#    0.000    0.714    1.571    3.429    0.000    0.000 
#    0.000    0.000    0.000    0.000    0.000    0.000 
#
# Total GULP energy -312825.920826 kJ/mol
# GULP energy per Si atom -5586.177158 kJ/mol
# Density = 1.818070 g / cm^3
# Si number density = 18.222174 Si / 1000 Ang^3
#
#
#
# Elastic Constant Matrix: (Units=GPa)
#
#
# Indices 1 2 3 4 5 6 
#
# 1 99.7881 40.5092 23.0057 0.0000 0.0000 0.0000
# 2 40.5092 107.3599 41.0304 0.0000 0.0000 0.0000
# 3 23.0057 41.0304 47.9635 0.0000 0.0000 0.0000
# 4 0.0000 0.0000 0.0000 36.7377 0.0000 0.0000
# 5 0.0000 0.0000 0.0000 0.0000 25.5240 0.0000
# 6 0.0000 0.0000 0.0000 0.0000 0.0000 26.3068
#
#
#
# Elastic Compliance Matrix: (Units=1/GPa)
#
#
# Indices 1 2 3 4 5 6 
#
# 1 0.012085 -0.003483 -0.002817 0.000000 0.000000 0.000000
# 2 -0.003483 0.014843 -0.011027 0.000000 0.000000 0.000000
# 3 -0.002817 -0.011027 0.031633 0.000000 0.000000 0.000000
# 4 0.000000 0.000000 0.000000 0.027220 0.000000 0.000000
# 5 0.000000 0.000000 0.000000 0.000000 0.039179 0.000000
# 6 0.000000 0.000000 0.000000 0.000000 0.000000 0.038013
#
#
# Mechanical properties :
#
#
# Convention : Reuss Voigt Hill
#
# Bulk Modulus (GPa) = 41.82806 51.57801 46.70304
# Shear Modulus (GPa) = 24.31973 27.75144 26.03558
#
# Velocity S-wave (km/s) = 3.65721 3.90673 3.78403
# Velocity P-wave (km/s) = 6.39046 6.97973 6.69158
#
# Compressibility (1/GPa) = 0.02390739
#
# Stress axis : x y z
#
# Youngs Moduli (GPa) = 82.74948 67.37227 31.61275
#
# Poissons Ratio (x) = 0.23468 0.08904
# Poissons Ratio (y) = 0.28825 0.34858
# Poissons Ratio (z) = 0.23307 0.74288
#
# Static dielectric constant tensor:
#      x y z
#    x 1.613790 0.000000 0.000000 
#    y 0.000000 1.632970 0.000000 
#    z 0.000000 0.000000 1.618140 
# 
# From -- ./inp_files/29257.got.cif
#   From: 2010.05.17/outbox.cif.g08.bks.cpg/sg59_15_cif.got.tgz:29257.got - 2010.06.03 14:40:33.
