data_PCOD9453144
_publ_section_title
;
Structure prediction by ZEFSAII (Michael W. Deem and Ramdas Pophale) SiO2 
 PCOD9453144
Probable space group: P M M N
;
_chemical_formula_sum "Si O2"
_cell_formula_units_Z 48
_cell_length_a 8.841778
_cell_length_b 29.543229
_cell_length_c 10.057128
_cell_angle_alpha 90.000000
_cell_angle_beta 90.000000
_cell_angle_gamma 90.000000
_cell_volume 2627.069394
_symmetry_space_group_name_H-M "P M M N"
_symmetry_group_IT_number 59
_space_group.IT_coordinate_system_code '2'
_symmetry_cell_setting 'orthorhombic'
loop_
_space_group_symop_operation_xyz
x,y,z
1/2-x,1/2-y,z
1/2+x,-y,-z
-x,1/2+y,-z
-x,-y,-z
1/2+x,1/2+y,-z
1/2-x,y,z
x,1/2-y,z
loop_
_atom_site_type_symbol
_atom_site_label
_atom_site_fract_x
_atom_site_fract_y
_atom_site_fract_z
Si Si1 0.431929 0.880649 0.724248
Si Si2 0.568672 0.624551 0.019020
Si Si3 0.431797 0.302303 0.765060
Si Si4 0.067762 0.802290 0.519217
Si Si5 0.071959 0.967187 0.109000
Si Si6 0.428157 0.474675 0.375120
O O1 0.250000 0.882494 0.729521
O O2 0.477662 0.837860 0.632643
O O3 0.493319 0.927124 0.660406
O O4 0.496363 0.875642 0.872871
O O5 0.750000 0.623634 0.005075
O O6 0.523677 0.667027 0.110320
O O7 0.512951 0.580143 0.096467
O O8 0.250000 0.305045 0.752082
O O9 0.473772 0.250000 0.787532
O O10 0.504028 0.316351 0.624686
O O11 0.250000 0.802528 0.512786
O O12 0.019461 0.750000 0.544758
O O13 0.250000 0.960637 0.082121
O O14 0.055453 0.991930 0.249463
O O15 0.000000 0.000000 0.000000
O O16 0.500000 0.500000 0.500000
O O17 0.250000 0.466673 0.396892
#
# Coordination Sequence:
#
# PCOD9453144 Si02
#       6
#     8   8   8   8   8   8
#     4  11  23  39  60  87 119 155 196 243 292 347
#     4  11  23  38  59  88 119 155 196 241 292 348
#     4   9  20  39  61  87 118 152 193 239 289 347
#     4   9  20  39  61  86 117 152 192 239 291 347
#     4  11  23  40  62  86 117 156 196 239 288 346
#     4  11  25  42  61  87 119 155 196 242 291 349
#
# _framework density 18.271308999999999
#
# number of rings (size 3 to 8) (size 9 to 14) (size 15 to 20)
#    0.000    1.667    1.667    2.000    2.333    5.333 
#    0.000    0.000    0.000    0.000    0.000    0.000 
#    0.000    0.000    0.000    0.000    0.000    0.000 
#
# Total GULP energy -268137.475530 kJ/mol
# GULP energy per Si atom -5586.197407 kJ/mol
# Density = 1.822972 g / cm^3
# Si number density = 18.271309 Si / 1000 Ang^3
#
#
#
# Elastic Constant Matrix: (Units=GPa)
#
#
# Indices 1 2 3 4 5 6 
#
# 1 66.5156 48.2214 63.2639 0.0000 0.0000 0.0000
# 2 48.2214 117.5438 74.3167 0.0000 0.0000 0.0000
# 3 63.2639 74.3167 104.0909 0.0000 0.0000 0.0000
# 4 0.0000 0.0000 0.0000 36.7041 0.0000 0.0000
# 5 0.0000 0.0000 0.0000 0.0000 34.1420 0.0000
# 6 0.0000 0.0000 0.0000 0.0000 0.0000 27.0965
#
#
#
# Elastic Compliance Matrix: (Units=1/GPa)
#
#
# Indices 1 2 3 4 5 6 
#
# 1 0.035816 -0.001696 -0.020557 0.000000 0.000000 0.000000
# 2 -0.001696 0.015588 -0.010098 0.000000 0.000000 0.000000
# 3 -0.020557 -0.010098 0.029311 0.000000 0.000000 0.000000
# 4 0.000000 0.000000 0.000000 0.027245 0.000000 0.000000
# 5 0.000000 0.000000 0.000000 0.000000 0.029289 0.000000
# 6 0.000000 0.000000 0.000000 0.000000 0.000000 0.036905
#
#
# Mechanical properties :
#
#
# Convention : Reuss Voigt Hill
#
# Bulk Modulus (GPa) = 62.45432 73.30604 67.88018
# Shear Modulus (GPa) = 20.47553 26.41173 23.44363
#
# Velocity S-wave (km/s) = 3.35123 3.80614 3.58590
# Velocity P-wave (km/s) = 7.01642 7.71515 7.37406
#
# Compressibility (1/GPa) = 0.01601170
#
# Stress axis : x y z
#
# Youngs Moduli (GPa) = 27.92071 64.15249 34.11705
#
# Poissons Ratio (x) = 0.10880 0.70135
# Poissons Ratio (y) = 0.04735 0.34452
# Poissons Ratio (z) = 0.57397 0.64783
#
# Static dielectric constant tensor:
#      x y z
#    x 1.603740 0.000000 0.000000 
#    y 0.000000 1.618810 0.000000 
#    z 0.000000 0.000000 1.591170 
# 
# From -- ./inp_files/6276.got.cif
#   From: 2010.05.17/outbox.cif.g08.bks.cpg/sg59_4_cif.got.tgz:6276.got - 2010.06.03 14:40:33.
