data_PCOD9453127
_publ_section_title
;
Structure prediction by ZEFSAII (Michael W. Deem and Ramdas Pophale) SiO2 
 PCOD9453127
Probable space group: P M M N
;
_chemical_formula_sum "Si O2"
_cell_formula_units_Z 32
_cell_length_a 7.723984
_cell_length_b 15.104706
_cell_length_c 12.957362
_cell_angle_alpha 90.000000
_cell_angle_beta 90.000000
_cell_angle_gamma 90.000000
_cell_volume 1511.716085
_symmetry_space_group_name_H-M "P M M N"
_symmetry_group_IT_number 59
_space_group.IT_coordinate_system_code '2'
_symmetry_cell_setting 'orthorhombic'
loop_
_space_group_symop_operation_xyz
x,y,z
1/2-x,1/2-y,z
1/2+x,-y,-z
-x,1/2+y,-z
-x,-y,-z
1/2+x,1/2+y,-z
1/2-x,y,z
x,1/2-y,z
loop_
_atom_site_type_symbol
_atom_site_label
_atom_site_fract_x
_atom_site_fract_y
_atom_site_fract_z
Si Si1 0.958488 0.649392 0.275182
Si Si2 0.454156 0.497238 0.119646
Si Si3 0.950642 0.641820 0.497472
Si Si4 0.537116 0.647728 0.722362
O O1 0.750000 0.653137 0.284953
O O2 0.020069 0.750000 0.258679
O O3 0.027256 0.615470 0.386684
O O4 0.999744 0.585884 0.181241
O O5 0.250000 0.487117 0.124090
O O6 0.526523 0.415462 0.186701
O O7 0.500000 0.500000 0.000000
O O8 0.750000 0.613009 0.498342
O O9 0.951207 0.750000 0.496425
O O10 0.025303 0.616568 0.608723
O O11 0.750000 0.646858 0.718980
O O12 0.487195 0.750000 0.737573
#
# Coordination Sequence:
#
# PCOD9453127 Si02
#       4
#     8   8   8   8
#     4   9  18  34  56  79 104 135 167 203 254 314
#     4  11  23  36  51  74 103 137 179 222 259 299
#     4   7  11  24  49  78 102 125 159 202 250 310
#     4   8  15  30  52  76 101 130 166 209 257 310
#
# _framework density 21.167995000000001
#
# number of rings (size 3 to 8) (size 9 to 14) (size 15 to 20)
#    0.000    3.250    0.000    3.750    0.000    2.500 
#    0.000    2.500    0.000    3.750    0.000    7.000 
#    0.000    0.000    0.000    0.000    0.000    0.000 
#
# Total GULP energy -178408.831946 kJ/mol
# GULP energy per Si atom -5575.275998 kJ/mol
# Density = 2.111982 g / cm^3
# Si number density = 21.167995 Si / 1000 Ang^3
#
#
#
# Elastic Constant Matrix: (Units=GPa)
#
#
# Indices 1 2 3 4 5 6 
#
# 1 35.0125 2.9864 13.7369 0.0000 0.0000 0.0000
# 2 2.9864 105.6795 111.8765 0.0000 0.0000 0.0000
# 3 13.7369 111.8765 258.1865 0.0000 0.0000 0.0000
# 4 0.0000 0.0000 0.0000 36.4681 0.0000 0.0000
# 5 0.0000 0.0000 0.0000 0.0000 11.4786 0.0000
# 6 0.0000 0.0000 0.0000 0.0000 0.0000 12.6604
#
#
#
# Elastic Compliance Matrix: (Units=1/GPa)
#
#
# Indices 1 2 3 4 5 6 
#
# 1 0.029302 0.001519 -0.002217 0.000000 0.000000 0.000000
# 2 0.001519 0.017561 -0.007690 0.000000 0.000000 0.000000
# 3 -0.002217 -0.007690 0.007323 0.000000 0.000000 0.000000
# 4 0.000000 0.000000 0.000000 0.027421 0.000000 0.000000
# 5 0.000000 0.000000 0.000000 0.000000 0.087118 0.000000
# 6 0.000000 0.000000 0.000000 0.000000 0.000000 0.078987
#
#
# Mechanical properties :
#
#
# Convention : Reuss Voigt Hill
#
# Bulk Modulus (GPa) = 26.73123 72.89758 49.81440
# Shear Modulus (GPa) = 18.05325 30.14000 24.09663
#
# Velocity S-wave (km/s) = 2.92354 3.77748 3.37761
# Velocity P-wave (km/s) = 4.90425 7.31698 6.22856
#
# Compressibility (1/GPa) = 0.03740943
#
# Stress axis : x y z
#
# Youngs Moduli (GPa) = 34.12778 56.94486 136.54754
#
# Poissons Ratio (x) = -0.08652 0.30278
# Poissons Ratio (y) = -0.05185 1.05008
# Poissons Ratio (z) = 0.07567 0.43792
#
# Static dielectric constant tensor:
#      x y z
#    x 1.826160 0.000000 0.000000 
#    y 0.000000 1.767040 0.000000 
#    z 0.000000 0.000000 1.542110 
# 
# From -- ./inp_files/13539.got.cif
#   From: 2010.05.17/outbox.cif.g08.bks.cpg/sg59_7_cif.got.tgz:13539.got - 2010.06.03 14:40:33.
