data_PCOD9453932
_publ_section_title
;
Structure prediction by ZEFSAII (Michael W. Deem and Ramdas Pophale) SiO2 
 PCOD9453932
Probable space group: P B C N
;
_chemical_formula_sum "Si O2"
_cell_formula_units_Z 52
_cell_length_a 7.319924
_cell_length_b 14.275950
_cell_length_c 19.420894
_cell_angle_alpha 90.000000
_cell_angle_beta 90.000000
_cell_angle_gamma 90.000000
_cell_volume 2029.461459
_symmetry_space_group_name_H-M "P B C N"
_symmetry_group_IT_number 60
_symmetry_cell_setting 'orthorhombic'
loop_
_space_group_symop_operation_xyz
x,y,z
1/2-x,1/2-y,1/2+z
1/2+x,1/2-y,-z
-x,y,1/2-z
-x,-y,-z
1/2+x,1/2+y,1/2-z
1/2-x,1/2+y,z
x,-y,1/2+z
loop_
_atom_site_type_symbol
_atom_site_label
_atom_site_fract_x
_atom_site_fract_y
_atom_site_fract_z
Si Si1 0.807890 0.885612 0.180011
Si Si2 0.931177 0.052759 0.932799
Si Si3 0.939754 0.545578 0.426075
Si Si4 0.516512 0.244976 0.028499
Si Si5 0.000000 0.722604 0.250000
Si Si6 0.897691 0.761487 0.613513
Si Si7 0.253394 0.074581 0.306271
O O1 0.623860 0.829166 0.162548
O O2 0.899555 0.944316 0.118963
O O3 0.948056 0.800216 0.193489
O O4 0.785487 0.974546 0.230074
O O5 0.912212 0.160196 0.953740
O O6 0.746038 0.006697 0.906605
O O7 0.000000 0.000000 0.000000
O O8 0.911528 0.653033 0.447170
O O9 0.000000 0.500000 0.500000
O O10 0.087409 0.550984 0.363678
O O11 0.708538 0.242213 0.068979
O O12 0.541661 0.246820 0.946196
O O13 0.167143 0.650398 0.251491
O O14 0.895520 0.859242 0.654559
#
# Coordination Sequence:
#
# PCOD9453932 Si02
#       7
#     8   8   8   8   4   8   8
#     4  10  21  39  62  84 115 160 208 263 312 365
#     4  11  21  34  57  90 126 161 199 245 311 377
#     4  11  21  34  57  90 126 161 199 245 311 377
#     4  10  18  30  48  78 121 155 185 233 284 356
#     4  10  24  44  64  88 120 164 220 266 316 370
#     4   9  18  31  52  83 117 154 195 237 300 364
#     4  10  21  39  62  84 115 160 208 263 312 365
#
# _framework density 25.62256
#
# number of rings (size 3 to 8) (size 9 to 14) (size 15 to 20)
#    0.000    1.846    0.000    7.385    0.000    1.231 
#    0.000    1.538    0.000    5.538    0.000    0.000 
#    0.000    0.000    0.000    0.000    0.000    0.000 
#
# Total GULP energy -290178.286209 kJ/mol
# GULP energy per Si atom -5580.351658 kJ/mol
# Density = 2.556424 g / cm^3
# Si number density = 25.622560 Si / 1000 Ang^3
#
#
#
# Elastic Constant Matrix: (Units=GPa)
#
#
# Indices 1 2 3 4 5 6 
#
# 1 68.5175 34.5254 13.3797 0.0000 0.0000 0.0000
# 2 34.5254 238.8480 8.6643 0.0000 0.0000 0.0000
# 3 13.3797 8.6643 37.8483 0.0000 0.0000 0.0000
# 4 0.0000 0.0000 0.0000 20.7602 0.0000 0.0000
# 5 0.0000 0.0000 0.0000 0.0000 22.5165 0.0000
# 6 0.0000 0.0000 0.0000 0.0000 0.0000 34.1977
#
#
#
# Elastic Compliance Matrix: (Units=1/GPa)
#
#
# Indices 1 2 3 4 5 6 
#
# 1 0.016776 -0.002228 -0.005420 0.000000 0.000000 0.000000
# 2 -0.002228 0.004518 -0.000246 0.000000 0.000000 0.000000
# 3 -0.005420 -0.000246 0.028394 0.000000 0.000000 0.000000
# 4 0.000000 0.000000 0.000000 0.048169 0.000000 0.000000
# 5 0.000000 0.000000 0.000000 0.000000 0.044412 0.000000
# 6 0.000000 0.000000 0.000000 0.000000 0.000000 0.029242
#
#
# Mechanical properties :
#
#
# Convention : Reuss Voigt Hill
#
# Bulk Modulus (GPa) = 29.50086 50.92808 40.21447
# Shear Modulus (GPa) = 25.17622 34.73783 29.95703
#
# Velocity S-wave (km/s) = 3.13801 3.68605 3.42302
# Velocity P-wave (km/s) = 4.96670 6.16728 5.59926
#
# Compressibility (1/GPa) = 0.03389732
#
# Stress axis : x y z
#
# Youngs Moduli (GPa) = 59.60857 221.34605 35.21892
#
# Poissons Ratio (x) = 0.49324 0.19090
# Poissons Ratio (y) = 0.13283 0.00868
# Poissons Ratio (z) = 0.32310 0.05456
#
# Static dielectric constant tensor:
#      x y z
#    x 2.266620 0.000000 0.000000 
#    y 0.000000 2.236020 0.000000 
#    z 0.000000 0.000000 2.316780 
# 
# From -- ./inp_files/22161.got.cif
#   From: 2010.05.17/outbox.cif.g08.bks.cpg/sg60_12_cif.got.tgz:22161.got - 2010.06.03 14:59:27.
