data_PCOD9453546
_publ_section_title
;
Structure prediction by ZEFSAII (Michael W. Deem and Ramdas Pophale) SiO2 
 PCOD9453546
Probable space group: P M M N
;
_chemical_formula_sum "Si O2"
_cell_formula_units_Z 64
_cell_length_a 15.000000
_cell_length_b 9.000000
_cell_length_c 24.000000
_cell_angle_alpha 90.000000
_cell_angle_beta 90.000000
_cell_angle_gamma 90.000000
_cell_volume 3240.000000
_symmetry_space_group_name_H-M "P M M N"
_symmetry_group_IT_number 59
_space_group.IT_coordinate_system_code '2'
_symmetry_cell_setting 'orthorhombic'
loop_
_space_group_symop_operation_xyz
x,y,z
1/2-x,1/2-y,z
1/2+x,-y,-z
-x,1/2+y,-z
-x,-y,-z
1/2+x,1/2+y,-z
1/2-x,y,z
x,1/2-y,z
loop_
_atom_site_type_symbol
_atom_site_label
_atom_site_fract_x
_atom_site_fract_y
_atom_site_fract_z
Si Si1 0.653203 0.927157 0.766427
Si Si2 0.645985 0.429277 0.152710
Si Si3 0.149968 0.430708 0.533639
Si Si4 0.652257 0.423977 0.885529
Si Si5 0.533725 0.574114 0.251319
Si Si6 0.976321 0.926013 0.370996
Si Si7 0.511949 0.074881 0.058777
Si Si8 0.649714 0.571514 0.594501
O O1 0.750000 0.945821 0.736666
O O2 0.644969 0.750000 0.776933
O O3 0.660678 0.022983 0.822464
O O4 0.559951 0.988222 0.744721
O O5 0.750000 0.467107 0.152463
O O6 0.637445 0.250000 0.158173
O O7 0.593648 0.506279 0.203010
O O8 0.596349 0.473814 0.095655
O O9 0.250000 0.478913 0.547665
O O10 0.149364 0.250000 0.535983
O O11 0.079412 0.488178 0.577529
O O12 0.131638 0.469746 0.469915
O O13 0.750000 0.442189 0.912492
O O14 0.627965 0.250000 0.889220
O O15 0.576649 0.528270 0.909113
O O16 0.518768 0.750000 0.241671
O O17 0.574632 0.555046 0.312794
O O18 0.989240 0.750000 0.378583
O O19 0.072475 0.999645 0.370541
O O20 0.518585 0.250000 0.051810
O O21 0.500000 0.000000 0.000000
O O22 0.750000 0.522798 0.607327
O O23 0.647039 0.750000 0.599613
#
# Coordination Sequence:
#
# PCOD9453546 Si02
#       8
#     8   8   8   8   8   8   8   8
#     4  10  20  35  57  82 108 144 188 231 281 342
#     4  10  23  44  66  86 114 156 200 239 285 339
#     4   8  15  31  54  77 105 142 185 233 286 343
#     4  10  20  35  58  87 118 149 182 228 284 339
#     4  11  23  37  56  84 117 152 194 240 288 343
#     4  10  21  34  52  81 112 145 185 234 288 338
#     4  11  23  39  62  91 123 158 194 238 289 339
#     4   9  18  33  54  79 107 145 189 231 282 345
#
# _framework density 19.753086
#
# number of rings (size 3 to 8) (size 9 to 14) (size 15 to 20)
#    0.000    2.125    1.250    2.625    0.000    5.000 
#    0.000    5.000    0.000    1.125    0.000    0.000 
#    0.000    0.000    0.000    0.000    0.000    0.000 
#
# Total GULP energy -356621.354000 kJ/mol
# GULP energy per Si atom -5572.208656 kJ/mol
# Density = 1.970813 g / cm^3
# Si number density = 19.753086 Si / 1000 Ang^3
#
#
#
# Elastic Constant Matrix: (Units=GPa)
#
#
# Indices 1 2 3 4 5 6 
#
# 1 103.1582 22.0984 63.8401 0.0000 0.0000 0.0000
# 2 22.0984 19.4898 20.6679 0.0000 0.0000 0.0000
# 3 63.8401 20.6679 92.2668 0.0000 0.0000 0.0000
# 4 0.0000 0.0000 0.0000 11.2261 0.0000 0.0000
# 5 0.0000 0.0000 0.0000 0.0000 -49.8485 0.0000
# 6 0.0000 0.0000 0.0000 0.0000 0.0000 19.4173
#
#
#
# Elastic Compliance Matrix: (Units=1/GPa)
#
#
# Indices 1 2 3 4 5 6 
#
# 1 0.018217 -0.009560 -0.010463 0.000000 0.000000 0.000000
# 2 -0.009560 0.072311 -0.009583 0.000000 0.000000 0.000000
# 3 -0.010463 -0.009583 0.020224 0.000000 0.000000 0.000000
# 4 0.000000 0.000000 0.000000 0.089078 0.000000 0.000000
# 5 0.000000 0.000000 0.000000 0.000000 -0.020061 0.000000
# 6 0.000000 0.000000 0.000000 0.000000 0.000000 0.051501
#
#
# Mechanical properties :
#
#
# Convention : Reuss Voigt Hill
#
# Bulk Modulus (GPa) = 19.40242 47.56973 33.48607
# Shear Modulus (GPa) = 16.25161 3.37952 9.81557
#
# Velocity S-wave (km/s) = 2.87145 1.30943 2.23157
# Velocity P-wave (km/s) = 4.56481 5.14010 4.86097
#
# Compressibility (1/GPa) = 0.05153997
#
# Stress axis : x y z
#
# Youngs Moduli (GPa) = 54.89456 13.82917 49.44573
#
# Poissons Ratio (x) = 0.13220 0.51735
# Poissons Ratio (y) = 0.52477 0.47386
# Poissons Ratio (z) = 0.57436 0.13253
#
# Static dielectric constant tensor:
#      x y z
#    x 1.825980 0.000000 0.000000 
#    y 0.000000 1.648570 0.000000 
#    z 0.000000 0.000000 1.716140 
# 
# From -- ./inp_files/32120.got.cif
#   From: 2010.05.17/outbox.ucp.g08.bks.cvg/sg59_17_cif.got.tgz:32120.got - 2010.06.11 16:43:56.
