data_PCOD9453683
_publ_section_title
;
Structure prediction by ZEFSAII (Michael W. Deem and Ramdas Pophale) SiO2 
 PCOD9453683
Probable space group: P M M N
;
_chemical_formula_sum "Si O2"
_cell_formula_units_Z 40
_cell_length_a 9.000000
_cell_length_b 24.000000
_cell_length_c 9.000000
_cell_angle_alpha 90.000000
_cell_angle_beta 90.000000
_cell_angle_gamma 90.000000
_cell_volume 1944.000000
_symmetry_space_group_name_H-M "P M M N"
_symmetry_group_IT_number 59
_space_group.IT_coordinate_system_code '2'
_symmetry_cell_setting 'orthorhombic'
loop_
_space_group_symop_operation_xyz
x,y,z
1/2-x,1/2-y,z
1/2+x,-y,-z
-x,1/2+y,-z
-x,-y,-z
1/2+x,1/2+y,-z
1/2-x,y,z
x,1/2-y,z
loop_
_atom_site_type_symbol
_atom_site_label
_atom_site_fract_x
_atom_site_fract_y
_atom_site_fract_z
Si Si1 0.428352 0.750000 0.175530
Si Si2 0.576517 0.638299 0.300683
Si Si3 0.071670 0.057790 0.449375
Si Si4 0.427523 0.873556 0.792915
Si Si5 0.925194 0.560020 0.030921
Si Si6 0.930105 0.250000 0.172422
O O1 0.250000 0.750000 0.182980
O O2 0.489012 0.692964 0.248858
O O3 0.473097 0.750000 0.001379
O O4 0.750000 0.654590 0.307995
O O5 0.524638 0.611985 0.454921
O O6 0.571538 0.582270 0.199274
O O7 0.250000 0.053156 0.453044
O O8 0.009719 0.076646 0.291886
O O9 0.000000 0.000000 0.500000
O O10 0.250000 0.877232 0.775487
O O11 0.479094 0.890203 0.957112
O O12 0.476831 0.809793 0.760671
O O13 0.750000 0.559010 0.986097
O O14 0.000000 0.500000 0.000000
O O15 0.750000 0.250000 0.177652
#
# Coordination Sequence:
#
# PCOD9453683 Si02
#       6
#     4   8   8   8   8   4
#     4  11  21  38  65  94 122 160 207 255 306 365
#     4  10  23  41  61  88 125 163 201 253 311 365
#     4  11  24  43  64  91 126 166 209 254 310 370
#     4  11  22  40  63  90 126 164 204 256 309 365
#     4  11  22  37  60  90 120 160 209 257 312 369
#     4   9  20  38  61  90 124 160 203 255 308 359
#
# _framework density 20.576132000000001
#
# number of rings (size 3 to 8) (size 9 to 14) (size 15 to 20)
#    0.000    1.400    2.000    3.300    0.000    4.800 
#    0.000    4.000    0.000    0.000    0.000    0.000 
#    0.000    0.000    0.000    0.000    0.000    0.000 
#
# Total GULP energy -222988.644238 kJ/mol
# GULP energy per Si atom -5574.716106 kJ/mol
# Density = 2.052930 g / cm^3
# Si number density = 20.576132 Si / 1000 Ang^3
#
#
#
# Elastic Constant Matrix: (Units=GPa)
#
#
# Indices 1 2 3 4 5 6 
#
# 1 56.2289 47.1705 2.7915 0.0000 0.0000 0.0000
# 2 47.1705 149.3007 7.5926 0.0000 0.0000 0.0000
# 3 2.7915 7.5926 28.2063 0.0000 0.0000 0.0000
# 4 0.0000 0.0000 0.0000 34.5934 0.0000 0.0000
# 5 0.0000 0.0000 0.0000 0.0000 18.0891 0.0000
# 6 0.0000 0.0000 0.0000 0.0000 0.0000 42.1855
#
#
#
# Elastic Compliance Matrix: (Units=1/GPa)
#
#
# Indices 1 2 3 4 5 6 
#
# 1 0.024201 -0.007629 -0.000342 0.000000 0.000000 0.000000
# 2 -0.007629 0.009196 -0.001720 0.000000 0.000000 0.000000
# 3 -0.000342 -0.001720 0.035950 0.000000 0.000000 0.000000
# 4 0.000000 0.000000 0.000000 0.028907 0.000000 0.000000
# 5 0.000000 0.000000 0.000000 0.000000 0.055282 0.000000
# 6 0.000000 0.000000 0.000000 0.000000 0.000000 0.023705
#
#
# Mechanical properties :
#
#
# Convention : Reuss Voigt Hill
#
# Bulk Modulus (GPa) = 20.01387 38.76059 29.38723
# Shear Modulus (GPa) = 23.44366 30.71904 27.08135
#
# Velocity S-wave (km/s) = 3.37911 3.86806 3.63182
# Velocity P-wave (km/s) = 4.99723 6.23119 5.64801
#
# Compressibility (1/GPa) = 0.04996536
#
# Stress axis : x y z
#
# Youngs Moduli (GPa) = 41.32021 108.74701 27.81650
#
# Poissons Ratio (x) = 0.82961 0.00950
# Poissons Ratio (y) = 0.31523 0.04785
# Poissons Ratio (z) = 0.01411 0.18708
#
# Static dielectric constant tensor:
#      x y z
#    x 1.697500 0.000000 0.000000 
#    y 0.000000 1.684170 0.000000 
#    z 0.000000 0.000000 1.781390 
# 
# From -- ./inp_files/5720.got.cif
#   From: 2010.05.17/outbox.ucp.g08.bks.cvg/sg59_3_cif.got.tgz:5720.got - 2010.06.11 16:43:56.
