data_PCOD9453719
_publ_section_title
;
Structure prediction by ZEFSAII (Michael W. Deem and Ramdas Pophale) SiO2 
 PCOD9453719
Probable space group: P B C N
;
_chemical_formula_sum "Si O2"
_cell_formula_units_Z 56
_cell_length_a 27.290537
_cell_length_b 5.403161
_cell_length_c 16.996843
_cell_angle_alpha 90.000000
_cell_angle_beta 90.000000
_cell_angle_gamma 90.000000
_cell_volume 2506.272292
_symmetry_space_group_name_H-M "P B C N"
_symmetry_group_IT_number 60
_symmetry_cell_setting 'orthorhombic'
loop_
_space_group_symop_operation_xyz
x,y,z
1/2-x,1/2-y,1/2+z
1/2+x,1/2-y,-z
-x,y,1/2-z
-x,-y,-z
1/2+x,1/2+y,1/2-z
1/2-x,1/2+y,z
x,-y,1/2+z
loop_
_atom_site_type_symbol
_atom_site_label
_atom_site_fract_x
_atom_site_fract_y
_atom_site_fract_z
Si Si1 0.240025 0.000586 0.937510
Si Si2 0.446600 0.158908 0.783336
Si Si3 0.112238 0.484850 0.577999
Si Si4 0.721515 0.011603 0.388502
Si Si5 0.628051 0.513741 0.519453
Si Si6 0.997563 0.475630 0.906682
Si Si7 0.425900 0.654450 0.824560
O O1 0.249268 0.251448 0.891628
O O2 0.186246 0.996964 0.973017
O O3 0.274627 0.005316 0.015131
O O4 0.500000 0.093551 0.750000
O O5 0.429904 0.432143 0.762041
O O6 0.464936 0.183234 0.874567
O O7 0.412263 0.919506 0.785960
O O8 0.163198 0.476717 0.626785
O O9 0.111138 0.237723 0.523631
O O10 0.059004 0.495934 0.618957
O O11 0.114307 0.740799 0.529136
O O12 0.751176 0.258168 0.363135
O O13 0.609888 0.563539 0.607660
O O14 0.023237 0.232717 0.868974
O O15 0.000000 0.500000 0.000000
#
# Coordination Sequence:
#
# PCOD9453719 Si02
#       7
#     8   8   8   8   8   8   8
#     4  10  16  27  40  62  94 144 170 198 246 319
#     4  10  22  41  57  71 104 148 182 216 257 315
#     4  12  20  27  48  68 107 142 168 207 264 313
#     4  10  16  29  39  62  92 145 172 197 242 318
#     4  12  19  29  46  71 106 141 168 210 263 315
#     4  10  22  35  52  82 111 136 171 216 271 311
#     4  10  22  35  53  76 103 138 178 214 264 310
#
# _framework density 22.34394
#
# number of rings (size 3 to 8) (size 9 to 14) (size 15 to 20)
#    0.857    0.571    7.143    2.143    2.000    1.143 
#    0.000    0.000    0.000    0.000    0.000    0.000 
#    0.000    6.857    0.000    0.000    0.000    0.000 
#
# Total GULP energy -311801.336105 kJ/mol
# GULP energy per Si atom -5567.881002 kJ/mol
# Density = 2.229308 g / cm^3
# Si number density = 22.343940 Si / 1000 Ang^3
#
#
#
# Elastic Constant Matrix: (Units=GPa)
#
#
# Indices 1 2 3 4 5 6 
#
# 1 90.2578 17.5571 -11.3160 0.0000 0.0000 0.0000
# 2 17.5571 203.7077 -3.5812 0.0000 0.0000 0.0000
# 3 -11.3160 -3.5812 11.7599 0.0000 0.0000 0.0000
# 4 0.0000 0.0000 0.0000 7.9599 0.0000 0.0000
# 5 0.0000 0.0000 0.0000 0.0000 6.6308 0.0000
# 6 0.0000 0.0000 0.0000 0.0000 0.0000 22.7037
#
#
#
# Elastic Compliance Matrix: (Units=1/GPa)
#
#
# Indices 1 2 3 4 5 6 
#
# 1 0.012757 -0.000888 0.012005 0.000000 0.000000 0.000000
# 2 -0.000888 0.004997 0.000667 0.000000 0.000000 0.000000
# 3 0.012005 0.000667 0.096790 0.000000 0.000000 0.000000
# 4 0.000000 0.000000 0.000000 0.125630 0.000000 0.000000
# 5 0.000000 0.000000 0.000000 0.000000 0.150812 0.000000
# 6 0.000000 0.000000 0.000000 0.000000 0.000000 0.044046
#
#
# Mechanical properties :
#
#
# Convention : Reuss Voigt Hill
#
# Bulk Modulus (GPa) = 7.24049 34.56057 20.90053
# Shear Modulus (GPa) = 10.92889 27.66324 19.29607
#
# Velocity S-wave (km/s) = 2.21401 3.52243 2.94188
# Velocity P-wave (km/s) = 3.12782 5.66078 4.57317
#
# Compressibility (1/GPa) = 0.13811214
#
# Stress axis : x y z
#
# Youngs Moduli (GPa) = 78.38614 200.10838 10.33163
#
# Poissons Ratio (x) = 0.17779 -0.12403
# Poissons Ratio (y) = 0.06964 -0.00689
# Poissons Ratio (z) = -0.94105 -0.13344
#
# Static dielectric constant tensor:
#      x y z
#    x 1.851220 0.000000 0.000000 
#    y 0.000000 1.948300 0.000000 
#    z 0.000000 0.000000 1.981750 
# 
# From -- ./inp_files/23327.got.cif
#   From: 2010.05.17/outbox.cif.g08.bks.cpg/sg60_12_cif.got.tgz:23327.got - 2010.06.03 14:59:27.
