data_PCOD9453512
_publ_section_title
;
Structure prediction by ZEFSAII (Michael W. Deem and Ramdas Pophale) SiO2 
 PCOD9453512
Probable space group: P M M N
;
_chemical_formula_sum "Si O2"
_cell_formula_units_Z 56
_cell_length_a 9.000000
_cell_length_b 21.000000
_cell_length_c 15.000000
_cell_angle_alpha 90.000000
_cell_angle_beta 90.000000
_cell_angle_gamma 90.000000
_cell_volume 2835.000000
_symmetry_space_group_name_H-M "P M M N"
_symmetry_group_IT_number 59
_space_group.IT_coordinate_system_code '2'
_symmetry_cell_setting 'orthorhombic'
loop_
_space_group_symop_operation_xyz
x,y,z
1/2-x,1/2-y,z
1/2+x,-y,-z
-x,1/2+y,-z
-x,-y,-z
1/2+x,1/2+y,-z
1/2-x,y,z
x,1/2-y,z
loop_
_atom_site_type_symbol
_atom_site_label
_atom_site_fract_x
_atom_site_fract_y
_atom_site_fract_z
Si Si1 0.918070 0.975617 0.124790
Si Si2 0.571313 0.322893 0.179844
Si Si3 0.572826 0.421326 0.337063
Si Si4 0.925380 0.819217 0.329320
Si Si5 0.919920 0.451479 0.704810
Si Si6 0.422957 0.680832 0.515851
Si Si7 0.577519 0.594709 0.953667
O O1 0.750000 0.980205 0.163004
O O2 0.050065 0.971202 0.194109
O O3 0.919979 0.915232 0.059623
O O4 0.957434 0.040861 0.074559
O O5 0.750000 0.327124 0.167964
O O6 0.538874 0.250000 0.207468
O O7 0.528812 0.377688 0.251731
O O8 0.483260 0.341397 0.090458
O O9 0.750000 0.429498 0.332072
O O10 0.498247 0.490000 0.345558
O O11 0.540130 0.376913 0.420759
O O12 0.750000 0.824496 0.315623
O O13 0.975116 0.750000 0.292409
O O14 0.004742 0.882847 0.298738
O O15 0.967522 0.817727 0.433356
O O16 0.750000 0.447377 0.678772
O O17 0.250000 0.674268 0.485848
O O18 0.430514 0.750000 0.562611
O O19 0.750000 0.583083 0.925376
#
# Coordination Sequence:
#
# PCOD9453512 Si02
#       7
#     8   8   8   8   8   8   8
#     4  10  20  36  57  80 110 146 185 231 281 336
#     4  10  20  34  54  81 116 158 196 232 280 336
#     4  10  20  35  56  83 117 154 191 232 281 335
#     4  10  22  41  63  84 109 145 187 232 289 348
#     4  12  24  37  58  87 116 146 187 237 287 338
#     4   9  18  35  59  85 114 150 192 234 278 332
#     4  10  20  34  55  82 109 144 188 232 280 331
#
# _framework density 19.753086
#
# number of rings (size 3 to 8) (size 9 to 14) (size 15 to 20)
#    0.000    1.857    1.429    3.000    0.000    5.714 
#    0.000    0.714    0.000    3.429    0.000    0.000 
#    0.000    0.000    0.000    0.000    0.000    0.000 
#
# Total GULP energy -311831.485043 kJ/mol
# GULP energy per Si atom -5568.419376 kJ/mol
# Density = 1.970813 g / cm^3
# Si number density = 19.753086 Si / 1000 Ang^3
#
#
#
# Elastic Constant Matrix: (Units=GPa)
#
#
# Indices 1 2 3 4 5 6 
#
# 1 32.1311 18.0966 -15.7605 0.0000 0.0000 0.0000
# 2 18.0966 94.2898 -12.3484 0.0000 0.0000 0.0000
# 3 -15.7605 -12.3484 -1.5188 0.0000 0.0000 0.0000
# 4 0.0000 0.0000 0.0000 30.9054 0.0000 0.0000
# 5 0.0000 0.0000 0.0000 0.0000 16.0193 0.0000
# 6 0.0000 0.0000 0.0000 0.0000 0.0000 32.5598
#
#
#
# Elastic Compliance Matrix: (Units=1/GPa)
#
#
# Indices 1 2 3 4 5 6 
#
# 1 0.011650 -0.008751 -0.049746 0.000000 0.000000 0.000000
# 2 -0.008751 0.011709 -0.004395 0.000000 0.000000 0.000000
# 3 -0.049746 -0.004395 -0.106465 0.000000 0.000000 0.000000
# 4 0.000000 0.000000 0.000000 0.032357 0.000000 0.000000
# 5 0.000000 0.000000 0.000000 0.000000 0.062425 0.000000
# 6 0.000000 0.000000 0.000000 0.000000 0.000000 0.030713
#
#
# Mechanical properties :
#
#
# Convention : Reuss Voigt Hill
#
# Bulk Modulus (GPa) = -4.78721 11.65306 3.43293
# Shear Modulus (GPa) = 50.73883 24.89117 37.81500
#
# Velocity S-wave (km/s) = 5.07369 3.55366 4.38011
# Velocity P-wave (km/s) = 5.64750 4.76971 5.22707
#
# Compressibility (1/GPa) = -0.20889015
#
# Stress axis : x y z
#
# Youngs Moduli (GPa) = 85.83557 85.40078 -9.39275
#
# Poissons Ratio (x) = 0.74733 -0.46725
# Poissons Ratio (y) = 0.75113 -0.04128
# Poissons Ratio (z) = 4.27000 0.37536
#
# Static dielectric constant tensor:
#      x y z
#    x 1.663270 0.000000 0.000000 
#    y 0.000000 1.759910 0.000000 
#    z 0.000000 0.000000 1.785740 
# 
# From -- ./inp_files/21085.got.cif
#   From: 2010.05.17/outbox.ucp.g08.bks.cvg/sg59_11_cif.got.tgz:21085.got - 2010.06.11 16:43:56.
