data_PCOD9453793
_publ_section_title
;
Structure prediction by ZEFSAII (Michael W. Deem and Ramdas Pophale) SiO2 
 PCOD9453793
Probable space group: P B C N
;
_chemical_formula_sum "Si O2"
_cell_formula_units_Z 44
_cell_length_a 7.153924
_cell_length_b 25.274715
_cell_length_c 9.769354
_cell_angle_alpha 90.000000
_cell_angle_beta 90.000000
_cell_angle_gamma 90.000000
_cell_volume 1766.430017
_symmetry_space_group_name_H-M "P B C N"
_symmetry_group_IT_number 60
_symmetry_cell_setting 'orthorhombic'
loop_
_space_group_symop_operation_xyz
x,y,z
1/2-x,1/2-y,1/2+z
1/2+x,1/2-y,-z
-x,y,1/2-z
-x,-y,-z
1/2+x,1/2+y,1/2-z
1/2-x,1/2+y,z
x,-y,1/2+z
loop_
_atom_site_type_symbol
_atom_site_label
_atom_site_fract_x
_atom_site_fract_y
_atom_site_fract_z
Si Si1 0.840411 0.324033 0.513379
Si Si2 0.500000 0.365849 0.250000
Si Si3 0.225284 0.568137 0.581513
Si Si4 0.722662 0.475929 0.726991
Si Si5 0.407535 0.296710 0.466015
Si Si6 0.720014 0.363388 0.795843
O O1 0.897918 0.378234 0.436041
O O2 0.621709 0.314324 0.480611
O O3 0.918453 0.265279 0.503119
O O4 0.834312 0.339655 0.671568
O O5 0.579362 0.405904 0.365027
O O6 0.355962 0.324115 0.321127
O O7 0.184458 0.525971 0.699649
O O8 0.242715 0.539016 0.433263
O O9 0.500000 0.482064 0.750000
O O10 0.778821 0.423775 0.813439
O O11 0.277596 0.325668 0.575312
O O12 0.500000 0.365148 0.750000
#
# Coordination Sequence:
#
# PCOD9453793 Si02
#       6
#     8   4   8   8   8   8
#     4   9  20  35  51  79 110 140 178 220 260 319
#     4  10  20  30  48  80 108 138 178 222 262 320
#     4  10  20  29  47  77 108 137 175 216 267 323
#     4  10  17  28  46  69 109 140 165 208 274 319
#     4  10  20  34  53  75 112 139 180 220 265 312
#     4   8  17  31  46  69 107 145 165 210 268 319
#
# _framework density 24.908996999999999
#
# number of rings (size 3 to 8) (size 9 to 14) (size 15 to 20)
#    0.000    2.545    0.909    3.818    7.636    0.000 
#    0.000    0.000    0.000    0.000    0.000    1.273 
#   10.909    0.182    0.000    0.000    0.000    0.000 
#
# Total GULP energy -245311.493843 kJ/mol
# GULP energy per Si atom -5575.261224 kJ/mol
# Density = 2.485230 g / cm^3
# Si number density = 24.908997 Si / 1000 Ang^3
#
#
#
# Elastic Constant Matrix: (Units=GPa)
#
#
# Indices 1 2 3 4 5 6 
#
# 1 47.2782 23.9922 18.1626 0.0000 0.0000 0.0000
# 2 23.9922 260.1233 102.8419 0.0000 0.0000 0.0000
# 3 18.1626 102.8419 125.3783 0.0000 0.0000 0.0000
# 4 0.0000 0.0000 0.0000 23.2799 0.0000 0.0000
# 5 0.0000 0.0000 0.0000 0.0000 15.5342 0.0000
# 6 0.0000 0.0000 0.0000 0.0000 0.0000 13.1782
#
#
#
# Elastic Compliance Matrix: (Units=1/GPa)
#
#
# Indices 1 2 3 4 5 6 
#
# 1 0.022636 -0.001171 -0.002318 0.000000 0.000000 0.000000
# 2 -0.001171 0.005750 -0.004547 0.000000 0.000000 0.000000
# 3 -0.002318 -0.004547 0.012041 0.000000 0.000000 0.000000
# 4 0.000000 0.000000 0.000000 0.042956 0.000000 0.000000
# 5 0.000000 0.000000 0.000000 0.000000 0.064374 0.000000
# 6 0.000000 0.000000 0.000000 0.000000 0.000000 0.075883
#
#
# Mechanical properties :
#
#
# Convention : Reuss Voigt Hill
#
# Bulk Modulus (GPa) = 41.05982 80.30815 60.68399
# Shear Modulus (GPa) = 20.17503 29.58399 24.87951
#
# Velocity S-wave (km/s) = 2.84905 3.45002 3.16383
# Velocity P-wave (km/s) = 5.22900 6.94124 6.14505
#
# Compressibility (1/GPa) = 0.02435471
#
# Stress axis : x y z
#
# Youngs Moduli (GPa) = 44.17655 173.91449 83.04816
#
# Poissons Ratio (x) = 0.20369 0.19255
# Poissons Ratio (y) = 0.05174 0.37760
# Poissons Ratio (z) = 0.10242 0.79075
#
# Static dielectric constant tensor:
#      x y z
#    x 2.110400 0.000000 0.000000 
#    y 0.000000 1.996320 0.000000 
#    z 0.000000 0.000000 2.133190 
# 
# From -- ./inp_files/5011.got.cif
#   From: 2010.05.17/outbox.cif.g08.bks.cpg/sg60_3_cif.got.tgz:5011.got - 2010.06.03 14:59:27.
