data_PCOD9453424
_publ_section_title
;
Structure prediction by ZEFSAII (Michael W. Deem and Ramdas Pophale) SiO2 
 PCOD9453424
Probable space group: P M M N
;
_chemical_formula_sum "Si O2"
_cell_formula_units_Z 64
_cell_length_a 21.000000
_cell_length_b 18.000000
_cell_length_c 9.000000
_cell_angle_alpha 90.000000
_cell_angle_beta 90.000000
_cell_angle_gamma 90.000000
_cell_volume 3402.000000
_symmetry_space_group_name_H-M "P M M N"
_symmetry_group_IT_number 59
_space_group.IT_coordinate_system_code '2'
_symmetry_cell_setting 'orthorhombic'
loop_
_space_group_symop_operation_xyz
x,y,z
1/2-x,1/2-y,z
1/2+x,-y,-z
-x,1/2+y,-z
-x,-y,-z
1/2+x,1/2+y,-z
1/2-x,y,z
x,1/2-y,z
loop_
_atom_site_type_symbol
_atom_site_label
_atom_site_fract_x
_atom_site_fract_y
_atom_site_fract_z
Si Si1 0.326624 0.459257 0.206986
Si Si2 0.453121 0.337610 0.899324
Si Si3 0.176831 0.579371 0.743426
Si Si4 0.928592 0.837058 0.747295
Si Si5 0.578586 0.397667 0.755747
Si Si6 0.060597 0.660004 0.576048
Si Si7 0.320409 0.668008 0.043141
Si Si8 0.177247 0.417521 0.856556
O O1 0.250000 0.467627 0.250594
O O2 0.366286 0.389090 0.274840
O O3 0.375693 0.528503 0.237163
O O4 0.324720 0.444472 0.029145
O O5 0.465122 0.250000 0.862297
O O6 0.510507 0.390735 0.841510
O O7 0.383611 0.363568 0.838932
O O8 0.448289 0.343337 0.078553
O O9 0.250000 0.595087 0.691677
O O10 0.120455 0.621107 0.658071
O O11 0.168847 0.490537 0.754021
O O12 0.172862 0.609235 0.912272
O O13 0.913827 0.750000 0.718720
O O14 0.992015 0.857187 0.652808
O O15 0.563190 0.372488 0.589589
O O16 0.624586 0.339633 0.838324
O O17 0.067499 0.750000 0.577745
O O18 0.250000 0.657998 0.111331
O O19 0.322751 0.750000 0.974273
O O20 0.250000 0.388287 0.832462
#
# Coordination Sequence:
#
# PCOD9453424 Si02
#       8
#     8   8   8   8   8   8   8   8
#     4  10  21  38  62  91 118 149 194 245 294 347
#     4  10  21  37  61  89 115 151 195 237 287 351
#     4  10  20  36  57  82 115 152 195 240 288 345
#     4   9  21  40  62  88 117 153 196 242 290 344
#     4  12  23  36  58  83 122 154 190 237 291 341
#     4  11  24  39  56  82 120 158 196 241 289 342
#     4  10  19  33  55  80 109 150 194 234 282 341
#     4   9  19  37  61  88 116 147 189 246 296 341
#
# _framework density 18.812463000000001
#
# number of rings (size 3 to 8) (size 9 to 14) (size 15 to 20)
#    0.000    1.875    1.250    2.625    1.750    4.750 
#    0.000    2.500    0.000    0.000    0.000    1.750 
#    0.000    0.000    0.000    0.000    0.000    0.000 
#
# Total GULP energy -356776.000337 kJ/mol
# GULP energy per Si atom -5574.625005 kJ/mol
# Density = 1.876965 g / cm^3
# Si number density = 18.812463 Si / 1000 Ang^3
#
#
#
# Elastic Constant Matrix: (Units=GPa)
#
#
# Indices 1 2 3 4 5 6 
#
# 1 170.7971 55.0147 37.2247 0.0000 0.0000 0.0000
# 2 55.0147 79.6247 14.6917 0.0000 0.0000 0.0000
# 3 37.2247 14.6917 38.5251 0.0000 0.0000 0.0000
# 4 0.0000 0.0000 0.0000 14.3170 0.0000 0.0000
# 5 0.0000 0.0000 0.0000 0.0000 8.8022 0.0000
# 6 0.0000 0.0000 0.0000 0.0000 0.0000 40.6003
#
#
#
# Elastic Compliance Matrix: (Units=1/GPa)
#
#
# Indices 1 2 3 4 5 6 
#
# 1 0.008903 -0.004910 -0.006730 0.000000 0.000000 0.000000
# 2 -0.004910 0.016217 -0.001441 0.000000 0.000000 0.000000
# 3 -0.006730 -0.001441 0.033010 0.000000 0.000000 0.000000
# 4 0.000000 0.000000 0.000000 0.069847 0.000000 0.000000
# 5 0.000000 0.000000 0.000000 0.000000 0.113607 0.000000
# 6 0.000000 0.000000 0.000000 0.000000 0.000000 0.024630
#
#
# Mechanical properties :
#
#
# Convention : Reuss Voigt Hill
#
# Bulk Modulus (GPa) = 31.28056 55.86769 43.57413
# Shear Modulus (GPa) = 16.49993 24.87828 20.68911
#
# Velocity S-wave (km/s) = 2.96476 3.64048 3.31985
# Velocity P-wave (km/s) = 5.32761 6.88712 6.15694
#
# Compressibility (1/GPa) = 0.03196874
#
# Stress axis : x y z
#
# Youngs Moduli (GPa) = 112.31957 61.66418 30.29421
#
# Poissons Ratio (x) = 0.30275 0.20389
# Poissons Ratio (y) = 0.55144 0.04364
# Poissons Ratio (z) = 0.75595 0.08883
#
# Static dielectric constant tensor:
#      x y z
#    x 1.658180 0.000000 0.000000 
#    y 0.000000 1.687460 0.000000 
#    z 0.000000 0.000000 1.650400 
# 
# From -- ./inp_files/11642.got.cif
#   From: 2010.05.17/outbox.ucp.g08.bks.cvg/sg59_6_cif.got.tgz:11642.got - 2010.06.11 16:43:56.
