data_PCOD9453609
_publ_section_title
;
Structure prediction by ZEFSAII (Michael W. Deem and Ramdas Pophale) SiO2 
 PCOD9453609
Probable space group: P M M N
;
_chemical_formula_sum "Si O2"
_cell_formula_units_Z 48
_cell_length_a 18.000000
_cell_length_b 9.000000
_cell_length_c 15.000000
_cell_angle_alpha 90.000000
_cell_angle_beta 90.000000
_cell_angle_gamma 90.000000
_cell_volume 2430.000000
_symmetry_space_group_name_H-M "P M M N"
_symmetry_group_IT_number 59
_space_group.IT_coordinate_system_code '2'
_symmetry_cell_setting 'orthorhombic'
loop_
_space_group_symop_operation_xyz
x,y,z
1/2-x,1/2-y,z
1/2+x,-y,-z
-x,1/2+y,-z
-x,-y,-z
1/2+x,1/2+y,-z
1/2-x,y,z
x,1/2-y,z
loop_
_atom_site_type_symbol
_atom_site_label
_atom_site_fract_x
_atom_site_fract_y
_atom_site_fract_z
Si Si1 0.918260 0.928740 0.853462
Si Si2 0.337581 0.083040 0.327419
Si Si3 0.831677 0.425684 0.220335
Si Si4 0.035496 0.415361 0.742975
Si Si5 0.056752 0.914334 0.438205
Si Si6 0.163969 0.426323 0.971222
O O1 0.925146 0.750000 0.856513
O O2 0.863205 0.967376 0.771313
O O3 0.887696 0.979400 0.948379
O O4 0.994197 0.003843 0.823773
O O5 0.250000 0.086081 0.327621
O O6 0.368690 0.250000 0.336548
O O7 0.367398 0.993342 0.411630
O O8 0.750000 0.474066 0.247947
O O9 0.835204 0.250000 0.216688
O O10 0.893523 0.490886 0.283553
O O11 0.845183 0.490024 0.121547
O O12 0.057315 0.250000 0.768880
O O13 0.981947 0.408133 0.658881
O O14 0.068663 0.750000 0.473475
O O15 0.000000 0.000000 0.500000
O O16 0.250000 0.445145 0.999529
O O17 0.152309 0.250000 0.958357
#
# Coordination Sequence:
#
# PCOD9453609 Si02
#       6
#     8   8   8   8   8   8
#     4   9  17  30  50  76 105 137 171 207 248 296
#     4   9  17  31  53  80 109 139 170 206 250 301
#     4  10  21  36  53  73  98 131 172 215 257 299
#     4  10  21  36  54  76 100 129 166 206 252 304
#     4  10  21  37  57  80 105 134 168 207 254 307
#     4   9  17  30  49  73 102 137 175 212 250 292
#
# _framework density 19.753086
#
# number of rings (size 3 to 8) (size 9 to 14) (size 15 to 20)
#    0.000    2.500    0.000    2.000    0.000    6.667 
#    0.000    0.833    0.000    4.000    0.000    0.000 
#    0.000    0.000    0.000    0.000    0.000    0.000 
#
# Total GULP energy -267334.293457 kJ/mol
# GULP energy per Si atom -5569.464447 kJ/mol
# Density = 1.970813 g / cm^3
# Si number density = 19.753086 Si / 1000 Ang^3
#
#
#
# Elastic Constant Matrix: (Units=GPa)
#
#
# Indices 1 2 3 4 5 6 
#
# 1 60.6789 18.1499 -7.7788 0.0000 0.0000 0.0000
# 2 18.1499 8.9836 -4.7086 0.0000 0.0000 0.0000
# 3 -7.7788 -4.7086 -19.4629 0.0000 0.0000 0.0000
# 4 0.0000 0.0000 0.0000 16.9461 0.0000 0.0000
# 5 0.0000 0.0000 0.0000 0.0000 27.4644 0.0000
# 6 0.0000 0.0000 0.0000 0.0000 0.0000 20.7402
#
#
#
# Elastic Compliance Matrix: (Units=1/GPa)
#
#
# Indices 1 2 3 4 5 6 
#
# 1 0.041413 -0.081952 0.003275 0.000000 0.000000 0.000000
# 2 -0.081952 0.260961 -0.030380 0.000000 0.000000 0.000000
# 3 0.003275 -0.030380 -0.045339 0.000000 0.000000 0.000000
# 4 0.000000 0.000000 0.000000 0.059011 0.000000 0.000000
# 5 0.000000 0.000000 0.000000 0.000000 0.036411 0.000000
# 6 0.000000 0.000000 0.000000 0.000000 0.000000 0.048215
#
#
# Mechanical properties :
#
#
# Convention : Reuss Voigt Hill
#
# Bulk Modulus (GPa) = 25.69282 6.83606 16.26444
# Shear Modulus (GPa) = 7.91440 15.99928 11.95684
#
# Velocity S-wave (km/s) = 2.00384 2.84907 2.46298
# Velocity P-wave (km/s) = 4.28825 3.78037 4.04229
#
# Compressibility (1/GPa) = 0.03892138
#
# Stress axis : x y z
#
# Youngs Moduli (GPa) = 24.14707 3.83199 -22.05619
#
# Poissons Ratio (x) = 0.31404 0.07223
# Poissons Ratio (y) = 1.97889 -0.67007
# Poissons Ratio (z) = -0.07908 0.11642
#
# Static dielectric constant tensor:
#      x y z
#    x 1.744830 0.000000 0.000000 
#    y 0.000000 1.769550 0.000000 
#    z 0.000000 0.000000 1.669870 
# 
# From -- ./inp_files/20293.got.cif
#   From: 2010.05.17/outbox.ucp.g08.bks.cvg/sg59_11_cif.got.tgz:20293.got - 2010.06.11 16:43:56.
