data_PCOD9453556
_publ_section_title
;
Structure prediction by ZEFSAII (Michael W. Deem and Ramdas Pophale) SiO2 
 PCOD9453556
Probable space group: P M M N
;
_chemical_formula_sum "Si O2"
_cell_formula_units_Z 56
_cell_length_a 21.000000
_cell_length_b 9.000000
_cell_length_c 15.000000
_cell_angle_alpha 90.000000
_cell_angle_beta 90.000000
_cell_angle_gamma 90.000000
_cell_volume 2835.000000
_symmetry_space_group_name_H-M "P M M N"
_symmetry_group_IT_number 59
_space_group.IT_coordinate_system_code '2'
_symmetry_cell_setting 'orthorhombic'
loop_
_space_group_symop_operation_xyz
x,y,z
1/2-x,1/2-y,z
1/2+x,-y,-z
-x,1/2+y,-z
-x,-y,-z
1/2+x,1/2+y,-z
1/2-x,y,z
x,1/2-y,z
loop_
_atom_site_type_symbol
_atom_site_label
_atom_site_fract_x
_atom_site_fract_y
_atom_site_fract_z
Si Si1 0.568500 0.421037 0.990343
Si Si2 0.324674 0.570606 0.151329
Si Si3 0.679600 0.573988 0.302011
Si Si4 0.180991 0.573211 0.504497
Si Si5 0.433016 0.080106 0.242651
Si Si6 0.569661 0.422773 0.191756
Si Si7 0.944687 0.582007 0.552126
O O1 0.556209 0.250000 0.963540
O O2 0.593810 0.422324 0.091024
O O3 0.500000 0.500000 0.000000
O O4 0.626265 0.478065 0.928020
O O5 0.250000 0.521863 0.147198
O O6 0.323110 0.750000 0.152261
O O7 0.367490 0.510051 0.233008
O O8 0.750000 0.546334 0.259913
O O9 0.674688 0.750000 0.317759
O O10 0.679695 0.487303 0.395041
O O11 0.618908 0.517022 0.248388
O O12 0.250000 0.533271 0.464981
O O13 0.175029 0.750000 0.504614
O O14 0.121847 0.499602 0.457893
O O15 0.420662 0.250000 0.212969
O O16 0.496107 0.021654 0.192358
O O17 0.457534 0.083717 0.343382
O O18 0.567781 0.250000 0.222846
O O19 0.939358 0.750000 0.518513
O O20 0.000000 0.500000 0.500000
#
# Coordination Sequence:
#
# PCOD9453556 Si02
#       7
#     8   8   8   8   8   8   8
#     4  10  20  36  60  86 114 151 193 240 288 342
#     4  10  22  39  59  87 120 154 196 243 291 346
#     4  10  21  36  55  83 117 150 189 238 290 346
#     4  10  21  38  59  81 110 151 195 239 292 353
#     4  10  22  39  58  84 115 150 193 238 287 344
#     4  10  20  35  58  85 114 150 192 235 285 348
#     4  11  23  38  59  87 119 152 194 247 296 350
#
# _framework density 19.753086
#
# number of rings (size 3 to 8) (size 9 to 14) (size 15 to 20)
#    0.000    1.857    1.429    2.143    0.000    6.571 
#    0.000    4.286    0.000    0.000    0.000    0.000 
#    0.000    0.000    0.000    0.000    0.000    0.000 
#
# Total GULP energy -311994.247481 kJ/mol
# GULP energy per Si atom -5571.325848 kJ/mol
# Density = 1.970813 g / cm^3
# Si number density = 19.753086 Si / 1000 Ang^3
#
#
#
# Elastic Constant Matrix: (Units=GPa)
#
#
# Indices 1 2 3 4 5 6 
#
# 1 136.5654 40.8003 39.7846 0.0000 0.0000 0.0000
# 2 40.8003 51.4480 18.3814 0.0000 0.0000 0.0000
# 3 39.7846 18.3814 54.2944 0.0000 0.0000 0.0000
# 4 0.0000 0.0000 0.0000 19.9129 0.0000 0.0000
# 5 0.0000 0.0000 0.0000 0.0000 27.2981 0.0000
# 6 0.0000 0.0000 0.0000 0.0000 0.0000 37.6900
#
#
#
# Elastic Compliance Matrix: (Units=1/GPa)
#
#
# Indices 1 2 3 4 5 6 
#
# 1 0.011002 -0.006649 -0.005811 0.000000 0.000000 0.000000
# 2 -0.006649 0.026130 -0.003974 0.000000 0.000000 0.000000
# 3 -0.005811 -0.003974 0.024021 0.000000 0.000000 0.000000
# 4 0.000000 0.000000 0.000000 0.050219 0.000000 0.000000
# 5 0.000000 0.000000 0.000000 0.000000 0.036633 0.000000
# 6 0.000000 0.000000 0.000000 0.000000 0.000000 0.026532
#
#
# Mechanical properties :
#
#
# Convention : Reuss Voigt Hill
#
# Bulk Modulus (GPa) = 35.35389 48.91561 42.13475
# Shear Modulus (GPa) = 23.05932 26.53629 24.79781
#
# Velocity S-wave (km/s) = 3.42040 3.66922 3.54699
# Velocity P-wave (km/s) = 5.79099 6.53974 6.17672
#
# Compressibility (1/GPa) = 0.02828543
#
# Stress axis : x y z
#
# Youngs Moduli (GPa) = 90.89562 38.27053 41.62958
#
# Poissons Ratio (x) = 0.25445 0.24189
# Poissons Ratio (y) = 0.60434 0.16545
# Poissons Ratio (z) = 0.52816 0.15210
#
# Static dielectric constant tensor:
#      x y z
#    x 1.689400 0.000000 0.000000 
#    y 0.000000 1.704090 0.000000 
#    z 0.000000 0.000000 1.828760 
# 
# From -- ./inp_files/24282.got.cif
#   From: 2010.05.17/outbox.ucp.g08.bks.cvg/sg59_13_cif.got.tgz:24282.got - 2010.06.11 16:43:56.
