data_PCOD9453079
_publ_section_title
;
Structure prediction by ZEFSAII (Michael W. Deem and Ramdas Pophale) SiO2 
 PCOD9453079
Probable space group: P M M N
;
_chemical_formula_sum "Si O2"
_cell_formula_units_Z 48
_cell_length_a 8.714237
_cell_length_b 31.110559
_cell_length_c 9.760055
_cell_angle_alpha 90.000000
_cell_angle_beta 90.000000
_cell_angle_gamma 90.000000
_cell_volume 2645.997606
_symmetry_space_group_name_H-M "P M M N"
_symmetry_group_IT_number 59
_space_group.IT_coordinate_system_code '2'
_symmetry_cell_setting 'orthorhombic'
loop_
_space_group_symop_operation_xyz
x,y,z
1/2-x,1/2-y,z
1/2+x,-y,-z
-x,1/2+y,-z
-x,-y,-z
1/2+x,1/2+y,-z
1/2-x,y,z
x,1/2-y,z
loop_
_atom_site_type_symbol
_atom_site_label
_atom_site_fract_x
_atom_site_fract_y
_atom_site_fract_z
Si Si1 0.933830 0.750000 0.658715
Si Si2 0.564808 0.075403 0.838767
Si Si3 0.934478 0.324837 0.841640
Si Si4 0.435473 0.825611 0.842251
Si Si5 0.565930 0.999030 0.347770
Si Si6 0.066669 0.250000 0.656537
Si Si7 0.563493 0.076040 0.152055
O O1 0.750000 0.750000 0.660645
O O2 0.986935 0.750000 0.500978
O O3 0.994111 0.708256 0.738663
O O4 0.750000 0.071435 0.830877
O O5 0.526369 0.125402 0.812771
O O6 0.488674 0.043058 0.733401
O O7 0.516993 0.065574 0.995835
O O8 0.750000 0.321044 0.833961
O O9 0.008007 0.291671 0.737609
O O10 0.977876 0.315423 0.999800
O O11 0.250000 0.823526 0.834104
O O12 0.483001 0.875020 0.815161
O O13 0.750000 0.999995 0.353517
O O14 0.500000 0.000000 0.500000
O O15 0.512115 0.040471 0.259853
O O16 0.250000 0.250000 0.656724
O O17 0.750000 0.076137 0.151496
#
# Coordination Sequence:
#
# PCOD9453079 Si02
#       7
#     4   8   8   8   8   4   8
#     4  11  24  37  48  74 112 143 170 209 260 310
#     4   9  18  36  59  81 104 133 172 221 267 311
#     4   9  19  36  59  82 103 131 174 221 265 313
#     4   9  18  36  60  81  99 130 177 222 259 307
#     4  11  22  35  52  78 111 145 177 213 259 313
#     4  11  24  37  50  74 112 147 176 213 260 314
#     4   8  17  35  58  80 103 133 174 219 262 308
#
# _framework density 18.140605999999998
#
# number of rings (size 3 to 8) (size 9 to 14) (size 15 to 20)
#    0.000    2.500    0.000    4.000    0.000    6.000 
#    0.000   10.000    0.000    0.000    0.000    0.000 
#    0.000    0.000    0.000    0.000    0.000    0.000 
#
# Total GULP energy -267911.768223 kJ/mol
# GULP energy per Si atom -5581.495171 kJ/mol
# Density = 1.809932 g / cm^3
# Si number density = 18.140606 Si / 1000 Ang^3
#
#
#
# Elastic Constant Matrix: (Units=GPa)
#
#
# Indices 1 2 3 4 5 6 
#
# 1 27.4431 43.9919 48.9046 0.0000 0.0000 0.0000
# 2 43.9919 144.3177 138.6410 0.0000 0.0000 0.0000
# 3 48.9046 138.6410 186.0460 0.0000 0.0000 0.0000
# 4 0.0000 0.0000 0.0000 -16.0373 0.0000 0.0000
# 5 0.0000 0.0000 0.0000 0.0000 29.3191 0.0000
# 6 0.0000 0.0000 0.0000 0.0000 0.0000 28.1552
#
#
#
# Elastic Compliance Matrix: (Units=1/GPa)
#
#
# Indices 1 2 3 4 5 6 
#
# 1 0.075767 -0.013948 -0.009522 0.000000 0.000000 0.000000
# 2 -0.013948 0.026956 -0.016421 0.000000 0.000000 0.000000
# 3 -0.009522 -0.016421 0.020115 0.000000 0.000000 0.000000
# 4 0.000000 0.000000 0.000000 -0.062355 0.000000 0.000000
# 5 0.000000 0.000000 0.000000 0.000000 0.034107 0.000000
# 6 0.000000 0.000000 0.000000 0.000000 0.000000 0.035517
#
#
# Mechanical properties :
#
#
# Convention : Reuss Voigt Hill
#
# Bulk Modulus (GPa) = 23.22602 91.20908 57.21755
# Shear Modulus (GPa) = 22.29714 16.70537 19.50125
#
# Velocity S-wave (km/s) = 3.50970 3.03790 3.28228
# Velocity P-wave (km/s) = 5.40880 7.91790 6.78042
#
# Compressibility (1/GPa) = 0.04305517
#
# Stress axis : x y z
#
# Youngs Moduli (GPa) = 13.19833 37.09698 49.71378
#
# Poissons Ratio (x) = 0.51744 0.47338
# Poissons Ratio (y) = 0.18409 0.81637
# Poissons Ratio (z) = 0.12568 0.60918
#
# Static dielectric constant tensor:
#      x y z
#    x 1.622280 0.000000 0.000000 
#    y 0.000000 1.611930 0.000000 
#    z 0.000000 0.000000 1.600350 
# 
# From -- ./inp_files/6426.got.cif
#   From: 2010.05.17/outbox.cif.g08.bks.cpg/sg59_4_cif.got.tgz:6426.got - 2010.06.03 14:40:33.
