data_PCOD9453336
_publ_section_title
;
Structure prediction by ZEFSAII (Michael W. Deem and Ramdas Pophale) SiO2 
 PCOD9453336
Probable space group: P M M N
;
_chemical_formula_sum "Si O2"
_cell_formula_units_Z 64
_cell_length_a 9.000000
_cell_length_b 24.000000
_cell_length_c 15.000000
_cell_angle_alpha 90.000000
_cell_angle_beta 90.000000
_cell_angle_gamma 90.000000
_cell_volume 3240.000000
_symmetry_space_group_name_H-M "P M M N"
_symmetry_group_IT_number 59
_space_group.IT_coordinate_system_code '2'
_symmetry_cell_setting 'orthorhombic'
loop_
_space_group_symop_operation_xyz
x,y,z
1/2-x,1/2-y,z
1/2+x,-y,-z
-x,1/2+y,-z
-x,-y,-z
1/2+x,1/2+y,-z
1/2-x,y,z
x,1/2-y,z
loop_
_atom_site_type_symbol
_atom_site_label
_atom_site_fract_x
_atom_site_fract_y
_atom_site_fract_z
Si Si1 0.420905 0.987042 0.341255
Si Si2 0.921781 0.513802 0.869681
Si Si3 0.571940 0.624787 0.297525
Si Si4 0.071851 0.397542 0.901068
Si Si5 0.069049 0.310276 0.540728
Si Si6 0.429893 0.104836 0.391969
Si Si7 0.072704 0.687292 0.746816
Si Si8 0.574105 0.128584 0.073145
O O1 0.250000 0.975520 0.366609
O O2 0.516654 0.931643 0.344198
O O3 0.420924 0.005465 0.237137
O O4 0.480511 0.040952 0.392792
O O5 0.250000 0.483600 0.100092
O O6 0.004136 0.459749 0.908947
O O7 0.006879 0.570315 0.891649
O O8 0.750000 0.623650 0.295971
O O9 0.521744 0.624462 0.195604
O O10 0.524208 0.675901 0.358683
O O11 0.250000 0.400340 0.904095
O O12 0.007889 0.360918 0.980545
O O13 0.250000 0.309675 0.537524
O O14 0.015414 0.250000 0.510824
O O15 0.021072 0.359684 0.476735
O O16 0.250000 0.103169 0.387315
O O17 0.489825 0.139960 0.308747
O O18 0.250000 0.683100 0.730400
O O19 0.023477 0.750000 0.724059
O O20 0.048803 0.674303 0.850879
O O21 0.750000 0.122586 0.059266
#
# Coordination Sequence:
#
# PCOD9453336 Si02
#       8
#     8   8   8   8   8   8   8   8
#     4   9  18  31  50  79 113 142 170 212 266 317
#     4  10  18  31  50  75 108 141 172 212 258 311
#     4   9  19  35  54  77 106 141 180 219 263 318
#     4  10  20  33  50  74 105 138 176 219 262 310
#     4   9  18  34  57  82 106 136 177 223 267 313
#     4  10  19  34  57  84 109 137 175 217 264 321
#     4  10  22  38  54  75 107 144 179 219 268 322
#     4  11  21  33  51  74 102 138 178 217 261 313
#
# _framework density 19.753086
#
# number of rings (size 3 to 8) (size 9 to 14) (size 15 to 20)
#    0.000    2.250    1.250    1.875    0.000    3.250 
#    0.000    1.250    0.000    1.875    0.000    0.000 
#    0.000    0.000    0.000    0.000    0.000    0.000 
#
# Total GULP energy -357075.827455 kJ/mol
# GULP energy per Si atom -5579.309804 kJ/mol
# Density = 1.970813 g / cm^3
# Si number density = 19.753086 Si / 1000 Ang^3
#
#
#
# Elastic Constant Matrix: (Units=GPa)
#
#
# Indices 1 2 3 4 5 6 
#
# 1 21.4989 -2.4081 10.1251 0.0000 0.0000 0.0000
# 2 -2.4081 21.9240 25.0771 0.0000 0.0000 0.0000
# 3 10.1251 25.0771 70.0793 0.0000 0.0000 0.0000
# 4 0.0000 0.0000 0.0000 11.1778 0.0000 0.0000
# 5 0.0000 0.0000 0.0000 0.0000 10.7329 0.0000
# 6 0.0000 0.0000 0.0000 0.0000 0.0000 9.5331
#
#
#
# Elastic Compliance Matrix: (Units=1/GPa)
#
#
# Indices 1 2 3 4 5 6 
#
# 1 0.058048 0.027034 -0.018061 0.000000 0.000000 0.000000
# 2 0.027034 0.089808 -0.036043 0.000000 0.000000 0.000000
# 3 -0.018061 -0.036043 0.029776 0.000000 0.000000 0.000000
# 4 0.000000 0.000000 0.000000 0.089463 0.000000 0.000000
# 5 0.000000 0.000000 0.000000 0.000000 0.093171 0.000000
# 6 0.000000 0.000000 0.000000 0.000000 0.000000 0.104898
#
#
# Mechanical properties :
#
#
# Convention : Reuss Voigt Hill
#
# Bulk Modulus (GPa) = 8.09759 19.89892 13.99825
# Shear Modulus (GPa) = 8.92113 11.66930 10.29521
#
# Velocity S-wave (km/s) = 2.12747 2.43319 2.28545
# Velocity P-wave (km/s) = 3.18483 4.24141 3.75051
#
# Compressibility (1/GPa) = 0.12349356
#
# Stress axis : x y z
#
# Youngs Moduli (GPa) = 17.22718 11.13490 33.58370
#
# Poissons Ratio (x) = -0.30102 0.60654
# Poissons Ratio (y) = -0.46572 1.21044
# Poissons Ratio (z) = 0.31113 0.40133
#
# Static dielectric constant tensor:
#      x y z
#    x 1.660400 0.000000 0.000000 
#    y 0.000000 1.678460 0.000000 
#    z 0.000000 0.000000 1.754940 
# 
# From -- ./inp_files/21434.got.cif
#   From: 2010.05.17/outbox.ucp.g08.bks.cvg/sg59_11_cif.got.tgz:21434.got - 2010.06.11 16:43:56.
