data_PCOD9453694
_publ_section_title
;
Structure prediction by ZEFSAII (Michael W. Deem and Ramdas Pophale) SiO2 
 PCOD9453694
Probable space group: P B C N
;
_chemical_formula_sum "Si O2"
_cell_formula_units_Z 56
_cell_length_a 20.488262
_cell_length_b 9.037342
_cell_length_c 12.307004
_cell_angle_alpha 90.000000
_cell_angle_beta 90.000000
_cell_angle_gamma 90.000000
_cell_volume 2278.757854
_symmetry_space_group_name_H-M "P B C N"
_symmetry_group_IT_number 60
_symmetry_cell_setting 'orthorhombic'
loop_
_space_group_symop_operation_xyz
x,y,z
1/2-x,1/2-y,1/2+z
1/2+x,1/2-y,-z
-x,y,1/2-z
-x,-y,-z
1/2+x,1/2+y,1/2-z
1/2-x,1/2+y,z
x,-y,1/2+z
loop_
_atom_site_type_symbol
_atom_site_label
_atom_site_fract_x
_atom_site_fract_y
_atom_site_fract_z
Si Si1 0.295977 0.444012 0.721463
Si Si2 0.012048 0.677401 0.007975
Si Si3 0.121780 0.280439 0.091337
Si Si4 0.436414 0.058672 0.210826
Si Si5 0.763006 0.557853 0.007365
Si Si6 0.171466 0.737815 0.248443
Si Si7 0.842934 0.273529 0.016283
O O1 0.353267 0.337671 0.678641
O O2 0.259746 0.506976 0.613164
O O3 0.322392 0.591753 0.777995
O O4 0.237812 0.347718 0.772454
O O5 0.029772 0.684284 0.135201
O O6 0.081172 0.716629 0.951658
O O7 0.947047 0.756379 0.966189
O O8 0.000000 0.500000 0.000000
O O9 0.107401 0.438326 0.148792
O O10 0.183193 0.312563 0.012052
O O11 0.500000 0.971196 0.250000
O O12 0.389315 0.143751 0.292647
O O13 0.802004 0.417164 0.054422
O O14 0.695374 0.627061 0.050663
O O15 0.160986 0.729586 0.116355
#
# Coordination Sequence:
#
# PCOD9453694 Si02
#       7
#     8   8   8   8   8   8   8
#     4  10  15  26  49  78  99 114 168 218 236 288
#     4   9  17  29  47  73 102 128 164 204 260 305
#     4  11  17  29  50  80  97 129 166 217 257 296
#     4  10  19  33  48  70  98 136 173 202 254 318
#     4  10  14  24  45  71  94 119 165 204 242 279
#     4   9  15  27  45  74  94 121 161 206 241 279
#     4   9  15  25  41  68  94 119 157 201 242 284
#
# _framework density 24.574793
#
# number of rings (size 3 to 8) (size 9 to 14) (size 15 to 20)
#    0.000    2.286   10.000    0.000    0.000    0.000 
#    0.000    7.143    0.000    0.000   22.286    0.000 
#    0.000    0.000    0.000    0.000    0.000    0.000 
#
# Total GULP energy -312542.886778 kJ/mol
# GULP energy per Si atom -5581.122978 kJ/mol
# Density = 2.451886 g / cm^3
# Si number density = 24.574793 Si / 1000 Ang^3
#
#
#
# Elastic Constant Matrix: (Units=GPa)
#
#
# Indices 1 2 3 4 5 6 
#
# 1 196.2880 53.0867 28.7913 0.0000 0.0000 0.0000
# 2 53.0867 93.9445 11.1504 0.0000 0.0000 0.0000
# 3 28.7913 11.1504 28.1861 0.0000 0.0000 0.0000
# 4 0.0000 0.0000 0.0000 9.5843 0.0000 0.0000
# 5 0.0000 0.0000 0.0000 0.0000 37.8950 0.0000
# 6 0.0000 0.0000 0.0000 0.0000 0.0000 40.5165
#
#
#
# Elastic Compliance Matrix: (Units=1/GPa)
#
#
# Indices 1 2 3 4 5 6 
#
# 1 0.006782 -0.003158 -0.005678 0.000000 0.000000 0.000000
# 2 -0.003158 0.012640 -0.001774 0.000000 0.000000 0.000000
# 3 -0.005678 -0.001774 0.041980 0.000000 0.000000 0.000000
# 4 0.000000 0.000000 0.000000 0.104337 0.000000 0.000000
# 5 0.000000 0.000000 0.000000 0.000000 0.026389 0.000000
# 6 0.000000 0.000000 0.000000 0.000000 0.000000 0.024681
#
#
# Mechanical properties :
#
#
# Convention : Reuss Voigt Hill
#
# Bulk Modulus (GPa) = 24.88743 56.05281 40.47012
# Shear Modulus (GPa) = 19.88683 32.62517 26.25600
#
# Velocity S-wave (km/s) = 2.84780 3.64756 3.27220
# Velocity P-wave (km/s) = 4.57848 6.37167 5.54800
#
# Compressibility (1/GPa) = 0.04018092
#
# Stress axis : x y z
#
# Youngs Moduli (GPa) = 147.45977 79.11486 23.82088
#
# Poissons Ratio (x) = 0.24986 0.13525
# Poissons Ratio (y) = 0.46571 0.04226
# Poissons Ratio (z) = 0.83723 0.14037
#
# Static dielectric constant tensor:
#      x y z
#    x 2.019480 0.000000 0.000000 
#    y 0.000000 1.938840 0.000000 
#    z 0.000000 0.000000 2.278520 
# 
# From -- ./inp_files/23065.got.cif
#   From: 2010.05.17/outbox.cif.g08.bks.cpg/sg60_12_cif.got.tgz:23065.got - 2010.06.03 14:59:27.
