data_PCOD9453044
_publ_section_title
;
Structure prediction by ZEFSAII (Michael W. Deem and Ramdas Pophale) SiO2 
 PCOD9453044
Probable space group: P M M N
;
_chemical_formula_sum "Si O2"
_cell_formula_units_Z 48
_cell_length_a 7.814116
_cell_length_b 28.719941
_cell_length_c 10.256200
_cell_angle_alpha 90.000000
_cell_angle_beta 90.000000
_cell_angle_gamma 90.000000
_cell_volume 2301.706152
_symmetry_space_group_name_H-M "P M M N"
_symmetry_group_IT_number 59
_space_group.IT_coordinate_system_code '2'
_symmetry_cell_setting 'orthorhombic'
loop_
_space_group_symop_operation_xyz
x,y,z
1/2-x,1/2-y,z
1/2+x,-y,-z
-x,1/2+y,-z
-x,-y,-z
1/2+x,1/2+y,-z
1/2-x,y,z
x,1/2-y,z
loop_
_atom_site_type_symbol
_atom_site_label
_atom_site_fract_x
_atom_site_fract_y
_atom_site_fract_z
Si Si1 0.051996 0.053627 0.696899
Si Si2 0.042798 0.802176 0.394271
Si Si3 0.947038 0.953609 0.777359
Si Si4 0.947472 0.391507 0.451301
Si Si5 0.460068 0.098648 0.968607
Si Si6 0.453360 0.198664 0.908718
O O1 0.250000 0.066840 0.678274
O O2 0.987890 0.078417 0.828601
O O3 0.956084 0.071558 0.569759
O O4 0.039946 0.998692 0.720909
O O5 0.250000 0.804490 0.389236
O O6 0.993279 0.750000 0.435920
O O7 0.983857 0.843305 0.488591
O O8 0.979145 0.808678 0.246406
O O9 0.750000 0.967472 0.797226
O O10 0.956552 0.912657 0.671522
O O11 0.017558 0.934141 0.913609
O O12 0.750000 0.384769 0.413280
O O13 0.250000 0.098495 0.971406
O O14 0.519109 0.152199 0.978711
O O15 0.250000 0.200420 0.932509
O O16 0.525407 0.250000 0.941053
#
# Coordination Sequence:
#
# PCOD9453044 Si02
#       6
#     8   8   8   8   8   8
#     4  11  21  37  59  81 106 138 183 229 270 318
#     4   9  18  33  54  80 108 137 173 219 265 312
#     4  11  23  38  54  76 111 148 182 221 268 320
#     4  11  22  37  56  81 110 143 181 220 268 320
#     4   9  19  35  55  81 110 140 176 219 267 316
#     4   9  16  30  55  83 108 135 171 216 266 318
#
# _framework density 20.854095999999998
#
# number of rings (size 3 to 8) (size 9 to 14) (size 15 to 20)
#    0.000    2.000    1.667    2.500    0.000    0.667 
#    0.000    5.000    0.000    1.000    0.000    0.000 
#    0.000    0.000    0.000    0.000    0.000    0.000 
#
# Total GULP energy -268081.869114 kJ/mol
# GULP energy per Si atom -5585.038940 kJ/mol
# Density = 2.080663 g / cm^3
# Si number density = 20.854096 Si / 1000 Ang^3
#
#
#
# Elastic Constant Matrix: (Units=GPa)
#
#
# Indices 1 2 3 4 5 6 
#
# 1 33.9492 -2.9979 -2.7203 0.0000 0.0000 0.0000
# 2 -2.9979 82.4457 -15.2504 0.0000 0.0000 0.0000
# 3 -2.7203 -15.2504 32.8221 0.0000 0.0000 0.0000
# 4 0.0000 0.0000 0.0000 -4.3461 0.0000 0.0000
# 5 0.0000 0.0000 0.0000 0.0000 -1.5957 0.0000
# 6 0.0000 0.0000 0.0000 0.0000 0.0000 2.0130
#
#
#
# Elastic Compliance Matrix: (Units=1/GPa)
#
#
# Indices 1 2 3 4 5 6 
#
# 1 0.029866 0.001689 0.003260 0.000000 0.000000 0.000000
# 2 0.001689 0.013365 0.006350 0.000000 0.000000 0.000000
# 3 0.003260 0.006350 0.033688 0.000000 0.000000 0.000000
# 4 0.000000 0.000000 0.000000 -0.230089 0.000000 0.000000
# 5 0.000000 0.000000 0.000000 0.000000 -0.626699 0.000000
# 6 0.000000 0.000000 0.000000 0.000000 0.000000 0.496781
#
#
# Mechanical properties :
#
#
# Convention : Reuss Voigt Hill
#
# Bulk Modulus (GPa) = 10.04848 11.91998 10.98423
# Shear Modulus (GPa) = -18.34770 10.55994 -3.89388
#
# Velocity S-wave (km/s) = -2.96938 2.25271 -1.36794
# Velocity P-wave (km/s) = 2.63199 3.53477 1.66842
#
# Compressibility (1/GPa) = 0.09951749
#
# Stress axis : x y z
#
# Youngs Moduli (GPa) = 33.48275 74.82114 29.68422
#
# Poissons Ratio (x) = -0.12637 -0.09677
# Poissons Ratio (y) = -0.05655 -0.18849
# Poissons Ratio (z) = -0.10916 -0.47511
#
# Static dielectric constant tensor:
#      x y z
#    x 1.738190 0.000000 0.000000 
#    y 0.000000 1.777230 0.000000 
#    z 0.000000 0.000000 1.697090 
# 
# From -- ./inp_files/6191.got.cif
#   From: 2010.05.17/outbox.cif.g08.bks.cpg/sg59_4_cif.got.tgz:6191.got - 2010.06.03 14:40:33.
