data_PCOD9453189
_publ_section_title
;
Structure prediction by ZEFSAII (Michael W. Deem and Ramdas Pophale) SiO2 
 PCOD9453189
Probable space group: P M M N
;
_chemical_formula_sum "Si O2"
_cell_formula_units_Z 18
_cell_length_a 10.682001
_cell_length_b 7.576524
_cell_length_c 9.815035
_cell_angle_alpha 90.000000
_cell_angle_beta 90.000000
_cell_angle_gamma 90.000000
_cell_volume 794.354701
_symmetry_space_group_name_H-M "P M M N"
_symmetry_group_IT_number 59
_space_group.IT_coordinate_system_code '2'
_symmetry_cell_setting 'orthorhombic'
loop_
_space_group_symop_operation_xyz
x,y,z
1/2-x,1/2-y,z
1/2+x,-y,-z
-x,1/2+y,-z
-x,-y,-z
1/2+x,1/2+y,-z
1/2-x,y,z
x,1/2-y,z
loop_
_atom_site_type_symbol
_atom_site_label
_atom_site_fract_x
_atom_site_fract_y
_atom_site_fract_z
Si Si1 0.113090 0.539847 0.101726
Si Si2 0.250000 0.250000 0.712273
Si Si3 0.042460 0.549138 0.651881
O O1 0.250000 0.475809 0.053687
O O2 0.119104 0.750000 0.114823
O O3 0.076044 0.461187 0.247018
O O4 0.000000 0.500000 0.000000
O O5 0.141111 0.405389 0.703408
O O6 0.090704 0.750000 0.654820
O O7 0.000000 0.500000 0.500000
#
# Coordination Sequence:
#
# PCOD9453189 Si02
#       3
#     8   2   8
#     4  11  26  47  72 106 149 197 248 303 369 439
#     4  12  26  48  74 104 156 188 252 302 380 434
#     4  12  26  47  75 110 145 197 246 307 367 442
#
# _framework density 22.659901000000001
#
# number of rings (size 3 to 8) (size 9 to 14) (size 15 to 20)
#    0.000    0.444    4.444    2.000    6.222    3.556 
#    0.000    0.000    0.000    0.000    0.000    0.000 
#    0.000    0.000    0.000    0.000    0.000    0.000 
#
# Total GULP energy -100243.586609 kJ/mol
# GULP energy per Si atom -5569.088145 kJ/mol
# Density = 2.260833 g / cm^3
# Si number density = 22.659901 Si / 1000 Ang^3
#
#
#
# Elastic Constant Matrix: (Units=GPa)
#
#
# Indices 1 2 3 4 5 6 
#
# 1 183.3170 44.8790 50.1504 0.0000 0.0000 0.0000
# 2 44.8790 218.1015 -2.4996 0.0000 0.0000 0.0000
# 3 50.1504 -2.4996 118.9248 0.0000 0.0000 0.0000
# 4 0.0000 0.0000 0.0000 27.7047 0.0000 0.0000
# 5 0.0000 0.0000 0.0000 0.0000 10.2435 0.0000
# 6 0.0000 0.0000 0.0000 0.0000 0.0000 -19.3384
#
#
#
# Elastic Compliance Matrix: (Units=1/GPa)
#
#
# Indices 1 2 3 4 5 6 
#
# 1 0.006558 -0.001381 -0.002794 0.000000 0.000000 0.000000
# 2 -0.001381 0.004877 0.000685 0.000000 0.000000 0.000000
# 3 -0.002794 0.000685 0.009601 0.000000 0.000000 0.000000
# 4 0.000000 0.000000 0.000000 0.036095 0.000000 0.000000
# 5 0.000000 0.000000 0.000000 0.000000 0.097623 0.000000
# 6 0.000000 0.000000 0.000000 0.000000 0.000000 -0.051710
#
#
# Mechanical properties :
#
#
# Convention : Reuss Voigt Hill
#
# Bulk Modulus (GPa) = 71.15028 78.37809 74.76419
# Shear Modulus (GPa) = 43.58807 32.24285 37.91546
#
# Velocity S-wave (km/s) = 4.39062 3.77623 4.09496
# Velocity P-wave (km/s) = 7.56113 7.32647 7.44473
#
# Compressibility (1/GPa) = 0.01405476
#
# Stress axis : x y z
#
# Youngs Moduli (GPa) = 152.49266 205.03882 104.15067
#
# Poissons Ratio (x) = 0.28324 0.29104
# Poissons Ratio (y) = 0.21065 -0.07135
# Poissons Ratio (z) = 0.42613 -0.14046
#
# Static dielectric constant tensor:
#      x y z
#    x 1.853900 0.000000 0.000000 
#    y 0.000000 1.818040 0.000000 
#    z 0.000000 0.000000 1.840030 
# 
# From -- ./inp_files/4853.got.cif
#   From: 2010.05.17/outbox.cif.g08.bks.cpg/sg59_3_cif.got.tgz:4853.got - 2010.06.03 14:40:33.
