data_PCOD9453468
_publ_section_title
;
Structure prediction by ZEFSAII (Michael W. Deem and Ramdas Pophale) SiO2 
 PCOD9453468
Probable space group: P M M N
;
_chemical_formula_sum "Si O2"
_cell_formula_units_Z 40
_cell_length_a 9.000000
_cell_length_b 15.000000
_cell_length_c 15.000000
_cell_angle_alpha 90.000000
_cell_angle_beta 90.000000
_cell_angle_gamma 90.000000
_cell_volume 2025.000000
_symmetry_space_group_name_H-M "P M M N"
_symmetry_group_IT_number 59
_space_group.IT_coordinate_system_code '2'
_symmetry_cell_setting 'orthorhombic'
loop_
_space_group_symop_operation_xyz
x,y,z
1/2-x,1/2-y,z
1/2+x,-y,-z
-x,1/2+y,-z
-x,-y,-z
1/2+x,1/2+y,-z
1/2-x,y,z
x,1/2-y,z
loop_
_atom_site_type_symbol
_atom_site_label
_atom_site_fract_x
_atom_site_fract_y
_atom_site_fract_z
Si Si1 0.425442 0.144625 0.942779
Si Si2 0.071699 0.345772 0.655382
Si Si3 0.922808 0.351482 0.465315
Si Si4 0.923657 0.538182 0.875796
Si Si5 0.928783 0.037005 0.296925
O O1 0.250000 0.141866 0.917392
O O2 0.471696 0.250000 0.932035
O O3 0.439986 0.109424 0.044319
O O4 0.505670 0.059895 0.895720
O O5 0.250000 0.345224 0.659126
O O6 0.017447 0.250000 0.690292
O O7 0.020148 0.434469 0.702749
O O8 0.020155 0.354578 0.553593
O O9 0.750000 0.371023 0.487929
O O10 0.927508 0.250000 0.430867
O O11 0.974452 0.417739 0.389023
O O12 0.750000 0.524584 0.861142
O O13 0.001679 0.579177 0.789725
O O14 0.750000 0.040980 0.293151
#
# Coordination Sequence:
#
# PCOD9453468 Si02
#       5
#     8   8   8   8   8
#     4   9  19  38  60  77 100 136 169 201 251 310
#     4   9  18  32  49  69  94 128 170 209 246 294
#     4   9  18  32  49  70  97 130 169 211 253 296
#     4  10  21  35  53  81 108 129 166 214 252 296
#     4  10  20  33  49  71 102 136 166 201 250 304
#
# _framework density 19.753086
#
# number of rings (size 3 to 8) (size 9 to 14) (size 15 to 20)
#    0.000    2.600    0.000    1.200    0.000    4.400 
#    0.000    2.000    0.000    0.000    0.000    0.000 
#    0.000    0.000    0.000    0.000    0.000    0.000 
#
# Total GULP energy -222773.054506 kJ/mol
# GULP energy per Si atom -5569.326363 kJ/mol
# Density = 1.970813 g / cm^3
# Si number density = 19.753086 Si / 1000 Ang^3
#
#
#
# Elastic Constant Matrix: (Units=GPa)
#
#
# Indices 1 2 3 4 5 6 
#
# 1 -22.4625 17.2581 13.9631 0.0000 0.0000 0.0000
# 2 17.2581 46.5785 4.5429 0.0000 0.0000 0.0000
# 3 13.9631 4.5429 40.2105 0.0000 0.0000 0.0000
# 4 0.0000 0.0000 0.0000 -24.5820 0.0000 0.0000
# 5 0.0000 0.0000 0.0000 0.0000 21.0754 0.0000
# 6 0.0000 0.0000 0.0000 0.0000 0.0000 21.8867
#
#
#
# Elastic Compliance Matrix: (Units=1/GPa)
#
#
# Indices 1 2 3 4 5 6 
#
# 1 -0.030629 0.010426 0.009458 0.000000 0.000000 0.000000
# 2 0.010426 0.018159 -0.005672 0.000000 0.000000 0.000000
# 3 0.009458 -0.005672 0.022226 0.000000 0.000000 0.000000
# 4 0.000000 0.000000 0.000000 -0.040680 0.000000 0.000000
# 5 0.000000 0.000000 0.000000 0.000000 0.047449 0.000000
# 6 0.000000 0.000000 0.000000 0.000000 0.000000 0.045690
#
#
# Mechanical properties :
#
#
# Convention : Reuss Voigt Hill
#
# Bulk Modulus (GPa) = 26.19178 15.09497 20.64338
# Shear Modulus (GPa) = 107.48747 5.58019 56.53383
#
# Velocity S-wave (km/s) = 7.38469 1.68259 5.35559
# Velocity P-wave (km/s) = 9.27361 3.38130 6.97973
#
# Compressibility (1/GPa) = 0.03817992
#
# Stress axis : x y z
#
# Youngs Moduli (GPa) = -32.64884 55.06817 44.99303
#
# Poissons Ratio (x) = -0.57414 -0.42554
# Poissons Ratio (y) = 0.34040 0.25520
# Poissons Ratio (z) = 0.30879 0.31235
#
# Static dielectric constant tensor:
#      x y z
#    x 1.664110 0.000000 0.000000 
#    y 0.000000 1.717600 0.000000 
#    z 0.000000 0.000000 1.696890 
# 
# From -- ./inp_files/16619.got.cif
#   From: 2010.05.17/outbox.ucp.g08.bks.cvg/sg59_9_cif.got.tgz:16619.got - 2010.06.11 16:43:56.
