data_PCOD9453529
_publ_section_title
;
Structure prediction by ZEFSAII (Michael W. Deem and Ramdas Pophale) SiO2 
 PCOD9453529
Probable space group: P M M N
;
_chemical_formula_sum "Si O2"
_cell_formula_units_Z 56
_cell_length_a 15.000000
_cell_length_b 9.000000
_cell_length_c 21.000000
_cell_angle_alpha 90.000000
_cell_angle_beta 90.000000
_cell_angle_gamma 90.000000
_cell_volume 2835.000000
_symmetry_space_group_name_H-M "P M M N"
_symmetry_group_IT_number 59
_space_group.IT_coordinate_system_code '2'
_symmetry_cell_setting 'orthorhombic'
loop_
_space_group_symop_operation_xyz
x,y,z
1/2-x,1/2-y,z
1/2+x,-y,-z
-x,1/2+y,-z
-x,-y,-z
1/2+x,1/2+y,-z
1/2-x,y,z
x,1/2-y,z
loop_
_atom_site_type_symbol
_atom_site_label
_atom_site_fract_x
_atom_site_fract_y
_atom_site_fract_z
Si Si1 0.750000 0.587376 0.523706
Si Si2 0.403581 0.072767 0.005409
Si Si3 0.580506 0.086984 0.525712
Si Si4 0.149758 0.917012 0.880925
Si Si5 0.071548 0.915943 0.322239
Si Si6 0.481491 0.571906 0.775391
Si Si7 0.750000 0.584969 0.678409
Si Si8 0.846126 0.930293 0.854453
O O1 0.750000 0.750000 0.497565
O O2 0.834058 0.498039 0.503938
O O3 0.750000 0.594018 0.601111
O O4 0.409151 0.250000 0.005063
O O5 0.353957 0.014366 0.943611
O O6 0.360325 0.026296 0.072140
O O7 0.500000 0.000000 0.000000
O O8 0.581520 0.250000 0.499977
O O9 0.574439 0.089770 0.601866
O O10 0.500000 0.000000 0.500000
O O11 0.250000 0.902289 0.860160
O O12 0.113520 0.750000 0.896011
O O13 0.095481 0.978786 0.821984
O O14 0.073530 0.750000 0.297160
O O15 0.160709 0.002570 0.304022
O O16 0.988005 0.001283 0.293595
O O17 0.479450 0.750000 0.769835
O O18 0.570368 0.523672 0.813027
O O19 0.750000 0.750000 0.705272
O O20 0.750000 0.983472 0.832050
O O21 0.846162 0.750000 0.853304
#
# Coordination Sequence:
#
# PCOD9453529 Si02
#       8
#     4   8   8   8   8   8   4   8
#     4   9  17  31  53  83 115 145 183 224 267 324
#     4  11  20  34  55  78 106 138 177 223 273 324
#     4  10  20  35  57  83 114 149 187 230 281 332
#     4  10  21  38  58  79 104 138 183 232 277 321
#     4  10  21  35  52  80 115 145 178 229 279 318
#     4  10  20  35  54  76 104 142 181 219 267 331
#     4   9  17  31  53  79 107 147 185 212 255 326
#     4   9  18  32  50  74 104 135 170 213 262 319
#
# _framework density 19.753086
#
# number of rings (size 3 to 8) (size 9 to 14) (size 15 to 20)
#    0.000    2.143    1.429    2.143    1.000    4.857 
#    0.000    0.000    1.571    1.714    0.000    0.000 
#    0.000    0.000    0.000    0.000    0.000    0.000 
#
# Total GULP energy -311824.617552 kJ/mol
# GULP energy per Si atom -5568.296742 kJ/mol
# Density = 1.970813 g / cm^3
# Si number density = 19.753086 Si / 1000 Ang^3
#
#
#
# Elastic Constant Matrix: (Units=GPa)
#
#
# Indices 1 2 3 4 5 6 
#
# 1 114.7748 50.7713 24.8298 0.0000 0.0000 0.0000
# 2 50.7713 91.5573 36.3596 0.0000 0.0000 0.0000
# 3 24.8298 36.3596 -25.4188 0.0000 0.0000 0.0000
# 4 0.0000 0.0000 0.0000 20.6191 0.0000 0.0000
# 5 0.0000 0.0000 0.0000 0.0000 36.8568 0.0000
# 6 0.0000 0.0000 0.0000 0.0000 0.0000 6.5875
#
#
#
# Elastic Compliance Matrix: (Units=1/GPa)
#
#
# Indices 1 2 3 4 5 6 
#
# 1 0.011472 -0.006895 0.001343 0.000000 0.000000 0.000000
# 2 -0.006895 0.011110 0.009156 0.000000 0.000000 0.000000
# 3 0.001343 0.009156 -0.024932 0.000000 0.000000 0.000000
# 4 0.000000 0.000000 0.000000 0.048499 0.000000 0.000000
# 5 0.000000 0.000000 0.000000 0.000000 0.027132 0.000000
# 6 0.000000 0.000000 0.000000 0.000000 0.000000 0.151802
#
#
# Mechanical properties :
#
#
# Convention : Reuss Voigt Hill
#
# Bulk Modulus (GPa) = 205.82001 44.98162 125.40082
# Shear Modulus (GPa) = 22.77972 17.40953 20.09463
#
# Velocity S-wave (km/s) = 3.39960 2.97199 3.19296
# Velocity P-wave (km/s) = 10.94679 5.88203 8.78722
#
# Compressibility (1/GPa) = 0.00485861
#
# Stress axis : x y z
#
# Youngs Moduli (GPa) = 87.16714 90.01201 -40.10959
#
# Poissons Ratio (x) = 0.62065 0.05388
# Poissons Ratio (y) = 0.60103 0.36724
# Poissons Ratio (z) = -0.11710 -0.82415
#
# Static dielectric constant tensor:
#      x y z
#    x 1.685180 0.000000 0.000000 
#    y 0.000000 1.699650 0.000000 
#    z 0.000000 0.000000 1.921970 
# 
# From -- ./inp_files/30435.got.cif
#   From: 2010.05.17/outbox.ucp.g08.bks.cvg/sg59_16_cif.got.tgz:30435.got - 2010.06.11 16:43:56.
