data_PCOD9453461
_publ_section_title
;
Structure prediction by ZEFSAII (Michael W. Deem and Ramdas Pophale) SiO2 
 PCOD9453461
Probable space group: P M M N
;
_chemical_formula_sum "Si O2"
_cell_formula_units_Z 64
_cell_length_a 9.000000
_cell_length_b 21.000000
_cell_length_c 18.000000
_cell_angle_alpha 90.000000
_cell_angle_beta 90.000000
_cell_angle_gamma 90.000000
_cell_volume 3402.000000
_symmetry_space_group_name_H-M "P M M N"
_symmetry_group_IT_number 59
_space_group.IT_coordinate_system_code '2'
_symmetry_cell_setting 'orthorhombic'
loop_
_space_group_symop_operation_xyz
x,y,z
1/2-x,1/2-y,z
1/2+x,-y,-z
-x,1/2+y,-z
-x,-y,-z
1/2+x,1/2+y,-z
1/2-x,y,z
x,1/2-y,z
loop_
_atom_site_type_symbol
_atom_site_label
_atom_site_fract_x
_atom_site_fract_y
_atom_site_fract_z
Si Si1 0.427343 0.933766 0.524723
Si Si2 0.069002 0.922449 0.693022
Si Si3 0.070792 0.177722 0.020370
Si Si4 0.928339 0.549178 0.055601
Si Si5 0.577333 0.820925 0.441043
Si Si6 0.072341 0.675615 0.819742
Si Si7 0.924841 0.817774 0.262464
Si Si8 0.568920 0.545666 0.222176
O O1 0.250000 0.941278 0.524482
O O2 0.476562 0.914747 0.608092
O O3 0.477725 0.876914 0.471764
O O4 0.500000 0.000000 0.500000
O O5 0.250000 0.921346 0.694005
O O6 0.021360 0.869517 0.752593
O O7 0.019118 0.991717 0.721379
O O8 0.250000 0.178040 0.024065
O O9 0.023129 0.250000 0.000638
O O10 0.006660 0.162307 0.101946
O O11 0.026477 0.121642 0.964134
O O12 0.750000 0.546835 0.049546
O O13 0.968048 0.528343 0.138387
O O14 0.000000 0.500000 0.000000
O O15 0.750000 0.831672 0.461705
O O16 0.533353 0.750000 0.466986
O O17 0.572260 0.820075 0.351703
O O18 0.250000 0.666462 0.829669
O O19 0.047115 0.750000 0.801795
O O20 0.750000 0.817200 0.240142
O O21 0.989835 0.750000 0.237731
O O22 0.990754 0.883697 0.235515
O O23 0.750000 0.548365 0.228696
#
# Coordination Sequence:
#
# PCOD9453461 Si02
#       8
#     8   8   8   8   8   8   8   8
#     4  11  22  35  53  76 103 135 170 210 256 303
#     4   9  18  31  48  70  95 124 160 205 248 284
#     4   9  18  32  48  70 102 132 155 188 241 297
#     4  10  20  32  49  72  97 127 161 200 243 287
#     4   9  18  34  55  78 105 135 166 204 252 304
#     4   9  17  31  52  74  94 122 163 204 239 282
#     4   8  14  26  47  73  97 122 155 197 242 286
#     4   9  16  27  45  68  92 120 158 200 239 281
#
# _framework density 18.812463000000001
#
# number of rings (size 3 to 8) (size 9 to 14) (size 15 to 20)
#    0.000    2.750    0.000    2.625    0.000    4.750 
#    0.000    5.000    0.000    6.750    0.000    0.000 
#    0.000    0.000    0.000    0.000    0.000    0.000 
#
# Total GULP energy -356650.879787 kJ/mol
# GULP energy per Si atom -5572.669997 kJ/mol
# Density = 1.876965 g / cm^3
# Si number density = 18.812463 Si / 1000 Ang^3
#
#
#
# Elastic Constant Matrix: (Units=GPa)
#
#
# Indices 1 2 3 4 5 6 
#
# 1 8.3258 10.8777 2.2875 0.0000 0.0000 0.0000
# 2 10.8777 40.6090 -18.2714 0.0000 0.0000 0.0000
# 3 2.2875 -18.2714 -8.0185 0.0000 0.0000 0.0000
# 4 0.0000 0.0000 0.0000 31.8993 0.0000 0.0000
# 5 0.0000 0.0000 0.0000 0.0000 20.0420 0.0000
# 6 0.0000 0.0000 0.0000 0.0000 0.0000 21.2163
#
#
#
# Elastic Compliance Matrix: (Units=1/GPa)
#
#
# Indices 1 2 3 4 5 6 
#
# 1 0.116440 -0.008021 0.051495 0.000000 0.000000 0.000000
# 2 -0.008021 0.012712 -0.031254 0.000000 0.000000 0.000000
# 3 0.051495 -0.031254 -0.038806 0.000000 0.000000 0.000000
# 4 0.000000 0.000000 0.000000 0.031349 0.000000 0.000000
# 5 0.000000 0.000000 0.000000 0.000000 0.049895 0.000000
# 6 0.000000 0.000000 0.000000 0.000000 0.000000 0.047134
#
#
# Mechanical properties :
#
#
# Convention : Reuss Voigt Hill
#
# Bulk Modulus (GPa) = 8.71180 3.41154 6.06167
# Shear Modulus (GPa) = 21.50119 17.69968 19.60043
#
# Velocity S-wave (km/s) = 3.38438 3.07065 3.23133
# Velocity P-wave (km/s) = 4.46239 3.79332 4.14139
#
# Compressibility (1/GPa) = 0.11478684
#
# Stress axis : x y z
#
# Youngs Moduli (GPa) = 8.58810 78.66868 -25.76952
#
# Poissons Ratio (x) = 0.63099 1.32699
# Poissons Ratio (y) = 0.06888 -0.80539
# Poissons Ratio (z) = -0.44224 2.45867
#
# Static dielectric constant tensor:
#      x y z
#    x 1.628730 0.000000 0.000000 
#    y 0.000000 1.665380 0.000000 
#    z 0.000000 0.000000 1.637490 
# 
# From -- ./inp_files/26182.got.cif
#   From: 2010.05.17/outbox.ucp.g08.bks.cvg/sg59_14_cif.got.tgz:26182.got - 2010.06.11 16:43:56.
