data_PCOD9453170
_publ_section_title
;
Structure prediction by ZEFSAII (Michael W. Deem and Ramdas Pophale) SiO2 
 PCOD9453170
Probable space group: P M M N
;
_chemical_formula_sum "Si O2"
_cell_formula_units_Z 40
_cell_length_a 7.874561
_cell_length_b 9.800729
_cell_length_c 26.691566
_cell_angle_alpha 90.000000
_cell_angle_beta 90.000000
_cell_angle_gamma 90.000000
_cell_volume 2059.959998
_symmetry_space_group_name_H-M "P M M N"
_symmetry_group_IT_number 59
_space_group.IT_coordinate_system_code '2'
_symmetry_cell_setting 'orthorhombic'
loop_
_space_group_symop_operation_xyz
x,y,z
1/2-x,1/2-y,z
1/2+x,-y,-z
-x,1/2+y,-z
-x,-y,-z
1/2+x,1/2+y,-z
1/2-x,y,z
x,1/2-y,z
loop_
_atom_site_type_symbol
_atom_site_label
_atom_site_fract_x
_atom_site_fract_y
_atom_site_fract_z
Si Si1 0.042761 0.407178 0.251597
Si Si2 0.957237 0.091520 0.657169
Si Si3 0.048624 0.404663 0.953382
Si Si4 0.954659 0.594186 0.861206
Si Si5 0.454178 0.594589 0.453791
O O1 0.250000 0.413219 0.251554
O O2 0.995918 0.250000 0.260552
O O3 0.981056 0.502318 0.296400
O O4 0.987556 0.443214 0.195095
O O5 0.750000 0.085767 0.657857
O O6 0.004069 0.250000 0.662916
O O7 0.012416 0.046271 0.601436
O O8 0.250000 0.392214 0.954972
O O9 0.976486 0.250000 0.955813
O O10 0.003149 0.485155 0.902812
O O11 0.000000 0.500000 0.000000
O O12 0.750000 0.599683 0.860201
O O13 0.013397 0.750000 0.872593
O O14 0.500000 0.500000 0.500000
O O15 0.250000 0.599966 0.451492
O O16 0.515954 0.750000 0.461121
#
# Coordination Sequence:
#
# PCOD9453170 Si02
#       5
#     8   8   8   8   8
#     4   8  14  25  43  69  98 124 153 192 235 280
#     4   8  14  25  41  63  92 123 155 194 239 285
#     4  11  24  39  55  77 103 131 166 205 242 284
#     4   9  18  33  53  78 106 132 160 197 240 287
#     4   9  18  31  46  67  95 125 160 203 247 292
#
# _framework density 19.417852
#
# number of rings (size 3 to 8) (size 9 to 14) (size 15 to 20)
#    0.000    3.000    0.000    3.600    0.000    6.400 
#    0.000    4.000    0.000    1.200    0.000    0.000 
#    0.000    0.000    0.000    0.000    0.000    0.000 
#
# Total GULP energy -222986.844429 kJ/mol
# GULP energy per Si atom -5574.671111 kJ/mol
# Density = 1.937366 g / cm^3
# Si number density = 19.417852 Si / 1000 Ang^3
#
#
#
# Elastic Constant Matrix: (Units=GPa)
#
#
# Indices 1 2 3 4 5 6 
#
# 1 21.2885 10.8906 12.8283 0.0000 0.0000 0.0000
# 2 10.8906 137.7209 142.4945 0.0000 0.0000 0.0000
# 3 12.8283 142.4945 221.3749 0.0000 0.0000 0.0000
# 4 0.0000 0.0000 0.0000 42.8489 0.0000 0.0000
# 5 0.0000 0.0000 0.0000 0.0000 20.7102 0.0000
# 6 0.0000 0.0000 0.0000 0.0000 0.0000 17.2700
#
#
#
# Elastic Compliance Matrix: (Units=1/GPa)
#
#
# Indices 1 2 3 4 5 6 
#
# 1 0.049033 -0.002807 -0.001035 0.000000 0.000000 0.000000
# 2 -0.002807 0.021900 -0.013934 0.000000 0.000000 0.000000
# 3 -0.001035 -0.013934 0.013546 0.000000 0.000000 0.000000
# 4 0.000000 0.000000 0.000000 0.023338 0.000000 0.000000
# 5 0.000000 0.000000 0.000000 0.000000 0.048285 0.000000
# 6 0.000000 0.000000 0.000000 0.000000 0.000000 0.057904
#
#
# Mechanical properties :
#
#
# Convention : Reuss Voigt Hill
#
# Bulk Modulus (GPa) = 20.43805 79.20123 49.81964
# Shear Modulus (GPa) = 18.80645 30.44389 24.62517
#
# Velocity S-wave (km/s) = 3.11547 3.96388 3.56500
# Velocity P-wave (km/s) = 4.84663 7.86296 6.53131
#
# Compressibility (1/GPa) = 0.04892835
#
# Stress axis : x y z
#
# Youngs Moduli (GPa) = 20.39436 45.66258 73.82218
#
# Poissons Ratio (x) = 0.12817 0.07638
# Poissons Ratio (y) = 0.05725 1.02862
# Poissons Ratio (z) = 0.02110 0.63625
#
# Static dielectric constant tensor:
#      x y z
#    x 1.728610 0.000000 0.000000 
#    y 0.000000 1.671550 0.000000 
#    z 0.000000 0.000000 1.689590 
# 
# From -- ./inp_files/32371.got.cif
#   From: 2010.05.17/outbox.cif.g08.bks.cpg/sg59_17_cif.got.tgz:32371.got - 2010.06.03 14:40:33.
