data_PCOD9453277
_publ_section_title
;
Structure prediction by ZEFSAII (Michael W. Deem and Ramdas Pophale) SiO2 
 PCOD9453277
Probable space group: P M M N
;
_chemical_formula_sum "Si O2"
_cell_formula_units_Z 64
_cell_length_a 14.881961
_cell_length_b 9.393374
_cell_length_c 21.957537
_cell_angle_alpha 90.000000
_cell_angle_beta 90.000000
_cell_angle_gamma 90.000000
_cell_volume 3069.484181
_symmetry_space_group_name_H-M "P M M N"
_symmetry_group_IT_number 59
_space_group.IT_coordinate_system_code '2'
_symmetry_cell_setting 'orthorhombic'
loop_
_space_group_symop_operation_xyz
x,y,z
1/2-x,1/2-y,z
1/2+x,-y,-z
-x,1/2+y,-z
-x,-y,-z
1/2+x,1/2+y,-z
1/2-x,y,z
x,1/2-y,z
loop_
_atom_site_type_symbol
_atom_site_label
_atom_site_fract_x
_atom_site_fract_y
_atom_site_fract_z
Si Si1 0.603154 0.413075 0.756718
Si Si2 0.359910 0.584268 0.508834
Si Si3 0.642718 0.588748 0.375061
Si Si4 0.891900 0.584896 0.874151
Si Si5 0.903687 0.422176 0.993091
Si Si6 0.110825 0.410568 0.758553
Si Si7 0.112219 0.587877 0.873019
Si Si8 0.357795 0.584005 0.376577
O O1 0.639242 0.250000 0.758617
O O2 0.638172 0.509627 0.811687
O O3 0.496386 0.402484 0.765423
O O4 0.615773 0.476180 0.688996
O O5 0.250000 0.581687 0.509907
O O6 0.385709 0.750000 0.512916
O O7 0.392351 0.497951 0.567320
O O8 0.387485 0.525267 0.442263
O O9 0.750000 0.597871 0.382199
O O10 0.605686 0.750000 0.374949
O O11 0.627258 0.524059 0.308144
O O12 0.864978 0.750000 0.878398
O O13 0.862882 0.492777 0.932774
O O14 0.002135 0.583644 0.873728
O O15 0.913029 0.250000 0.986640
O O16 0.858175 0.450147 0.058499
O O17 0.000000 0.500000 0.000000
O O18 0.146892 0.250000 0.756675
O O19 0.144433 0.492012 0.817650
O O20 0.137996 0.750000 0.861305
O O21 0.250000 0.582481 0.377498
O O22 0.386564 0.750000 0.375468
#
# Coordination Sequence:
#
# PCOD9453277 Si02
#       8
#     8   8   8   8   8   8   8   8
#     4   9  16  27  43  61  83 110 137 167 204 246
#     4   8  14  26  44  63  80 101 134 172 205 240
#     4   9  17  29  43  59  81 108 137 169 204 242
#     4   9  16  25  37  56  83 112 140 170 205 245
#     4   9  15  23  36  56  81 109 141 174 208 246
#     4   9  17  27  40  59  82 109 138 166 200 244
#     4   8  15  25  37  55  80 108 135 167 205 241
#     4   8  14  26  45  66  84 104 134 170 205 243
#
# _framework density 20.85041
#
# number of rings (size 3 to 8) (size 9 to 14) (size 15 to 20)
#    0.000    3.375    0.000    2.250    0.000    4.000 
#    0.000    1.250    0.000    1.125    0.000    0.875 
#    0.000    1.000    0.000    0.000    0.000    0.000 
#
# Total GULP energy -356530.896247 kJ/mol
# GULP energy per Si atom -5570.795254 kJ/mol
# Density = 2.080295 g / cm^3
# Si number density = 20.850410 Si / 1000 Ang^3
#
#
#
# Elastic Constant Matrix: (Units=GPa)
#
#
# Indices 1 2 3 4 5 6 
#
# 1 56.5366 5.1739 4.4078 0.0000 0.0000 0.0000
# 2 5.1739 81.3126 106.2813 0.0000 0.0000 0.0000
# 3 4.4078 106.2813 259.0335 0.0000 0.0000 0.0000
# 4 0.0000 0.0000 0.0000 30.6096 0.0000 0.0000
# 5 0.0000 0.0000 0.0000 0.0000 21.7241 0.0000
# 6 0.0000 0.0000 0.0000 0.0000 0.0000 -6.8359
#
#
#
# Elastic Compliance Matrix: (Units=1/GPa)
#
#
# Indices 1 2 3 4 5 6 
#
# 1 0.017806 -0.001589 0.000349 0.000000 0.000000 0.000000
# 2 -0.001589 0.026663 -0.010913 0.000000 0.000000 0.000000
# 3 0.000349 -0.010913 0.008332 0.000000 0.000000 0.000000
# 4 0.000000 0.000000 0.000000 0.032669 0.000000 0.000000
# 5 0.000000 0.000000 0.000000 0.000000 0.046032 0.000000
# 6 0.000000 0.000000 0.000000 0.000000 0.000000 -0.146286
#
#
# Mechanical properties :
#
#
# Convention : Reuss Voigt Hill
#
# Bulk Modulus (GPa) = 35.09370 69.84540 52.46955
# Shear Modulus (GPa) = 262.86914 27.83422 145.35168
#
# Velocity S-wave (km/s) = 11.24044 3.65766 8.35841
# Velocity P-wave (km/s) = 13.61364 7.17001 10.87980
#
# Compressibility (1/GPa) = 0.02849514
#
# Stress axis : x y z
#
# Youngs Moduli (GPa) = 56.16121 37.50485 120.01770
#
# Poissons Ratio (x) = 0.05960 -0.04190
# Poissons Ratio (y) = 0.08925 1.30974
# Poissons Ratio (z) = -0.01960 0.40929
#
# Static dielectric constant tensor:
#      x y z
#    x 1.815340 0.000000 0.000000 
#    y 0.000000 1.720150 0.000000 
#    z 0.000000 0.000000 1.782390 
# 
# From -- ./inp_files/30925.got.cif
#   From: 2010.05.17/outbox.cif.g08.bks.cpg/sg59_16_cif.got.tgz:30925.got - 2010.06.03 14:40:33.
