data_PCOD9453411
_publ_section_title
;
Structure prediction by ZEFSAII (Michael W. Deem and Ramdas Pophale) SiO2 
 PCOD9453411
Probable space group: P M M N
;
_chemical_formula_sum "Si O2"
_cell_formula_units_Z 64
_cell_length_a 18.000000
_cell_length_b 9.000000
_cell_length_c 21.000000
_cell_angle_alpha 90.000000
_cell_angle_beta 90.000000
_cell_angle_gamma 90.000000
_cell_volume 3402.000000
_symmetry_space_group_name_H-M "P M M N"
_symmetry_group_IT_number 59
_space_group.IT_coordinate_system_code '2'
_symmetry_cell_setting 'orthorhombic'
loop_
_space_group_symop_operation_xyz
x,y,z
1/2-x,1/2-y,z
1/2+x,-y,-z
-x,1/2+y,-z
-x,-y,-z
1/2+x,1/2+y,-z
1/2-x,y,z
x,1/2-y,z
loop_
_atom_site_type_symbol
_atom_site_label
_atom_site_fract_x
_atom_site_fract_y
_atom_site_fract_z
Si Si1 0.562082 0.574448 0.110848
Si Si2 0.165689 0.922853 0.379864
Si Si3 0.668000 0.577616 0.994631
Si Si4 0.455271 0.929438 0.692436
Si Si5 0.888696 0.424870 0.874822
Si Si6 0.165738 0.570515 0.784644
Si Si7 0.114729 0.426760 0.254184
Si Si8 0.527218 0.927138 0.563486
O O1 0.568070 0.750000 0.126327
O O2 0.475315 0.535730 0.111729
O O3 0.611892 0.482598 0.159574
O O4 0.601291 0.551513 0.043222
O O5 0.250000 0.934505 0.401797
O O6 0.143505 0.750000 0.380693
O O7 0.158200 0.986810 0.308782
O O8 0.109738 0.019466 0.420945
O O9 0.750000 0.558213 0.024712
O O10 0.663284 0.750000 0.973466
O O11 0.658203 0.469352 0.935847
O O12 0.452677 0.750000 0.691017
O O13 0.377973 0.981104 0.721455
O O14 0.527169 0.966373 0.735610
O O15 0.476204 0.980337 0.622283
O O16 0.884532 0.250000 0.861301
O O17 0.862547 0.518954 0.814714
O O18 0.250000 0.515613 0.790007
O O19 0.168078 0.750000 0.784875
O O20 0.122589 0.250000 0.262416
O O21 0.524180 0.750000 0.560826
O O22 0.500000 0.000000 0.500000
#
# Coordination Sequence:
#
# PCOD9453411 Si02
#       8
#     8   8   8   8   8   8   8   8
#     4  10  21  37  56  78 105 139 179 224 276 333
#     4  10  21  37  58  86 119 151 188 238 289 334
#     4  10  22  39  55  72 101 142 182 223 277 337
#     4   8  16  32  52  77 108 141 179 219 263 319
#     4  11  22  35  55  82 107 137 180 230 280 329
#     4  10  19  32  54  82 109 139 177 223 274 327
#     4  10  19  34  57  80 108 146 182 223 275 333
#     4  10  20  36  59  85 116 157 199 236 278 329
#
# _framework density 18.812463000000001
#
# number of rings (size 3 to 8) (size 9 to 14) (size 15 to 20)
#    0.000    2.125    1.250    3.000    0.000    3.500 
#    0.000    1.250    0.000    2.250    0.000    0.000 
#    0.000    0.000    0.000    0.000    0.000    0.000 
#
# Total GULP energy -356939.094094 kJ/mol
# GULP energy per Si atom -5577.173345 kJ/mol
# Density = 1.876965 g / cm^3
# Si number density = 18.812463 Si / 1000 Ang^3
#
#
#
# Elastic Constant Matrix: (Units=GPa)
#
#
# Indices 1 2 3 4 5 6 
#
# 1 50.5215 11.6407 17.3063 0.0000 0.0000 0.0000
# 2 11.6407 27.9001 33.7571 0.0000 0.0000 0.0000
# 3 17.3063 33.7571 49.1976 0.0000 0.0000 0.0000
# 4 0.0000 0.0000 0.0000 27.2239 0.0000 0.0000
# 5 0.0000 0.0000 0.0000 0.0000 -11.0883 0.0000
# 6 0.0000 0.0000 0.0000 0.0000 0.0000 22.2314
#
#
#
# Elastic Compliance Matrix: (Units=1/GPa)
#
#
# Indices 1 2 3 4 5 6 
#
# 1 0.022511 0.001112 -0.008682 0.000000 0.000000 0.000000
# 2 0.001112 0.211130 -0.145258 0.000000 0.000000 0.000000
# 3 -0.008682 -0.145258 0.123050 0.000000 0.000000 0.000000
# 4 0.000000 0.000000 0.000000 0.036732 0.000000 0.000000
# 5 0.000000 0.000000 0.000000 0.000000 -0.090185 0.000000
# 6 0.000000 0.000000 0.000000 0.000000 0.000000 0.044981
#
#
# Mechanical properties :
#
#
# Convention : Reuss Voigt Hill
#
# Bulk Modulus (GPa) = 19.59465 28.11417 23.85441
# Shear Modulus (GPa) = 7.45281 12.00108 9.72694
#
# Velocity S-wave (km/s) = 1.99254 2.52847 2.27634
# Velocity P-wave (km/s) = 3.96636 4.84779 4.42906
#
# Compressibility (1/GPa) = 0.05103435
#
# Stress axis : x y z
#
# Youngs Moduli (GPa) = 44.42206 4.73642 8.12680
#
# Poissons Ratio (x) = -0.00527 0.07056
# Poissons Ratio (y) = -0.04940 1.18049
# Poissons Ratio (z) = 0.38567 0.68801
#
# Static dielectric constant tensor:
#      x y z
#    x 1.642110 0.000000 0.000000 
#    y 0.000000 1.634090 0.000000 
#    z 0.000000 0.000000 1.625340 
# 
# From -- ./inp_files/29486.got.cif
#   From: 2010.05.17/outbox.ucp.g08.bks.cvg/sg59_15_cif.got.tgz:29486.got - 2010.06.11 16:43:56.
