data_PCOD9453198
_publ_section_title
;
Structure prediction by ZEFSAII (Michael W. Deem and Ramdas Pophale) SiO2 
 PCOD9453198
Probable space group: P M M N
;
_chemical_formula_sum "Si O2"
_cell_formula_units_Z 56
_cell_length_a 15.592163
_cell_length_b 9.450792
_cell_length_c 19.024850
_cell_angle_alpha 90.000000
_cell_angle_beta 90.000000
_cell_angle_gamma 90.000000
_cell_volume 2803.469351
_symmetry_space_group_name_H-M "P M M N"
_symmetry_group_IT_number 59
_space_group.IT_coordinate_system_code '2'
_symmetry_cell_setting 'orthorhombic'
loop_
_space_group_symop_operation_xyz
x,y,z
1/2-x,1/2-y,z
1/2+x,-y,-z
-x,1/2+y,-z
-x,-y,-z
1/2+x,1/2+y,-z
1/2-x,y,z
x,1/2-y,z
loop_
_atom_site_type_symbol
_atom_site_label
_atom_site_fract_x
_atom_site_fract_y
_atom_site_fract_z
Si Si1 0.645344 0.415218 0.422877
Si Si2 0.852230 0.910796 0.132537
Si Si3 0.089399 0.581062 0.999999
Si Si4 0.645344 0.084781 0.577125
Si Si5 0.147770 0.410796 0.132536
Si Si6 0.145822 0.084300 0.288046
Si Si7 0.354177 0.084300 0.711952
O O1 0.750000 0.422861 0.422454
O O2 0.623055 0.250000 0.417804
O O3 0.617762 0.469248 0.500001
O O4 0.613218 0.497760 0.354735
O O5 0.750000 0.897748 0.138944
O O6 0.884775 0.750000 0.116454
O O7 0.884612 0.956968 0.209705
O O8 0.868032 0.020918 0.070776
O O9 0.084528 0.750000 0.999999
O O10 0.131969 0.520918 0.070774
O O11 0.000000 0.500000 0.000000
O O12 0.750000 0.077136 0.577548
O O13 0.623057 0.250000 0.582198
O O14 0.613217 0.002240 0.645267
O O15 0.250000 0.397747 0.138943
O O16 0.115224 0.250000 0.116452
O O17 0.115388 0.456968 0.209704
O O18 0.250000 0.069485 0.288290
O O19 0.127120 0.250000 0.296630
O O20 0.250000 0.069483 0.711709
O O21 0.372879 0.250000 0.703368
#
# Coordination Sequence:
#
# PCOD9453198 Si02
#       7
#     8   8   8   8   8   8   8
#     4   8  13  20  30  48  79 118 154 188 228 269
#     4   9  18  34  54  74  99 129 159 196 243 289
#     4  12  25  38  53  73  97 125 159 198 241 290
#     4   8  13  20  30  48  79 118 154 188 228 269
#     4   9  18  34  54  74  99 129 159 196 243 289
#     4   8  14  24  39  60  85 116 153 189 227 273
#     4   8  14  24  39  60  85 116 153 189 227 273
#
# _framework density 19.975249999999999
#
# number of rings (size 3 to 8) (size 9 to 14) (size 15 to 20)
#    0.000    3.143    0.000    4.286    0.000    4.000 
#    0.000    5.714    0.000    0.000    0.000    0.000 
#    0.000    1.143    0.000    3.714    0.000    8.286 
#
# Total GULP energy -311930.752029 kJ/mol
# GULP energy per Si atom -5570.192001 kJ/mol
# Density = 1.992979 g / cm^3
# Si number density = 19.975250 Si / 1000 Ang^3
#
#
#
# Elastic Constant Matrix: (Units=GPa)
#
#
# Indices 1 2 3 4 5 6 
#
# 1 15.1977 6.0684 11.8250 0.0000 0.0000 0.0000
# 2 6.0684 100.8102 121.2105 0.0000 0.0000 0.0000
# 3 11.8250 121.2105 236.6124 0.0000 0.0000 0.0000
# 4 0.0000 0.0000 0.0000 78.8410 0.0000 0.0000
# 5 0.0000 0.0000 0.0000 0.0000 -28.7288 0.0000
# 6 0.0000 0.0000 0.0000 0.0000 0.0000 9.7459
#
#
#
# Elastic Compliance Matrix: (Units=1/GPa)
#
#
# Indices 1 2 3 4 5 6 
#
# 1 0.068461 -0.000019 -0.003412 0.000000 0.000000 0.000000
# 2 -0.000019 0.025828 -0.013230 0.000000 0.000000 0.000000
# 3 -0.003412 -0.013230 0.011174 0.000000 0.000000 0.000000
# 4 0.000000 0.000000 0.000000 0.012684 0.000000 0.000000
# 5 0.000000 0.000000 0.000000 0.000000 -0.034808 0.000000
# 6 0.000000 0.000000 0.000000 0.000000 0.000000 0.102607
#
#
# Mechanical properties :
#
#
# Convention : Reuss Voigt Hill
#
# Bulk Modulus (GPa) = 13.86152 70.09203 41.97677
# Shear Modulus (GPa) = 20.54938 26.20605 23.37772
#
# Velocity S-wave (km/s) = 3.21088 3.62598 3.42473
# Velocity P-wave (km/s) = 4.54981 7.25920 6.05792
#
# Compressibility (1/GPa) = 0.07214217
#
# Stress axis : x y z
#
# Youngs Moduli (GPa) = 14.60677 38.71716 89.49073
#
# Poissons Ratio (x) = 0.00074 0.30532
# Poissons Ratio (y) = 0.00028 1.18398
# Poissons Ratio (z) = 0.04983 0.51224
#
# Static dielectric constant tensor:
#      x y z
#    x 1.785710 0.000000 0.000000 
#    y 0.000000 1.720180 0.000000 
#    z 0.000000 0.000000 1.862030 
# 
# From -- ./inp_files/28088.got.cif
#   From: 2010.05.17/outbox.cif.g08.bks.cpg/sg59_15_cif.got.tgz:28088.got - 2010.06.03 14:40:33.
