data_PCOD9453843
_publ_section_title
;
Structure prediction by ZEFSAII (Michael W. Deem and Ramdas Pophale) SiO2 
 PCOD9453843
Probable space group: P B C N
;
_chemical_formula_sum "Si O2"
_cell_formula_units_Z 44
_cell_length_a 5.694524
_cell_length_b 22.283259
_cell_length_c 19.001699
_cell_angle_alpha 90.000000
_cell_angle_beta 90.000000
_cell_angle_gamma 90.000000
_cell_volume 2411.174101
_symmetry_space_group_name_H-M "P B C N"
_symmetry_group_IT_number 60
_symmetry_cell_setting 'orthorhombic'
loop_
_space_group_symop_operation_xyz
x,y,z
1/2-x,1/2-y,1/2+z
1/2+x,1/2-y,-z
-x,y,1/2-z
-x,-y,-z
1/2+x,1/2+y,1/2-z
1/2-x,1/2+y,z
x,-y,1/2+z
loop_
_atom_site_type_symbol
_atom_site_label
_atom_site_fract_x
_atom_site_fract_y
_atom_site_fract_z
Si Si1 0.000000 0.117844 0.250000
Si Si2 0.150800 0.584881 0.360448
Si Si3 0.623520 0.797936 0.820953
Si Si4 0.311713 0.019608 0.057386
Si Si5 0.932386 0.908519 0.494373
Si Si6 0.152279 0.771302 0.035863
O O1 0.827576 0.077212 0.203734
O O2 0.850902 0.163039 0.299133
O O3 0.285456 0.584222 0.433919
O O4 0.052850 0.651306 0.349032
O O5 0.938019 0.538443 0.370849
O O6 0.500000 0.772615 0.750000
O O7 0.668838 0.752886 0.884342
O O8 0.192271 0.078413 0.023270
O O9 0.500000 0.000000 0.000000
O O10 0.132940 0.963522 0.057948
O O11 0.883062 0.843024 0.465512
O O12 0.404905 0.754403 0.998534
#
# Coordination Sequence:
#
# PCOD9453843 Si02
#       6
#     4   8   8   8   8   8
#     4  10  20  32  56  82 118 162 196 252 308 378
#     4  10  17  34  52  83 117 147 201 246 309 363
#     4  10  22  37  56  90 123 161 199 254 321 375
#     4   9  19  33  55  84 115 154 194 253 311 358
#     4  10  20  35  56  87 119 151 199 262 302 365
#     4  12  24  38  63  96 125 158 211 264 309 376
#
# _framework density 18.248370000000001
#
# number of rings (size 3 to 8) (size 9 to 14) (size 15 to 20)
#    0.000    1.818    1.818    3.273    5.091    0.000 
#    0.000    0.000    0.000    0.000   92.182    0.000 
#    0.000    0.000    0.000    0.000    0.000    0.000 
#
# Total GULP energy -245061.483155 kJ/mol
# GULP energy per Si atom -5569.579163 kJ/mol
# Density = 1.820684 g / cm^3
# Si number density = 18.248370 Si / 1000 Ang^3
#
#
#
# Elastic Constant Matrix: (Units=GPa)
#
#
# Indices 1 2 3 4 5 6 
#
# 1 81.5228 17.3665 43.1801 0.0000 0.0000 0.0000
# 2 17.3665 73.6398 50.0548 0.0000 0.0000 0.0000
# 3 43.1801 50.0548 114.4491 0.0000 0.0000 0.0000
# 4 0.0000 0.0000 0.0000 25.9872 0.0000 0.0000
# 5 0.0000 0.0000 0.0000 0.0000 33.8558 0.0000
# 6 0.0000 0.0000 0.0000 0.0000 0.0000 1.4206
#
#
#
# Elastic Compliance Matrix: (Units=1/GPa)
#
#
# Indices 1 2 3 4 5 6 
#
# 1 0.015340 0.000450 -0.005985 0.000000 0.000000 0.000000
# 2 0.000450 0.019338 -0.008627 0.000000 0.000000 0.000000
# 3 -0.005985 -0.008627 0.014769 0.000000 0.000000 0.000000
# 4 0.000000 0.000000 0.000000 0.038481 0.000000 0.000000
# 5 0.000000 0.000000 0.000000 0.000000 0.029537 0.000000
# 6 0.000000 0.000000 0.000000 0.000000 0.000000 0.703947
#
#
# Mechanical properties :
#
#
# Convention : Reuss Voigt Hill
#
# Bulk Modulus (GPa) = 47.34118 54.53494 50.93806
# Shear Modulus (GPa) = 5.83584 22.85339 14.34462
#
# Velocity S-wave (km/s) = 1.79024 3.54270 2.80675
# Velocity P-wave (km/s) = 5.50202 6.83257 6.20307
#
# Compressibility (1/GPa) = 0.02112326
#
# Stress axis : x y z
#
# Youngs Moduli (GPa) = 65.18699 51.71283 67.71142
#
# Poissons Ratio (x) = -0.02328 0.40523
# Poissons Ratio (y) = -0.02934 0.58416
# Poissons Ratio (z) = 0.39012 0.44614
#
# Static dielectric constant tensor:
#      x y z
#    x 2.041200 0.000000 0.000000 
#    y 0.000000 1.617500 0.000000 
#    z 0.000000 0.000000 1.532100 
# 
# From -- ./inp_files/18654.got.cif
#   From: 2010.05.17/outbox.cif.g08.bks.cpg/sg60_10_cif.got.tgz:18654.got - 2010.06.03 14:59:27.
